REMARK  4 active torsions:
REMARK  status: ('A' for Active; 'I' for Inactive)
REMARK    1  A    between atoms: N1_2  and  S1_4 
REMARK    2  A    between atoms: S1_4  and  N2_7 
REMARK       I    between atoms: N2_7  and  C2_9 
REMARK    3  A    between atoms: C2_9  and  C3_11 
REMARK    4  A    between atoms: C5_16  and  N4_17 
ROOT
HETATM    1  C3  UNL     1      -0.983  -0.252  -0.076  1.00  0.00     0.251 C 
HETATM    2  N3  UNL     1      -1.514   1.043   0.261  1.00  0.00    -0.336 N 
ATOM      3  H3  UNL     1      -0.890   1.721   0.699  1.00  0.00     0.164 HD
HETATM    4  C4  UNL     1      -2.864   1.428   0.016  1.00  0.00     0.260 C 
HETATM    5  O4  UNL     1      -3.244   2.606   0.343  1.00  0.00    -0.270 OA
HETATM    6  C5  UNL     1      -3.844   0.512  -0.606  1.00  0.00     0.346 C 
HETATM    7  S2  UNL     1      -3.237  -0.053  -2.240  1.00  0.00    -0.052 SA
HETATM    8  S3  UNL     1      -1.163  -0.499  -1.884  1.00  0.00    -0.060 SA
ENDROOT
BRANCH   1   9
HETATM    9  C2  UNL     1       0.463  -0.275   0.234  1.00  0.00     0.266 C 
HETATM   10  N2  UNL     1       1.269  -1.424   0.022  1.00  0.00    -0.235 N 
ATOM     11  H2  UNL     1       0.842  -2.269  -0.358  1.00  0.00     0.183 HD
HETATM   12  O3  UNL     1       0.995   0.762   0.700  1.00  0.00    -0.269 OA
BRANCH  10  13
HETATM   13  S1  UNL     1       2.937  -1.426   0.388  1.00  0.00     0.321 S 
HETATM   14  O1  UNL     1       3.724  -1.941  -0.804  1.00  0.00    -0.182 OA
HETATM   15  O2  UNL     1       3.173  -2.393   1.518  1.00  0.00    -0.182 OA
BRANCH  13  16
HETATM   16  N1  UNL     1       3.580   0.082   0.818  1.00  0.00    -0.307 N 
HETATM   17  C1  UNL     1       4.034   0.897  -0.250  1.00  0.00     0.161 C 
ATOM     18  H1  UNL     1       3.637   0.386   1.790  1.00  0.00     0.173 HD
ENDBRANCH  13  16
ENDBRANCH  10  13
ENDBRANCH   1   9
BRANCH   6  19
HETATM   19  N4  UNL     1      -3.984  -0.663   0.233  1.00  0.00    -0.057 N 
ATOM     20  H43 UNL     1      -3.090  -1.117   0.419  1.00  0.00     0.276 HD
ATOM     21  H42 UNL     1      -4.227  -0.428   1.195  1.00  0.00     0.276 HD
ATOM     22  H41 UNL     1      -4.660  -1.295  -0.196  1.00  0.00     0.276 HD
ENDBRANCH   6  19
TORSDOF 4
