REMARK  7 active torsions:
REMARK  status: ('A' for Active; 'I' for Inactive)
REMARK    1  A    between atoms: C2_3  and  O1_4 
REMARK    2  A    between atoms: C2_3  and  C3_6 
REMARK    3  A    between atoms: C2_3  and  C11_21 
REMARK       I    between atoms: C3_6  and  N2_8 
REMARK    4  A    between atoms: N3_11  and  C6_12 
REMARK    5  A    between atoms: C11_21  and  O3_22 
REMARK    6  A    between atoms: C11_21  and  C12_24 
REMARK    7  A    between atoms: C12_24  and  O4_25 
ROOT
HETATM    1  N1  UNL     1       2.880   3.739  -0.768  1.00  0.00    -0.193 NA
HETATM    2  C1  UNL     1       2.832   2.622  -0.478  1.00  0.00     0.111 C 
HETATM    3  C2  UNL     1       2.745   1.190  -0.102  1.00  0.00     0.256 C 
ENDROOT
BRANCH   3   4
HETATM    4  O1  UNL     1       2.331   1.068   1.196  1.00  0.00    -0.366 OA
ATOM      5  H1  UNL     1       2.275   0.151   1.437  1.00  0.00     0.212 HD
ENDBRANCH   3   4
BRANCH   3   6
HETATM    6  C3  UNL     1       1.859   0.557  -1.107  1.00  0.00     0.272 C 
HETATM    7  O2  UNL     1       2.265   0.683  -2.314  1.00  0.00    -0.269 OA
HETATM    8  N2  UNL     1       0.670  -0.130  -0.806  1.00  0.00    -0.345 N 
HETATM    9  C4  UNL     1      -0.097  -0.701  -1.904  1.00  0.00     0.146 C 
HETATM   10  C10 UNL     1       0.171  -0.299   0.531  1.00  0.00     0.146 C 
HETATM   11  C5  UNL     1      -1.504  -0.152  -1.793  1.00  0.00     0.145 C 
HETATM   12  N3  UNL     1      -2.006  -0.496  -0.477  1.00  0.00    -0.350 N 
HETATM   13  C9  UNL     1      -1.142  -1.086   0.531  1.00  0.00     0.145 C 
BRANCH  12  14
HETATM   14  C6  UNL     1      -3.387  -0.242  -0.183  1.00  0.00     0.173 C 
HETATM   15  N4  UNL     1      -3.811   0.804   0.431  1.00  0.00    -0.361 N 
HETATM   16  C7  UNL     1      -5.246   0.762   0.571  1.00  0.00     0.142 C 
ATOM     17  H4  UNL     1      -3.216   1.559   0.772  1.00  0.00     0.162 HD
HETATM   18  C8  UNL     1      -5.572  -0.687   0.302  1.00  0.00     0.142 C 
HETATM   19  N5  UNL     1      -4.458  -1.097  -0.517  1.00  0.00    -0.361 N 
ATOM     20  H5  UNL     1      -4.447  -1.854  -1.201  1.00  0.00     0.162 HD
ENDBRANCH  12  14
ENDBRANCH   3   6
BRANCH   3  21
HETATM   21  C11 UNL     1       4.158   0.655  -0.194  1.00  0.00     0.200 C 
BRANCH  21  22
HETATM   22  O3  UNL     1       4.948   1.424   0.665  1.00  0.00    -0.389 OA
ATOM     23  H3  UNL     1       5.835   1.088   0.607  1.00  0.00     0.210 HD
ENDBRANCH  21  22
BRANCH  21  24
HETATM   24  C12 UNL     1       4.250  -0.782   0.244  1.00  0.00     0.200 C 
BRANCH  24  25
HETATM   25  O4  UNL     1       5.582  -1.162   0.166  1.00  0.00    -0.398 OA
ATOM     26  H4  UNL     1       5.640  -2.069   0.442  1.00  0.00     0.209 HD
ENDBRANCH  24  25
ENDBRANCH  21  24
ENDBRANCH   3  21
TORSDOF 7
