REMARK  10 active torsions:
REMARK  status: ('A' for Active; 'I' for Inactive)
REMARK    1  A    between atoms: N1_2  and  C2_5 
REMARK    2  A    between atoms: C2_5  and  C3_6 
REMARK    3  A    between atoms: C4_9  and  C5_10 
REMARK    4  A    between atoms: C5_10  and  N3_11 
REMARK    5  A    between atoms: C5_10  and  C17_29 
REMARK       I    between atoms: N3_11  and  C6_13 
REMARK    6  A    between atoms: C6_13  and  C7_15 
REMARK    7  A    between atoms: C7_15  and  O2_16 
REMARK    8  A    between atoms: O2_16  and  C8_17 
REMARK    9  A    between atoms: C8_17  and  C9_19 
REMARK       I    between atoms: C17_29  and  N4_31 
REMARK   10  A    between atoms: N4_31  and  C18_33 
ROOT
HETATM    1  C5  UNL     1      -0.990   1.178   1.177  1.00  0.00     0.246 C 
ENDROOT
BRANCH   1   2
HETATM    2  C4  UNL     1      -1.902   0.078   0.807  1.00  0.00     0.136 A 
HETATM    3  N2  UNL     1      -1.805  -0.998   0.026  1.00  0.00    -0.323 N 
HETATM    4  C3  UNL     1      -2.977  -1.612   0.032  1.00  0.00     0.184 A 
ATOM      5  H2  UNL     1      -0.974  -1.295  -0.486  1.00  0.00     0.169 HD
HETATM    6  O5  UNL     1      -3.805  -0.925   0.815  1.00  0.00    -0.220 OA
HETATM    7  N5  UNL     1      -3.172   0.069   1.270  1.00  0.00    -0.244 N 
ATOM      8  H5  UNL     1      -3.565   0.768   1.900  1.00  0.00     0.196 HD
BRANCH   4   9
HETATM    9  C2  UNL     1      -3.508  -2.847  -0.634  1.00  0.00     0.191 A 
HETATM   10  C22 UNL     1      -4.661  -2.477  -1.608  1.00  0.00     0.050 A 
HETATM   11  C23 UNL     1      -3.401  -3.119  -2.060  1.00  0.00     0.050 A 
BRANCH   9  12
HETATM   12  N1  UNL     1      -3.936  -3.826   0.353  1.00  0.00    -0.062 N 
HETATM   13  C1  UNL     1      -4.372  -5.066  -0.235  1.00  0.00     0.268 C 
ATOM     14  H12 UNL     1      -4.657  -3.438   0.961  1.00  0.00     0.278 HD
ATOM     15  H11 UNL     1      -3.204  -3.989   1.045  1.00  0.00     0.278 HD
ENDBRANCH   9  12
ENDBRANCH   4   9
ENDBRANCH   1   2
BRANCH   1  16
HETATM   16  N3  UNL     1       0.366   0.942   1.430  1.00  0.00    -0.339 N 
HETATM   17  C6  UNL     1       1.341   0.016   1.077  1.00  0.00     0.254 C 
HETATM   18  O1  UNL     1       1.109  -0.944   0.326  1.00  0.00    -0.270 OA
ATOM     19  H3  UNL     1       0.749   1.654   2.052  1.00  0.00     0.163 HD
BRANCH  17  20
HETATM   20  C7  UNL     1       2.753   0.145   1.606  1.00  0.00     0.151 A 
HETATM   21  C15 UNL     1       3.125   1.363   2.397  1.00  0.00     0.052 A 
HETATM   22  C16 UNL     1       2.762   0.148   3.120  1.00  0.00     0.052 A 
BRANCH  20  23
HETATM   23  O2  UNL     1       3.770  -0.383   0.864  1.00  0.00    -0.296 OA
BRANCH  23  24
HETATM   24  C8  UNL     1       4.129  -1.624   0.426  1.00  0.00     0.296 C 
HETATM   25  O3  UNL     1       3.368  -2.559   0.760  1.00  0.00    -0.259 OA
BRANCH  24  26
HETATM   26  C9  UNL     1       5.349  -1.785  -0.377  1.00  0.00     0.061 A 
HETATM   27  C10 UNL     1       6.133  -0.698  -0.702  1.00  0.00     0.021 A 
HETATM   28  C11 UNL     1       7.291  -0.778  -1.431  1.00  0.00     0.025 A 
HETATM   29  C12 UNL     1       7.691  -2.029  -1.863  1.00  0.00     0.035 A 
HETATM   30 CL1  UNL     1       9.175  -2.111  -2.805  1.00  0.00    -0.084 Cl
HETATM   31  C13 UNL     1       6.939  -3.142  -1.560  1.00  0.00     0.048 A 
HETATM   32  C14 UNL     1       5.749  -3.013  -0.803  1.00  0.00     0.051 A 
HETATM   33 CL2  UNL     1       4.857  -4.477  -0.453  1.00  0.00    -0.083 Cl
ENDBRANCH  24  26
ENDBRANCH  23  24
ENDBRANCH  20  23
ENDBRANCH  17  20
ENDBRANCH   1  16
BRANCH   1  34
HETATM   34  C17 UNL     1      -1.160   2.179   0.044  1.00  0.00     0.248 C 
HETATM   35  O4  UNL     1      -0.455   1.988  -0.961  1.00  0.00    -0.271 OA
HETATM   36  N4  UNL     1      -2.063   3.213   0.197  1.00  0.00    -0.354 N 
ATOM     37  H4  UNL     1      -2.553   3.222   1.092  1.00  0.00     0.162 HD
BRANCH  36  38
HETATM   38  C18 UNL     1      -2.424   4.274  -0.694  1.00  0.00     0.084 C 
HETATM   39  C19 UNL     1      -2.200   5.663  -0.259  1.00  0.00     0.025 C 
HETATM   40  C20 UNL     1      -3.602   6.013  -0.670  1.00  0.00     0.004 C 
HETATM   41  C21 UNL     1      -3.910   4.543  -0.776  1.00  0.00     0.025 C 
ENDBRANCH  36  38
ENDBRANCH   1  34
TORSDOF 10
