REMARK  11 active torsions:
REMARK  status: ('A' for Active; 'I' for Inactive)
REMARK    1  A    between atoms: C2_2  and  C4_4 
REMARK    2  A    between atoms: C4_4  and  C5_5 
REMARK    3  A    between atoms: C5_5  and  N1_6 
REMARK    4  A    between atoms: C5_5  and  C10_14 
REMARK       I    between atoms: N1_6  and  C6_8 
REMARK    5  A    between atoms: C6_8  and  O2_10 
REMARK    6  A    between atoms: O2_10  and  C7_11 
REMARK    7  A    between atoms: C10_14  and  O3_15 
REMARK    8  A    between atoms: C10_14  and  C11_17 
REMARK    9  A    between atoms: C13_20  and  O5_22 
REMARK   10  A    between atoms: N2_25  and  S1_26 
REMARK   11  A    between atoms: S1_26  and  C16_29 
ROOT
HETATM    1  C11 UNL     1      -0.968  -1.215  -0.098  1.00  0.00     0.241 C 
HETATM    2  O4  UNL     1      -0.802  -1.858   1.142  1.00  0.00    -0.364 OA
HETATM    3  C12 UNL     1      -1.440  -3.071   1.094  1.00  0.00     0.208 C 
HETATM    4  C13 UNL     1      -2.910  -2.810   1.054  1.00  0.00     0.088 C 
HETATM    5  C14 UNL     1      -3.443  -3.052   2.474  1.00  0.00     0.049 C 
HETATM    6  C15 UNL     1      -3.264  -1.410   0.680  1.00  0.00     0.150 C 
HETATM    7  N2  UNL     1      -2.313  -0.689  -0.083  1.00  0.00    -0.173 NA
ENDROOT
BRANCH   1   8
HETATM    8  C10 UNL     1       0.023  -0.129  -0.144  1.00  0.00     0.185 C 
BRANCH   8   9
HETATM    9  C5  UNL     1       1.476  -0.446  -0.113  1.00  0.00     0.119 C 
BRANCH   9  10
HETATM   10  C4  UNL     1       2.136  -1.127  -1.215  1.00  0.00     0.032 C 
BRANCH  10  11
HETATM   11  C2  UNL     1       1.827  -2.510  -1.599  1.00  0.00    -0.021 C 
HETATM   12  C1  UNL     1       2.055  -3.548  -0.527  1.00  0.00     0.009 C 
HETATM   13  C3  UNL     1       2.810  -2.952  -2.723  1.00  0.00     0.009 C 
ENDBRANCH  10  11
ENDBRANCH   9  10
BRANCH   9  14
HETATM   14  N1  UNL     1       2.117   0.914  -0.071  1.00  0.00    -0.330 N 
HETATM   15  C6  UNL     1       2.847   1.356   1.042  1.00  0.00     0.361 C 
HETATM   16  O1  UNL     1       2.971   0.602   2.030  1.00  0.00    -0.238 OA
ATOM     17  H1  UNL     1       2.018   1.533  -0.876  1.00  0.00     0.165 HD
BRANCH  15  18
HETATM   18  O2  UNL     1       3.436   2.602   1.080  1.00  0.00    -0.299 OA
BRANCH  18  19
HETATM   19  C7  UNL     1       4.175   3.109   2.150  1.00  0.00     0.125 C 
HETATM   20  C8  UNL     1       3.523   4.378   2.677  1.00  0.00     0.040 C 
HETATM   21  C9  UNL     1       5.603   3.441   1.770  1.00  0.00     0.040 C 
ENDBRANCH  18  19
ENDBRANCH  15  18
ENDBRANCH   9  14
ENDBRANCH   8   9
BRANCH   8  22
HETATM   22  O3  UNL     1      -0.252   0.646   1.038  1.00  0.00    -0.390 OA
ATOM     23  H3  UNL     1      -1.180   0.848   1.018  1.00  0.00     0.210 HD
ENDBRANCH   8  22
ENDBRANCH   1   8
BRANCH   7  24
HETATM   24  S1  UNL     1      -2.971  -0.233  -1.568  1.00  0.00     0.246 S 
HETATM   25  O6  UNL     1      -2.082  -0.482  -2.750  1.00  0.00    -0.206 OA
HETATM   26  O7  UNL     1      -4.280  -0.927  -1.882  1.00  0.00    -0.206 OA
BRANCH  24  27
HETATM   27  C16 UNL     1      -3.306   1.501  -1.535  1.00  0.00     0.078 A 
HETATM   28  C17 UNL     1      -4.492   1.961  -0.973  1.00  0.00     0.051 A 
HETATM   29  C18 UNL     1      -4.740   3.303  -0.969  1.00  0.00     0.075 A 
HETATM   30 CL1  UNL     1      -6.223   3.951  -0.275  1.00  0.00    -0.081 Cl
HETATM   31  C19 UNL     1      -3.807   4.157  -1.523  1.00  0.00     0.159 A 
HETATM   32  F1  UNL     1      -4.047   5.502  -1.522  1.00  0.00    -0.203 F 
HETATM   33  C20 UNL     1      -2.634   3.724  -2.081  1.00  0.00     0.075 A 
HETATM   34 CL2  UNL     1      -1.463   4.841  -2.779  1.00  0.00    -0.081 Cl
HETATM   35  C21 UNL     1      -2.396   2.368  -2.078  1.00  0.00     0.051 A 
ENDBRANCH  24  27
ENDBRANCH   7  24
BRANCH   4  36
HETATM   36  O5  UNL     1      -3.506  -3.785   0.245  1.00  0.00    -0.387 OA
ATOM     37  H5  UNL     1      -4.441  -3.619   0.220  1.00  0.00     0.210 HD
ENDBRANCH   4  36
TORSDOF 11
