REMARK  10 active torsions:
REMARK  status: ('A' for Active; 'I' for Inactive)
REMARK    1  A    between atoms: C2_2  and  C4_4 
REMARK    2  A    between atoms: C6_6  and  N1_7 
REMARK    3  A    between atoms: N1_7  and  C7_9 
REMARK    4  A    between atoms: C9_15  and  N4_16 
REMARK    5  A    between atoms: C12_19  and  N5_20 
REMARK    6  A    between atoms: N6_23  and  C15_24 
REMARK    7  A    between atoms: C15_24  and  C16_25 
REMARK    8  A    between atoms: C16_25  and  O1_26 
REMARK    9  A    between atoms: C16_25  and  C17_28 
REMARK   10  A    between atoms: C17_28  and  O2_29 
ROOT
HETATM    1  C7  UNL     1      -3.569   0.013   0.348  1.00  0.00     0.150 A 
HETATM    2  N2  UNL     1      -3.582  -0.656  -0.799  1.00  0.00    -0.336 N 
ATOM      3  H2  UNL     1      -4.442  -1.104  -1.114  1.00  0.00     0.168 HD
HETATM    4  C8  UNL     1      -2.448  -0.748  -1.561  1.00  0.00     0.183 A 
HETATM    5  N3  UNL     1      -1.319  -0.179  -1.178  1.00  0.00    -0.336 N 
ATOM      6  H3  UNL     1      -0.493  -0.271  -1.770  1.00  0.00     0.168 HD
HETATM    7  C9  UNL     1      -1.223   0.532  -0.008  1.00  0.00     0.147 A 
HETATM    8  C22 UNL     1      -2.359   0.620   0.741  1.00  0.00     0.204 A 
HETATM    9  F1  UNL     1      -2.368   1.299   1.897  1.00  0.00    -0.198 F 
ENDROOT
BRANCH   7  10
HETATM   10  N4  UNL     1       0.007   1.133   0.326  1.00  0.00    -0.364 N 
HETATM   11  C10 UNL     1       0.662   1.161   1.591  1.00  0.00     0.126 C 
HETATM   12  C11 UNL     1       1.980   0.440   1.550  1.00  0.00     0.055 C 
HETATM   13  C12 UNL     1       2.496   0.187   0.173  1.00  0.00     0.226 C 
HETATM   14  C20 UNL     1       2.135   1.195  -0.867  1.00  0.00     0.055 C 
HETATM   15  C21 UNL     1       0.773   1.790  -0.764  1.00  0.00     0.126 C 
BRANCH  13  16
HETATM   16  N5  UNL     1       3.934   0.062   0.271  1.00  0.00     0.096 N 
HETATM   17  C13 UNL     1       4.590  -0.102  -0.987  1.00  0.00     0.292 C 
HETATM   18  C14 UNL     1       5.711  -1.071  -0.996  1.00  0.00     0.147 C 
HETATM   19  N6  UNL     1       6.480  -1.192   0.203  1.00  0.00    -0.407 N 
HETATM   20  C18 UNL     1       5.876  -0.731   1.382  1.00  0.00     0.147 C 
HETATM   21  C19 UNL     1       4.358  -0.937   1.225  1.00  0.00     0.292 C 
BRANCH  19  22
HETATM   22  C15 UNL     1       7.872  -0.993   0.012  1.00  0.00     0.150 C 
BRANCH  22  23
HETATM   23  C16 UNL     1       8.246   0.418  -0.346  1.00  0.00     0.159 C 
BRANCH  23  24
HETATM   24  O1  UNL     1       7.971   1.354   0.628  1.00  0.00    -0.392 OA
ATOM     25  H1  UNL     1       8.207   2.246   0.402  1.00  0.00     0.210 HD
ENDBRANCH  23  24
BRANCH  23  26
HETATM   26  C17 UNL     1       9.703   0.465  -0.716  1.00  0.00     0.197 C 
BRANCH  26  27
HETATM   27  O2  UNL     1      10.073   1.721  -1.212  1.00  0.00    -0.398 OA
ATOM     28  H2  UNL     1      10.993   1.751  -1.446  1.00  0.00     0.209 HD
ENDBRANCH  26  27
ENDBRANCH  23  26
ENDBRANCH  22  23
ENDBRANCH  19  22
ENDBRANCH  13  16
ENDBRANCH   7  10
BRANCH   1  29
HETATM   29  N1  UNL     1      -4.606   0.119   1.142  1.00  0.00    -0.340 N 
ATOM     30  H1  UNL     1      -4.530   0.651   2.009  1.00  0.00     0.167 HD
BRANCH  29  31
HETATM   31  C6  UNL     1      -5.844  -0.509   0.798  1.00  0.00     0.036 A 
HETATM   32  C5  UNL     1      -6.973   0.256   0.628  1.00  0.00     0.043 A 
HETATM   33  C4  UNL     1      -8.179  -0.295   0.190  1.00  0.00    -0.009 A 
HETATM   34  C25 UNL     1      -8.227  -1.670  -0.074  1.00  0.00     0.066 A 
HETATM   35  C24 UNL     1      -7.089  -2.412   0.112  1.00  0.00     0.058 A 
HETATM   36 CL2  UNL     1      -9.704  -2.437  -0.598  1.00  0.00    -0.082 Cl
HETATM   37  C23 UNL     1      -5.911  -1.862   0.539  1.00  0.00     0.055 A 
HETATM   38 CL1  UNL     1      -7.161  -4.149  -0.210  1.00  0.00    -0.082 Cl
BRANCH  33  39
HETATM   39  C2  UNL     1      -9.371   0.521  -0.153  1.00  0.00    -0.076 C 
HETATM   40  C1  UNL     1     -10.266   0.865   0.994  1.00  0.00     0.044 C 
HETATM   41  C3  UNL     1      -9.973   0.238  -1.473  1.00  0.00     0.044 C 
ENDBRANCH  33  39
ENDBRANCH  29  31
ENDBRANCH   1  29
TORSDOF 10
