REMARK  9 active torsions:
REMARK  status: ('A' for Active; 'I' for Inactive)
REMARK    1  A    between atoms: C1_2  and  C2_3 
REMARK       I    between atoms: C1_2  and  N2_20 
REMARK    2  A    between atoms: C2_3  and  O2_4 
REMARK    3  A    between atoms: O2_4  and  C3_5 
REMARK    4  A    between atoms: C3_5  and  C4_7 
REMARK    5  A    between atoms: C4_7  and  N1_8 
REMARK       I    between atoms: N1_8  and  C5_10 
REMARK    6  A    between atoms: C5_10  and  C6_12 
REMARK    7  A    between atoms: N2_20  and  C12_22 
REMARK    8  A    between atoms: C14_24  and  C15_25 
REMARK    9  A    between atoms: C18_31  and  N3_32 
ROOT
HETATM    1  O1  UNL     1      -3.597  -2.199  -1.554  1.00  0.00    -0.271 OA
HETATM    2  C1  UNL     1      -2.520  -1.937  -0.966  1.00  0.00     0.246 C 
HETATM    3  N2  UNL     1      -2.404  -0.799  -0.164  1.00  0.00    -0.323 N 
ATOM      4  H2  UNL     1      -1.500  -0.607   0.269  1.00  0.00     0.169 HD
ENDROOT
BRANCH   2   5
HETATM    5  C2  UNL     1      -1.415  -2.907  -1.179  1.00  0.00     0.281 C 
BRANCH   5   6
HETATM    6  O2  UNL     1      -0.223  -2.704  -0.597  1.00  0.00    -0.311 OA
BRANCH   6   7
HETATM    7  C3  UNL     1       0.766  -1.757  -0.752  1.00  0.00     0.277 C 
HETATM    8  O3  UNL     1       0.576  -0.898  -1.628  1.00  0.00    -0.263 OA
BRANCH   7   9
HETATM    9  C4  UNL     1       1.967  -1.812   0.110  1.00  0.00     0.233 C 
BRANCH   9  10
HETATM   10  N1  UNL     1       2.948  -0.807  -0.149  1.00  0.00    -0.348 N 
HETATM   11  C5  UNL     1       4.107  -0.792   0.658  1.00  0.00     0.252 C 
HETATM   12  O4  UNL     1       4.241  -1.666   1.581  1.00  0.00    -0.268 OA
ATOM     13  H1  UNL     1       2.816  -0.122  -0.893  1.00  0.00     0.163 HD
BRANCH  11  14
HETATM   14  C6  UNL     1       5.180   0.177   0.500  1.00  0.00     0.035 A 
HETATM   15  C7  UNL     1       6.240   0.151   1.408  1.00  0.00     0.041 A 
HETATM   16  C8  UNL     1       7.282   1.068   1.290  1.00  0.00     0.036 A 
HETATM   17 CL1  UNL     1       8.609   1.031   2.444  1.00  0.00    -0.084 Cl
HETATM   18  C9  UNL     1       7.295   2.006   0.292  1.00  0.00     0.043 A 
HETATM   19  C10 UNL     1       6.255   2.033  -0.601  1.00  0.00     0.013 A 
HETATM   20 BR1  UNL     1       6.245   3.321  -1.980  1.00  0.00    -0.051 Br
HETATM   21  C11 UNL     1       5.221   1.129  -0.489  1.00  0.00     0.036 A 
ENDBRANCH  11  14
ENDBRANCH   9  10
ENDBRANCH   7   9
ENDBRANCH   6   7
ENDBRANCH   5   6
ENDBRANCH   2   5
BRANCH   3  22
HETATM   22  C12 UNL     1      -3.464   0.103   0.084  1.00  0.00     0.069 A 
HETATM   23  C13 UNL     1      -4.788  -0.316   0.038  1.00  0.00     0.052 A 
HETATM   24  C14 UNL     1      -5.802   0.572   0.397  1.00  0.00     0.064 A 
HETATM   25  C16 UNL     1      -5.577   1.864   0.803  1.00  0.00     0.053 A 
HETATM   26 CL2  UNL     1      -6.897   2.939   1.241  1.00  0.00    -0.083 Cl
HETATM   27  C17 UNL     1      -4.267   2.274   0.847  1.00  0.00     0.063 A 
HETATM   28  C18 UNL     1      -3.224   1.388   0.487  1.00  0.00     0.131 A 
BRANCH  24  29
HETATM   29  C15 UNL     1      -7.201   0.104   0.354  1.00  0.00     0.211 C 
HETATM   30  O5  UNL     1      -8.059   0.419   1.206  1.00  0.00    -0.644 OA
HETATM   31  O6  UNL     1      -7.580  -0.728  -0.680  1.00  0.00    -0.644 OA
ENDBRANCH  24  29
BRANCH  28  32
HETATM   32  N3  UNL     1      -1.926   1.945   0.564  1.00  0.00    -0.113 N 
HETATM   33  O7  UNL     1      -1.074   1.615  -0.265  1.00  0.00    -0.532 OA
HETATM   34  O8  UNL     1      -1.628   2.874   1.525  1.00  0.00    -0.532 OA
ENDBRANCH  28  32
ENDBRANCH   3  22
TORSDOF 9
