REMARK  8 active torsions:
REMARK  status: ('A' for Active; 'I' for Inactive)
REMARK    1  A    between atoms: C3_8  and  C4_9 
REMARK    2  A    between atoms: C4_9  and  N3_10 
REMARK    3  A    between atoms: C7_13  and  C8_14 
REMARK    4  A    between atoms: C8_14  and  C9_15 
REMARK    5  A    between atoms: C9_15  and  N4_16 
REMARK    6  A    between atoms: N4_16  and  C10_18 
REMARK    7  A    between atoms: C15_23  and  C16_24 
REMARK    8  A    between atoms: C16_24  and  C19_27 
ROOT
HETATM    1  C9  UNL     1      -0.757   0.082  -1.749  1.00  0.00     0.116 C 
ENDROOT
BRANCH   1   2
HETATM    2  C8  UNL     1      -2.246  -0.286  -1.818  1.00  0.00     0.026 C 
BRANCH   2   3
HETATM    3  C7  UNL     1      -2.710  -0.898  -0.533  1.00  0.00     0.018 C 
HETATM    4  C6  UNL     1      -4.168  -1.266  -0.597  1.00  0.00     0.037 C 
HETATM    5  C5  UNL     1      -5.107  -0.113  -0.677  1.00  0.00     0.273 C 
HETATM    6  N3  UNL     1      -5.604   0.391   0.557  1.00  0.00     0.096 N 
HETATM    7  C26 UNL     1      -4.914   1.630   0.881  1.00  0.00     0.304 C 
HETATM    8  C25 UNL     1      -3.563   1.352   1.437  1.00  0.00     0.152 A 
HETATM    9  C24 UNL     1      -3.274  -0.070   1.774  1.00  0.00     0.066 A 
HETATM   10  O5  UNL     1      -2.643   1.333   0.363  1.00  0.00    -0.378 OA
HETATM   11  C23 UNL     1      -2.355  -0.001   0.602  1.00  0.00     0.128 A 
BRANCH   6  12
HETATM   12  C4  UNL     1      -6.998   0.682   0.565  1.00  0.00     0.333 C 
BRANCH  12  13
HETATM   13  C3  UNL     1      -7.805  -0.528   0.367  1.00  0.00     0.086 A 
HETATM   14  C2  UNL     1      -9.198  -0.594   0.311  1.00  0.00     0.057 A 
HETATM   15  C1  UNL     1     -10.129   0.572   0.434  1.00  0.00     0.072 C 
HETATM   16  N1  UNL     1      -9.509  -1.878   0.131  1.00  0.00    -0.244 N 
HETATM   17  O1  UNL     1      -8.399  -2.556   0.080  1.00  0.00    -0.157 OA
ATOM     18  H1  UNL     1     -10.451  -2.261   0.048  1.00  0.00     0.196 HD
HETATM   19  N2  UNL     1      -7.393  -1.774   0.217  1.00  0.00    -0.242 N 
ATOM     20  H2  UNL     1      -6.417  -2.070   0.211  1.00  0.00     0.196 HD
ENDBRANCH  12  13
ENDBRANCH   6  12
ENDBRANCH   2   3
ENDBRANCH   1   2
BRANCH   1  21
HETATM   21  N4  UNL     1      -0.064  -1.151  -1.502  1.00  0.00    -0.401 N 
ATOM     22  H4  UNL     1      -0.551  -2.042  -1.402  1.00  0.00     0.155 HD
BRANCH  21  23
HETATM   23  C10 UNL     1       1.354  -1.039  -1.407  1.00  0.00     0.180 C 
HETATM   24  C11 UNL     1       1.829  -0.175  -0.253  1.00  0.00     0.065 C 
HETATM   25  C12 UNL     1       3.304  -0.043  -0.614  1.00  0.00     0.044 C 
HETATM   26  C13 UNL     1       4.040  -1.339  -0.379  1.00  0.00     0.020 C 
HETATM   27  C21 UNL     1       3.970   1.079   0.102  1.00  0.00     0.020 C 
HETATM   28  C22 UNL     1       3.190   0.193  -2.093  1.00  0.00     0.228 C 
HETATM   29  C14 UNL     1       5.554  -1.082  -0.384  1.00  0.00     0.007 C 
HETATM   30  C15 UNL     1       5.873  -0.377   0.890  1.00  0.00     0.004 C 
HETATM   31  C20 UNL     1       4.843   0.639   1.257  1.00  0.00     0.007 C 
HETATM   32  O4  UNL     1       4.013   0.810  -2.793  1.00  0.00    -0.273 OA
HETATM   33  N5  UNL     1       1.981  -0.416  -2.527  1.00  0.00    -0.340 N 
ATOM     34  H5  UNL     1       1.621  -0.409  -3.481  1.00  0.00     0.164 HD
BRANCH  30  35
HETATM   35  C16 UNL     1       7.268   0.176   0.979  1.00  0.00     0.045 C 
HETATM   36  C17 UNL     1       7.564   1.181  -0.111  1.00  0.00     0.027 C 
HETATM   37  C18 UNL     1       7.380   0.916   2.307  1.00  0.00     0.027 C 
BRANCH  35  38
HETATM   38  C19 UNL     1       8.315  -0.845   0.969  1.00  0.00     0.181 C 
HETATM   39  O2  UNL     1       8.017  -2.053   0.936  1.00  0.00    -0.647 OA
HETATM   40  O3  UNL     1       9.639  -0.471   0.995  1.00  0.00    -0.647 OA
ENDBRANCH  35  38
ENDBRANCH  30  35
ENDBRANCH  21  23
ENDBRANCH   1  21
TORSDOF 8
