REMARK  11 active torsions:
REMARK  status: ('A' for Active; 'I' for Inactive)
REMARK    1  A    between atoms: C2_2  and  O2_4 
REMARK    2  A    between atoms: O2_4  and  C3_5 
REMARK    3  A    between atoms: C3_5  and  C4_6 
REMARK    4  A    between atoms: C4_6  and  C6_8 
REMARK    5  A    between atoms: C4_6  and  O4_12 
REMARK    6  A    between atoms: C6_8  and  C7_9 
REMARK    7  A    between atoms: O4_12  and  C8_13 
REMARK    8  A    between atoms: C20_25  and  C21_26 
REMARK    9  A    between atoms: C21_26  and  C22_28 
REMARK   10  A    between atoms: C22_28  and  O6_29 
REMARK   11  A    between atoms: C26_34  and  O7_35 
ROOT
HETATM    1  C8  UNL     1      -2.637  -0.456  -0.299  1.00  0.00     0.123 C 
HETATM    2  C9  UNL     1      -1.758  -1.683  -0.270  1.00  0.00     0.033 C 
HETATM    3  C10 UNL     1      -0.404  -1.381   0.410  1.00  0.00     0.012 C 
HETATM    4  C11 UNL     1       0.437  -0.645  -0.617  1.00  0.00    -0.034 C 
HETATM    5  C12 UNL     1       0.643  -1.704  -1.722  1.00  0.00     0.016 C 
HETATM    6  C13 UNL     1      -0.458   0.399  -1.208  1.00  0.00    -0.004 C 
HETATM    7  C14 UNL     1       0.170   1.693  -1.585  1.00  0.00     0.006 C 
HETATM    8  C15 UNL     1       1.643   1.446  -1.936  1.00  0.00     0.006 C 
HETATM    9  C16 UNL     1       2.255   1.094  -0.620  1.00  0.00    -0.003 C 
HETATM   10  C17 UNL     1       3.733   1.100  -0.598  1.00  0.00    -0.001 C 
HETATM   11  C18 UNL     1       4.349   0.366  -1.754  1.00  0.00     0.006 C 
HETATM   12  C19 UNL     1       5.364  -0.577  -1.203  1.00  0.00     0.013 C 
HETATM   13  C20 UNL     1       5.220  -0.580   0.311  1.00  0.00     0.066 C 
HETATM   14  C23 UNL     1       4.328   0.551   0.673  1.00  0.00    -0.027 C 
HETATM   15  C24 UNL     1       5.125   1.707   1.248  1.00  0.00     0.016 C 
HETATM   16  C25 UNL     1       3.365   0.134   1.726  1.00  0.00     0.042 C 
HETATM   17  C26 UNL     1       1.960  -0.156   1.357  1.00  0.00     0.124 C 
HETATM   18  C27 UNL     1       1.756  -0.234  -0.141  1.00  0.00     0.027 C 
HETATM   19  C28 UNL     1      -1.638   0.731  -0.319  1.00  0.00     0.037 C 
ENDROOT
BRANCH   1  20
HETATM   20  O4  UNL     1      -3.381  -0.400   0.854  1.00  0.00    -0.373 OA
BRANCH  20  21
HETATM   21  C4  UNL     1      -4.731  -0.100   0.660  1.00  0.00     0.087 C 
HETATM   22  C5  UNL     1      -5.365  -0.005   2.020  1.00  0.00     0.049 C 
BRANCH  21  23
HETATM   23  C3  UNL     1      -4.859   1.267   0.002  1.00  0.00     0.216 C 
BRANCH  23  24
HETATM   24  O2  UNL     1      -6.225   1.593  -0.166  1.00  0.00    -0.319 OA
BRANCH  24  25
HETATM   25  C2  UNL     1      -6.597   2.801  -0.745  1.00  0.00     0.254 C 
HETATM   26  C1  UNL     1      -7.969   3.261  -0.975  1.00  0.00     0.126 C 
HETATM   27  O1  UNL     1      -5.640   3.557  -1.099  1.00  0.00    -0.266 OA
ENDBRANCH  24  25
ENDBRANCH  23  24
ENDBRANCH  21  23
BRANCH  21  28
HETATM   28  C6  UNL     1      -5.459  -1.070  -0.198  1.00  0.00     0.139 C 
BRANCH  28  29
HETATM   29  C7  UNL     1      -5.446  -2.458   0.301  1.00  0.00     0.234 C 
HETATM   30  N1  UNL     1      -5.110  -3.506  -0.589  1.00  0.00    -0.062 NA
HETATM   31  O3  UNL     1      -5.722  -2.766   1.508  1.00  0.00    -0.277 OA
ENDBRANCH  28  29
ENDBRANCH  21  28
ENDBRANCH  20  21
ENDBRANCH   1  20
BRANCH  17  32
HETATM   32  O7  UNL     1       1.184   0.908   1.870  1.00  0.00    -0.395 OA
ATOM     33  H7  UNL     1       0.283   0.722   1.633  1.00  0.00     0.210 HD
ENDBRANCH  17  32
BRANCH  13  34
HETATM   34  C21 UNL     1       6.560  -0.647   0.870  1.00  0.00     0.154 C 
HETATM   35  O5  UNL     1       7.039   0.186   1.588  1.00  0.00    -0.295 OA
BRANCH  34  36
HETATM   36  C22 UNL     1       7.473  -1.808   0.573  1.00  0.00     0.242 C 
BRANCH  36  37
HETATM   37  O6  UNL     1       6.739  -2.767  -0.105  1.00  0.00    -0.394 OA
ATOM     38  H6  UNL     1       7.315  -3.499  -0.292  1.00  0.00     0.209 HD
ENDBRANCH  36  37
ENDBRANCH  34  36
ENDBRANCH  13  34
TORSDOF 11
