REMARK  10 active torsions:
REMARK  status: ('A' for Active; 'I' for Inactive)
REMARK    1  A    between atoms: N1_6  and  C6_7 
REMARK    2  A    between atoms: C6_7  and  C7_8 
REMARK    3  A    between atoms: C7_8  and  C8_9 
REMARK    4  A    between atoms: C8_9  and  N2_10 
REMARK    5  A    between atoms: C9_11  and  O1_12 
REMARK    6  A    between atoms: C12_16  and  O2_17 
REMARK    7  A    between atoms: C13_19  and  C14_20 
REMARK    8  A    between atoms: N3_21  and  N4_23 
REMARK       I    between atoms: N4_23  and  C15_25 
REMARK       I    between atoms: C15_25  and  N5_27 
REMARK    9  A    between atoms: N6_30  and  C18_31 
REMARK   10  A    between atoms: C18_31  and  C19_32 
ROOT
HETATM    1  N2  UNL     1      -3.621   1.130   0.364  1.00  0.00    -0.308 N 
HETATM    2  C9  UNL     1      -2.831   2.212   0.237  1.00  0.00     0.151 A 
HETATM    3  C10 UNL     1      -1.555   1.838  -0.210  1.00  0.00     0.008 A 
HETATM    4  C11 UNL     1      -1.625   0.478  -0.344  1.00  0.00     0.016 A 
HETATM    5  C12 UNL     1      -2.904   0.052   0.012  1.00  0.00     0.152 A 
HETATM    6  C13 UNL     1      -0.413  -0.280  -0.817  1.00  0.00     0.086 C 
HETATM    7  C25 UNL     1       0.452   0.593  -1.615  1.00  0.00    -0.016 C 
HETATM    8  C26 UNL     1       0.502   1.909  -1.486  1.00  0.00    -0.025 C 
HETATM    9  C27 UNL     1      -0.327   2.613  -0.505  1.00  0.00     0.070 C 
ENDROOT
BRANCH   6  10
HETATM   10  C14 UNL     1       0.223  -0.901   0.349  1.00  0.00     0.093 C 
HETATM   11  N3  UNL     1       1.362  -0.719   0.819  1.00  0.00    -0.311 N 
ATOM     12  H3  UNL     1       1.566  -1.280   1.646  1.00  0.00     0.185 HD
BRANCH  11  13
HETATM   13  N4  UNL     1       2.379   0.088   0.432  1.00  0.00    -0.252 N 
HETATM   14  C15 UNL     1       3.457  -0.364  -0.414  1.00  0.00     0.338 C 
HETATM   15  O3  UNL     1       3.416  -1.560  -0.787  1.00  0.00    -0.245 OA
HETATM   16  N5  UNL     1       4.514   0.509  -0.806  1.00  0.00    -0.305 N 
HETATM   17  C16 UNL     1       4.705   1.903  -0.466  1.00  0.00     0.159 C 
HETATM   18  C24 UNL     1       5.631   0.142  -1.648  1.00  0.00     0.401 C 
HETATM   19  C17 UNL     1       6.173   2.148  -0.790  1.00  0.00     0.294 C 
HETATM   20  N6  UNL     1       6.740   0.806  -0.972  1.00  0.00     0.107 N 
ATOM     21  H4  UNL     1       2.383   1.056   0.752  1.00  0.00     0.191 HD
BRANCH  20  22
HETATM   22  C18 UNL     1       6.967   0.275   0.343  1.00  0.00     0.279 C 
BRANCH  22  23
HETATM   23  C19 UNL     1       7.553  -1.119   0.282  1.00  0.00     0.014 C 
HETATM   24  C20 UNL     1       7.795  -1.682   1.662  1.00  0.00     0.006 C 
HETATM   25  C21 UNL     1       8.703  -2.867   1.356  1.00  0.00     0.000 C 
HETATM   26  C22 UNL     1       9.490  -2.478   0.125  1.00  0.00     0.000 C 
HETATM   27  C23 UNL     1       8.937  -1.126  -0.318  1.00  0.00     0.006 C 
ENDBRANCH  22  23
ENDBRANCH  20  22
ENDBRANCH  11  13
ENDBRANCH   6  10
BRANCH   5  28
HETATM   28  O2  UNL     1      -3.269  -1.285  -0.025  1.00  0.00    -0.345 OA
ATOM     29  H2  UNL     1      -2.761  -2.048  -0.274  1.00  0.00     0.219 HD
ENDBRANCH   5  28
BRANCH   2  30
HETATM   30  O1  UNL     1      -3.210   3.504   0.505  1.00  0.00    -0.345 OA
ATOM     31  H1  UNL     1      -2.652   4.268   0.415  1.00  0.00     0.219 HD
ENDBRANCH   2  30
BRANCH   1  32
HETATM   32  C8  UNL     1      -5.020   1.112   0.809  1.00  0.00     0.135 C 
BRANCH  32  33
HETATM   33  C7  UNL     1      -5.880   1.271  -0.405  1.00  0.00     0.050 C 
BRANCH  33  34
HETATM   34  C6  UNL     1      -7.343   1.296  -0.141  1.00  0.00     0.274 C 
BRANCH  34  35
HETATM   35  N1  UNL     1      -7.764   0.075   0.477  1.00  0.00     0.092 N 
HETATM   36  C2  UNL     1      -7.680  -1.039  -0.415  1.00  0.00     0.219 C 
HETATM   37  C1  UNL     1      -6.792  -2.156   0.067  1.00  0.00     0.043 C 
HETATM   38  C3  UNL     1      -9.088  -1.618  -0.502  1.00  0.00     0.037 C 
HETATM   39  C4  UNL     1      -9.654  -1.217   0.868  1.00  0.00     0.032 C 
HETATM   40  C5  UNL     1      -9.095   0.176   0.993  1.00  0.00     0.273 C 
ENDBRANCH  34  35
ENDBRANCH  33  34
ENDBRANCH  32  33
ENDBRANCH   1  32
TORSDOF 10
