REMARK  10 active torsions:
REMARK  status: ('A' for Active; 'I' for Inactive)
REMARK    1  A    between atoms: C2_2  and  C3_6 
REMARK    2  A    between atoms: C7_10  and  C8_11 
REMARK    3  A    between atoms: N2_14  and  C9_15 
REMARK    4  A    between atoms: C9_15  and  O3_16 
REMARK    5  A    between atoms: C9_15  and  C10_18 
REMARK    6  A    between atoms: C10_18  and  C11_19 
REMARK    7  A    between atoms: C10_18  and  N3_26 
REMARK    8  A    between atoms: C11_19  and  C12_20 
REMARK    9  A    between atoms: C18_28  and  C19_29 
REMARK   10  A    between atoms: N5_35  and  C23_37 
ROOT
HETATM    1  C10 UNL     1       0.410   1.197   0.293  1.00  0.00     0.167 C 
ENDROOT
BRANCH   1   2
HETATM    2  C9  UNL     1      -0.465   0.297   1.060  1.00  0.00     0.139 C 
BRANCH   2   3
HETATM    3  N2  UNL     1      -1.358  -0.693   0.674  1.00  0.00    -0.339 N 
HETATM    4  C3  UNL     1      -2.093  -1.444   1.660  1.00  0.00     0.132 C 
HETATM    5  C4  UNL     1      -2.941  -2.543   1.051  1.00  0.00     0.031 C 
HETATM    6  C5  UNL     1      -2.110  -3.371   0.120  1.00  0.00     0.005 C 
HETATM    7  C6  UNL     1      -1.364  -2.567  -0.889  1.00  0.00     0.036 C 
HETATM    8  C7  UNL     1      -1.552  -1.048  -0.702  1.00  0.00     0.188 C 
BRANCH   4   9
HETATM    9  C2  UNL     1      -2.922  -0.722   2.618  1.00  0.00    -0.001 C 
HETATM   10  C1  UNL     1      -3.456  -1.568   3.766  1.00  0.00     0.065 C 
HETATM   11  N1  UNL     1      -3.272   0.487   2.648  1.00  0.00    -0.404 N 
ATOM     12  H12 UNL     1      -3.852   0.992   3.318  1.00  0.00     0.155 HD
ATOM     13  H11 UNL     1      -2.914   1.054   1.879  1.00  0.00     0.155 HD
ENDBRANCH   4   9
BRANCH   8  14
HETATM   14  C8  UNL     1      -2.795  -0.596  -1.338  1.00  0.00     0.196 C 
HETATM   15  O1  UNL     1      -3.065  -1.041  -2.479  1.00  0.00    -0.646 OA
HETATM   16  O2  UNL     1      -3.647   0.276  -0.739  1.00  0.00    -0.646 OA
ENDBRANCH   8  14
ENDBRANCH   2   3
BRANCH   2  17
HETATM   17  O3  UNL     1      -0.422   0.424   2.382  1.00  0.00    -0.348 OA
ATOM     18  H3  UNL     1       0.189   1.102   2.646  1.00  0.00     0.219 HD
ENDBRANCH   2  17
ENDBRANCH   1   2
BRANCH   1  19
HETATM   19  C11 UNL     1      -0.303   2.103  -0.665  1.00  0.00     0.039 C 
BRANCH  19  20
HETATM   20  C12 UNL     1      -1.337   2.972   0.073  1.00  0.00    -0.008 C 
HETATM   21  C13 UNL     1      -1.977   3.833  -1.019  1.00  0.00     0.031 C 
HETATM   22  C14 UNL     1      -2.904   4.854  -0.433  1.00  0.00     0.168 C 
HETATM   23  O4  UNL     1      -2.333   5.588   0.582  1.00  0.00    -0.391 OA
HETATM   24  C15 UNL     1      -0.979   5.375   0.708  1.00  0.00     0.168 C 
HETATM   25  C16 UNL     1      -0.659   3.925   1.034  1.00  0.00     0.031 C 
ENDBRANCH  19  20
ENDBRANCH   1  19
BRANCH   1  26
HETATM   26  N3  UNL     1       1.414   0.427  -0.408  1.00  0.00    -0.307 N 
HETATM   27  C17 UNL     1       1.833   0.870  -1.630  1.00  0.00     0.120 A 
HETATM   28  C18 UNL     1       2.810   0.231  -2.363  1.00  0.00     0.030 A 
HETATM   29  N4  UNL     1       3.347  -0.860  -1.832  1.00  0.00    -0.340 N 
HETATM   30  C22 UNL     1       2.953  -1.342  -0.603  1.00  0.00     0.171 A 
ATOM     31  H4  UNL     1       4.073  -1.356  -2.349  1.00  0.00     0.167 HD
HETATM   32  N5  UNL     1       3.534  -2.397  -0.189  1.00  0.00    -0.367 N 
HETATM   33  C27 UNL     1       1.977  -0.686   0.107  1.00  0.00     0.292 A 
ATOM     34  H5  UNL     1       4.245  -2.800  -0.799  1.00  0.00     0.161 HD
HETATM   35  O5  UNL     1       1.577  -1.064   1.218  1.00  0.00    -0.264 OA
BRANCH  28  36
HETATM   36  C19 UNL     1       3.209   0.768  -3.685  1.00  0.00     0.037 A 
HETATM   37  C20 UNL     1       2.673   1.977  -4.288  1.00  0.00     0.011 A 
HETATM   38  C21 UNL     1       2.161   0.646  -4.764  1.00  0.00     0.011 A 
ENDBRANCH  28  36
BRANCH  32  39
HETATM   39  C23 UNL     1       3.292  -3.059   1.025  1.00  0.00     0.083 C 
HETATM   40  C24 UNL     1       4.048  -2.628   2.235  1.00  0.00     0.025 C 
HETATM   41  C25 UNL     1       4.251  -4.111   2.578  1.00  0.00     0.004 C 
HETATM   42  C26 UNL     1       4.134  -4.371   1.095  1.00  0.00     0.025 C 
ENDBRANCH  32  39
ENDBRANCH   1  26
TORSDOF 10
