REMARK  11 active torsions:
REMARK  status: ('A' for Active; 'I' for Inactive)
REMARK    1  A    between atoms: C9_10  and  C10_11 
REMARK    2  A    between atoms: C10_11  and  O2_12 
REMARK    3  A    between atoms: C10_11  and  C11_14 
REMARK    4  A    between atoms: C11_14  and  C12_15 
REMARK    5  A    between atoms: C12_15  and  C13_16 
REMARK    6  A    between atoms: C13_16  and  C14_17 
REMARK    7  A    between atoms: C14_17  and  O3_20 
REMARK    8  A    between atoms: C17_22  and  O4_23 
REMARK    9  A    between atoms: O4_23  and  C18_24 
REMARK   10  A    between atoms: C18_24  and  C19_26 
REMARK   11  A    between atoms: C19_26  and  N1_27 
ROOT
HETATM    1  C1  UNL     1      -3.771  -5.734  -0.016  1.00  0.00     0.020 C 
HETATM    2  C2  UNL     1      -2.662  -4.687  -0.204  1.00  0.00     0.074 C 
HETATM    3  C3  UNL     1      -3.102  -3.791  -1.297  1.00  0.00     0.027 C 
HETATM    4  C4  UNL     1      -2.212  -2.551  -1.431  1.00  0.00     0.067 C 
HETATM    5  C5  UNL     1      -0.841  -3.064  -1.155  1.00  0.00     0.132 C 
HETATM    6  O1  UNL     1      -0.388  -3.859  -1.996  1.00  0.00    -0.298 OA
HETATM    7  C6  UNL     1       0.023  -2.751  -0.034  1.00  0.00     0.090 C 
HETATM    8  C7  UNL     1      -0.399  -1.418   0.559  1.00  0.00    -0.008 C 
HETATM    9  C8  UNL     1       0.191  -1.466   1.929  1.00  0.00     0.018 C 
HETATM   10  C9  UNL     1      -0.048  -0.306  -0.328  1.00  0.00     0.055 C 
HETATM   11  C17 UNL     1      -1.206   0.664  -0.618  1.00  0.00     0.147 C 
HETATM   12  C22 UNL     1      -2.436  -0.041  -1.111  1.00  0.00    -0.010 C 
HETATM   13  C23 UNL     1      -2.473  -0.149  -2.629  1.00  0.00     0.018 C 
HETATM   14  C24 UNL     1      -3.624   0.897  -0.847  1.00  0.00     0.018 C 
HETATM   15  C25 UNL     1      -2.629  -1.420  -0.573  1.00  0.00    -0.003 C 
HETATM   16  C26 UNL     1      -4.124  -1.555  -0.253  1.00  0.00     0.019 C 
HETATM   17  C27 UNL     1      -1.924  -1.565   0.751  1.00  0.00     0.103 C 
HETATM   18  N2  UNL     1      -2.256  -2.745   1.480  1.00  0.00    -0.355 N 
ATOM     19  H2  UNL     1      -2.425  -2.578   2.472  1.00  0.00     0.162 HD
HETATM   20  C28 UNL     1      -2.399  -4.118   1.097  1.00  0.00     0.221 C 
HETATM   21  O6  UNL     1      -2.279  -4.947   2.029  1.00  0.00    -0.273 OA
ENDROOT
BRANCH  10  22
HETATM   22  C10 UNL     1       1.157   0.511  -0.110  1.00  0.00     0.125 C 
BRANCH  22  23
HETATM   23  O2  UNL     1       1.257   1.184   1.088  1.00  0.00    -0.395 OA
ATOM     24  H2  UNL     1       2.035   1.711   1.229  1.00  0.00     0.210 HD
ENDBRANCH  22  23
BRANCH  22  25
HETATM   25  C11 UNL     1       2.488  -0.189  -0.297  1.00  0.00     0.032 C 
BRANCH  25  26
HETATM   26  C12 UNL     1       3.645   0.757  -0.050  1.00  0.00     0.006 C 
BRANCH  26  27
HETATM   27  C13 UNL     1       4.969   0.074  -0.237  1.00  0.00     0.037 C 
BRANCH  27  28
HETATM   28  C14 UNL     1       6.099   1.038   0.016  1.00  0.00     0.051 C 
HETATM   29  C15 UNL     1       6.106   2.228  -0.887  1.00  0.00     0.045 C 
HETATM   30  C16 UNL     1       7.431   0.339  -0.123  1.00  0.00     0.045 C 
BRANCH  28  31
HETATM   31  O3  UNL     1       5.975   1.462   1.352  1.00  0.00    -0.391 OA
ATOM     32  H3  UNL     1       6.687   2.070   1.512  1.00  0.00     0.210 HD
ENDBRANCH  28  31
ENDBRANCH  27  28
ENDBRANCH  26  27
ENDBRANCH  25  26
ENDBRANCH  22  25
ENDBRANCH  10  22
BRANCH  11  33
HETATM   33  O4  UNL     1      -1.367   1.682   0.259  1.00  0.00    -0.313 OA
BRANCH  33  34
HETATM   34  C18 UNL     1      -1.199   3.010   0.222  1.00  0.00     0.287 C 
HETATM   35  O5  UNL     1      -0.795   3.426  -0.881  1.00  0.00    -0.263 OA
BRANCH  34  36
HETATM   36  C19 UNL     1      -1.440   3.962   1.319  1.00  0.00     0.381 C 
BRANCH  36  37
HETATM   37  N1  UNL     1      -1.118   5.312   0.986  1.00  0.00     0.089 N 
HETATM   38  C20 UNL     1       0.271   5.595   0.806  1.00  0.00     0.310 C 
HETATM   39  C21 UNL     1      -1.741   6.283   1.844  1.00  0.00     0.310 C 
ENDBRANCH  36  37
ENDBRANCH  34  36
ENDBRANCH  33  34
ENDBRANCH  11  33
TORSDOF 11
