REMARK  11 active torsions:
REMARK  status: ('A' for Active; 'I' for Inactive)
REMARK    1  A    between atoms: O1_2  and  C2_3 
REMARK    2  A    between atoms: C2_3  and  C3_4 
REMARK    3  A    between atoms: C3_4  and  C4_5 
REMARK    4  A    between atoms: C3_4  and  C5_8 
REMARK    5  A    between atoms: C3_4  and  C6_11 
REMARK    6  A    between atoms: C4_5  and  O2_6 
REMARK    7  A    between atoms: C5_8  and  O3_9 
REMARK    8  A    between atoms: C6_11  and  O4_12 
REMARK    9  A    between atoms: O4_12  and  C7_13 
REMARK   10  A    between atoms: C24_31  and  C25_32 
REMARK   11  A    between atoms: C28_36  and  N1_37 
ROOT
HETATM    1  C7  UNL     1       1.066   1.018  -0.345  1.00  0.00     0.133 C 
HETATM    2  C8  UNL     1      -0.202   1.133   0.403  1.00  0.00     0.025 C 
HETATM    3  C9  UNL     1      -0.814   2.265  -0.440  1.00  0.00     0.008 C 
HETATM    4  C10 UNL     1      -2.194   2.408  -0.042  1.00  0.00     0.007 C 
HETATM    5  C11 UNL     1      -2.949   1.189  -0.586  1.00  0.00     0.011 C 
HETATM    6  C12 UNL     1      -2.262  -0.119  -0.319  1.00  0.00    -0.029 C 
HETATM    7  C13 UNL     1      -1.720  -0.594  -1.685  1.00  0.00     0.016 C 
HETATM    8  C14 UNL     1      -1.083  -0.028   0.588  1.00  0.00     0.005 C 
HETATM    9  C15 UNL     1      -1.455  -0.031   2.078  1.00  0.00     0.033 C 
HETATM   10  C16 UNL     1      -2.780  -0.573   2.357  1.00  0.00    -0.022 C 
HETATM   11  C17 UNL     1      -3.626  -1.040   1.491  1.00  0.00    -0.068 C 
HETATM   12  C18 UNL     1      -4.959  -1.575   1.896  1.00  0.00     0.113 C 
HETATM   13  C19 UNL     1      -5.025  -2.894   1.138  1.00  0.00     0.130 C 
HETATM   14  O5  UNL     1      -6.094  -3.392   0.939  1.00  0.00    -0.298 OA
HETATM   15  C20 UNL     1      -3.705  -3.428   0.720  1.00  0.00     0.079 C 
HETATM   16  C21 UNL     1      -3.016  -2.547  -0.337  1.00  0.00     0.022 C 
HETATM   17  C22 UNL     1      -3.315  -1.110   0.054  1.00  0.00    -0.013 C 
HETATM   18  C23 UNL     1      -4.560  -0.740  -0.784  1.00  0.00     0.021 C 
HETATM   19  C24 UNL     1       0.202   3.305  -0.155  1.00  0.00     0.025 C 
HETATM   20  C26 UNL     1       0.173   4.403  -1.158  1.00  0.00     0.020 C 
HETATM   21  C27 UNL     1       1.153   4.085  -2.235  1.00  0.00     0.034 C 
HETATM   22  C28 UNL     1       1.935   2.877  -1.802  1.00  0.00     0.191 C 
HETATM   23  C29 UNL     1       1.493   2.505  -0.427  1.00  0.00     0.061 C 
ENDROOT
BRANCH   1  24
HETATM   24  O4  UNL     1       2.045   0.261   0.261  1.00  0.00    -0.384 OA
BRANCH  24  25
HETATM   25  C6  UNL     1       2.570  -0.642  -0.651  1.00  0.00     0.184 C 
BRANCH  25  26
HETATM   26  C3  UNL     1       3.643  -1.509  -0.078  1.00  0.00     0.045 C 
BRANCH  26  27
HETATM   27  C2  UNL     1       3.158  -2.327   1.073  1.00  0.00     0.183 C 
BRANCH  27  28
HETATM   28  O1  UNL     1       4.150  -3.190   1.507  1.00  0.00    -0.395 OA
HETATM   29  C1  UNL     1       3.705  -3.960   2.585  1.00  0.00     0.201 C 
ENDBRANCH  27  28
ENDBRANCH  26  27
BRANCH  26  30
HETATM   30  C4  UNL     1       4.856  -0.695   0.366  1.00  0.00     0.180 C 
BRANCH  30  31
HETATM   31  O2  UNL     1       4.473   0.119   1.400  1.00  0.00    -0.400 OA
ATOM     32  H2  UNL     1       5.228   0.625   1.676  1.00  0.00     0.209 HD
ENDBRANCH  30  31
ENDBRANCH  26  30
BRANCH  26  33
HETATM   33  C5  UNL     1       4.144  -2.411  -1.203  1.00  0.00     0.180 C 
BRANCH  33  34
HETATM   34  O3  UNL     1       4.597  -1.650  -2.279  1.00  0.00    -0.400 OA
ATOM     35  H3  UNL     1       4.909  -2.211  -2.979  1.00  0.00     0.209 HD
ENDBRANCH  33  34
ENDBRANCH  26  33
ENDBRANCH  25  26
ENDBRANCH  24  25
ENDBRANCH   1  24
BRANCH  19  36
HETATM   36  C25 UNL     1       0.209   3.849   1.193  1.00  0.00     0.241 C 
HETATM   37  O6  UNL     1      -0.742   4.035   1.913  1.00  0.00    -0.306 OA
ENDBRANCH  19  36
BRANCH  22  38
HETATM   38  N1  UNL     1       3.333   3.182  -1.905  1.00  0.00    -0.075 N 
ATOM     39  H13 UNL     1       3.596   3.507  -2.836  1.00  0.00     0.274 HD
ATOM     40  H12 UNL     1       3.590   4.022  -1.387  1.00  0.00     0.274 HD
ATOM     41  H11 UNL     1       3.864   2.362  -1.611  1.00  0.00     0.274 HD
ENDBRANCH  22  38
TORSDOF 11
