REMARK  4 active torsions:
REMARK  status: ('A' for Active; 'I' for Inactive)
REMARK    1  A    between atoms: N1_1  and  C1_5 
REMARK    2  A    between atoms: C1_5  and  C2_6 
REMARK    3  A    between atoms: C2_6  and  C3_8 
REMARK    4  A    between atoms: C3_8  and  C4_9 
ROOT
HETATM    1  C2  UNL     1       1.127   0.105   0.070  1.00  0.00     0.152 C 
HETATM    2  O1  UNL     1       1.377   0.084  -1.116  1.00  0.00    -0.296 OA
ENDROOT
BRANCH   1   3
HETATM    3  C1  UNL     1       2.238   0.606   0.950  1.00  0.00     0.307 C 
BRANCH   3   4
HETATM    4  N1  UNL     1       3.380   0.957   0.181  1.00  0.00    -0.073 N 
ATOM      5  H13 UNL     1       3.688   0.184  -0.409  1.00  0.00     0.274 HD
ATOM      6  H12 UNL     1       3.148   1.629  -0.551  1.00  0.00     0.274 HD
ATOM      7  H11 UNL     1       4.134   1.297   0.778  1.00  0.00     0.274 HD
ENDBRANCH   3   4
ENDBRANCH   1   3
BRANCH   1   8
HETATM    8  C3  UNL     1      -0.140  -0.311   0.687  1.00  0.00     0.086 C 
BRANCH   8   9
HETATM    9  C4  UNL     1      -1.173  -0.679  -0.303  1.00  0.00     0.013 C 
HETATM   10  C5  UNL     1      -2.436  -1.140   0.416  1.00  0.00     0.091 C 
HETATM   11  S1  UNL     1      -3.097   0.354   1.260  1.00  0.00    -0.097 SA
HETATM   12  S2  UNL     1      -2.295   1.743  -0.200  1.00  0.00    -0.097 SA
HETATM   13  C6  UNL     1      -1.588   0.405  -1.249  1.00  0.00     0.091 C 
ENDBRANCH   8   9
ENDBRANCH   1   8
TORSDOF 4
