REMARK  3 active torsions:
REMARK  status: ('A' for Active; 'I' for Inactive)
REMARK    1  A    between atoms: C3_4  and  C4_5 
REMARK    2  A    between atoms: N2_6  and  N3_8 
REMARK       I    between atoms: N3_8  and  C5_10 
REMARK    3  A    between atoms: C5_10  and  C6_12 
ROOT
HETATM    1  N1  UNL     1       6.691  -0.384  -0.500  1.00  0.00    -0.192 NA
HETATM    2  C1  UNL     1       5.530  -0.369  -0.468  1.00  0.00     0.087 C 
HETATM    3  C2  UNL     1       4.102  -0.348  -0.404  1.00  0.00     0.095 C 
HETATM    4  C3  UNL     1       3.445  -0.983   0.551  1.00  0.00     0.029 C 
ENDROOT
BRANCH   4   5
HETATM    5  C4  UNL     1       2.004  -0.960   0.612  1.00  0.00     0.108 C 
HETATM    6  N2  UNL     1       1.302  -0.321  -0.259  1.00  0.00    -0.309 N 
ATOM      7  H2  UNL     1       1.781   0.179  -1.008  1.00  0.00     0.186 HD
BRANCH   6   8
HETATM    8  N3  UNL     1      -0.094  -0.291  -0.211  1.00  0.00    -0.265 N 
HETATM    9  C5  UNL     1      -0.820   0.832   0.232  1.00  0.00     0.293 C 
HETATM   10  O1  UNL     1      -0.199   1.854   0.601  1.00  0.00    -0.264 OA
ATOM     11  H3  UNL     1      -0.610  -1.118  -0.510  1.00  0.00     0.190 HD
BRANCH   9  12
HETATM   12  C6  UNL     1      -2.278   0.832   0.270  1.00  0.00     0.144 A 
HETATM   13  C7  UNL     1      -3.125  -0.216  -0.103  1.00  0.00     0.045 A 
HETATM   14  C8  UNL     1      -4.406   0.250   0.106  1.00  0.00     0.027 A 
HETATM   15  C9  UNL     1      -4.311   1.537   0.590  1.00  0.00     0.143 A 
HETATM   16  O2  UNL     1      -3.036   1.820   0.663  1.00  0.00    -0.317 OA
ENDBRANCH   9  12
ENDBRANCH   6   8
ENDBRANCH   4   5
TORSDOF 3
