REMARK  3 active torsions:
REMARK  status: ('A' for Active; 'I' for Inactive)
REMARK    1  A    between atoms: C2_3  and  C3_4 
REMARK    2  A    between atoms: C3_4  and  C4_5 
REMARK       I    between atoms: C4_5  and  N2_7 
REMARK    3  A    between atoms: N2_7  and  O2_9 
ROOT
HETATM    1  N1  UNL     1      -1.234   0.873  -2.977  1.00  0.00    -0.194 NA
HETATM    2  C1  UNL     1      -0.766   0.528  -1.968  1.00  0.00     0.098 C 
HETATM    3  C2  UNL     1      -0.161   0.060  -0.686  1.00  0.00     0.157 C 
HETATM    4  C5  UNL     1      -0.532   1.141   0.297  1.00  0.00     0.054 C 
HETATM    5  C6  UNL     1      -2.065   1.095   0.389  1.00  0.00     0.006 C 
HETATM    6  C7  UNL     1      -2.348  -0.239   1.046  1.00  0.00     0.026 C 
HETATM    7  C8  UNL     1      -1.874  -1.316   0.111  1.00  0.00     0.170 C 
HETATM    8  O3  UNL     1      -0.669  -1.157  -0.437  1.00  0.00    -0.365 OA
ENDROOT
BRANCH   3   9
HETATM    9  C3  UNL     1       1.325   0.001  -0.962  1.00  0.00     0.158 C 
BRANCH   9  10
HETATM   10  C4  UNL     1       2.135  -0.447   0.168  1.00  0.00     0.244 C 
HETATM   11  O1  UNL     1       1.574  -0.765   1.244  1.00  0.00    -0.271 OA
HETATM   12  N2  UNL     1       3.551  -0.541   0.107  1.00  0.00    -0.237 N 
ATOM     13  H2  UNL     1       4.013  -0.284  -0.765  1.00  0.00     0.197 HD
BRANCH  12  14
HETATM   14  O2  UNL     1       4.314  -0.948   1.130  1.00  0.00    -0.287 OA
ATOM     15  H2  UNL     1       5.261  -1.011   1.089  1.00  0.00     0.244 HD
ENDBRANCH  12  14
ENDBRANCH   9  10
ENDBRANCH   3   9
TORSDOF 3
