REMARK  3 active torsions:
REMARK  status: ('A' for Active; 'I' for Inactive)
REMARK    1  A    between atoms: C7_10  and  C8_11 
REMARK    2  A    between atoms: C19_26  and  C20_27 
REMARK    3  A    between atoms: C20_27  and  C21_28 
ROOT
HETATM    1  O1  UNL     1       2.264   1.227  -1.325  1.00  0.00    -0.266 OA
HETATM    2  C1  UNL     1       2.140   0.011  -1.008  1.00  0.00     0.269 A 
HETATM    3  N1  UNL     1       0.918  -0.389  -0.652  1.00  0.00    -0.319 N 
ATOM      4  H1  UNL     1       0.157   0.290  -0.650  1.00  0.00     0.169 HD
HETATM    5  C2  UNL     1       0.660  -1.656  -0.297  1.00  0.00     0.073 A 
HETATM    6  C3  UNL     1      -0.595  -2.060   0.077  1.00  0.00     0.004 A 
HETATM    7  C4  UNL     1      -1.736  -1.181   0.064  1.00  0.00    -0.008 A 
HETATM    8  C5  UNL     1      -2.175  -0.495  -1.045  1.00  0.00     0.016 A 
HETATM    9  C6  UNL     1      -3.289   0.337  -0.980  1.00  0.00     0.031 A 
HETATM   10  C7  UNL     1      -3.996   0.514   0.180  1.00  0.00     0.042 A 
HETATM   11  N2  UNL     1      -3.557  -0.162   1.256  1.00  0.00    -0.364 N 
ATOM     12  H2  UNL     1      -4.062  -0.053   2.135  1.00  0.00     0.165 HD
HETATM   13  C14 UNL     1      -2.492  -0.970   1.233  1.00  0.00     0.100 A 
HETATM   14  C15 UNL     1      -0.742  -3.408   0.443  1.00  0.00     0.015 A 
HETATM   15  C16 UNL     1       0.278  -4.309   0.443  1.00  0.00     0.003 A 
HETATM   16  C17 UNL     1       1.532  -3.869   0.059  1.00  0.00     0.032 A 
HETATM   17  C18 UNL     1       1.719  -2.564  -0.305  1.00  0.00     0.060 A 
HETATM   18  N3  UNL     1       2.934  -2.138  -0.665  1.00  0.00    -0.353 N 
ATOM     19  H3  UNL     1       3.707  -2.804  -0.670  1.00  0.00     0.166 HD
HETATM   20  C19 UNL     1       3.173  -0.870  -1.019  1.00  0.00     0.082 A 
ENDROOT
BRANCH  20  21
HETATM   21  C20 UNL     1       4.536  -0.472  -1.399  1.00  0.00     0.101 C 
BRANCH  21  22
HETATM   22  C21 UNL     1       5.259   0.269  -0.347  1.00  0.00    -0.052 A 
HETATM   23  C22 UNL     1       5.845  -0.367   0.734  1.00  0.00     0.007 A 
HETATM   24  C23 UNL     1       6.525   0.352   1.693  1.00  0.00     0.001 A 
HETATM   25  C24 UNL     1       6.627   1.722   1.585  1.00  0.00     0.000 A 
HETATM   26  C25 UNL     1       6.055   2.356   0.527  1.00  0.00     0.001 A 
HETATM   27  C26 UNL     1       5.374   1.633  -0.434  1.00  0.00     0.007 A 
ENDBRANCH  21  22
ENDBRANCH  20  21
BRANCH  10  28
HETATM   28  C8  UNL     1      -5.161   1.385   0.242  1.00  0.00    -0.009 A 
HETATM   29  C9  UNL     1      -5.855   1.529   1.453  1.00  0.00     0.013 A 
HETATM   30  C10 UNL     1      -6.962   2.334   1.585  1.00  0.00     0.001 A 
HETATM   31  C11 UNL     1      -7.443   3.047   0.509  1.00  0.00     0.000 A 
HETATM   32  C12 UNL     1      -6.777   2.921  -0.690  1.00  0.00     0.001 A 
HETATM   33  C13 UNL     1      -5.651   2.101  -0.822  1.00  0.00     0.013 A 
ENDBRANCH  10  28
TORSDOF 3
