REMARK  5 active torsions:
REMARK  status: ('A' for Active; 'I' for Inactive)
REMARK    1  A    between atoms: N1_1  and  N2_4 
REMARK    2  A    between atoms: C1_5  and  C2_6 
REMARK    3  A    between atoms: C8_14  and  C9_15 
REMARK    4  A    between atoms: C15_21  and  C16_22 
REMARK    5  A    between atoms: C15_21  and  C22_28 
ROOT
HETATM    1  N2  UNL     1       0.583  -1.006   0.967  1.00  0.00    -0.261 N 
HETATM    2  C1  UNL     1       1.785  -0.336   0.644  1.00  0.00     0.130 C 
HETATM    3  N3  UNL     1       1.559   0.917   0.449  1.00  0.00    -0.362 N 
ATOM      4  H3  UNL     1       2.268   1.608   0.203  1.00  0.00     0.162 HD
HETATM    5  C8  UNL     1       0.130   1.206   0.633  1.00  0.00     0.156 C 
HETATM    6  C15 UNL     1      -0.509  -0.109   0.548  1.00  0.00     0.133 C 
ENDROOT
BRANCH   6   7
HETATM    7  C16 UNL     1      -0.923  -0.481  -0.853  1.00  0.00    -0.021 A 
HETATM    8  C17 UNL     1      -2.066   0.052  -1.417  1.00  0.00     0.010 A 
HETATM    9  C18 UNL     1      -2.452  -0.295  -2.699  1.00  0.00     0.001 A 
HETATM   10  C19 UNL     1      -1.705  -1.181  -3.445  1.00  0.00     0.000 A 
HETATM   11  C20 UNL     1      -0.562  -1.730  -2.910  1.00  0.00     0.001 A 
HETATM   12  C21 UNL     1      -0.202  -1.361  -1.623  1.00  0.00     0.010 A 
ENDBRANCH   6   7
BRANCH   6  13
HETATM   13  C22 UNL     1      -1.709  -0.348   1.364  1.00  0.00    -0.021 A 
HETATM   14  C23 UNL     1      -2.433  -1.511   1.132  1.00  0.00     0.010 A 
HETATM   15  C24 UNL     1      -3.564  -1.783   1.878  1.00  0.00     0.001 A 
HETATM   16  C25 UNL     1      -4.014  -0.927   2.867  1.00  0.00     0.000 A 
HETATM   17  C26 UNL     1      -3.292   0.220   3.089  1.00  0.00     0.001 A 
HETATM   18  C27 UNL     1      -2.151   0.484   2.330  1.00  0.00     0.010 A 
ENDBRANCH   6  13
BRANCH   1  19
HETATM   19  N1  UNL     1       0.515  -2.250   1.572  1.00  0.00    -0.340 N 
ATOM     20  H12 UNL     1       1.271  -2.871   1.862  1.00  0.00     0.177 HD
ATOM     21  H11 UNL     1      -0.352  -2.733   1.805  1.00  0.00     0.177 HD
ENDBRANCH   1  19
BRANCH   5  22
HETATM   22  C9  UNL     1      -0.274   2.267  -0.278  1.00  0.00    -0.032 A 
HETATM   23  C10 UNL     1      -1.133   3.257   0.125  1.00  0.00     0.009 A 
HETATM   24  C11 UNL     1      -1.496   4.292  -0.752  1.00  0.00     0.001 A 
HETATM   25  C12 UNL     1      -0.990   4.324  -2.034  1.00  0.00     0.000 A 
HETATM   26  C13 UNL     1      -0.129   3.331  -2.438  1.00  0.00     0.001 A 
HETATM   27  C14 UNL     1       0.207   2.334  -1.559  1.00  0.00     0.009 A 
ENDBRANCH   5  22
BRANCH   2  28
HETATM   28  C2  UNL     1       3.147  -0.887   0.544  1.00  0.00     0.009 A 
HETATM   29  C3  UNL     1       3.330  -2.220   0.302  1.00  0.00     0.015 A 
HETATM   30  C4  UNL     1       4.634  -2.705   0.229  1.00  0.00     0.001 A 
HETATM   31  C5  UNL     1       5.716  -1.873   0.393  1.00  0.00     0.000 A 
HETATM   32  C6  UNL     1       5.550  -0.527   0.636  1.00  0.00     0.001 A 
HETATM   33  C7  UNL     1       4.264  -0.059   0.707  1.00  0.00     0.015 A 
ENDBRANCH   2  28
TORSDOF 5
