REMARK  5 active torsions:
REMARK  status: ('A' for Active; 'I' for Inactive)
REMARK    1  A    between atoms: C4_4  and  C5_5 
REMARK    2  A    between atoms: C11_15  and  N3_16 
REMARK    3  A    between atoms: N3_16  and  C12_18 
REMARK    4  A    between atoms: C12_18  and  C13_19 
REMARK    5  A    between atoms: C12_18  and  C19_25 
ROOT
HETATM    1  C5  UNL     1       2.850  -0.183  -0.203  1.00  0.00     0.118 A 
HETATM    2  N1  UNL     1       3.246  -0.225  -1.489  1.00  0.00    -0.327 N 
ATOM      3  H1  UNL     1       4.247  -0.259  -1.680  1.00  0.00     0.169 HD
HETATM    4  C6  UNL     1       2.406  -0.225  -2.534  1.00  0.00     0.120 A 
HETATM    5  N2  UNL     1       2.865  -0.269  -3.810  1.00  0.00    -0.351 N 
ATOM      6  H2  UNL     1       3.866  -0.303  -4.002  1.00  0.00     0.166 HD
HETATM    7  C7  UNL     1       1.959  -0.267  -4.831  1.00  0.00     0.090 A 
HETATM    8  C8  UNL     1       0.611  -0.222  -4.591  1.00  0.00     0.018 A 
HETATM    9  C9  UNL     1       0.168  -0.178  -3.293  1.00  0.00     0.020 A 
HETATM   10  C10 UNL     1       1.061  -0.179  -2.230  1.00  0.00     0.052 A 
HETATM   11  C11 UNL     1       0.604  -0.134  -0.922  1.00  0.00     0.117 A 
HETATM   12  N4  UNL     1       1.533  -0.138   0.051  1.00  0.00    -0.327 N 
ATOM     13  H4  UNL     1       1.223  -0.105   1.022  1.00  0.00     0.169 HD
ENDROOT
BRANCH  11  14
HETATM   14  N3  UNL     1      -0.646  -0.094  -0.751  1.00  0.00    -0.363 N 
ATOM     15  H3  UNL     1      -1.201  -0.099  -1.607  1.00  0.00     0.162 HD
BRANCH  14  16
HETATM   16  C12 UNL     1      -1.395  -0.043   0.456  1.00  0.00     0.149 C 
BRANCH  16  17
HETATM   17  C13 UNL     1      -2.124   1.276   0.469  1.00  0.00    -0.031 A 
HETATM   18  C14 UNL     1      -2.167   2.074   1.594  1.00  0.00     0.009 A 
HETATM   19  C15 UNL     1      -2.831   3.281   1.614  1.00  0.00     0.001 A 
HETATM   20  C16 UNL     1      -3.490   3.729   0.465  1.00  0.00     0.000 A 
HETATM   21  C17 UNL     1      -3.452   2.934  -0.667  1.00  0.00     0.001 A 
HETATM   22  C18 UNL     1      -2.780   1.726  -0.667  1.00  0.00     0.009 A 
ENDBRANCH  16  17
BRANCH  16  23
HETATM   23  C19 UNL     1      -2.481  -1.087   0.458  1.00  0.00    -0.031 A 
HETATM   24  C20 UNL     1      -3.767  -0.802   0.865  1.00  0.00     0.009 A 
HETATM   25  C21 UNL     1      -4.773  -1.748   0.872  1.00  0.00     0.001 A 
HETATM   26  C22 UNL     1      -4.478  -3.026   0.458  1.00  0.00     0.000 A 
HETATM   27  C23 UNL     1      -3.207  -3.355   0.043  1.00  0.00     0.001 A 
HETATM   28  C24 UNL     1      -2.219  -2.378   0.048  1.00  0.00     0.009 A 
ENDBRANCH  16  23
ENDBRANCH  14  16
ENDBRANCH  11  14
BRANCH   1  29
HETATM   29  C4  UNL     1       3.875  -0.188   0.824  1.00  0.00     0.008 A 
HETATM   30  C3  UNL     1       5.214  -0.235   0.486  1.00  0.00     0.015 A 
HETATM   31  C2  UNL     1       6.204  -0.241   1.457  1.00  0.00     0.001 A 
HETATM   32  C1  UNL     1       5.888  -0.200   2.797  1.00  0.00     0.000 A 
HETATM   33  C26 UNL     1       4.556  -0.153   3.138  1.00  0.00     0.001 A 
HETATM   34  C25 UNL     1       3.552  -0.147   2.160  1.00  0.00     0.015 A 
ENDBRANCH   1  29
TORSDOF 5
