REMARK  5 active torsions:
REMARK  status: ('A' for Active; 'I' for Inactive)
REMARK    1  A    between atoms: C4_6  and  C5_7 
REMARK    2  A    between atoms: C5_7  and  N2_8 
REMARK    3  A    between atoms: N2_8  and  C6_10 
REMARK    4  A    between atoms: C11_15  and  C12_16 
REMARK    5  A    between atoms: C15_19  and  C16_20 
ROOT
HETATM    1  C6  UNL     1      -3.676  -1.613   0.010  1.00  0.00     0.101 A 
HETATM    2  C7  UNL     1      -3.321  -0.905  -1.117  1.00  0.00     0.049 A 
HETATM    3  C8  UNL     1      -2.018  -0.473  -1.288  1.00  0.00     0.017 A 
HETATM    4  C9  UNL     1      -1.106  -0.777  -0.297  1.00  0.00    -0.009 A 
HETATM    5  C10 UNL     1       0.197  -0.357  -0.449  1.00  0.00     0.026 A 
HETATM    6  C11 UNL     1       1.187  -0.616   0.495  1.00  0.00    -0.025 A 
HETATM    7  C23 UNL     1       0.790  -1.332   1.619  1.00  0.00     0.014 A 
HETATM    8  C24 UNL     1      -0.510  -1.759   1.785  1.00  0.00     0.031 A 
HETATM    9  C25 UNL     1      -1.482  -1.484   0.819  1.00  0.00     0.044 A 
HETATM   10  N4  UNL     1      -2.747  -1.887   0.956  1.00  0.00    -0.342 N 
ATOM     11  H4  UNL     1      -3.019  -2.411   1.788  1.00  0.00     0.167 HD
ENDROOT
BRANCH   6  12
HETATM   12  C12 UNL     1       2.539  -0.153   0.289  1.00  0.00    -0.026 A 
HETATM   13  C13 UNL     1       3.584  -0.880   0.794  1.00  0.00     0.013 A 
HETATM   14  C14 UNL     1       4.891  -0.443   0.597  1.00  0.00     0.013 A 
HETATM   15  C15 UNL     1       5.195   0.707  -0.094  1.00  0.00    -0.026 A 
HETATM   16  C21 UNL     1       4.112   1.436  -0.604  1.00  0.00     0.013 A 
HETATM   17  C22 UNL     1       2.814   0.997  -0.405  1.00  0.00     0.013 A 
BRANCH  15  18
HETATM   18  C16 UNL     1       6.560   1.146  -0.291  1.00  0.00    -0.023 A 
HETATM   19  C17 UNL     1       7.549   0.908   0.628  1.00  0.00     0.029 A 
HETATM   20  C18 UNL     1       8.863   1.346   0.410  1.00  0.00     0.088 A 
HETATM   21  N3  UNL     1       9.149   2.020  -0.743  1.00  0.00    -0.375 N 
HETATM   22  C19 UNL     1       8.199   2.264  -1.656  1.00  0.00     0.088 A 
ATOM     23  H3  UNL     1      10.102   2.343  -0.912  1.00  0.00     0.164 HD
HETATM   24  C20 UNL     1       6.909   1.831  -1.436  1.00  0.00     0.029 A 
ENDBRANCH  15  18
ENDBRANCH   6  12
BRANCH   1  25
HETATM   25  N2  UNL     1      -4.889  -2.012   0.155  1.00  0.00    -0.372 N 
ATOM     26  H2  UNL     1      -5.104  -2.531   1.006  1.00  0.00     0.161 HD
BRANCH  25  27
HETATM   27  C5  UNL     1      -5.958  -1.801  -0.753  1.00  0.00     0.161 C 
BRANCH  27  28
HETATM   28  C4  UNL     1      -6.674  -0.500  -0.546  1.00  0.00    -0.025 A 
HETATM   29  C3  UNL     1      -6.985   0.359  -1.577  1.00  0.00     0.096 A 
HETATM   30  N1  UNL     1      -7.625   1.501  -1.317  1.00  0.00    -0.375 N 
HETATM   31  C2  UNL     1      -7.997   1.878  -0.080  1.00  0.00     0.087 A 
ATOM     32  H1  UNL     1      -7.844   2.121  -2.097  1.00  0.00     0.164 HD
HETATM   33  C1  UNL     1      -7.694   1.034   0.957  1.00  0.00     0.018 A 
HETATM   34  C26 UNL     1      -7.036  -0.150   0.727  1.00  0.00     0.011 A 
ENDBRANCH  27  28
ENDBRANCH  25  27
ENDBRANCH   1  25
TORSDOF 5
