REMARK  5 active torsions:
REMARK  status: ('A' for Active; 'I' for Inactive)
REMARK    1  A    between atoms: C4_4  and  C5_5 
REMARK    2  A    between atoms: C5_5  and  N1_6 
REMARK    3  A    between atoms: N1_6  and  C6_7 
REMARK    4  A    between atoms: C7_10  and  C8_11 
REMARK    5  A    between atoms: C11_14  and  C12_15 
ROOT
HETATM    1  C6  UNL     1       1.905  -0.575  -0.850  1.00  0.00     0.192 A 
HETATM    2  N2  UNL     1       0.591  -0.210  -0.769  1.00  0.00    -0.316 N 
ATOM      3  H2  UNL     1       0.357   0.743  -1.047  1.00  0.00     0.170 HD
HETATM    4  C7  UNL     1      -0.406  -0.981  -0.363  1.00  0.00     0.118 A 
HETATM    5  N4  UNL     1      -0.078  -2.246   0.003  1.00  0.00    -0.341 N 
ATOM      6  H4  UNL     1      -0.812  -2.878   0.323  1.00  0.00     0.167 HD
HETATM    7  C19 UNL     1       1.186  -2.684  -0.046  1.00  0.00     0.048 A 
HETATM    8  C20 UNL     1       1.452  -3.979   0.339  1.00  0.00     0.030 A 
HETATM    9  C21 UNL     1       2.745  -4.462   0.301  1.00  0.00     0.002 A 
HETATM   10  C22 UNL     1       3.797  -3.658  -0.124  1.00  0.00     0.001 A 
HETATM   11  C23 UNL     1       3.533  -2.347  -0.515  1.00  0.00     0.018 A 
HETATM   12  C24 UNL     1       2.219  -1.889  -0.466  1.00  0.00     0.049 A 
ENDROOT
BRANCH   4  13
HETATM   13  C8  UNL     1      -1.802  -0.543  -0.293  1.00  0.00     0.008 A 
HETATM   14  C9  UNL     1      -2.763  -1.431   0.145  1.00  0.00     0.016 A 
HETATM   15  C10 UNL     1      -4.110  -1.078   0.236  1.00  0.00     0.013 A 
HETATM   16  C11 UNL     1      -4.506   0.186  -0.116  1.00  0.00    -0.025 A 
HETATM   17  C17 UNL     1      -3.537   1.063  -0.551  1.00  0.00     0.013 A 
HETATM   18  C18 UNL     1      -2.186   0.707  -0.642  1.00  0.00     0.016 A 
BRANCH  16  19
HETATM   19  C12 UNL     1      -5.916   0.557  -0.020  1.00  0.00    -0.011 A 
HETATM   20  C13 UNL     1      -6.280   1.865   0.267  1.00  0.00     0.015 A 
HETATM   21  C14 UNL     1      -7.615   2.214   0.357  1.00  0.00     0.018 A 
HETATM   22  C15 UNL     1      -8.623   1.290   0.169  1.00  0.00     0.087 A 
HETATM   23  N3  UNL     1      -8.253   0.025  -0.109  1.00  0.00    -0.374 N 
HETATM   24  C16 UNL     1      -6.948  -0.341  -0.202  1.00  0.00     0.099 A 
ATOM     25  H3  UNL     1      -8.975  -0.680  -0.254  1.00  0.00     0.164 HD
ENDBRANCH  16  19
ENDBRANCH   4  13
BRANCH   1  26
HETATM   26  N1  UNL     1       2.788   0.163  -1.227  1.00  0.00    -0.398 NA
BRANCH  26  27
HETATM   27  C5  UNL     1       3.862   0.841  -1.614  1.00  0.00     0.196 C 
BRANCH  27  28
HETATM   28  C4  UNL     1       4.638   1.536  -0.505  1.00  0.00    -0.007 A 
HETATM   29  C3  UNL     1       5.707   0.937   0.118  1.00  0.00     0.014 A 
HETATM   30  C2  UNL     1       6.379   1.608   1.119  1.00  0.00     0.001 A 
HETATM   31  C1  UNL     1       6.009   2.876   1.521  1.00  0.00     0.000 A 
HETATM   32  C26 UNL     1       4.944   3.465   0.897  1.00  0.00     0.001 A 
HETATM   33  C25 UNL     1       4.273   2.795  -0.103  1.00  0.00     0.014 A 
ENDBRANCH  27  28
ENDBRANCH  26  27
ENDBRANCH   1  26
TORSDOF 5
