REMARK  4 active torsions:
REMARK  status: ('A' for Active; 'I' for Inactive)
REMARK    1  A    between atoms: C4_4  and  C5_5 
REMARK    2  A    between atoms: C13_17  and  C14_18 
REMARK    3  A    between atoms: C14_18  and  C15_19 
REMARK    4  A    between atoms: C15_19  and  N3_20 
ROOT
HETATM    1  C5  UNL     1      -3.264  -0.367   0.074  1.00  0.00     0.055 A 
HETATM    2  N1  UNL     1      -3.964  -1.524  -0.019  1.00  0.00    -0.354 N 
ATOM      3  H1  UNL     1      -4.980  -1.508  -0.110  1.00  0.00     0.166 HD
HETATM    4  C6  UNL     1      -3.305  -2.683   0.010  1.00  0.00     0.045 A 
HETATM    5  C7  UNL     1      -4.029  -3.855  -0.086  1.00  0.00     0.030 A 
HETATM    6  C8  UNL     1      -3.382  -5.070  -0.059  1.00  0.00     0.002 A 
HETATM    7  C9  UNL     1      -2.014  -5.136   0.062  1.00  0.00     0.001 A 
HETATM    8  C10 UNL     1      -1.310  -3.955   0.157  1.00  0.00     0.016 A 
HETATM    9  C11 UNL     1      -1.929  -2.725   0.133  1.00  0.00     0.018 A 
HETATM   10  C12 UNL     1      -1.182  -1.570   0.231  1.00  0.00     0.057 A 
HETATM   11  N2  UNL     1       0.120  -1.285   0.361  1.00  0.00    -0.358 N 
ATOM     12  H2  UNL     1       0.865  -1.980   0.411  1.00  0.00     0.166 HD
HETATM   13  C13 UNL     1       0.308   0.043   0.417  1.00  0.00     0.012 A 
HETATM   14  C23 UNL     1      -0.946   0.621   0.316  1.00  0.00     0.041 A 
HETATM   15  C24 UNL     1      -1.891  -0.373   0.198  1.00  0.00     0.021 A 
ENDROOT
BRANCH  13  16
HETATM   16  C14 UNL     1       1.609   0.729   0.558  1.00  0.00     0.077 C 
BRANCH  16  17
HETATM   17  C15 UNL     1       2.197   1.010  -0.827  1.00  0.00     0.136 C 
BRANCH  17  18
HETATM   18  N3  UNL     1       3.473   1.683  -0.679  1.00  0.00    -0.341 N 
HETATM   19  C16 UNL     1       3.641   3.013  -0.621  1.00  0.00     0.183 A 
HETATM   20  N4  UNL     1       4.944   3.280  -0.483  1.00  0.00    -0.350 N 
HETATM   21  C17 UNL     1       5.622   2.130  -0.452  1.00  0.00     0.060 A 
ATOM     22  H4  UNL     1       5.354   4.211  -0.413  1.00  0.00     0.166 HD
HETATM   23  C18 UNL     1       6.965   1.797  -0.329  1.00  0.00     0.032 A 
HETATM   24  C22 UNL     1       4.691   1.126  -0.576  1.00  0.00     0.062 A 
HETATM   25  C19 UNL     1       7.366   0.498  -0.331  1.00  0.00     0.002 A 
HETATM   26  C20 UNL     1       6.436  -0.511  -0.455  1.00  0.00     0.002 A 
HETATM   27  C21 UNL     1       5.103  -0.191  -0.577  1.00  0.00     0.032 A 
ENDBRANCH  17  18
ENDBRANCH  16  17
ENDBRANCH  13  16
BRANCH   1  28
HETATM   28  C4  UNL     1      -3.931   0.929   0.054  1.00  0.00    -0.009 A 
HETATM   29  C3  UNL     1      -3.528   1.985  -0.732  1.00  0.00     0.014 A 
HETATM   30  C2  UNL     1      -4.184   3.195  -0.710  1.00  0.00     0.001 A 
HETATM   31  C1  UNL     1      -5.280   3.367   0.119  1.00  0.00     0.000 A 
HETATM   32  C26 UNL     1      -5.716   2.336   0.919  1.00  0.00     0.001 A 
HETATM   33  C25 UNL     1      -5.043   1.136   0.879  1.00  0.00     0.014 A 
ENDBRANCH   1  28
TORSDOF 4
