REMARK  5 active torsions:
REMARK  status: ('A' for Active; 'I' for Inactive)
REMARK    1  A    between atoms: C5_5  and  C6_6 
REMARK    2  A    between atoms: C6_6  and  N1_7 
REMARK    3  A    between atoms: C10_11  and  C11_12 
REMARK    4  A    between atoms: N2_13  and  N3_15 
REMARK    5  A    between atoms: N3_15  and  C12_17 
ROOT
HETATM    1  N3  UNL     1      -1.569   0.144   0.522  1.00  0.00    -0.299 N 
ATOM      2  H3  UNL     1      -1.164   1.069   0.378  1.00  0.00     0.187 HD
ENDROOT
BRANCH   1   3
HETATM    3  N2  UNL     1      -0.588  -0.681   0.657  1.00  0.00    -0.309 N 
HETATM    4  C11 UNL     1       0.453  -1.055   0.061  1.00  0.00     0.136 C 
ATOM      5  H2  UNL     1      -0.690  -1.198   1.531  1.00  0.00     0.186 HD
BRANCH   4   6
HETATM    6  C10 UNL     1       0.943  -0.553  -1.214  1.00  0.00     0.051 A 
HETATM    7  N1  UNL     1       2.055  -0.900  -1.876  1.00  0.00    -0.351 N 
HETATM    8  C7  UNL     1       2.111  -0.209  -3.026  1.00  0.00     0.091 A 
HETATM    9  C8  UNL     1       1.015   0.596  -3.100  1.00  0.00     0.020 A 
HETATM   10  C9  UNL     1       0.268   0.391  -1.963  1.00  0.00     0.032 A 
BRANCH   7  11
HETATM   11  C6  UNL     1       3.024  -1.852  -1.388  1.00  0.00     0.167 C 
BRANCH  11  12
HETATM   12  C5  UNL     1       4.138  -1.243  -0.625  1.00  0.00    -0.040 A 
HETATM   13  C4  UNL     1       5.247  -0.711  -1.255  1.00  0.00     0.009 A 
HETATM   14  C3  UNL     1       6.276  -0.157  -0.539  1.00  0.00     0.007 A 
HETATM   15  C2  UNL     1       6.267  -0.098   0.839  1.00  0.00    -0.062 A 
HETATM   16  C1  UNL     1       7.406   0.511   1.563  1.00  0.00     0.048 C 
HETATM   17  C26 UNL     1       5.162  -0.629   1.452  1.00  0.00     0.007 A 
HETATM   18  C25 UNL     1       4.101  -1.199   0.746  1.00  0.00     0.009 A 
ENDBRANCH  11  12
ENDBRANCH   7  11
ENDBRANCH   4   6
ENDBRANCH   1   3
BRANCH   1  19
HETATM   19  C12 UNL     1      -2.798   0.279   0.495  1.00  0.00     0.073 A 
HETATM   20  C13 UNL     1      -3.346   1.573   0.288  1.00  0.00     0.020 A 
HETATM   21  C14 UNL     1      -2.483   2.640   0.126  1.00  0.00     0.016 A 
HETATM   22  C18 UNL     1      -4.678   1.793   0.246  1.00  0.00     0.045 A 
HETATM   23  C15 UNL     1      -2.947   3.923  -0.077  1.00  0.00     0.001 A 
HETATM   24  C16 UNL     1      -4.321   4.163  -0.123  1.00  0.00     0.002 A 
HETATM   25  C17 UNL     1      -5.146   3.079   0.042  1.00  0.00     0.030 A 
HETATM   26  N4  UNL     1      -5.536   0.777   0.401  1.00  0.00    -0.355 N 
HETATM   27  C19 UNL     1      -5.092  -0.482   0.601  1.00  0.00     0.045 A 
ATOM     28  H4  UNL     1      -6.539   0.957   0.367  1.00  0.00     0.166 HD
HETATM   29  C20 UNL     1      -6.050  -1.474   0.753  1.00  0.00     0.030 A 
HETATM   30  C24 UNL     1      -3.748  -0.734   0.649  1.00  0.00     0.020 A 
HETATM   31  C21 UNL     1      -5.612  -2.758   0.958  1.00  0.00     0.002 A 
HETATM   32  C22 UNL     1      -4.269  -3.057   1.013  1.00  0.00     0.001 A 
HETATM   33  C23 UNL     1      -3.337  -2.031   0.856  1.00  0.00     0.016 A 
ENDBRANCH   1  19
TORSDOF 5
