REMARK  4 active torsions:
REMARK  status: ('A' for Active; 'I' for Inactive)
REMARK    1  A    between atoms: C4_4  and  C5_5 
REMARK    2  A    between atoms: C5_5  and  C6_6 
REMARK    3  A    between atoms: C5_5  and  N4_24 
REMARK    4  A    between atoms: C6_6  and  N1_7 
ROOT
HETATM    1  N1  UNL     1      -0.600  -0.309  -0.875  1.00  0.00    -0.290 NA
HETATM    2  C7  UNL     1       0.577  -1.184  -1.076  1.00  0.00     0.097 C 
HETATM    3  C8  UNL     1       1.688  -0.949  -0.121  1.00  0.00     0.047 C 
HETATM    4  C9  UNL     1       2.380   0.387  -0.447  1.00  0.00     0.048 C 
HETATM    5  C10 UNL     1       1.379   1.156  -1.262  1.00  0.00     0.047 C 
HETATM    6  C11 UNL     1      -0.023   1.034  -0.756  1.00  0.00     0.097 C 
HETATM    7  C12 UNL     1       2.707   1.145   0.788  1.00  0.00     0.151 C 
HETATM    8  N2  UNL     1       4.093   1.464   0.992  1.00  0.00    -0.386 N 
ATOM      9  H2  UNL     1       4.331   2.253   1.593  1.00  0.00     0.159 HD
HETATM   10  C13 UNL     1       5.133   0.732   0.396  1.00  0.00     0.054 A 
HETATM   11  C14 UNL     1       6.429   0.720   0.914  1.00  0.00     0.031 A 
HETATM   12  C15 UNL     1       7.455   0.007   0.332  1.00  0.00     0.002 A 
HETATM   13  C16 UNL     1       7.160  -0.719  -0.813  1.00  0.00     0.002 A 
HETATM   14  C17 UNL     1       5.878  -0.718  -1.340  1.00  0.00     0.031 A 
HETATM   15  C18 UNL     1       4.866   0.001  -0.744  1.00  0.00     0.055 A 
HETATM   16  N3  UNL     1       3.550   0.044  -1.231  1.00  0.00    -0.377 N 
ATOM     17  H3  UNL     1       3.406  -0.184  -2.215  1.00  0.00     0.160 HD
ENDROOT
BRANCH   1  18
HETATM   18  C6  UNL     1      -1.268  -0.743   0.270  1.00  0.00     0.090 C 
BRANCH  18  19
HETATM   19  C5  UNL     1      -2.671  -0.444   0.582  1.00  0.00     0.059 C 
BRANCH  19  20
HETATM   20  C4  UNL     1      -3.207   0.880   0.738  1.00  0.00    -0.008 A 
HETATM   21  C3  UNL     1      -3.702   1.352   1.980  1.00  0.00     0.014 A 
HETATM   22  C2  UNL     1      -4.233   2.578   2.180  1.00  0.00     0.001 A 
HETATM   23  C1  UNL     1      -4.335   3.479   1.173  1.00  0.00     0.000 A 
HETATM   24  C25 UNL     1      -3.874   3.095  -0.068  1.00  0.00     0.001 A 
HETATM   25  C24 UNL     1      -3.340   1.845  -0.246  1.00  0.00     0.014 A 
ENDBRANCH  19  20
BRANCH  19  26
HETATM   26  N4  UNL     1      -3.582  -1.438  -0.045  1.00  0.00    -0.331 N 
HETATM   27  C19 UNL     1      -4.464  -1.150  -0.985  1.00  0.00     0.096 A 
HETATM   28  C20 UNL     1      -5.267  -2.145  -1.533  1.00  0.00     0.018 A 
HETATM   29  C21 UNL     1      -5.182  -3.458  -1.126  1.00  0.00     0.003 A 
HETATM   30  C22 UNL     1      -4.261  -3.758  -0.143  1.00  0.00     0.018 A 
HETATM   31  C23 UNL     1      -3.498  -2.747   0.362  1.00  0.00     0.096 A 
ENDBRANCH  19  26
ENDBRANCH  18  19
ENDBRANCH   1  18
TORSDOF 4
