REMARK  5 active torsions:
REMARK  status: ('A' for Active; 'I' for Inactive)
REMARK    1  A    between atoms: C3_5  and  C4_6 
REMARK    2  A    between atoms: C4_6  and  C5_7 
REMARK    3  A    between atoms: N2_17  and  C15_18 
REMARK    4  A    between atoms: C15_18  and  C16_19 
REMARK    5  A    between atoms: C24_29  and  C25_30 
ROOT
HETATM    1  C5  UNL     1       1.180   0.437  -0.826  1.00  0.00    -0.030 A 
HETATM    2  C6  UNL     1       1.592  -0.824  -1.201  1.00  0.00     0.012 A 
HETATM    3  C7  UNL     1       0.811  -1.921  -0.851  1.00  0.00     0.015 A 
HETATM    4  C8  UNL     1      -0.356  -1.750  -0.141  1.00  0.00     0.003 A 
HETATM    5  C9  UNL     1      -1.307  -2.626   0.336  1.00  0.00     0.003 A 
HETATM    6  C10 UNL     1      -1.387  -4.017   0.244  1.00  0.00     0.014 A 
HETATM    7  C11 UNL     1      -2.437  -4.712   0.802  1.00  0.00     0.001 A 
HETATM    8  C12 UNL     1      -3.424  -4.013   1.462  1.00  0.00     0.002 A 
HETATM    9  C13 UNL     1      -3.338  -2.640   1.548  1.00  0.00     0.030 A 
HETATM   10  C14 UNL     1      -2.301  -1.912   1.002  1.00  0.00     0.046 A 
HETATM   11  N2  UNL     1      -1.955  -0.618   0.927  1.00  0.00    -0.341 N 
HETATM   12  C22 UNL     1      -0.801  -0.487   0.253  1.00  0.00     0.047 A 
HETATM   13  C23 UNL     1       0.004   0.583  -0.114  1.00  0.00     0.042 A 
ENDROOT
BRANCH   1  14
HETATM   14  C4  UNL     1       1.983   1.587  -1.183  1.00  0.00     0.060 C 
BRANCH  14  15
HETATM   15  C3  UNL     1       3.310   1.607  -1.000  1.00  0.00     0.107 A 
HETATM   16  N1  UNL     1       4.127   2.625  -1.300  1.00  0.00    -0.341 N 
HETATM   17  C2  UNL     1       5.412   2.303  -0.984  1.00  0.00     0.056 A 
ATOM     18  H1  UNL     1       3.830   3.512  -1.706  1.00  0.00     0.167 HD
HETATM   19  C1  UNL     1       6.418   3.143  -1.184  1.00  0.00     0.045 C 
HETATM   20  C24 UNL     1       5.384   1.041  -0.470  1.00  0.00     0.125 A 
HETATM   21  N3  UNL     1       4.083   0.643  -0.494  1.00  0.00    -0.337 N 
ATOM     22  H3  UNL     1       3.746  -0.264  -0.171  1.00  0.00     0.168 HD
BRANCH  20  23
HETATM   23  C25 UNL     1       6.515   0.279   0.005  1.00  0.00     0.283 C 
HETATM   24  N4  UNL     1       6.343  -1.036   0.519  1.00  0.00    -0.056 NA
HETATM   25  O1  UNL     1       7.663   0.744  -0.021  1.00  0.00    -0.269 OA
ENDBRANCH  20  23
ENDBRANCH  14  15
ENDBRANCH   1  14
BRANCH  11  26
HETATM   26  C15 UNL     1      -2.709   0.477   1.491  1.00  0.00     0.168 C 
BRANCH  26  27
HETATM   27  C16 UNL     1      -3.716   1.059   0.598  1.00  0.00    -0.040 A 
HETATM   28  C17 UNL     1      -4.998   0.585   0.565  1.00  0.00     0.009 A 
HETATM   29  C18 UNL     1      -5.929   1.142  -0.274  1.00  0.00     0.001 A 
HETATM   30  C19 UNL     1      -5.606   2.192  -1.106  1.00  0.00     0.000 A 
HETATM   31  C20 UNL     1      -4.327   2.687  -1.092  1.00  0.00     0.001 A 
HETATM   32  C21 UNL     1      -3.390   2.110  -0.233  1.00  0.00     0.009 A 
ENDBRANCH  26  27
ENDBRANCH  11  26
TORSDOF 5
