REMARK  5 active torsions:
REMARK  status: ('A' for Active; 'I' for Inactive)
REMARK       I    between atoms: C1_2  and  N1_3 
REMARK    1  A    between atoms: C1_2  and  C20_28 
REMARK    2  A    between atoms: N1_3  and  C2_5 
REMARK    3  A    between atoms: C5_8  and  C6_9 
REMARK    4  A    between atoms: C10_13  and  C11_14 
REMARK    5  A    between atoms: C11_14  and  C12_15 
ROOT
HETATM    1  C6  UNL     1      -1.154  -1.273   2.234  1.00  0.00     0.041 C 
HETATM    2  C7  UNL     1      -1.724  -2.190   1.501  1.00  0.00     0.035 A 
HETATM    3  C8  UNL     1      -2.406  -3.205   1.341  1.00  0.00     0.030 A 
HETATM    4  C9  UNL     1      -3.263  -3.859   0.550  1.00  0.00     0.019 A 
HETATM    5  C10 UNL     1      -3.524  -3.089  -0.636  1.00  0.00     0.034 A 
HETATM    6  C17 UNL     1      -2.858  -1.878  -0.705  1.00  0.00     0.256 A 
HETATM    7  O2  UNL     1      -3.051  -1.129  -1.742  1.00  0.00    -0.267 OA
HETATM    8  N3  UNL     1      -2.033  -1.409   0.215  1.00  0.00    -0.323 N 
ATOM      9  H3  UNL     1      -1.589  -0.503   0.067  1.00  0.00     0.169 HD
ENDROOT
BRANCH   1  10
HETATM   10  C5  UNL     1      -0.356  -0.132   2.030  1.00  0.00    -0.034 A 
HETATM   11  C4  UNL     1       0.505  -0.165   0.878  1.00  0.00     0.013 A 
HETATM   12  C3  UNL     1       1.359   0.868   0.695  1.00  0.00     0.030 A 
HETATM   13  C2  UNL     1       1.375   1.908   1.617  1.00  0.00     0.035 A 
HETATM   14  C19 UNL     1       0.589   1.963   2.685  1.00  0.00     0.030 A 
HETATM   15  C18 UNL     1      -0.315   0.912   2.913  1.00  0.00     0.013 A 
BRANCH  13  16
HETATM   16  N1  UNL     1       2.435   2.902   1.371  1.00  0.00    -0.323 N 
HETATM   17  C1  UNL     1       3.725   2.237   1.334  1.00  0.00     0.256 C 
HETATM   18  O1  UNL     1       3.705   1.006   1.574  1.00  0.00    -0.267 OA
ATOM     19  H1  UNL     1       2.285   3.903   1.246  1.00  0.00     0.169 HD
BRANCH  17  20
HETATM   20  C20 UNL     1       4.978   2.878   1.036  1.00  0.00     0.032 A 
HETATM   21  C21 UNL     1       6.084   2.550   1.834  1.00  0.00     0.017 A 
HETATM   22  C22 UNL     1       7.377   2.829   1.498  1.00  0.00     0.001 A 
HETATM   23  C23 UNL     1       7.626   3.494   0.277  1.00  0.00     0.000 A 
HETATM   24  C24 UNL     1       6.555   3.807  -0.462  1.00  0.00     0.001 A 
HETATM   25  C25 UNL     1       5.232   3.550  -0.171  1.00  0.00     0.017 A 
ENDBRANCH  17  20
ENDBRANCH  13  16
ENDBRANCH   1  10
BRANCH   5  26
HETATM   26  C11 UNL     1      -4.289  -3.592  -1.564  1.00  0.00     0.046 C 
BRANCH  26  27
HETATM   27  C12 UNL     1      -4.614  -2.841  -2.768  1.00  0.00     0.032 A 
HETATM   28  C13 UNL     1      -3.977  -2.597  -3.965  1.00  0.00     0.029 A 
HETATM   29  C14 UNL     1      -4.491  -1.734  -4.898  1.00  0.00     0.004 A 
HETATM   30  C15 UNL     1      -5.670  -1.089  -4.682  1.00  0.00     0.017 A 
HETATM   31  C16 UNL     1      -6.320  -1.324  -3.506  1.00  0.00     0.088 A 
HETATM   32  N2  UNL     1      -5.799  -2.155  -2.626  1.00  0.00    -0.366 N 
ATOM     33  H2  UNL     1      -6.321  -2.303  -1.762  1.00  0.00     0.165 HD
ENDBRANCH  26  27
ENDBRANCH   5  26
TORSDOF 5
