REMARK  2 active torsions:
REMARK  status: ('A' for Active; 'I' for Inactive)
REMARK    1  A    between atoms: O1_1  and  C1_3 
REMARK    2  A    between atoms: C5_8  and  O3_9 
ROOT
HETATM    1  C1  UNL     1       1.712  -0.749  -0.656  1.00  0.00     0.178 C 
HETATM    2  C2  UNL     1       0.457  -1.160   0.050  1.00  0.00     0.107 C 
HETATM    3  C3  UNL     1      -0.567  -0.050   0.104  1.00  0.00     0.188 C 
HETATM    4  C4  UNL     1       0.051   1.292   0.343  1.00  0.00     0.239 C 
HETATM    5  O2  UNL     1       1.185   1.544  -0.375  1.00  0.00    -0.354 OA
HETATM    6  C5  UNL     1       2.184   0.621  -0.246  1.00  0.00     0.285 C 
HETATM    7  O4  UNL     1      -1.429  -0.333   1.153  1.00  0.00    -0.351 OA
HETATM    8  C6  UNL     1      -2.717  -0.252   0.683  1.00  0.00     0.198 C 
HETATM    9  C7  UNL     1      -2.568   0.427  -0.659  1.00  0.00     0.198 C 
HETATM   10  O5  UNL     1      -1.307  -0.007  -1.056  1.00  0.00    -0.351 OA
ENDROOT
BRANCH   1  11
HETATM   11  O1  UNL     1       2.683  -1.717  -0.397  1.00  0.00    -0.390 OA
ATOM     12  H1  UNL     1       3.479  -1.456  -0.845  1.00  0.00     0.210 HD
ENDBRANCH   1  11
BRANCH   6  13
HETATM   13  O3  UNL     1       2.783   0.594   1.006  1.00  0.00    -0.369 OA
ATOM     14  H3  UNL     1       3.081   1.458   1.265  1.00  0.00     0.212 HD
ENDBRANCH   6  13
TORSDOF 2
