REMARK  1 active torsions:
REMARK  status: ('A' for Active; 'I' for Inactive)
REMARK    1  A    between atoms: O1_1  and  C1_3 
ROOT
HETATM    1  C1  UNL     1       0.888   0.820   0.414  1.00  0.00     0.197 C 
HETATM    2  O2  UNL     1       1.905   0.019   0.838  1.00  0.00    -0.352 OA
HETATM    3  C2  UNL     1       2.015  -0.481  -0.460  1.00  0.00     0.185 C 
HETATM    4  C3  UNL     1       0.668   0.021  -0.863  1.00  0.00     0.114 C 
HETATM    5  C4  UNL     1      -0.420  -1.000  -0.663  1.00  0.00     0.119 A 
HETATM    6  C5  UNL     1      -0.263  -1.622   0.648  1.00  0.00     0.209 C 
HETATM    7  O3  UNL     1      -0.568  -0.633   1.615  1.00  0.00    -0.377 OA
HETATM    8  C6  UNL     1      -0.453   0.648   1.142  1.00  0.00     0.186 C 
HETATM    9  C7  UNL     1      -1.484   0.966   0.040  1.00  0.00     0.072 C 
HETATM   10  C8  UNL     1      -1.817  -0.341  -0.545  1.00  0.00     0.162 A 
HETATM   11  O4  UNL     1      -1.360  -1.015  -1.578  1.00  0.00    -0.366 OA
ENDROOT
BRANCH   1  12
HETATM   12  O1  UNL     1       1.183   2.134   0.112  1.00  0.00    -0.363 OA
ATOM     13  H1  UNL     1       0.474   2.693  -0.184  1.00  0.00     0.213 HD
ENDBRANCH   1  12
TORSDOF 1
