REMARK  1 active torsions:
REMARK  status: ('A' for Active; 'I' for Inactive)
REMARK    1  A    between atoms: O1_1  and  C1_3 
ROOT
HETATM    1  C1  UNL     1      -0.621   0.315  -0.846  1.00  0.00     0.215 C 
HETATM    2  C2  UNL     1      -1.832   1.132  -0.385  1.00  0.00     0.239 C 
HETATM    3  O2  UNL     1      -2.305   0.562   0.760  1.00  0.00    -0.383 OA
HETATM    4  C3  UNL     1      -1.522  -0.493   1.136  1.00  0.00     0.205 C 
HETATM    5  C4  UNL     1      -0.873  -0.987  -0.164  1.00  0.00     0.209 C 
HETATM    6  O3  UNL     1       0.215  -1.721   0.160  1.00  0.00    -0.373 OA
HETATM    7  C5  UNL     1       1.434  -1.212  -0.168  1.00  0.00     0.239 C 
HETATM    8  C6  UNL     1       1.503   0.260   0.085  1.00  0.00     0.211 A 
HETATM    9  C7  UNL     1       2.374   0.800   1.143  1.00  0.00     0.242 A 
HETATM   10  O4  UNL     1       2.800   0.820  -0.231  1.00  0.00    -0.346 OA
HETATM   11  O5  UNL     1       0.493   0.988  -0.460  1.00  0.00    -0.310 OA
ENDROOT
BRANCH   1  12
HETATM   12  O1  UNL     1      -0.615   0.210  -2.240  1.00  0.00    -0.362 OA
ATOM     13  H1  UNL     1       0.136  -0.297  -2.526  1.00  0.00     0.213 HD
ENDBRANCH   1  12
TORSDOF 1
