REMARK  8 active torsions:
REMARK  status: ('A' for Active; 'I' for Inactive)
REMARK    1  A    between atoms: C4_4  and  C5_5 
REMARK    2  A    between atoms: C5_5  and  N1_6 
REMARK    3  A    between atoms: C6_7  and  N2_8 
REMARK    4  A    between atoms: C7_11  and  C8_12 
REMARK       I    between atoms: C8_12  and  N3_14 
REMARK    5  A    between atoms: N3_14  and  C9_16 
REMARK    6  A    between atoms: C9_16  and  C10_17 
REMARK    7  A    between atoms: C10_17  and  N4_18 
REMARK    8  A    between atoms: C13_21  and  O2_22 
ROOT
HETATM    1  N1  UNL     1      -1.988  -0.258  -1.020  1.00  0.00    -0.322 N 
HETATM    2  C6  UNL     1      -0.947   0.429  -0.453  1.00  0.00     0.121 A 
HETATM    3  C7  UNL     1       0.082  -0.357   0.091  1.00  0.00     0.109 A 
HETATM    4  C13 UNL     1       0.055  -1.751   0.060  1.00  0.00     0.098 A 
HETATM    5  C14 UNL     1      -1.052  -2.403  -0.544  1.00  0.00     0.039 A 
HETATM    6  C15 UNL     1      -1.224  -3.751  -0.680  1.00  0.00    -0.040 A 
HETATM    7  C16 UNL     1      -0.259  -4.817  -0.174  1.00  0.00     0.049 C 
HETATM    8  C17 UNL     1      -2.362  -4.159  -1.324  1.00  0.00     0.059 A 
HETATM    9  S1  UNL     1      -3.146  -2.705  -1.715  1.00  0.00    -0.083 SA
HETATM   10  C18 UNL     1      -2.010  -1.605  -1.049  1.00  0.00     0.091 A 
ENDROOT
BRANCH   3  11
HETATM   11  C8  UNL     1       1.193   0.356   0.698  1.00  0.00     0.258 C 
HETATM   12  O1  UNL     1       1.117   1.644   0.673  1.00  0.00    -0.267 OA
HETATM   13  N3  UNL     1       2.349  -0.143   1.315  1.00  0.00    -0.355 N 
ATOM     14  H3  UNL     1       2.474  -1.153   1.377  1.00  0.00     0.162 HD
BRANCH  13  15
HETATM   15  C9  UNL     1       3.382   0.728   1.873  1.00  0.00     0.153 C 
BRANCH  15  16
HETATM   16  C10 UNL     1       4.006   1.594   0.826  1.00  0.00     0.291 C 
BRANCH  16  17
HETATM   17  N4  UNL     1       4.609   0.741  -0.207  1.00  0.00     0.081 N 
HETATM   18  C11 UNL     1       5.220   1.590  -1.234  1.00  0.00     0.309 C 
HETATM   19  C12 UNL     1       5.694  -0.011   0.397  1.00  0.00     0.309 C 
ENDBRANCH  16  17
ENDBRANCH  15  16
ENDBRANCH  13  15
ENDBRANCH   3  11
BRANCH   2  20
HETATM   20  N2  UNL     1      -0.980   1.640  -0.469  1.00  0.00    -0.384 N 
ATOM     21  H22 UNL     1      -1.727   2.211  -0.864  1.00  0.00     0.157 HD
ATOM     22  H21 UNL     1      -0.205   2.151  -0.047  1.00  0.00     0.157 HD
ENDBRANCH   2  20
BRANCH   4  23
HETATM   23  O2  UNL     1       1.063  -2.429   0.595  1.00  0.00    -0.359 OA
ATOM     24  H2  UNL     1       1.045  -3.379   0.574  1.00  0.00     0.217 HD
ENDBRANCH   4  23
BRANCH   1  25
HETATM   25  C5  UNL     1      -3.057   0.468  -1.626  1.00  0.00     0.170 C 
BRANCH  25  26
HETATM   26  C4  UNL     1      -4.130   0.939  -0.661  1.00  0.00    -0.032 A 
HETATM   27  C3  UNL     1      -4.213   2.241  -0.276  1.00  0.00     0.023 A 
HETATM   28  C2  UNL     1      -5.201   2.576   0.603  1.00  0.00    -0.021 A 
HETATM   29  C1  UNL     1      -5.497   3.942   1.176  1.00  0.00     0.056 C 
HETATM   30  S2  UNL     1      -5.994   1.107   0.882  1.00  0.00    -0.106 SA
HETATM   31  C19 UNL     1      -5.048   0.087  -0.131  1.00  0.00     0.058 A 
ENDBRANCH  25  26
ENDBRANCH   1  25
TORSDOF 8
