REMARK  10 active torsions:
REMARK  status: ('A' for Active; 'I' for Inactive)
REMARK    1  A    between atoms: C2_2  and  C3_3 
REMARK    2  A    between atoms: C4_5  and  N1_6 
REMARK       I    between atoms: N1_6  and  C5_8 
REMARK    3  A    between atoms: C5_8  and  O3_10 
REMARK    4  A    between atoms: O3_10  and  C6_11 
REMARK    5  A    between atoms: C10_15  and  C11_16 
REMARK    6  A    between atoms: C11_16  and  O4_17 
REMARK    7  A    between atoms: C12_19  and  C13_20 
REMARK    8  A    between atoms: C15_22  and  O5_23 
REMARK    9  A    between atoms: C16_25  and  O6_26 
REMARK   10  A    between atoms: C19_29  and  O7_30 
ROOT
HETATM    1  C3  UNL     1      -0.575  -1.411  -1.709  1.00  0.00     0.133 C 
HETATM    2  O1  UNL     1       0.741  -1.638  -1.291  1.00  0.00    -0.360 OA
HETATM    3  C4  UNL     1       1.174  -0.476  -0.680  1.00  0.00     0.232 C 
HETATM    4  C10 UNL     1      -0.035   0.166  -0.055  1.00  0.00     0.069 C 
HETATM    5  C12 UNL     1      -1.115  -0.221  -1.049  1.00  0.00     0.061 C 
ENDROOT
BRANCH   5   6
HETATM    6  C13 UNL     1      -2.440  -0.265  -0.461  1.00  0.00    -0.015 A 
HETATM    7  C14 UNL     1      -3.251  -1.364  -0.319  1.00  0.00     0.049 A 
HETATM    8  C15 UNL     1      -4.511  -1.305   0.270  1.00  0.00     0.099 A 
HETATM    9  C16 UNL     1      -4.988  -0.109   0.736  1.00  0.00     0.103 A 
HETATM   10  C18 UNL     1      -4.198   1.005   0.606  1.00  0.00     0.076 A 
HETATM   11  C19 UNL     1      -2.956   0.933   0.023  1.00  0.00     0.077 A 
BRANCH   8  12
HETATM   12  O5  UNL     1      -5.235  -2.489   0.355  1.00  0.00    -0.358 OA
ATOM     13  H5  UNL     1      -6.095  -2.449   0.757  1.00  0.00     0.217 HD
ENDBRANCH   8  12
BRANCH   9  14
HETATM   14  O6  UNL     1      -6.231  -0.048   1.317  1.00  0.00    -0.353 OA
HETATM   15  C17 UNL     1      -6.805   1.139   1.825  1.00  0.00     0.210 C 
ENDBRANCH   9  14
BRANCH  11  16
HETATM   16  O7  UNL     1      -2.225   2.096  -0.070  1.00  0.00    -0.355 OA
HETATM   17  C20 UNL     1      -2.645   3.344   0.381  1.00  0.00     0.210 C 
ENDBRANCH  11  16
ENDBRANCH   5   6
BRANCH   1  18
HETATM   18  C2  UNL     1      -0.447  -1.167  -3.223  1.00  0.00     0.028 C 
HETATM   19  C1  UNL     1      -1.762  -0.897  -3.876  1.00  0.00     0.007 C 
ENDBRANCH   1  18
BRANCH   4  20
HETATM   20  C11 UNL     1      -0.304  -0.324   1.333  1.00  0.00     0.173 C 
BRANCH  20  21
HETATM   21  O4  UNL     1      -0.533  -1.684   1.405  1.00  0.00    -0.400 OA
ATOM     22  H4  UNL     1      -0.704  -1.995   2.286  1.00  0.00     0.209 HD
ENDBRANCH  20  21
ENDBRANCH   4  20
BRANCH   3  23
HETATM   23  N1  UNL     1       2.201  -0.816   0.273  1.00  0.00    -0.310 N 
HETATM   24  C5  UNL     1       3.535  -0.324   0.169  1.00  0.00     0.363 C 
HETATM   25  O2  UNL     1       3.882   0.439  -0.772  1.00  0.00    -0.238 OA
ATOM     26  H1  UNL     1       1.964  -1.432   1.051  1.00  0.00     0.167 HD
BRANCH  24  27
HETATM   27  O3  UNL     1       4.520  -0.653   1.086  1.00  0.00    -0.294 OA
BRANCH  27  28
HETATM   28  C6  UNL     1       5.842  -0.162   0.976  1.00  0.00     0.061 C 
HETATM   29  C7  UNL     1       5.746   1.347   1.033  1.00  0.00     0.046 C 
HETATM   30  C8  UNL     1       6.542  -0.557  -0.275  1.00  0.00     0.046 C 
HETATM   31  C9  UNL     1       6.691  -0.592   2.151  1.00  0.00     0.046 C 
ENDBRANCH  27  28
ENDBRANCH  24  27
ENDBRANCH   3  23
TORSDOF 10
