REMARK  10 active torsions:
REMARK  status: ('A' for Active; 'I' for Inactive)
REMARK    1  A    between atoms: C2_2  and  C3_3 
REMARK    2  A    between atoms: C3_3  and  C5_5 
REMARK    3  A    between atoms: C5_5  and  C7_7 
REMARK    4  A    between atoms: C7_7  and  C9_9 
REMARK    5  A    between atoms: C7_7  and  C13_16 
REMARK    6  A    between atoms: C12_13  and  O2_14 
REMARK    7  A    between atoms: C15_19  and  O4_20 
REMARK    8  A    between atoms: C16_22  and  O5_23 
REMARK    9  A    between atoms: C17_25  and  O6_26 
REMARK   10  A    between atoms: C19_28  and  O7_29 
ROOT
HETATM    1  C13 UNL     1      -0.525  -0.691  -0.573  1.00  0.00     0.144 C 
HETATM    2  O3  UNL     1      -1.283  -1.569  -1.388  1.00  0.00    -0.376 OA
HETATM    3  C14 UNL     1      -2.246  -1.775  -0.399  1.00  0.00     0.162 C 
HETATM    4  C15 UNL     1      -3.495  -1.055  -0.636  1.00  0.00     0.178 C 
HETATM    5  C16 UNL     1      -3.785   0.190   0.102  1.00  0.00     0.180 C 
HETATM    6  C17 UNL     1      -2.651   0.804   0.854  1.00  0.00     0.181 C 
HETATM    7  C19 UNL     1      -1.933  -0.329   1.548  1.00  0.00     0.161 C 
HETATM    8  C21 UNL     1      -1.259  -1.229   0.581  1.00  0.00     0.079 C 
ENDROOT
BRANCH   1   9
HETATM    9  C7  UNL     1       0.943  -1.039  -0.762  1.00  0.00     0.018 C 
HETATM   10  C8  UNL     1       1.068  -2.486  -0.248  1.00  0.00     0.023 C 
BRANCH   9  11
HETATM   11  C5  UNL     1       1.851  -0.213   0.063  1.00  0.00     0.001 C 
HETATM   12  C6  UNL     1       3.114  -0.875   0.475  1.00  0.00     0.011 C 
BRANCH  11  13
HETATM   13  C3  UNL     1       1.926   1.240  -0.207  1.00  0.00    -0.014 C 
HETATM   14  C4  UNL     1       2.696   1.676  -1.416  1.00  0.00     0.010 C 
BRANCH  13  15
HETATM   15  C2  UNL     1       2.314   2.045   1.012  1.00  0.00     0.000 C 
HETATM   16  C1  UNL     1       3.723   2.016   1.428  1.00  0.00     0.005 C 
ENDBRANCH  13  15
ENDBRANCH  11  13
ENDBRANCH   9  11
BRANCH   9  17
HETATM   17  C9  UNL     1       1.185  -1.022  -2.233  1.00  0.00     0.013 A 
HETATM   18  C10 UNL     1       0.329  -0.561  -3.210  1.00  0.00     0.037 A 
HETATM   19  C11 UNL     1       0.961  -0.714  -4.417  1.00  0.00     0.145 A 
HETATM   20  O1  UNL     1       2.121  -1.232  -4.183  1.00  0.00    -0.300 OA
HETATM   21  C12 UNL     1       2.311  -1.437  -2.910  1.00  0.00     0.190 A 
BRANCH  21  22
HETATM   22  O2  UNL     1       3.490  -1.988  -2.437  1.00  0.00    -0.340 OA
ATOM     23  H2  UNL     1       4.266  -2.274  -2.904  1.00  0.00     0.220 HD
ENDBRANCH  21  22
ENDBRANCH   9  17
ENDBRANCH   1   9
BRANCH   7  24
HETATM   24  O7  UNL     1      -1.192   0.166   2.576  1.00  0.00    -0.387 OA
HETATM   25  C20 UNL     1      -1.606  -0.184   3.835  1.00  0.00     0.202 C 
ENDBRANCH   7  24
BRANCH   4  26
HETATM   26  O4  UNL     1      -3.535  -0.711  -2.015  1.00  0.00    -0.390 OA
ATOM     27  H4  UNL     1      -4.347  -0.243  -2.169  1.00  0.00     0.210 HD
ENDBRANCH   4  26
BRANCH   6  28
HETATM   28  O6  UNL     1      -3.169   1.673   1.816  1.00  0.00    -0.385 OA
HETATM   29  C18 UNL     1      -2.722   2.962   1.550  1.00  0.00     0.202 C 
ENDBRANCH   6  28
BRANCH   5  30
HETATM   30  O5  UNL     1      -4.809  -0.058   1.048  1.00  0.00    -0.390 OA
ATOM     31  H5  UNL     1      -4.996   0.743   1.523  1.00  0.00     0.210 HD
ENDBRANCH   5  30
TORSDOF 10
