REMARK  11 active torsions:
REMARK  status: ('A' for Active; 'I' for Inactive)
REMARK    1  A    between atoms: C2_2  and  C3_3 
REMARK    2  A    between atoms: C8_11  and  C9_12 
REMARK    3  A    between atoms: C8_11  and  C16_20 
REMARK    4  A    between atoms: C9_12  and  C10_13 
REMARK    5  A    between atoms: C11_14  and  C12_15 
REMARK    6  A    between atoms: C13_16  and  C14_17 
REMARK    7  A    between atoms: C16_20  and  C17_21 
REMARK    8  A    between atoms: C17_21  and  C18_22 
REMARK    9  A    between atoms: C20_24  and  O5_26 
REMARK   10  A    between atoms: C22_28  and  O6_29 
REMARK   11  A    between atoms: C22_28  and  O7_31 
ROOT
HETATM    1  C3  UNL     1      -3.287  -1.721   1.117  1.00  0.00     0.081 A 
HETATM    2  C4  UNL     1      -3.255  -2.373  -0.096  1.00  0.00     0.092 A 
HETATM    3  C5  UNL     1      -2.380  -1.987  -1.122  1.00  0.00     0.191 A 
HETATM    4  O1  UNL     1      -2.401  -2.614  -2.191  1.00  0.00    -0.287 OA
HETATM    5  C6  UNL     1      -1.535  -0.922  -0.892  1.00  0.00     0.115 A 
HETATM    6  C7  UNL     1      -1.622  -0.320   0.342  1.00  0.00     0.202 A 
HETATM    7  O2  UNL     1      -2.452  -0.712   1.271  1.00  0.00    -0.287 OA
HETATM    8  O3  UNL     1      -0.806   0.733   0.607  1.00  0.00    -0.315 OA
HETATM    9  C8  UNL     1       0.170   1.302  -0.240  1.00  0.00     0.109 C 
HETATM   10  C20 UNL     1       0.016   0.868  -1.653  1.00  0.00     0.147 C 
HETATM   11  C21 UNL     1       1.283   0.949  -2.480  1.00  0.00     0.055 C 
HETATM   12  C22 UNL     1      -0.596  -0.460  -1.912  1.00  0.00     0.232 C 
ENDROOT
BRANCH   9  13
HETATM   13  C9  UNL     1       1.493   1.075   0.414  1.00  0.00     0.069 C 
BRANCH  13  14
HETATM   14  C10 UNL     1       1.908  -0.295   0.657  1.00  0.00    -0.015 C 
HETATM   15  C11 UNL     1       3.014  -0.779   0.137  1.00  0.00     0.061 C 
BRANCH  15  16
HETATM   16  C12 UNL     1       3.474  -2.121   0.341  1.00  0.00    -0.070 C 
HETATM   17  C13 UNL     1       3.856  -3.263   0.517  1.00  0.00    -0.025 C 
BRANCH  17  18
HETATM   18  C14 UNL     1       4.319  -4.610   0.703  1.00  0.00     0.198 C 
HETATM   19  C15 UNL     1       5.755  -4.955   0.862  1.00  0.00     0.106 C 
HETATM   20  O4  UNL     1       3.440  -5.509   0.728  1.00  0.00    -0.284 OA
ENDBRANCH  17  18
ENDBRANCH  15  16
ENDBRANCH  13  14
ENDBRANCH   9  13
BRANCH   9  21
HETATM   21  C16 UNL     1      -0.091   2.798  -0.202  1.00  0.00     0.042 C 
BRANCH  21  22
HETATM   22  C17 UNL     1       0.002   3.449   1.116  1.00  0.00     0.003 C 
BRANCH  22  23
HETATM   23  C18 UNL     1      -0.319   4.940   0.893  1.00  0.00    -0.004 C 
HETATM   24  C19 UNL     1      -1.702   5.087   0.328  1.00  0.00     0.005 C 
ENDBRANCH  22  23
ENDBRANCH  21  22
ENDBRANCH   9  21
BRANCH  10  25
HETATM   25  O5  UNL     1      -0.861   1.803  -2.279  1.00  0.00    -0.381 OA
ATOM     26  H5  UNL     1      -0.959   1.526  -3.182  1.00  0.00     0.211 HD
ENDBRANCH  10  25
BRANCH  12  27
HETATM   27  O6  UNL     1       0.345  -1.477  -2.205  1.00  0.00    -0.359 OA
ATOM     28  H6  UNL     1       0.955  -1.177  -2.868  1.00  0.00     0.213 HD
ENDBRANCH  12  27
BRANCH  12  29
HETATM   29  O7  UNL     1      -1.345  -0.405  -3.120  1.00  0.00    -0.359 OA
ATOM     30  H7  UNL     1      -0.735  -0.105  -3.783  1.00  0.00     0.213 HD
ENDBRANCH  12  29
BRANCH   1  31
HETATM   31  C2  UNL     1      -4.175  -2.085   2.208  1.00  0.00     0.027 C 
HETATM   32  C1  UNL     1      -5.024  -3.064   2.122  1.00  0.00     0.014 C 
ENDBRANCH   1  31
TORSDOF 11
