REMARK  12 active torsions:
REMARK  status: ('A' for Active; 'I' for Inactive)
REMARK    1  A    between atoms: C2_2  and  C3_4 
REMARK    2  A    between atoms: C3_4  and  C4_5 
REMARK    3  A    between atoms: N1_6  and  N2_8 
REMARK    4  A    between atoms: N2_8  and  C5_10 
REMARK    5  A    between atoms: C5_10  and  O2_11 
REMARK    6  A    between atoms: C5_10  and  C6_13 
REMARK    7  A    between atoms: C6_13  and  C7_14 
REMARK    8  A    between atoms: C7_14  and  C8_15 
REMARK    9  A    between atoms: C8_15  and  C9_16 
REMARK   10  A    between atoms: C9_16  and  C10_17 
REMARK   11  A    between atoms: C13_20  and  O3_21 
REMARK   12  A    between atoms: C21_32  and  O6_33 
ROOT
HETATM    1  C10 UNL     1      -1.903   0.375  -1.005  1.00  0.00     0.016 A 
HETATM    2  C11 UNL     1      -2.033   0.153   0.341  1.00  0.00    -0.014 A 
HETATM    3  C12 UNL     1      -0.848  -0.123   1.158  1.00  0.00     0.052 C 
HETATM    4  C13 UNL     1      -3.269   0.296   0.979  1.00  0.00     0.086 A 
HETATM    5  C14 UNL     1      -4.395   0.669   0.293  1.00  0.00     0.041 A 
HETATM    6  C15 UNL     1      -5.585   0.814   0.999  1.00  0.00    -0.034 A 
HETATM    7  C16 UNL     1      -5.736   0.571   2.432  1.00  0.00     0.050 C 
HETATM    8  C17 UNL     1      -6.672   1.222   0.206  1.00  0.00     0.021 A 
HETATM    9  C18 UNL     1      -7.983   1.412   0.903  1.00  0.00     0.055 C 
HETATM   10  C19 UNL     1      -6.520   1.443  -1.150  1.00  0.00     0.294 A 
HETATM   11  O4  UNL     1      -7.569   1.808  -1.774  1.00  0.00    -0.259 OA
HETATM   12  O5  UNL     1      -5.362   1.280  -1.731  1.00  0.00    -0.271 OA
HETATM   13  C20 UNL     1      -4.306   0.902  -1.030  1.00  0.00     0.127 A 
HETATM   14  C21 UNL     1      -3.082   0.757  -1.670  1.00  0.00     0.112 A 
ENDROOT
BRANCH   1  15
HETATM   15  C9  UNL     1      -0.705   0.286  -1.822  1.00  0.00     0.070 C 
BRANCH  15  16
HETATM   16  C8  UNL     1       0.482   0.040  -1.656  1.00  0.00    -0.127 C 
BRANCH  16  17
HETATM   17  C7  UNL     1       1.848  -0.239  -1.485  1.00  0.00     0.060 C 
BRANCH  17  18
HETATM   18  C6  UNL     1       2.457  -0.609  -0.344  1.00  0.00     0.065 C 
BRANCH  18  19
HETATM   19  C5  UNL     1       3.855  -0.865  -0.220  1.00  0.00     0.155 C 
BRANCH  19  20
HETATM   20  N2  UNL     1       4.799  -0.722  -1.221  1.00  0.00    -0.281 N 
ATOM     21  H2  UNL     1       4.532  -0.426  -2.160  1.00  0.00     0.189 HD
BRANCH  20  22
HETATM   22  N1  UNL     1       6.196  -1.010  -0.885  1.00  0.00    -0.313 N 
HETATM   23  C4  UNL     1       6.590  -0.374   0.124  1.00  0.00     0.087 C 
ATOM     24  H1  UNL     1       6.784  -1.656  -1.412  1.00  0.00     0.185 HD
BRANCH  23  25
HETATM   25  C3  UNL     1       7.877  -0.315   0.855  1.00  0.00     0.124 C 
BRANCH  25  26
HETATM   26  C2  UNL     1       8.776  -1.370   0.289  1.00  0.00     0.127 C 
HETATM   27  C1  UNL     1       8.950  -2.661   1.076  1.00  0.00     0.091 C 
HETATM   28  O1  UNL     1       9.320  -1.162  -0.761  1.00  0.00    -0.298 OA
ENDBRANCH  25  26
ENDBRANCH  23  25
ENDBRANCH  20  22
ENDBRANCH  19  20
BRANCH  19  29
HETATM   29  O2  UNL     1       4.281  -1.278   0.957  1.00  0.00    -0.345 OA
ATOM     30  H2  UNL     1       3.633  -1.376   1.644  1.00  0.00     0.219 HD
ENDBRANCH  19  29
ENDBRANCH  18  19
ENDBRANCH  17  18
ENDBRANCH  16  17
ENDBRANCH  15  16
ENDBRANCH   1  15
BRANCH  14  31
HETATM   31  O6  UNL     1      -3.082   1.020  -3.049  1.00  0.00    -0.357 OA
ATOM     32  H6  UNL     1      -3.878   1.278  -3.498  1.00  0.00     0.217 HD
ENDBRANCH  14  31
BRANCH   4  33
HETATM   33  O3  UNL     1      -3.349   0.050   2.296  1.00  0.00    -0.359 OA
ATOM     34  H3  UNL     1      -4.189   0.147   2.729  1.00  0.00     0.217 HD
ENDBRANCH   4  33
TORSDOF 12
