REMARK  8 active torsions:
REMARK  status: ('A' for Active; 'I' for Inactive)
REMARK    1  A    between atoms: O1_2  and  C2_3 
REMARK    2  A    between atoms: C8_9  and  S1_10 
REMARK    3  A    between atoms: S1_10  and  N1_13 
REMARK    4  A    between atoms: N1_13  and  C9_15 
REMARK    5  A    between atoms: C9_15  and  C10_16 
REMARK    6  A    between atoms: N3_18  and  C11_20 
REMARK    7  A    between atoms: C11_20  and  C12_21 
REMARK    8  A    between atoms: C12_21  and  C13_22 
ROOT
HETATM    1  S1  UNL     1       0.120  -2.261  -0.225  1.00  0.00     0.259 S 
HETATM    2  O2  UNL     1       0.226  -3.501   0.599  1.00  0.00    -0.201 OA
HETATM    3  O3  UNL     1       0.719  -2.573  -1.579  1.00  0.00    -0.201 OA
ENDROOT
BRANCH   1   4
HETATM    4  C8  UNL     1      -1.540  -1.708  -0.428  1.00  0.00     0.086 A 
HETATM    5  C6  UNL     1      -2.335  -1.297   0.606  1.00  0.00    -0.028 A 
HETATM    6  C5  UNL     1      -3.647  -0.852   0.424  1.00  0.00    -0.018 A 
HETATM    7  C7  UNL     1      -1.817  -1.322   1.988  1.00  0.00     0.050 C 
HETATM    8  C4  UNL     1      -4.444  -0.433   1.470  1.00  0.00     0.015 A 
HETATM    9  C20 UNL     1      -4.165  -0.826  -0.852  1.00  0.00    -0.023 A 
HETATM   10  C3  UNL     1      -5.740   0.009   1.278  1.00  0.00     0.037 A 
HETATM   11  C2  UNL     1      -6.263   0.037   0.005  1.00  0.00     0.069 A 
HETATM   12  C21 UNL     1      -5.465  -0.382  -1.038  1.00  0.00     0.049 A 
HETATM   13  C19 UNL     1      -3.378  -1.238  -1.906  1.00  0.00     0.014 A 
HETATM   14  C18 UNL     1      -2.086  -1.675  -1.722  1.00  0.00     0.027 A 
BRANCH  11  15
HETATM   15  O1  UNL     1      -7.562   0.477  -0.204  1.00  0.00    -0.356 OA
HETATM   16  C1  UNL     1      -8.172   0.538  -1.464  1.00  0.00     0.210 C 
ENDBRANCH  11  15
ENDBRANCH   1   4
BRANCH   1  17
HETATM   17  N1  UNL     1       1.087  -1.034   0.476  1.00  0.00    -0.309 N 
ATOM     18  H1  UNL     1       1.560  -1.128   1.375  1.00  0.00     0.172 HD
BRANCH  17  19
HETATM   19  C9  UNL     1       1.158   0.154  -0.354  1.00  0.00     0.205 C 
BRANCH  19  20
HETATM   20  C10 UNL     1       1.987   1.211   0.242  1.00  0.00     0.107 C 
HETATM   21  N2  UNL     1       1.668   1.780   1.506  1.00  0.00    -0.086 NA
HETATM   22  N3  UNL     1       3.035   1.660  -0.359  1.00  0.00    -0.380 N 
ATOM     23  H3  UNL     1       3.572   2.393   0.104  1.00  0.00     0.160 HD
BRANCH  22  24
HETATM   24  C11 UNL     1       3.501   1.192  -1.649  1.00  0.00     0.125 C 
BRANCH  24  25
HETATM   25  C12 UNL     1       4.908   1.761  -1.838  1.00  0.00     0.059 C 
BRANCH  25  26
HETATM   26  C13 UNL     1       5.821   1.308  -0.781  1.00  0.00    -0.041 A 
HETATM   27  C14 UNL     1       6.551   0.150  -0.930  1.00  0.00     0.010 A 
HETATM   28  C15 UNL     1       7.419  -0.277   0.079  1.00  0.00     0.018 A 
HETATM   29  C16 UNL     1       7.508   0.500   1.208  1.00  0.00     0.087 A 
HETATM   30  N4  UNL     1       6.795   1.627   1.347  1.00  0.00    -0.375 N 
HETATM   31  C17 UNL     1       5.947   2.048   0.366  1.00  0.00     0.094 A 
ATOM     32  H4  UNL     1       6.889   2.178   2.200  1.00  0.00     0.164 HD
ENDBRANCH  25  26
ENDBRANCH  24  25
ENDBRANCH  22  24
ENDBRANCH  19  20
ENDBRANCH  17  19
ENDBRANCH   1  17
TORSDOF 8
