REMARK  12 active torsions:
REMARK  status: ('A' for Active; 'I' for Inactive)
REMARK    1  A    between atoms: C5_5  and  C6_6 
REMARK    2  A    between atoms: C6_6  and  C7_7 
REMARK    3  A    between atoms: C11_11  and  C12_12 
REMARK    4  A    between atoms: C15_15  and  C16_16 
REMARK    5  A    between atoms: C16_16  and  O1_17 
REMARK    6  A    between atoms: O1_17  and  C17_18 
REMARK    7  A    between atoms: C17_18  and  C18_19 
REMARK    8  A    between atoms: C18_19  and  O2_20 
REMARK    9  A    between atoms: C18_19  and  C19_22 
REMARK   10  A    between atoms: C19_22  and  N1_23 
REMARK   11  A    between atoms: C23_30  and  N2_31 
REMARK   12  A    between atoms: N3_34  and  O5_35 
ROOT
HETATM    1  C7  UNL     1      -3.016  -1.964  -0.693  1.00  0.00    -0.053 A 
HETATM    2  C8  UNL     1      -3.496  -2.047  -1.959  1.00  0.00     0.007 A 
HETATM    3  C9  UNL     1      -2.657  -1.950  -3.083  1.00  0.00     0.001 A 
HETATM    4  C10 UNL     1      -1.325  -1.766  -2.871  1.00  0.00     0.012 A 
HETATM    5  C11 UNL     1      -0.812  -1.678  -1.587  1.00  0.00    -0.025 A 
HETATM    6  C22 UNL     1      -1.649  -1.776  -0.529  1.00  0.00     0.019 A 
ENDROOT
BRANCH   5   7
HETATM    7  C12 UNL     1       0.631  -1.488  -1.472  1.00  0.00    -0.026 A 
HETATM    8  C13 UNL     1       1.382  -0.789  -2.392  1.00  0.00     0.013 A 
HETATM    9  C14 UNL     1       2.739  -0.627  -2.271  1.00  0.00     0.010 A 
HETATM   10  C15 UNL     1       3.427  -1.158  -1.215  1.00  0.00    -0.035 A 
HETATM   11  C20 UNL     1       2.687  -1.871  -0.266  1.00  0.00     0.010 A 
HETATM   12  C21 UNL     1       1.324  -2.023  -0.407  1.00  0.00     0.013 A 
BRANCH  10  13
HETATM   13  C16 UNL     1       4.898  -0.997  -1.061  1.00  0.00     0.206 C 
BRANCH  13  14
HETATM   14  O1  UNL     1       5.127  -0.107  -0.030  1.00  0.00    -0.384 OA
BRANCH  14  15
HETATM   15  C17 UNL     1       4.567   1.138  -0.278  1.00  0.00     0.201 C 
BRANCH  15  16
HETATM   16  C18 UNL     1       4.922   1.990   0.949  1.00  0.00     0.167 C 
BRANCH  16  17
HETATM   17  O2  UNL     1       4.347   1.356   2.046  1.00  0.00    -0.392 OA
ATOM     18  H2  UNL     1       4.567   1.883   2.805  1.00  0.00     0.210 HD
ENDBRANCH  16  17
BRANCH  16  19
HETATM   19  C19 UNL     1       6.440   1.868   1.109  1.00  0.00     0.263 C 
BRANCH  19  20
HETATM   20  N1  UNL     1       7.144   2.500   0.010  1.00  0.00    -0.077 N 
ATOM     21  H13 UNL     1       6.834   2.135  -0.891  1.00  0.00     0.274 HD
ATOM     22  H12 UNL     1       6.858   3.472  -0.106  1.00  0.00     0.274 HD
ATOM     23  H11 UNL     1       8.155   2.419   0.117  1.00  0.00     0.274 HD
ENDBRANCH  19  20
ENDBRANCH  16  19
ENDBRANCH  15  16
ENDBRANCH  14  15
ENDBRANCH  13  14
ENDBRANCH  10  13
ENDBRANCH   5   7
BRANCH   1  24
HETATM   24  C6  UNL     1      -3.893  -2.070   0.520  1.00  0.00     0.081 C 
BRANCH  24  25
HETATM   25  C5  UNL     1      -4.336  -0.729   0.942  1.00  0.00    -0.001 A 
HETATM   26  C4  UNL     1      -3.423  -0.033   1.768  1.00  0.00     0.013 A 
HETATM   27  C3  UNL     1      -3.681   1.258   2.105  1.00  0.00     0.028 A 
HETATM   28  C2  UNL     1      -4.802   1.929   1.677  1.00  0.00     0.038 A 
HETATM   29  C1  UNL     1      -5.044   3.348   2.070  1.00  0.00     0.071 C 
HETATM   30  N3  UNL     1      -5.649   1.253   0.901  1.00  0.00    -0.206 N 
HETATM   31  C23 UNL     1      -5.441  -0.059   0.528  1.00  0.00     0.206 A 
BRANCH  30  32
HETATM   32  O5  UNL     1      -6.770   1.903   0.465  1.00  0.00    -0.281 OA
ATOM     33  H5  UNL     1      -7.374   1.421  -0.088  1.00  0.00     0.245 HD
ENDBRANCH  30  32
BRANCH  31  34
HETATM   34  N2  UNL     1      -6.498  -0.676  -0.173  1.00  0.00    -0.095 N 
HETATM   35  O3  UNL     1      -6.622  -1.882  -0.386  1.00  0.00    -0.530 OA
HETATM   36  O4  UNL     1      -7.572   0.107  -0.633  1.00  0.00    -0.530 OA
ENDBRANCH  31  34
ENDBRANCH  24  25
ENDBRANCH   1  24
TORSDOF 12
