REMARK  9 active torsions:
REMARK  status: ('A' for Active; 'I' for Inactive)
REMARK    1  A    between atoms: C2_2  and  O1_3 
REMARK    2  A    between atoms: O1_3  and  N1_4 
REMARK    3  A    between atoms: C3_6  and  C5_8 
REMARK    4  A    between atoms: C8_11  and  C9_12 
REMARK    5  A    between atoms: C9_12  and  O2_13 
REMARK    6  A    between atoms: O2_13  and  C10_14 
REMARK    7  A    between atoms: C10_14  and  N2_15 
REMARK    8  A    between atoms: C13_18  and  C14_19 
REMARK    9  A    between atoms: C18_23  and  N3_24 
REMARK       I    between atoms: N3_24  and  C19_26 
ROOT
HETATM    1  N2  UNL     1      -1.246  -1.728   1.512  1.00  0.00    -0.345 N 
HETATM    2  C11 UNL     1      -1.676  -2.370   0.406  1.00  0.00     0.093 A 
HETATM    3  C12 UNL     1      -2.857  -2.059  -0.252  1.00  0.00     0.031 A 
HETATM    4  C13 UNL     1      -3.648  -1.052   0.226  1.00  0.00    -0.007 A 
HETATM    5  C20 UNL     1      -3.195  -0.408   1.354  1.00  0.00     0.031 A 
HETATM    6  C21 UNL     1      -2.016  -0.740   1.985  1.00  0.00     0.093 A 
ENDROOT
BRANCH   1   7
HETATM    7  C10 UNL     1      -0.007  -2.125   2.168  1.00  0.00     0.297 C 
BRANCH   7   8
HETATM    8  O2  UNL     1       1.059  -1.481   1.650  1.00  0.00    -0.367 OA
BRANCH   8   9
HETATM    9  C9  UNL     1       1.059  -0.110   1.741  1.00  0.00     0.208 C 
BRANCH   9  10
HETATM   10  C8  UNL     1       2.329   0.377   1.157  1.00  0.00    -0.035 A 
HETATM   11  C7  UNL     1       3.256  -0.486   0.650  1.00  0.00     0.010 A 
HETATM   12  C6  UNL     1       4.451  -0.006   0.102  1.00  0.00     0.014 A 
HETATM   13  C5  UNL     1       4.735   1.324   0.053  1.00  0.00    -0.012 A 
HETATM   14  C23 UNL     1       3.786   2.188   0.571  1.00  0.00     0.014 A 
HETATM   15  C22 UNL     1       2.590   1.717   1.120  1.00  0.00     0.010 A 
BRANCH  13  16
HETATM   16  C3  UNL     1       5.973   1.885  -0.511  1.00  0.00     0.038 C 
HETATM   17  N1  UNL     1       6.923   1.243  -1.019  1.00  0.00    -0.271 N 
ATOM     18  H1  UNL     1       7.676   1.850  -1.344  1.00  0.00     0.194 HD
HETATM   19  C4  UNL     1       6.100   3.393  -0.468  1.00  0.00     0.071 C 
BRANCH  17  20
HETATM   20  O1  UNL     1       7.176  -0.041  -1.232  1.00  0.00    -0.281 OA
BRANCH  20  21
HETATM   21  C2  UNL     1       8.422  -0.665  -1.167  1.00  0.00     0.196 C 
HETATM   22  C1  UNL     1       8.299  -2.132  -1.472  1.00  0.00     0.036 C 
ENDBRANCH  20  21
ENDBRANCH  17  20
ENDBRANCH  13  16
ENDBRANCH   9  10
ENDBRANCH   8   9
ENDBRANCH   7   8
ENDBRANCH   1   7
BRANCH   4  23
HETATM   23  C14 UNL     1      -4.917  -0.650  -0.404  1.00  0.00     0.044 A 
HETATM   24  C15 UNL     1      -5.347  -1.319  -1.541  1.00  0.00     0.030 A 
HETATM   25  C16 UNL     1      -6.551  -0.955  -2.158  1.00  0.00     0.006 A 
HETATM   26  C17 UNL     1      -7.298   0.071  -1.622  1.00  0.00     0.049 A 
HETATM   27  C18 UNL     1      -6.864   0.725  -0.497  1.00  0.00     0.109 A 
HETATM   28  N5  UNL     1      -5.696   0.326   0.047  1.00  0.00    -0.342 N 
ATOM     29  H5  UNL     1      -5.382   0.820   0.882  1.00  0.00     0.167 HD
BRANCH  27  30
HETATM   30  N3  UNL     1      -7.573   1.675  -0.016  1.00  0.00    -0.297 N 
HETATM   31  C19 UNL     1      -8.791   2.039  -0.645  1.00  0.00     0.334 C 
HETATM   32  N4  UNL     1     -10.061   1.656  -0.152  1.00  0.00    -0.040 NA
HETATM   33  O3  UNL     1      -8.807   2.745  -1.710  1.00  0.00    -0.251 OA
ATOM     34  H3  UNL     1      -7.262   2.171   0.820  1.00  0.00     0.171 HD
ENDBRANCH  27  30
ENDBRANCH   4  23
TORSDOF 9
