REMARK  8 active torsions:
REMARK  status: ('A' for Active; 'I' for Inactive)
REMARK    1  A    between atoms: C3_3  and  N1_4 
REMARK    2  A    between atoms: C10_13  and  N3_14 
REMARK    3  A    between atoms: C11_16  and  C12_17 
REMARK    4  A    between atoms: C12_17  and  C13_18 
REMARK    5  A    between atoms: C13_18  and  N4_19 
REMARK    6  A    between atoms: N5_22  and  C16_23 
REMARK    7  A    between atoms: C16_23  and  C17_24 
REMARK    8  A    between atoms: C17_24  and  C18_25 
ROOT
HETATM    1  C1  UNL     1      -5.464   2.667   0.913  1.00  0.00     0.058 C 
HETATM    2  C2  UNL     1      -4.486   1.644   0.513  1.00  0.00     0.051 A 
HETATM    3  C3  UNL     1      -4.823   0.331   0.381  1.00  0.00     0.130 A 
HETATM    4  N2  UNL     1      -3.822  -0.518   0.022  1.00  0.00    -0.176 N 
ATOM      5  H2  UNL     1      -4.046  -1.507  -0.084  1.00  0.00     0.186 HD
HETATM    6  C10 UNL     1      -2.535  -0.123  -0.204  1.00  0.00     0.686 A 
HETATM    7  N6  UNL     1      -2.221   1.166  -0.071  1.00  0.00    -0.155 N 
ATOM      8  H6  UNL     1      -1.264   1.478  -0.237  1.00  0.00     0.187 HD
HETATM    9  C23 UNL     1      -3.154   2.042   0.277  1.00  0.00     0.269 A 
HETATM   10  O1  UNL     1      -2.891   3.246   0.408  1.00  0.00    -0.267 OA
ENDROOT
BRANCH   6  11
HETATM   11  N3  UNL     1      -1.727  -0.992  -0.521  1.00  0.00    -0.205 N 
HETATM   12  C11 UNL     1      -0.443  -1.301  -0.857  1.00  0.00     0.080 C 
ATOM     13  H3  UNL     1      -2.246  -1.870  -0.542  1.00  0.00     0.183 HD
BRANCH  12  14
HETATM   14  C12 UNL     1       0.595  -0.195  -0.918  1.00  0.00     0.075 C 
BRANCH  14  15
HETATM   15  C13 UNL     1       1.939  -0.788  -1.329  1.00  0.00     0.277 C 
BRANCH  15  16
HETATM   16  N4  UNL     1       2.955   0.251  -1.401  1.00  0.00     0.092 N 
HETATM   17  C14 UNL     1       4.227  -0.300  -1.796  1.00  0.00     0.302 C 
HETATM   18  C15 UNL     1       4.940  -0.825  -0.589  1.00  0.00     0.302 C 
HETATM   19  N5  UNL     1       5.313   0.224   0.313  1.00  0.00     0.091 N 
HETATM   20  C21 UNL     1       4.506   1.410   0.089  1.00  0.00     0.302 C 
HETATM   21  C22 UNL     1       3.100   0.950  -0.159  1.00  0.00     0.302 C 
BRANCH  19  22
HETATM   22  C16 UNL     1       6.691   0.640   0.222  1.00  0.00     0.273 C 
BRANCH  22  23
HETATM   23  C17 UNL     1       7.653  -0.404   0.695  1.00  0.00     0.034 C 
BRANCH  23  24
HETATM   24  C18 UNL     1       9.092   0.039   0.608  1.00  0.00    -0.021 C 
HETATM   25  C19 UNL     1       9.557   0.390  -0.763  1.00  0.00     0.009 C 
HETATM   26  C20 UNL     1       9.962  -1.090   1.142  1.00  0.00     0.009 C 
ENDBRANCH  23  24
ENDBRANCH  22  23
ENDBRANCH  19  22
ENDBRANCH  15  16
ENDBRANCH  14  15
ENDBRANCH  12  14
ENDBRANCH   6  11
BRANCH   3  27
HETATM   27  N1  UNL     1      -6.152  -0.135   0.590  1.00  0.00    -0.365 N 
HETATM   28  C4  UNL     1      -6.387  -1.603   0.532  1.00  0.00     0.125 C 
HETATM   29  C5  UNL     1      -7.855  -1.821   0.656  1.00  0.00     0.030 C 
HETATM   30  C6  UNL     1      -8.400  -0.512   0.158  1.00  0.00    -0.030 C 
HETATM   31  C7  UNL     1      -9.801  -0.225   0.593  1.00  0.00     0.016 C 
HETATM   32  C8  UNL     1      -8.210  -0.462  -1.332  1.00  0.00     0.016 C 
HETATM   33  C9  UNL     1      -7.406   0.433   0.863  1.00  0.00     0.133 C 
ENDBRANCH   3  27
TORSDOF 8
