REMARK  8 active torsions:
REMARK  status: ('A' for Active; 'I' for Inactive)
REMARK    1  A    between atoms: C2_2  and  N1_3 
REMARK    2  A    between atoms: N1_3  and  C3_4 
REMARK    3  A    between atoms: N1_3  and  C5_6 
REMARK    4  A    between atoms: C5_6  and  C6_7 
REMARK    5  A    between atoms: C6_7  and  C7_8 
REMARK    6  A    between atoms: C7_8  and  N2_9 
REMARK       I    between atoms: N2_9  and  C8_11 
REMARK    7  A    between atoms: C8_11  and  C9_13 
REMARK    8  A    between atoms: C9_13  and  N3_14 
ROOT
HETATM    1  N3  UNL     1       0.544  -1.387  -1.670  1.00  0.00    -0.257 N 
HETATM    2  C10 UNL     1       1.227  -2.127  -0.771  1.00  0.00     0.330 A 
HETATM    3  O2  UNL     1       0.731  -3.227  -0.391  1.00  0.00    -0.246 OA
HETATM    4  N4  UNL     1       2.420  -1.760  -0.250  1.00  0.00    -0.307 N 
ATOM      5  H4  UNL     1       2.888  -2.363   0.426  1.00  0.00     0.170 HD
HETATM    6  C11 UNL     1       2.988  -0.603  -0.622  1.00  0.00     0.059 A 
HETATM    7  C12 UNL     1       2.319   0.201  -1.552  1.00  0.00     0.038 A 
HETATM    8  C13 UNL     1       1.090  -0.226  -2.058  1.00  0.00     0.260 A 
HETATM    9  O3  UNL     1       0.490   0.510  -2.901  1.00  0.00    -0.267 OA
HETATM   10  C14 UNL     1       2.822   1.487  -2.057  1.00  0.00     0.051 A 
HETATM   11  C15 UNL     1       4.108   1.957  -1.512  1.00  0.00     0.044 A 
HETATM   12  C16 UNL     1       4.757   1.055  -0.546  1.00  0.00    -0.045 A 
HETATM   13  C17 UNL     1       5.992   1.476  -0.038  1.00  0.00     0.015 A 
HETATM   14  C18 UNL     1       6.707   0.734   0.874  1.00  0.00    -0.056 A 
HETATM   15  C19 UNL     1       8.010   1.223   1.381  1.00  0.00     0.049 C 
HETATM   16  C20 UNL     1       6.165  -0.480   1.296  1.00  0.00    -0.055 A 
HETATM   17  C21 UNL     1       6.926  -1.291   2.278  1.00  0.00     0.049 C 
HETATM   18  C22 UNL     1       4.947  -0.920   0.810  1.00  0.00     0.021 A 
HETATM   19  C23 UNL     1       4.268  -0.152  -0.096  1.00  0.00    -0.002 A 
ENDROOT
BRANCH   1  20
HETATM   20  C9  UNL     1      -0.706  -1.785  -2.230  1.00  0.00     0.240 C 
BRANCH  20  21
HETATM   21  C8  UNL     1      -1.901  -1.303  -1.401  1.00  0.00     0.239 C 
HETATM   22  N2  UNL     1      -1.729  -0.560  -0.245  1.00  0.00    -0.336 N 
ATOM     23  H2  UNL     1      -0.742  -0.396  -0.047  1.00  0.00     0.168 HD
HETATM   24  O1  UNL     1      -3.027  -1.623  -1.836  1.00  0.00    -0.271 OA
BRANCH  22  25
HETATM   25  C7  UNL     1      -2.555   0.026   0.724  1.00  0.00     0.092 C 
BRANCH  25  26
HETATM   26  C6  UNL     1      -3.538   1.060   0.440  1.00  0.00     0.034 C 
BRANCH  26  27
HETATM   27  C5  UNL     1      -4.804   0.854  -0.276  1.00  0.00     0.086 C 
BRANCH  27  28
HETATM   28  N1  UNL     1      -5.839   0.114   0.320  1.00  0.00    -0.391 N 
BRANCH  28  29
HETATM   29  C2  UNL     1      -6.447   0.799   1.463  1.00  0.00     0.117 C 
HETATM   30  C1  UNL     1      -6.646   2.274   1.217  1.00  0.00     0.026 C 
ENDBRANCH  28  29
BRANCH  28  31
HETATM   31  C3  UNL     1      -5.706  -1.257   0.548  1.00  0.00     0.117 C 
HETATM   32  C4  UNL     1      -7.124  -1.910   0.592  1.00  0.00     0.026 C 
ENDBRANCH  28  31
ENDBRANCH  27  28
ENDBRANCH  26  27
ENDBRANCH  25  26
ENDBRANCH  22  25
ENDBRANCH  20  21
ENDBRANCH   1  20
TORSDOF 8
