REMARK  8 active torsions:
REMARK  status: ('A' for Active; 'I' for Inactive)
REMARK    1  A    between atoms: C2_2  and  C3_3 
REMARK    2  A    between atoms: C5_5  and  S1_6 
REMARK    3  A    between atoms: S1_6  and  N1_9 
REMARK    4  A    between atoms: N1_9  and  C6_10 
REMARK    5  A    between atoms: N1_9  and  C11_21 
REMARK    6  A    between atoms: C11_21  and  C12_22 
REMARK    7  A    between atoms: C11_21  and  C14_24 
REMARK    8  A    between atoms: C16_26  and  O5_27 
ROOT
HETATM    1  N1  UNL     1      -1.312   1.182  -0.115  1.00  0.00    -0.260 N 
ENDROOT
BRANCH   1   2
HETATM    2  S1  UNL     1       0.273   1.905   0.155  1.00  0.00     0.268 S 
HETATM    3  O1  UNL     1       0.001   2.897   1.302  1.00  0.00    -0.200 OA
HETATM    4  O2  UNL     1       0.549   2.809  -1.024  1.00  0.00    -0.200 OA
BRANCH   2   5
HETATM    5  C5  UNL     1       1.573   0.870   0.525  1.00  0.00     0.113 A 
HETATM    6  C4  UNL     1       2.495   0.485  -0.474  1.00  0.00     0.035 A 
HETATM    7  C3  UNL     1       3.532  -0.371  -0.281  1.00  0.00    -0.051 A 
HETATM    8  C19 UNL     1       3.714  -0.911   0.973  1.00  0.00    -0.053 A 
HETATM    9  C18 UNL     1       2.854  -0.572   1.975  1.00  0.00     0.045 A 
HETATM   10  C20 UNL     1       4.842  -1.863   1.262  1.00  0.00     0.049 C 
HETATM   11  C16 UNL     1       1.794   0.313   1.748  1.00  0.00     0.092 A 
BRANCH   7  12
HETATM   12  C2  UNL     1       4.477  -0.740  -1.400  1.00  0.00     0.034 C 
HETATM   13  C1  UNL     1       4.196  -2.109  -1.949  1.00  0.00     0.010 C 
ENDBRANCH   7  12
BRANCH  11  14
HETATM   14  O5  UNL     1       0.998   0.583   2.867  1.00  0.00    -0.354 OA
HETATM   15  C17 UNL     1       1.231   0.009   4.115  1.00  0.00     0.210 C 
ENDBRANCH  11  14
ENDBRANCH   2   5
ENDBRANCH   1   2
BRANCH   1  16
HETATM   16  C6  UNL     1      -1.898   1.414  -1.393  1.00  0.00     0.136 A 
HETATM   17  C7  UNL     1      -1.717   0.558  -2.439  1.00  0.00     0.043 A 
HETATM   18  C8  UNL     1      -0.862  -0.657  -2.441  1.00  0.00     0.071 C 
HETATM   19  N2  UNL     1      -2.304   0.810  -3.651  1.00  0.00    -0.310 N 
HETATM   20  C9  UNL     1      -3.054   1.907  -3.790  1.00  0.00     0.327 A 
ATOM     21  H2  UNL     1      -2.171   0.171  -4.434  1.00  0.00     0.170 HD
HETATM   22  O3  UNL     1      -3.610   2.168  -4.893  1.00  0.00    -0.247 OA
HETATM   23  N3  UNL     1      -3.252   2.773  -2.789  1.00  0.00    -0.274 N 
HETATM   24  C10 UNL     1      -2.694   2.557  -1.595  1.00  0.00     0.279 A 
ATOM     25  H3  UNL     1      -3.830   3.600  -2.938  1.00  0.00     0.173 HD
HETATM   26  O4  UNL     1      -2.865   3.365  -0.652  1.00  0.00    -0.265 OA
ENDBRANCH   1  16
BRANCH   1  27
HETATM   27  C11 UNL     1      -1.913   0.485   0.954  1.00  0.00     0.101 C 
BRANCH  27  28
HETATM   28  C12 UNL     1      -3.324   0.776   1.349  1.00  0.00     0.022 C 
HETATM   29  C13 UNL     1      -4.401   0.494   0.384  1.00  0.00     0.007 C 
ENDBRANCH  27  28
BRANCH  27  30
HETATM   30  C14 UNL     1      -1.854  -1.084   0.729  1.00  0.00     0.022 C 
HETATM   31  C15 UNL     1      -2.484  -1.680   1.973  1.00  0.00     0.007 C 
ENDBRANCH  27  30
ENDBRANCH   1  27
TORSDOF 8
