REMARK  5 active torsions:
REMARK  status: ('A' for Active; 'I' for Inactive)
REMARK    1  A    between atoms: C9_12  and  C10_13 
REMARK    2  A    between atoms: C10_13  and  N3_14 
REMARK       I    between atoms: N3_14  and  C11_16 
REMARK       I    between atoms: C11_16  and  N4_18 
REMARK    3  A    between atoms: N4_18  and  C12_20 
REMARK    4  A    between atoms: C12_20  and  C14_22 
REMARK       I    between atoms: C14_22  and  N5_24 
REMARK    5  A    between atoms: N5_24  and  C15_26 
ROOT
HETATM    1  N3  UNL     1      -0.255  -0.011   0.518  1.00  0.00    -0.343 N 
ATOM      2  H3  UNL     1      -0.490  -0.875   0.029  1.00  0.00     0.164 HD
HETATM    3  C11 UNL     1       1.025   0.150   1.078  1.00  0.00     0.316 C 
HETATM    4  O1  UNL     1       1.309   1.216   1.663  1.00  0.00    -0.247 OA
HETATM    5  N4  UNL     1       2.036  -0.849   1.018  1.00  0.00    -0.330 N 
ATOM      6  H4  UNL     1       1.782  -1.720   0.552  1.00  0.00     0.165 HD
ENDROOT
BRANCH   1   7
HETATM    7  C10 UNL     1      -1.222   1.022   0.630  1.00  0.00     0.130 C 
BRANCH   7   8
HETATM    8  C9  UNL     1      -2.519   0.758  -0.023  1.00  0.00     0.022 C 
HETATM    9  C6  UNL     1      -3.547   1.848   0.119  1.00  0.00     0.002 C 
HETATM   10  C4  UNL     1      -4.754   1.186  -0.434  1.00  0.00     0.042 A 
HETATM   11  C7  UNL     1      -3.839   2.174   1.572  1.00  0.00     0.022 C 
HETATM   12  C8  UNL     1      -3.170   3.086  -0.659  1.00  0.00     0.022 C 
HETATM   13  C3  UNL     1      -4.584  -0.187  -0.272  1.00  0.00    -0.009 A 
HETATM   14  N1  UNL     1      -5.968   1.361  -1.037  1.00  0.00    -0.302 N 
HETATM   15  C2  UNL     1      -5.730  -0.755  -0.798  1.00  0.00     0.032 A 
HETATM   16  C19 UNL     1      -3.271  -0.450   0.381  1.00  0.00     0.050 C 
HETATM   17  C1  UNL     1      -6.018  -2.215  -0.854  1.00  0.00     0.070 C 
HETATM   18  N2  UNL     1      -6.547   0.193  -1.252  1.00  0.00    -0.300 N 
HETATM   19  C5  UNL     1      -7.839  -0.006  -1.869  1.00  0.00     0.177 C 
ATOM     20  H1  UNL     1      -6.370   2.265  -1.286  1.00  0.00     0.187 HD
ENDBRANCH   7   8
ENDBRANCH   1   7
BRANCH   5  21
HETATM   21  C12 UNL     1       3.357  -0.774   1.532  1.00  0.00     0.174 C 
HETATM   22  C13 UNL     1       3.720  -2.058   2.214  1.00  0.00     0.042 C 
BRANCH  21  23
HETATM   23  C14 UNL     1       4.381  -0.526   0.450  1.00  0.00     0.240 C 
HETATM   24  O2  UNL     1       4.030   0.022  -0.650  1.00  0.00    -0.271 OA
HETATM   25  N5  UNL     1       5.741  -0.884   0.596  1.00  0.00    -0.351 N 
ATOM     26  H5  UNL     1       6.046  -1.335   1.459  1.00  0.00     0.163 HD
BRANCH  25  27
HETATM   27  C15 UNL     1       6.707  -0.629  -0.442  1.00  0.00     0.022 C 
HETATM   28  C16 UNL     1       8.058  -1.230  -0.100  1.00  0.00     0.037 C 
HETATM   29  C17 UNL     1       6.887   0.895  -0.461  1.00  0.00     0.037 C 
HETATM   30  C18 UNL     1       6.245  -1.173  -1.753  1.00  0.00     0.037 C 
ENDBRANCH  25  27
ENDBRANCH  21  23
ENDBRANCH   5  21
TORSDOF 5
