REMARK  7 active torsions:
REMARK  status: ('A' for Active; 'I' for Inactive)
REMARK    1  A    between atoms: C10_10  and  C11_11 
REMARK    2  A    between atoms: C11_11  and  N1_12 
REMARK    3  A    between atoms: N1_12  and  C12_14 
REMARK    4  A    between atoms: C12_14  and  C13_15 
REMARK    5  A    between atoms: C13_15  and  C14_16 
REMARK    6  A    between atoms: C17_19  and  N2_20 
REMARK    7  A    between atoms: N2_20  and  S1_22 
ROOT
HETATM    1  N1  UNL     1       1.477  -0.354  -0.367  1.00  0.00    -0.417 N 
ATOM      2  H1  UNL     1       1.026  -0.246  -1.275  1.00  0.00     0.153 HD
ENDROOT
BRANCH   1   3
HETATM    3  C11 UNL     1       0.762  -0.218   0.870  1.00  0.00     0.148 C 
BRANCH   3   4
HETATM    4  C10 UNL     1      -0.669   0.094   0.531  1.00  0.00    -0.066 C 
HETATM    5  C9  UNL     1      -1.153   1.231   0.975  1.00  0.00    -0.022 C 
HETATM    6  C8  UNL     1      -2.567   1.617   0.683  1.00  0.00     0.033 C 
HETATM    7  C7  UNL     1      -3.420   0.396   0.488  1.00  0.00    -0.002 C 
HETATM    8  C6  UNL     1      -4.799   0.739   0.050  1.00  0.00     0.002 C 
HETATM    9  C22 UNL     1      -2.845  -0.594  -0.484  1.00  0.00    -0.006 C 
HETATM   10  C5  UNL     1      -4.924   1.255  -1.348  1.00  0.00     0.006 C 
HETATM   11  C25 UNL     1      -5.685  -0.484   0.159  1.00  0.00    -0.017 C 
HETATM   12  C4  UNL     1      -6.268   1.950  -1.441  1.00  0.00     0.005 C 
HETATM   13  C3  UNL     1      -7.341   0.923  -1.329  1.00  0.00     0.034 C 
HETATM   14  C2  UNL     1      -7.000  -0.251  -0.490  1.00  0.00    -0.081 C 
HETATM   15  C1  UNL     1      -7.943  -1.163  -0.307  1.00  0.00     0.015 C 
HETATM   16  C24 UNL     1      -5.099  -1.706  -0.488  1.00  0.00     0.014 C 
HETATM   17  C26 UNL     1      -5.934  -0.691   1.647  1.00  0.00     0.020 C 
HETATM   18  C23 UNL     1      -3.631  -1.874  -0.348  1.00  0.00     0.006 C 
HETATM   19  C21 UNL     1      -1.397  -0.907  -0.268  1.00  0.00     0.040 C 
ENDBRANCH   3   4
ENDBRANCH   1   3
BRANCH   1  20
HETATM   20  C12 UNL     1       2.870  -0.653  -0.231  1.00  0.00     0.118 C 
BRANCH  20  21
HETATM   21  C13 UNL     1       3.588   0.525   0.357  1.00  0.00     0.061 C 
BRANCH  21  22
HETATM   22  C14 UNL     1       5.050   0.291   0.530  1.00  0.00    -0.015 A 
HETATM   23  C15 UNL     1       5.947   0.870  -0.343  1.00  0.00     0.013 A 
HETATM   24  C16 UNL     1       7.324   0.664  -0.194  1.00  0.00     0.034 A 
HETATM   25  C17 UNL     1       7.826  -0.113   0.812  1.00  0.00     0.084 A 
HETATM   26  C19 UNL     1       6.908  -0.697   1.694  1.00  0.00     0.182 A 
HETATM   27  F1  UNL     1       7.432  -1.462   2.681  1.00  0.00    -0.200 F 
HETATM   28  C20 UNL     1       5.555  -0.491   1.544  1.00  0.00     0.163 A 
HETATM   29  F2  UNL     1       4.708  -1.075   2.416  1.00  0.00    -0.202 F 
BRANCH  25  30
HETATM   30  N2  UNL     1       9.211  -0.310   0.950  1.00  0.00    -0.282 N 
ATOM     31  H2  UNL     1       9.563  -0.880   1.719  1.00  0.00     0.178 HD
BRANCH  30  32
HETATM   32  S1  UNL     1      10.309   0.388  -0.148  1.00  0.00     0.227 S 
HETATM   33  C18 UNL     1      10.124  -0.140  -1.808  1.00  0.00     0.186 C 
HETATM   34  O1  UNL     1      10.163   1.899  -0.104  1.00  0.00    -0.206 OA
HETATM   35  O2  UNL     1      11.749   0.134   0.292  1.00  0.00    -0.206 OA
ENDBRANCH  30  32
ENDBRANCH  25  30
ENDBRANCH  21  22
ENDBRANCH  20  21
ENDBRANCH   1  20
TORSDOF 7
