REMARK  8 active torsions:
REMARK  status: ('A' for Active; 'I' for Inactive)
REMARK    1  A    between atoms: C5_9  and  N2_10 
REMARK    2  A    between atoms: N2_10  and  C6_12 
REMARK    3  A    between atoms: C6_12  and  C7_13 
REMARK    4  A    between atoms: C7_13  and  C8_14 
REMARK    5  A    between atoms: C8_14  and  C9_15 
REMARK    6  A    between atoms: C9_15  and  N3_16 
REMARK    7  A    between atoms: N3_16  and  C10_19 
REMARK    8  A    between atoms: C10_19  and  C11_20 
ROOT
HETATM    1  C7  UNL     1       1.482  -0.899   2.545  1.00  0.00     0.021 C 
ENDROOT
BRANCH   1   2
HETATM    2  C6  UNL     1       2.605   0.027   2.023  1.00  0.00     0.121 C 
BRANCH   2   3
HETATM    3  N2  UNL     1       3.287  -0.521   0.954  1.00  0.00    -0.375 N 
ATOM      4  H2  UNL     1       2.899  -1.432   0.708  1.00  0.00     0.161 HD
BRANCH   3   5
HETATM    5  C5  UNL     1       4.249  -0.225   0.193  1.00  0.00     0.119 A 
HETATM    6  N1  UNL     1       4.571  -1.164  -0.786  1.00  0.00    -0.350 N 
HETATM    7  C4  UNL     1       5.575  -0.900  -1.611  1.00  0.00     0.109 A 
ATOM      8  H1  UNL     1       4.046  -2.035  -0.866  1.00  0.00     0.166 HD
HETATM    9  C3  UNL     1       6.309   0.292  -1.515  1.00  0.00     0.033 A 
HETATM   10  S1  UNL     1       7.623   0.964  -2.367  1.00  0.00    -0.098 SA
HETATM   11  C22 UNL     1       6.032   1.242  -0.572  1.00  0.00     0.026 A 
HETATM   12  C2  UNL     1       7.793   2.426  -1.516  1.00  0.00     0.075 A 
HETATM   13  C1  UNL     1       6.801   2.350  -0.572  1.00  0.00     0.053 A 
HETATM   14 CL1  UNL     1       6.637   3.738   0.561  1.00  0.00    -0.083 Cl
HETATM   15  C21 UNL     1       4.960   0.938   0.292  1.00  0.00     0.068 A 
HETATM   16 BR1  UNL     1       4.480   2.207   1.664  1.00  0.00    -0.046 Br
ENDBRANCH   3   5
ENDBRANCH   2   3
ENDBRANCH   1   2
BRANCH   1  17
HETATM   17  C8  UNL     1       0.517  -1.151   1.428  1.00  0.00     0.029 C 
BRANCH  17  18
HETATM   18  C9  UNL     1      -0.149   0.042   0.861  1.00  0.00     0.232 C 
BRANCH  18  19
HETATM   19  N3  UNL     1      -1.050  -0.328  -0.199  1.00  0.00    -0.074 N 
ATOM     20  H32 UNL     1      -1.335   0.478  -0.755  1.00  0.00     0.277 HD
ATOM     21  H31 UNL     1      -0.579  -0.857  -0.932  1.00  0.00     0.277 HD
BRANCH  19  22
HETATM   22  C10 UNL     1      -2.181  -1.040   0.336  1.00  0.00     0.241 C 
BRANCH  22  23
HETATM   23  C11 UNL     1      -3.183  -1.381  -0.764  1.00  0.00     0.045 C 
HETATM   24  C12 UNL     1      -4.368  -2.126  -0.211  1.00  0.00     0.011 C 
HETATM   25  C13 UNL     1      -5.336  -1.280   0.545  1.00  0.00     0.005 C 
HETATM   26  C14 UNL     1      -5.207   0.193   0.355  1.00  0.00     0.039 C 
HETATM   27  C15 UNL     1      -4.592   0.621  -0.908  1.00  0.00    -0.051 A 
HETATM   28  C16 UNL     1      -5.029   1.802  -1.523  1.00  0.00     0.007 A 
HETATM   29  C20 UNL     1      -3.596  -0.142  -1.463  1.00  0.00    -0.046 A 
HETATM   30  C17 UNL     1      -4.419   2.157  -2.698  1.00  0.00     0.001 A 
HETATM   31  C18 UNL     1      -3.418   1.399  -3.264  1.00  0.00     0.001 A 
HETATM   32  C19 UNL     1      -3.003   0.227  -2.629  1.00  0.00     0.008 A 
ENDBRANCH  22  23
ENDBRANCH  19  22
ENDBRANCH  18  19
ENDBRANCH  17  18
ENDBRANCH   1  17
TORSDOF 8
