REMARK  10 active torsions:
REMARK  status: ('A' for Active; 'I' for Inactive)
REMARK    1  A    between atoms: C2_2  and  N1_4 
REMARK    2  A    between atoms: C2_2  and  C22_31 
REMARK    3  A    between atoms: N1_4  and  C4_5 
REMARK    4  A    between atoms: C8_13  and  N4_14 
REMARK    5  A    between atoms: N4_14  and  C9_16 
REMARK    6  A    between atoms: C9_16  and  C10_17 
REMARK    7  A    between atoms: C10_17  and  C11_18 
REMARK    8  A    between atoms: C11_18  and  C12_19 
REMARK    9  A    between atoms: C12_19  and  C13_20 
REMARK   10  A    between atoms: C13_20  and  C14_21 
ROOT
HETATM    1  C4  UNL     1       4.129   0.812  -0.784  1.00  0.00     0.189 A 
HETATM    2  N2  UNL     1       4.424   2.080  -1.237  1.00  0.00    -0.327 N 
ATOM      3  H2  UNL     1       5.396   2.390  -1.223  1.00  0.00     0.169 HD
HETATM    4  C5  UNL     1       3.493   2.918  -1.692  1.00  0.00     0.183 A 
HETATM    5  N3  UNL     1       2.200   2.618  -1.754  1.00  0.00    -0.351 N 
ATOM      6  H3  UNL     1       1.516   3.286  -2.109  1.00  0.00     0.166 HD
HETATM    7  C6  UNL     1       1.829   1.387  -1.326  1.00  0.00     0.053 A 
HETATM    8  C7  UNL     1       0.505   1.021  -1.376  1.00  0.00     0.078 A 
HETATM    9  C8  UNL     1       0.111  -0.246  -0.947  1.00  0.00     0.102 A 
HETATM   10  N5  UNL     1       1.043  -1.089  -0.490  1.00  0.00    -0.351 N 
ATOM     11  H5  UNL     1       0.767  -2.018  -0.173  1.00  0.00     0.166 HD
HETATM   12  C20 UNL     1       2.328  -0.735  -0.442  1.00  0.00     0.108 A 
HETATM   13  C21 UNL     1       2.758   0.493  -0.850  1.00  0.00     0.064 A 
ENDROOT
BRANCH   9  14
HETATM   14  N4  UNL     1      -1.138  -0.514  -1.027  1.00  0.00    -0.376 N 
ATOM     15  H4  UNL     1      -1.738   0.223  -1.397  1.00  0.00     0.161 HD
BRANCH  14  16
HETATM   16  C9  UNL     1      -1.785  -1.734  -0.654  1.00  0.00     0.121 C 
BRANCH  16  17
HETATM   17  C10 UNL     1      -2.202  -1.663   0.792  1.00  0.00     0.020 C 
BRANCH  17  18
HETATM   18  C11 UNL     1      -3.141  -0.528   1.067  1.00  0.00     0.002 C 
BRANCH  18  19
HETATM   19  C12 UNL     1      -4.389  -0.668   0.239  1.00  0.00     0.000 C 
BRANCH  19  20
HETATM   20  C13 UNL     1      -5.271   0.518   0.589  1.00  0.00     0.004 C 
BRANCH  20  21
HETATM   21  C14 UNL     1      -6.561   0.488  -0.197  1.00  0.00    -0.014 C 
HETATM   22  C15 UNL     1      -7.311  -0.751   0.115  1.00  0.00     0.004 C 
HETATM   23  C16 UNL     1      -8.630  -0.385   0.774  1.00  0.00     0.000 C 
HETATM   24  C17 UNL     1      -9.396   0.474  -0.206  1.00  0.00     0.000 C 
HETATM   25  C18 UNL     1      -8.687   1.787  -0.462  1.00  0.00     0.000 C 
HETATM   26  C19 UNL     1      -7.286   1.778   0.104  1.00  0.00     0.004 C 
ENDBRANCH  20  21
ENDBRANCH  19  20
ENDBRANCH  18  19
ENDBRANCH  17  18
ENDBRANCH  16  17
ENDBRANCH  14  16
ENDBRANCH   9  14
BRANCH   1  27
HETATM   27  N1  UNL     1       4.962   0.059  -0.386  1.00  0.00    -0.414 NA
BRANCH  27  28
HETATM   28  C2  UNL     1       5.894  -0.784   0.060  1.00  0.00     0.117 C 
HETATM   29  C1  UNL     1       5.606  -1.212   1.514  1.00  0.00     0.060 C 
HETATM   30  C3  UNL     1       6.038  -2.107  -0.698  1.00  0.00     0.060 C 
BRANCH  28  31
HETATM   31  C22 UNL     1       7.297  -0.211   0.093  1.00  0.00     0.004 A 
HETATM   32  C23 UNL     1       8.317  -0.733  -0.686  1.00  0.00     0.015 A 
HETATM   33  C24 UNL     1       9.556  -0.128  -0.623  1.00  0.00     0.043 A 
HETATM   34  C25 UNL     1       9.819   0.956   0.170  1.00  0.00     0.118 A 
HETATM   35  F1  UNL     1      11.041   1.538   0.219  1.00  0.00    -0.206 F 
HETATM   36  C26 UNL     1       8.784   1.448   0.931  1.00  0.00     0.066 A 
HETATM   37  C27 UNL     1       7.513   0.869   0.900  1.00  0.00     0.046 A 
HETATM   38 CL1  UNL     1       6.295   1.550   1.930  1.00  0.00    -0.084 Cl
ENDBRANCH  28  31
ENDBRANCH  27  28
ENDBRANCH   1  27
TORSDOF 10
