REMARK  8 active torsions:
REMARK  status: ('A' for Active; 'I' for Inactive)
REMARK    1  A    between atoms: C6_9  and  N2_10 
REMARK    2  A    between atoms: N2_10  and  C7_12 
REMARK    3  A    between atoms: C7_12  and  C8_13 
REMARK    4  A    between atoms: C8_13  and  C9_14 
REMARK    5  A    between atoms: C9_14  and  N3_15 
REMARK    6  A    between atoms: N3_15  and  C10_16 
REMARK    7  A    between atoms: N3_15  and  C18_28 
REMARK    8  A    between atoms: C10_16  and  C11_17 
ROOT
HETATM    1  N3  UNL     1      -0.877  -0.404  -0.496  1.00  0.00     0.097 N 
ENDROOT
BRANCH   1   2
HETATM    2  C9  UNL     1       0.276  -0.794   0.382  1.00  0.00     0.275 C 
BRANCH   2   3
HETATM    3  C8  UNL     1       1.211  -1.731  -0.269  1.00  0.00     0.050 C 
BRANCH   3   4
HETATM    4  C7  UNL     1       2.408  -2.059   0.612  1.00  0.00     0.121 C 
BRANCH   4   5
HETATM    5  N2  UNL     1       3.232  -0.938   0.928  1.00  0.00    -0.389 N 
ATOM      6  H2  UNL     1       3.050  -0.400   1.775  1.00  0.00     0.159 HD
BRANCH   5   7
HETATM    7  C6  UNL     1       4.223  -0.593   0.138  1.00  0.00     0.042 A 
HETATM    8  C5  UNL     1       4.491  -1.295  -1.013  1.00  0.00     0.047 A 
HETATM    9  C4  UNL     1       5.558  -0.914  -1.816  1.00  0.00     0.090 A 
HETATM   10  N1  UNL     1       6.347   0.125  -1.512  1.00  0.00    -0.365 N 
HETATM   11  C3  UNL     1       6.106   0.827  -0.395  1.00  0.00     0.046 A 
ATOM     12  H1  UNL     1       7.123   0.379  -2.123  1.00  0.00     0.165 HD
HETATM   13  C2  UNL     1       6.932   1.900  -0.087  1.00  0.00     0.056 A 
HETATM   14  C24 UNL     1       5.044   0.467   0.430  1.00  0.00     0.019 A 
HETATM   15  C1  UNL     1       6.684   2.611   1.058  1.00  0.00     0.058 A 
HETATM   16 CL1  UNL     1       7.711   3.984   1.477  1.00  0.00    -0.082 Cl
HETATM   17  C26 UNL     1       5.638   2.270   1.888  1.00  0.00     0.056 A 
HETATM   18  C25 UNL     1       4.824   1.201   1.568  1.00  0.00     0.041 A 
HETATM   19 CL2  UNL     1       5.325   3.184   3.364  1.00  0.00    -0.083 Cl
ENDBRANCH   5   7
ENDBRANCH   4   5
ENDBRANCH   3   4
ENDBRANCH   2   3
ENDBRANCH   1   2
BRANCH   1  20
HETATM   20  C10 UNL     1      -1.535   0.587   0.358  1.00  0.00     0.315 C 
BRANCH  20  21
HETATM   21  C11 UNL     1      -2.417   1.554  -0.273  1.00  0.00     0.012 A 
HETATM   22  C12 UNL     1      -2.509   1.771  -1.606  1.00  0.00     0.098 A 
HETATM   23  N4  UNL     1      -3.300   2.757  -2.066  1.00  0.00    -0.374 N 
HETATM   24  C13 UNL     1      -4.025   3.566  -1.287  1.00  0.00     0.097 A 
ATOM     25  H4  UNL     1      -3.350   2.896  -3.075  1.00  0.00     0.164 HD
HETATM   26  C14 UNL     1      -3.941   3.358   0.070  1.00  0.00    -0.014 A 
HETATM   27  C15 UNL     1      -3.151   2.367   0.597  1.00  0.00     0.045 A 
HETATM   28  C17 UNL     1      -4.629   4.086   1.195  1.00  0.00     0.062 C 
HETATM   29  N5  UNL     1      -3.301   2.424   2.019  1.00  0.00    -0.389 N 
HETATM   30  C16 UNL     1      -4.638   2.988   2.244  1.00  0.00     0.124 C 
ATOM     31  H5  UNL     1      -2.624   2.135   2.725  1.00  0.00     0.159 HD
ENDBRANCH  20  21
ENDBRANCH   1  20
BRANCH   1  32
HETATM   32  C18 UNL     1      -1.716  -1.581  -0.626  1.00  0.00     0.223 C 
HETATM   33  C19 UNL     1      -2.411  -2.037   0.609  1.00  0.00     0.036 C 
HETATM   34  C20 UNL     1      -3.280  -3.242   0.316  1.00  0.00     0.002 C 
HETATM   35  C21 UNL     1      -2.861  -3.981  -0.931  1.00  0.00     0.000 C 
HETATM   36  C22 UNL     1      -2.897  -3.098  -2.152  1.00  0.00     0.002 C 
HETATM   37  C23 UNL     1      -2.671  -1.630  -1.774  1.00  0.00     0.036 C 
ENDBRANCH   1  32
TORSDOF 8
