REMARK  2 active torsions:
REMARK  status: ('A' for Active; 'I' for Inactive)
REMARK    1  A    between atoms: C1_4  and  N2_5 
REMARK    2  A    between atoms: N2_5  and  C2_7 
ROOT
HETATM    1  N2  UNL     1       0.811  -0.073   0.339  1.00  0.00    -0.382 N 
ATOM      2  H2  UNL     1       1.081   0.072   1.312  1.00  0.00     0.160 HD
ENDROOT
BRANCH   1   3
HETATM    3  C1  UNL     1       1.757   0.263  -0.660  1.00  0.00     0.169 C 
HETATM    4  N1  UNL     1       3.038   0.207  -0.466  1.00  0.00    -0.396 N 
ATOM      5  H12 UNL     1       3.362  -0.095   0.453  1.00  0.00     0.156 HD
ATOM      6  H11 UNL     1       3.719   0.449  -1.185  1.00  0.00     0.156 HD
ENDBRANCH   1   3
BRANCH   1   7
HETATM    7  C2  UNL     1      -0.495  -0.600   0.086  1.00  0.00     0.082 A 
HETATM    8  C3  UNL     1      -1.526   0.083  -0.689  1.00  0.00     0.027 A 
HETATM    9  C4  UNL     1      -1.607   0.135   0.830  1.00  0.00     0.027 A 
ENDBRANCH   1   7
TORSDOF 2
