REMARK  2 active torsions:
REMARK  status: ('A' for Active; 'I' for Inactive)
REMARK    1  A    between atoms: C1_4  and  N2_5 
REMARK    2  A    between atoms: C2_7  and  C3_8 
ROOT
HETATM    1  N2  UNL     1       1.185   0.045  -0.469  1.00  0.00    -0.364 N 
ATOM      2  H2  UNL     1       1.009   0.316  -1.436  1.00  0.00     0.165 HD
HETATM    3  C2  UNL     1       0.196  -0.005   0.358  1.00  0.00     0.096 C 
ENDROOT
BRANCH   1   4
HETATM    4  C1  UNL     1       2.512  -0.267  -0.071  1.00  0.00     0.172 C 
HETATM    5  N1  UNL     1       3.433   0.574  -0.387  1.00  0.00    -0.395 N 
ATOM      6  H12 UNL     1       3.203   1.424  -0.902  1.00  0.00     0.156 HD
ATOM      7  H11 UNL     1       4.386   0.350  -0.101  1.00  0.00     0.156 HD
ENDBRANCH   1   4
BRANCH   3   8
HETATM    8  C3  UNL     1      -1.176   0.324  -0.077  1.00  0.00     0.249 A 
HETATM    9  C4  UNL     1      -2.245  -0.607   0.180  1.00  0.00     0.271 A 
HETATM   10  N3  UNL     1      -2.146   0.710   0.940  1.00  0.00    -0.062 N 
ATOM     11  H32 UNL     1      -2.114   0.996   1.918  1.00  0.00     0.278 HD
ATOM     12  H31 UNL     1      -2.755   1.510   1.113  1.00  0.00     0.278 HD
ENDBRANCH   3   8
TORSDOF 2
