REMARK  12 active torsions:
REMARK  status: ('A' for Active; 'I' for Inactive)
REMARK    1  A    between atoms: C1_4  and  N2_5 
REMARK    2  A    between atoms: N2_5  and  C2_7 
REMARK    3  A    between atoms: C2_7  and  C3_8 
REMARK    4  A    between atoms: C3_8  and  C4_9 
REMARK    5  A    between atoms: C4_9  and  O1_10 
REMARK    6  A    between atoms: O1_10  and  N3_11 
REMARK    7  A    between atoms: N3_11  and  C5_13 
REMARK    8  A    between atoms: C5_13  and  C6_14 
REMARK    9  A    between atoms: C8_16  and  N4_17 
REMARK   10  A    between atoms: C9_21  and  N5_22 
REMARK   11  A    between atoms: C12_27  and  N7_28 
REMARK   12  A    between atoms: C13_33  and  N9_34 
ROOT
HETATM    1  C6  UNL     1      -0.092  -0.267   0.090  1.00  0.00     0.146 C 
HETATM    2  C7  UNL     1      -0.695  -1.290  -0.807  1.00  0.00     0.071 C 
HETATM    3  C8  UNL     1      -2.146  -1.246  -0.291  1.00  0.00     0.234 C 
HETATM    4  C9  UNL     1      -2.215   0.100   0.334  1.00  0.00     0.261 C 
HETATM    5  O2  UNL     1      -0.995   0.746   0.149  1.00  0.00    -0.357 OA
ENDROOT
BRANCH   4   6
HETATM    6  N5  UNL     1      -3.334   0.943  -0.054  1.00  0.00    -0.297 N 
HETATM    7  C10 UNL     1      -3.263   2.211  -0.596  1.00  0.00     0.188 A 
HETATM    8  N6  UNL     1      -4.498   2.591  -0.754  1.00  0.00    -0.346 N 
HETATM    9  C11 UNL     1      -5.371   1.639  -0.336  1.00  0.00     0.123 A 
ATOM     10  H6  UNL     1      -4.775   3.492  -1.143  1.00  0.00     0.167 HD
HETATM   11  C12 UNL     1      -6.728   1.620  -0.271  1.00  0.00     0.145 A 
HETATM   12  C14 UNL     1      -4.614   0.599   0.110  1.00  0.00     0.157 A 
HETATM   13  N8  UNL     1      -7.281   0.467   0.279  1.00  0.00    -0.175 N 
HETATM   14  C13 UNL     1      -6.589  -0.556   0.721  1.00  0.00     0.679 A 
ATOM     15  H8  UNL     1      -8.298   0.414   0.343  1.00  0.00     0.186 HD
HETATM   16  N10 UNL     1      -5.214  -0.479   0.626  1.00  0.00    -0.174 N 
ATOM     17  H10 UNL     1      -4.645  -1.259   0.956  1.00  0.00     0.186 HD
BRANCH  11  18
HETATM   18  N7  UNL     1      -7.535   2.490  -0.677  1.00  0.00    -0.383 N 
ATOM     19  H72 UNL     1      -7.130   3.335  -1.080  1.00  0.00     0.157 HD
ATOM     20  H71 UNL     1      -8.554   2.476  -0.628  1.00  0.00     0.157 HD
ENDBRANCH  11  18
BRANCH  14  21
HETATM   21  N9  UNL     1      -7.106  -1.601   1.236  1.00  0.00    -0.234 N 
ATOM     22  H92 UNL     1      -8.122  -1.658   1.306  1.00  0.00     0.174 HD
ATOM     23  H91 UNL     1      -6.568  -2.396   1.580  1.00  0.00     0.174 HD
ENDBRANCH  14  21
ENDBRANCH   4   6
BRANCH   3  24
HETATM   24  N4  UNL     1      -3.048  -1.543  -1.353  1.00  0.00    -0.071 N 
ATOM     25  H43 UNL     1      -2.909  -0.930  -2.156  1.00  0.00     0.274 HD
ATOM     26  H42 UNL     1      -2.829  -2.431  -1.804  1.00  0.00     0.274 HD
ATOM     27  H41 UNL     1      -4.009  -1.514  -1.011  1.00  0.00     0.274 HD
ENDBRANCH   3  24
BRANCH   1  28
HETATM   28  C5  UNL     1       1.321   0.155  -0.219  1.00  0.00     0.178 C 
BRANCH  28  29
HETATM   29  N3  UNL     1       2.193  -1.032  -0.331  1.00  0.00    -0.300 N 
ATOM     30  H3  UNL     1       1.787  -1.965  -0.403  1.00  0.00     0.187 HD
BRANCH  29  31
HETATM   31  O1  UNL     1       3.348  -0.892  -0.336  1.00  0.00    -0.285 OA
BRANCH  31  32
HETATM   32  C4  UNL     1       4.588  -0.745  -0.344  1.00  0.00     0.202 C 
BRANCH  32  33
HETATM   33  C3  UNL     1       5.107   0.317   0.691  1.00  0.00     0.048 C 
BRANCH  33  34
HETATM   34  C2  UNL     1       6.570   0.213   0.784  1.00  0.00     0.122 C 
BRANCH  34  35
HETATM   35  N2  UNL     1       7.356   0.364  -0.398  1.00  0.00    -0.386 N 
ATOM     36  H2  UNL     1       6.951   0.678  -1.280  1.00  0.00     0.160 HD
BRANCH  35  37
HETATM   37  C1  UNL     1       8.743   0.050  -0.273  1.00  0.00     0.168 C 
HETATM   38  N1  UNL     1       9.674   0.875  -0.161  1.00  0.00    -0.396 N 
ATOM     39  H12 UNL     1       9.401   1.858  -0.161  1.00  0.00     0.156 HD
ATOM     40  H11 UNL     1      10.665   0.651  -0.072  1.00  0.00     0.156 HD
ENDBRANCH  35  37
ENDBRANCH  34  35
ENDBRANCH  33  34
ENDBRANCH  32  33
ENDBRANCH  31  32
ENDBRANCH  29  31
ENDBRANCH  28  29
ENDBRANCH   1  28
TORSDOF 12
