REMARK  15 active torsions:
REMARK  status: ('A' for Active; 'I' for Inactive)
REMARK    1  A    between atoms: N1_2  and  C2_4 
REMARK    2  A    between atoms: C2_4  and  C3_5 
REMARK    3  A    between atoms: C2_4  and  N8_24 
REMARK    4  A    between atoms: C3_5  and  N2_6 
REMARK    5  A    between atoms: C6_11  and  N4_12 
REMARK    6  A    between atoms: C7_17  and  N6_18 
REMARK    7  A    between atoms: N8_24  and  C9_26 
REMARK    8  A    between atoms: C9_26  and  C10_27 
REMARK    9  A    between atoms: C10_27  and  S1_28 
REMARK   10  A    between atoms: S1_28  and  C11_29 
REMARK   11  A    between atoms: C11_29  and  C12_30 
REMARK   12  A    between atoms: C12_30  and  C13_31 
REMARK   13  A    between atoms: C13_31  and  N9_32 
REMARK   14  A    between atoms: C13_31  and  N10_36 
REMARK   15  A    between atoms: N10_36  and  N11_38 
ROOT
HETATM    1  C2  UNL     1      -1.362   0.425  -0.476  1.00  0.00     0.091 C 
ENDROOT
BRANCH   1   2
HETATM    2  N1  UNL     1      -2.086   0.987  -1.382  1.00  0.00    -0.383 N 
HETATM    3  C1  UNL     1      -1.722   2.154  -2.123  1.00  0.00     0.147 C 
ATOM      4  H1  UNL     1      -2.992   0.565  -1.587  1.00  0.00     0.160 HD
ENDBRANCH   1   2
BRANCH   1   5
HETATM    5  C3  UNL     1      -1.919  -0.787   0.185  1.00  0.00     0.207 C 
BRANCH   5   6
HETATM    6  N2  UNL     1      -3.216  -1.127  -0.332  1.00  0.00    -0.320 N 
HETATM    7  C4  UNL     1      -3.406  -1.957  -1.390  1.00  0.00     0.185 A 
HETATM    8  N3  UNL     1      -4.729  -2.027  -1.569  1.00  0.00    -0.346 N 
HETATM    9  C5  UNL     1      -5.360  -1.258  -0.642  1.00  0.00     0.123 A 
ATOM     10  H3  UNL     1      -5.195  -2.575  -2.292  1.00  0.00     0.167 HD
HETATM   11  C6  UNL     1      -6.698  -1.015  -0.427  1.00  0.00     0.145 A 
HETATM   12  C8  UNL     1      -4.381  -0.686   0.144  1.00  0.00     0.155 A 
HETATM   13  N5  UNL     1      -7.027  -0.188   0.594  1.00  0.00    -0.175 N 
HETATM   14  C7  UNL     1      -6.088   0.385   1.379  1.00  0.00     0.679 A 
ATOM     15  H5  UNL     1      -8.011   0.008   0.776  1.00  0.00     0.186 HD
HETATM   16  N7  UNL     1      -4.788   0.131   1.147  1.00  0.00    -0.174 N 
ATOM     17  H7  UNL     1      -4.086   0.567   1.745  1.00  0.00     0.186 HD
BRANCH  11  18
HETATM   18  N4  UNL     1      -7.565  -1.567  -1.181  1.00  0.00    -0.383 N 
ATOM     19  H42 UNL     1      -7.317  -2.190  -1.950  1.00  0.00     0.157 HD
ATOM     20  H41 UNL     1      -8.556  -1.387  -1.022  1.00  0.00     0.157 HD
ENDBRANCH  11  18
BRANCH  14  21
HETATM   21  N6  UNL     1      -6.494   1.160   2.329  1.00  0.00    -0.234 N 
ATOM     22  H62 UNL     1      -7.480   1.353   2.505  1.00  0.00     0.174 HD
ATOM     23  H61 UNL     1      -5.785   1.592   2.921  1.00  0.00     0.174 HD
ENDBRANCH  14  21
ENDBRANCH   5   6
ENDBRANCH   1   5
BRANCH   1  24
HETATM   24  N8  UNL     1      -0.092   0.942  -0.130  1.00  0.00    -0.378 N 
ATOM     25  H8  UNL     1       0.117   1.918  -0.341  1.00  0.00     0.160 HD
BRANCH  24  26
HETATM   26  C9  UNL     1       0.916   0.138   0.509  1.00  0.00     0.131 C 
BRANCH  26  27
HETATM   27  C10 UNL     1       2.185   0.958   0.757  1.00  0.00     0.093 C 
BRANCH  27  28
HETATM   28  S1  UNL     1       3.462   0.003   1.546  1.00  0.00    -0.167 SA
BRANCH  28  29
HETATM   29  C11 UNL     1       4.156  -1.327   0.615  1.00  0.00     0.077 C 
BRANCH  29  30
HETATM   30  C12 UNL     1       5.005  -0.989  -0.560  1.00  0.00     0.066 C 
BRANCH  30  31
HETATM   31  C13 UNL     1       6.240  -0.199  -0.197  1.00  0.00     0.296 C 
BRANCH  31  32
HETATM   32  N9  UNL     1       7.095  -0.897   0.745  1.00  0.00    -0.057 N 
ATOM     33  H93 UNL     1       6.575  -1.167   1.580  1.00  0.00     0.276 HD
ATOM     34  H92 UNL     1       7.342  -1.823   0.397  1.00  0.00     0.276 HD
ATOM     35  H91 UNL     1       7.929  -0.363   0.990  1.00  0.00     0.276 HD
ENDBRANCH  31  32
BRANCH  31  36
HETATM   36  N10 UNL     1       5.895   1.120   0.200  1.00  0.00    -0.313 N 
ATOM     37  H10 UNL     1       5.980   1.439   1.165  1.00  0.00     0.182 HD
BRANCH  36  38
HETATM   38  N11 UNL     1       5.432   1.947  -0.820  1.00  0.00    -0.348 N 
ATOM     39 2H11 UNL     1       5.352   1.613  -1.781  1.00  0.00     0.176 HD
ATOM     40 1H11 UNL     1       5.184   2.894  -0.535  1.00  0.00     0.176 HD
ENDBRANCH  36  38
ENDBRANCH  31  36
ENDBRANCH  30  31
ENDBRANCH  29  30
ENDBRANCH  28  29
ENDBRANCH  27  28
ENDBRANCH  26  27
ENDBRANCH  24  26
ENDBRANCH   1  24
TORSDOF 15
