REMARK  11 active torsions:
REMARK  status: ('A' for Active; 'I' for Inactive)
REMARK    1  A    between atoms: C2_2  and  N1_3 
REMARK    2  A    between atoms: N1_3  and  C4_5 
REMARK    3  A    between atoms: C4_5  and  C5_6 
REMARK    4  A    between atoms: C5_6  and  N2_7 
REMARK    5  A    between atoms: N2_7  and  N3_8 
REMARK    6  A    between atoms: N2_7  and  C6_11 
REMARK    7  A    between atoms: C6_11  and  C7_12 
REMARK    8  A    between atoms: C7_12  and  C8_13 
REMARK    9  A    between atoms: C8_13  and  N4_14 
REMARK   10  A    between atoms: C9_15  and  N5_16 
REMARK   11  A    between atoms: C11_22  and  N7_23 
REMARK       I    between atoms: N7_23  and  C12_25 
REMARK       I    between atoms: C12_25  and  N8_26 
REMARK       I    between atoms: C12_25  and  N9_30 
ROOT
HETATM    1  N4  UNL     1      -1.521  -0.288   2.332  1.00  0.00    -0.166 N 
HETATM    2  C9  UNL     1      -2.484   0.408   2.986  1.00  0.00     0.680 A 
HETATM    3  N6  UNL     1      -3.575   0.463   2.212  1.00  0.00    -0.184 N 
ATOM      4  H6  UNL     1      -4.454   0.923   2.448  1.00  0.00     0.184 HD
HETATM    5  C10 UNL     1      -3.314  -0.185   1.085  1.00  0.00     0.138 A 
HETATM    6  C11 UNL     1      -4.132  -0.415  -0.052  1.00  0.00     0.151 A 
HETATM    7  N10 UNL     1      -3.619  -1.108  -1.064  1.00  0.00    -0.175 N 
ATOM      8  H10 UNL     1      -4.184  -1.288  -1.894  1.00  0.00     0.186 HD
HETATM    9  C13 UNL     1      -2.352  -1.575  -0.997  1.00  0.00     0.679 A 
HETATM   10  N11 UNL     1      -1.873  -2.240  -1.982  1.00  0.00    -0.234 N 
ATOM     11 1H11 UNL     1      -0.917  -2.592  -1.931  1.00  0.00     0.174 HD
ATOM     12 2H11 UNL     1      -2.458  -2.406  -2.801  1.00  0.00     0.174 HD
HETATM   13  N12 UNL     1      -1.581  -1.356   0.082  1.00  0.00    -0.174 N 
ATOM     14  H12 UNL     1      -0.629  -1.722   0.103  1.00  0.00     0.186 HD
HETATM   15  C14 UNL     1      -2.055  -0.650   1.150  1.00  0.00     0.170 A 
ENDROOT
BRANCH   1  16
HETATM   16  C8  UNL     1      -0.207  -0.626   2.726  1.00  0.00     0.150 C 
BRANCH  16  17
HETATM   17  C7  UNL     1       0.904   0.298   2.459  1.00  0.00     0.037 C 
BRANCH  17  18
HETATM   18  C6  UNL     1       1.150   0.650   1.014  1.00  0.00     0.114 C 
BRANCH  18  19
HETATM   19  N2  UNL     1       2.249   1.540   0.833  1.00  0.00    -0.236 NA
BRANCH  19  20
HETATM   20  C5  UNL     1       3.538   1.017   1.124  1.00  0.00     0.143 C 
BRANCH  20  21
HETATM   21  C4  UNL     1       4.033  -0.044   0.212  1.00  0.00     0.288 C 
BRANCH  21  22
HETATM   22  N1  UNL     1       4.160   0.405  -1.161  1.00  0.00     0.085 N 
HETATM   23  C3  UNL     1       5.142   1.477  -1.274  1.00  0.00     0.309 C 
BRANCH  22  24
HETATM   24  C2  UNL     1       4.567  -0.724  -1.997  1.00  0.00     0.267 C 
HETATM   25  C1  UNL     1       5.792  -1.420  -1.499  1.00  0.00     0.037 C 
ENDBRANCH  22  24
ENDBRANCH  21  22
ENDBRANCH  20  21
ENDBRANCH  19  20
BRANCH  19  26
HETATM   26  N3  UNL     1       2.136   2.225  -0.352  1.00  0.00    -0.363 NA
ATOM     27  H32 UNL     1       2.922   2.862  -0.481  1.00  0.00     0.171 HD
ATOM     28  H31 UNL     1       1.211   2.600  -0.561  1.00  0.00     0.171 HD
ENDBRANCH  19  26
ENDBRANCH  18  19
ENDBRANCH  17  18
ENDBRANCH  16  17
ENDBRANCH   1  16
BRANCH   2  29
HETATM   29  N5  UNL     1      -2.292   0.901   4.162  1.00  0.00    -0.234 N 
ATOM     30  H52 UNL     1      -1.461   0.859   4.752  1.00  0.00     0.174 HD
ATOM     31  H51 UNL     1      -3.016   1.424   4.654  1.00  0.00     0.174 HD
ENDBRANCH   2  29
BRANCH   6  32
HETATM   32  N7  UNL     1      -5.294   0.040  -0.037  1.00  0.00    -0.325 N 
HETATM   33  C12 UNL     1      -6.421   0.089  -0.840  1.00  0.00     0.481 C 
HETATM   34  N8  UNL     1      -6.381   1.362  -1.598  1.00  0.00    -0.033 N 
HETATM   35  N9  UNL     1      -6.638  -0.940  -1.804  1.00  0.00    -0.033 N 
ATOM     36  H83 UNL     1      -6.289   2.179  -0.995  1.00  0.00     0.278 HD
ATOM     37  H82 UNL     1      -5.515   1.483  -2.123  1.00  0.00     0.278 HD
ATOM     38  H81 UNL     1      -7.211   1.398  -2.190  1.00  0.00     0.278 HD
ATOM     39  H93 UNL     1      -5.814  -1.006  -2.402  1.00  0.00     0.278 HD
ATOM     40  H92 UNL     1      -6.615  -1.842  -1.329  1.00  0.00     0.278 HD
ATOM     41  H91 UNL     1      -7.468  -0.904  -2.396  1.00  0.00     0.278 HD
ATOM     42  H7  UNL     1      -5.468   0.528   0.841  1.00  0.00     0.165 HD
ENDBRANCH   6  32
TORSDOF 11
