REMARK  13 active torsions:
REMARK  status: ('A' for Active; 'I' for Inactive)
REMARK    1  A    between atoms: N1_1  and  C1_4 
REMARK    2  A    between atoms: C2_7  and  N3_8 
REMARK    3  A    between atoms: N6_16  and  C4_17 
REMARK    4  A    between atoms: C6_22  and  C7_23 
REMARK    5  A    between atoms: C7_23  and  C8_24 
REMARK    6  A    between atoms: C8_24  and  C9_25 
REMARK    7  A    between atoms: C9_25  and  N8_26 
REMARK    8  A    between atoms: N8_26  and  C10_29 
REMARK    9  A    between atoms: C10_29  and  C11_30 
REMARK   10  A    between atoms: C11_30  and  C12_31 
REMARK   11  A    between atoms: C12_31  and  C13_32 
REMARK   12  A    between atoms: C13_32  and  N9_33 
REMARK   13  A    between atoms: C14_37  and  O1_38 
ROOT
HETATM    1  C4  UNL     1      -2.756   0.531  -0.106  1.00  0.00     0.168 C 
HETATM    2  C5  UNL     1      -2.945   0.668  -1.603  1.00  0.00     0.262 C 
HETATM    3  N7  UNL     1      -1.873   1.508  -2.036  1.00  0.00    -0.066 N 
ATOM      4  H71 UNL     1      -2.191   2.440  -2.301  1.00  0.00     0.277 HD
ATOM      5  H72 UNL     1      -1.497   1.225  -2.941  1.00  0.00     0.277 HD
HETATM    6  C6  UNL     1      -0.870   1.541  -1.011  1.00  0.00     0.216 C 
HETATM    7  C14 UNL     1      -1.248   0.454  -0.011  1.00  0.00     0.175 C 
ENDROOT
BRANCH   1   8
HETATM    8  N6  UNL     1      -3.406  -0.651   0.386  1.00  0.00    -0.251 N 
HETATM    9  N5  UNL     1      -2.948  -1.862   0.598  1.00  0.00    -0.238 N 
HETATM   10  N4  UNL     1      -3.900  -2.654   1.062  1.00  0.00    -0.279 N 
ATOM     11  H5  UNL     1      -1.986  -2.154   0.428  1.00  0.00     0.208 HD
HETATM   12  C3  UNL     1      -5.046  -1.950   1.168  1.00  0.00     0.140 A 
ATOM     13  H4  UNL     1      -3.786  -3.639   1.301  1.00  0.00     0.189 HD
HETATM   14  C2  UNL     1      -6.327  -2.208   1.572  1.00  0.00     0.147 A 
HETATM   15  C15 UNL     1      -4.708  -0.667   0.729  1.00  0.00     0.171 A 
HETATM   16  N2  UNL     1      -7.230  -1.222   1.537  1.00  0.00    -0.175 N 
HETATM   17  C1  UNL     1      -6.941   0.024   1.121  1.00  0.00     0.679 A 
ATOM     18  H2  UNL     1      -8.183  -1.424   1.840  1.00  0.00     0.186 HD
HETATM   19  N10 UNL     1      -5.680   0.275   0.724  1.00  0.00    -0.173 N 
ATOM     20  H10 UNL     1      -5.447   1.216   0.406  1.00  0.00     0.186 HD
BRANCH  14  21
HETATM   21  N3  UNL     1      -6.643  -3.382   1.975  1.00  0.00    -0.383 N 
ATOM     22  H32 UNL     1      -7.598  -3.574   2.276  1.00  0.00     0.157 HD
ATOM     23  H31 UNL     1      -5.954  -4.134   2.002  1.00  0.00     0.157 HD
ENDBRANCH  14  21
BRANCH  17  24
HETATM   24  N1  UNL     1      -7.850   0.938   1.108  1.00  0.00    -0.234 N 
ATOM     25  H12 UNL     1      -8.806   0.748   1.409  1.00  0.00     0.174 HD
ATOM     26  H11 UNL     1      -7.631   1.883   0.793  1.00  0.00     0.174 HD
ENDBRANCH  17  24
ENDBRANCH   1   8
BRANCH   7  27
HETATM   27  O1  UNL     1      -0.773  -0.780  -0.404  1.00  0.00    -0.391 OA
ATOM     28  H1  UNL     1       0.174  -0.828  -0.344  1.00  0.00     0.210 HD
ENDBRANCH   7  27
BRANCH   6  29
HETATM   29  C7  UNL     1       0.464   1.254  -1.656  1.00  0.00     0.037 C 
BRANCH  29  30
HETATM   30  C8  UNL     1       1.507   1.293  -0.559  1.00  0.00     0.029 C 
BRANCH  30  31
HETATM   31  C9  UNL     1       2.845   1.003  -1.221  1.00  0.00     0.232 C 
BRANCH  31  32
HETATM   32  N8  UNL     1       3.851   1.035  -0.197  1.00  0.00    -0.075 N 
ATOM     33  H82 UNL     1       3.840   1.911   0.325  1.00  0.00     0.277 HD
ATOM     34  H81 UNL     1       3.635   0.402   0.573  1.00  0.00     0.277 HD
BRANCH  32  35
HETATM   35  C10 UNL     1       5.133   0.767  -0.771  1.00  0.00     0.232 C 
BRANCH  35  36
HETATM   36  C11 UNL     1       6.167   0.811   0.349  1.00  0.00     0.029 C 
BRANCH  36  37
HETATM   37  C12 UNL     1       5.788  -0.243   1.353  1.00  0.00     0.029 C 
BRANCH  37  38
HETATM   38  C13 UNL     1       5.780  -1.623   0.709  1.00  0.00     0.229 C 
BRANCH  38  39
HETATM   39  N9  UNL     1       7.071  -1.967   0.176  1.00  0.00    -0.079 N 
ATOM     40  H93 UNL     1       7.408  -1.255  -0.473  1.00  0.00     0.274 HD
ATOM     41  H92 UNL     1       7.799  -1.892   0.886  1.00  0.00     0.274 HD
ATOM     42  H91 UNL     1       7.066  -2.891  -0.255  1.00  0.00     0.274 HD
ENDBRANCH  38  39
ENDBRANCH  37  38
ENDBRANCH  36  37
ENDBRANCH  35  36
ENDBRANCH  32  35
ENDBRANCH  31  32
ENDBRANCH  30  31
ENDBRANCH  29  30
ENDBRANCH   6  29
TORSDOF 13
