REMARK  15 active torsions:
REMARK  status: ('A' for Active; 'I' for Inactive)
REMARK    1  A    between atoms: N1_1  and  C1_4 
REMARK    2  A    between atoms: C2_7  and  C3_8 
REMARK    3  A    between atoms: C4_10  and  O2_11 
REMARK    4  A    between atoms: C5_13  and  O3_14 
REMARK    5  A    between atoms: C6_16  and  O4_17 
REMARK    6  A    between atoms: C7_21  and  N4_22 
REMARK    7  A    between atoms: N4_22  and  N5_24 
REMARK    8  A    between atoms: C8_26  and  C9_27 
REMARK    9  A    between atoms: C9_27  and  C10_28 
REMARK   10  A    between atoms: C10_28  and  C11_29 
REMARK   11  A    between atoms: C11_29  and  C12_30 
REMARK   12  A    between atoms: C12_30  and  C13_31 
REMARK   13  A    between atoms: C13_31  and  C14_32 
REMARK   14  A    between atoms: C14_32  and  C15_33 
REMARK   15  A    between atoms: C15_33  and  N6_34 
ROOT
HETATM    1  C1  UNL     1      -3.544  -0.700  -2.656  1.00  0.00     0.691 A 
HETATM    2  N2  UNL     1      -4.407  -0.381  -1.683  1.00  0.00    -0.177 N 
ATOM      3  H2  UNL     1      -5.378  -0.683  -1.764  1.00  0.00     0.185 HD
HETATM    4  C2  UNL     1      -4.026   0.338  -0.584  1.00  0.00     0.145 A 
HETATM    5  N3  UNL     1      -2.748   0.694  -0.547  1.00  0.00    -0.175 N 
ATOM      6  H3  UNL     1      -2.424   1.231   0.258  1.00  0.00     0.185 HD
HETATM    7  C7  UNL     1      -1.854   0.392  -1.503  1.00  0.00     0.712 A 
HETATM    8  N7  UNL     1      -2.246  -0.311  -2.570  1.00  0.00    -0.021 N 
ATOM      9  H7  UNL     1      -1.582  -0.551  -3.306  1.00  0.00     0.203 HD
ENDROOT
BRANCH   7  10
HETATM   10  N4  UNL     1      -0.633   0.761  -1.418  1.00  0.00    -0.132 N 
ATOM     11  H4  UNL     1      -0.368   1.295  -0.590  1.00  0.00     0.205 HD
BRANCH  10  12
HETATM   12  N5  UNL     1       0.352   0.506  -2.335  1.00  0.00    -0.301 N 
HETATM   13  C8  UNL     1       1.560   0.349  -1.959  1.00  0.00     0.080 C 
ATOM     14  H5  UNL     1       0.117   0.441  -3.326  1.00  0.00     0.186 HD
BRANCH  13  15
HETATM   15  C9  UNL     1       1.903   0.441  -0.528  1.00  0.00     0.046 C 
BRANCH  15  16
HETATM   16  C10 UNL     1       2.639  -0.860  -0.178  1.00  0.00     0.005 C 
BRANCH  16  17
HETATM   17  C11 UNL     1       3.035  -0.865   1.277  1.00  0.00     0.000 C 
BRANCH  17  18
HETATM   18  C12 UNL     1       3.748  -2.149   1.574  1.00  0.00     0.000 C 
BRANCH  18  19
HETATM   19  C13 UNL     1       4.988  -2.330   0.748  1.00  0.00     0.002 C 
BRANCH  19  20
HETATM   20  C14 UNL     1       5.986  -1.215   0.984  1.00  0.00     0.027 C 
BRANCH  20  21
HETATM   21  C15 UNL     1       7.202  -1.485   0.107  1.00  0.00     0.229 C 
BRANCH  21  22
HETATM   22  N6  UNL     1       8.153  -0.419   0.333  1.00  0.00    -0.079 N 
ATOM     23  H63 UNL     1       7.753   0.507   0.182  1.00  0.00     0.274 HD
ATOM     24  H62 UNL     1       8.392  -0.304   1.318  1.00  0.00     0.274 HD
ATOM     25  H61 UNL     1       8.967  -0.600  -0.254  1.00  0.00     0.274 HD
ENDBRANCH  21  22
ENDBRANCH  20  21
ENDBRANCH  19  20
ENDBRANCH  18  19
ENDBRANCH  17  18
ENDBRANCH  16  17
ENDBRANCH  15  16
ENDBRANCH  13  15
ENDBRANCH  10  12
ENDBRANCH   7  10
BRANCH   4  26
HETATM   26  C3  UNL     1      -5.048   0.634   0.449  1.00  0.00     0.224 C 
HETATM   27  O1  UNL     1      -6.257   0.869  -0.215  1.00  0.00    -0.343 OA
HETATM   28  C4  UNL     1      -6.980   1.696   0.645  1.00  0.00     0.289 C 
HETATM   29  C5  UNL     1      -5.955   2.730   1.035  1.00  0.00     0.204 C 
HETATM   30  C6  UNL     1      -4.696   1.908   1.141  1.00  0.00     0.188 C 
BRANCH  28  31
HETATM   31  O2  UNL     1      -7.369   0.991   1.790  1.00  0.00    -0.368 OA
ATOM     32  H2  UNL     1      -7.861   1.554   2.376  1.00  0.00     0.212 HD
ENDBRANCH  28  31
BRANCH  29  33
HETATM   33  O3  UNL     1      -5.765   3.654   0.007  1.00  0.00    -0.388 OA
ATOM     34  H3  UNL     1      -5.119   4.306   0.253  1.00  0.00     0.210 HD
ENDBRANCH  29  33
BRANCH  30  35
HETATM   35  O4  UNL     1      -4.366   1.702   2.485  1.00  0.00    -0.390 OA
ATOM     36  H4  UNL     1      -4.142   2.513   2.926  1.00  0.00     0.210 HD
ENDBRANCH  30  35
ENDBRANCH   4  26
BRANCH   1  37
HETATM   37  N1  UNL     1      -3.900  -1.375  -3.692  1.00  0.00    -0.234 N 
ATOM     38  H12 UNL     1      -4.875  -1.667  -3.757  1.00  0.00     0.174 HD
ATOM     39  H11 UNL     1      -3.243  -1.618  -4.433  1.00  0.00     0.174 HD
ENDBRANCH   1  37
TORSDOF 15
