REMARK  12 active torsions:
REMARK  status: ('A' for Active; 'I' for Inactive)
REMARK    1  A    between atoms: C2_2  and  N1_3 
REMARK    2  A    between atoms: N1_3  and  C3_6 
REMARK    3  A    between atoms: C3_6  and  C4_7 
REMARK    4  A    between atoms: C4_7  and  N2_8 
REMARK    5  A    between atoms: N2_8  and  C5_10 
REMARK    6  A    between atoms: C5_10  and  C6_11 
REMARK    7  A    between atoms: C6_11  and  C7_12 
REMARK    8  A    between atoms: C8_14  and  N3_15 
REMARK    9  A    between atoms: C11_20  and  N5_21 
REMARK   10  A    between atoms: C12_26  and  N7_27 
REMARK   11  A    between atoms: C14_33  and  O2_34 
REMARK   12  A    between atoms: C15_36  and  O3_37 
ROOT
HETATM    1  C7  UNL     1       0.322   0.103  -1.034  1.00  0.00     0.157 C 
HETATM    2  O1  UNL     1       1.266  -0.454  -0.166  1.00  0.00    -0.355 OA
HETATM    3  C8  UNL     1       1.762   0.608   0.518  1.00  0.00     0.262 C 
HETATM    4  C14 UNL     1       1.838   1.764  -0.408  1.00  0.00     0.198 C 
HETATM    5  C15 UNL     1       1.012   1.332  -1.598  1.00  0.00     0.180 C 
ENDROOT
BRANCH   3   6
HETATM    6  N3  UNL     1       2.992   0.368   1.242  1.00  0.00    -0.297 N 
HETATM    7  C9  UNL     1       3.253   0.724   2.515  1.00  0.00     0.188 A 
HETATM    8  N4  UNL     1       4.479   0.362   2.867  1.00  0.00    -0.346 N 
HETATM    9  C10 UNL     1       5.046  -0.248   1.808  1.00  0.00     0.123 A 
ATOM     10  H4  UNL     1       4.915   0.517   3.776  1.00  0.00     0.167 HD
HETATM   11  C11 UNL     1       6.291  -0.813   1.619  1.00  0.00     0.145 A 
HETATM   12  C13 UNL     1       4.100  -0.238   0.793  1.00  0.00     0.157 A 
HETATM   13  N6  UNL     1       6.555  -1.353   0.418  1.00  0.00    -0.175 N 
HETATM   14  C12 UNL     1       5.615  -1.327  -0.546  1.00  0.00     0.679 A 
ATOM     15  H6  UNL     1       7.463  -1.781   0.237  1.00  0.00     0.186 HD
HETATM   16  N8  UNL     1       4.397  -0.793  -0.411  1.00  0.00    -0.174 N 
ATOM     17  H8  UNL     1       3.722  -0.802  -1.176  1.00  0.00     0.186 HD
BRANCH  11  18
HETATM   18  N5  UNL     1       7.165  -0.809   2.582  1.00  0.00    -0.383 N 
ATOM     19  H52 UNL     1       6.964  -0.399   3.494  1.00  0.00     0.157 HD
ATOM     20  H51 UNL     1       8.085  -1.227   2.442  1.00  0.00     0.157 HD
ENDBRANCH  11  18
BRANCH  14  21
HETATM   21  N7  UNL     1       5.936  -1.865  -1.675  1.00  0.00    -0.234 N 
ATOM     22  H72 UNL     1       6.865  -2.272  -1.778  1.00  0.00     0.174 HD
ATOM     23  H71 UNL     1       5.224  -1.845  -2.405  1.00  0.00     0.174 HD
ENDBRANCH  14  21
ENDBRANCH   3   6
BRANCH   4  24
HETATM   24  O2  UNL     1       3.118   2.052  -0.868  1.00  0.00    -0.388 OA
ATOM     25  H2  UNL     1       3.167   2.792  -1.461  1.00  0.00     0.210 HD
ENDBRANCH   4  24
BRANCH   1  26
HETATM   26  C6  UNL     1      -0.950   0.412  -0.322  1.00  0.00     0.054 C 
BRANCH  26  27
HETATM   27  C5  UNL     1      -2.017   1.010  -1.174  1.00  0.00     0.116 C 
BRANCH  27  28
HETATM   28  N2  UNL     1      -3.205   1.276  -0.389  1.00  0.00    -0.419 N 
ATOM     29  H2  UNL     1      -3.513   2.226  -0.180  1.00  0.00     0.153 HD
BRANCH  28  30
HETATM   30  C4  UNL     1      -3.915   0.138   0.071  1.00  0.00     0.141 C 
BRANCH  30  31
HETATM   31  C3  UNL     1      -4.601  -0.650  -0.992  1.00  0.00     0.251 C 
BRANCH  31  32
HETATM   32  N1  UNL     1      -5.281  -1.770  -0.386  1.00  0.00    -0.074 N 
ATOM     33  H12 UNL     1      -4.620  -2.349   0.132  1.00  0.00     0.277 HD
ATOM     34  H11 UNL     1      -5.574  -2.437  -1.100  1.00  0.00     0.277 HD
BRANCH  32  35
HETATM   35  C2  UNL     1      -6.389  -1.410   0.446  1.00  0.00     0.228 C 
HETATM   36  C1  UNL     1      -7.560  -0.821  -0.303  1.00  0.00     0.034 C 
ENDBRANCH  32  35
ENDBRANCH  31  32
ENDBRANCH  30  31
ENDBRANCH  28  30
ENDBRANCH  27  28
ENDBRANCH  26  27
ENDBRANCH   1  26
BRANCH   5  37
HETATM   37  O3  UNL     1       1.817   0.910  -2.657  1.00  0.00    -0.390 OA
ATOM     38  H3  UNL     1       2.249   1.679  -3.010  1.00  0.00     0.210 HD
ENDBRANCH   5  37
TORSDOF 12
