REMARK  3 active torsions:
REMARK  status: ('A' for Active; 'I' for Inactive)
REMARK    1  A    between atoms: C4_4  and  C5_5 
REMARK    2  A    between atoms: N1_6  and  N2_8 
REMARK    3  A    between atoms: C9_15  and  N5_16 
ROOT
HETATM    1  C1  UNL     1      -2.748  -1.086   1.891  1.00  0.00     0.050 C 
HETATM    2  C2  UNL     1      -1.699  -0.582   0.964  1.00  0.00    -0.035 A 
HETATM    3  C3  UNL     1      -0.375  -0.692   1.345  1.00  0.00     0.022 A 
HETATM    4  C4  UNL     1       0.665  -0.257   0.562  1.00  0.00    -0.019 A 
HETATM    5  C7  UNL     1       0.328   0.311  -0.659  1.00  0.00     0.015 A 
HETATM    6  C8  UNL     1      -0.992   0.427  -1.054  1.00  0.00     0.031 A 
HETATM    7  C9  UNL     1      -1.998  -0.019  -0.242  1.00  0.00     0.035 A 
ENDROOT
BRANCH   4   8
HETATM    8  C5  UNL     1       2.043  -0.390   0.998  1.00  0.00     0.118 C 
HETATM    9  N1  UNL     1       2.988   0.025   0.244  1.00  0.00    -0.309 N 
ATOM     10  H1  UNL     1       2.758   0.445  -0.656  1.00  0.00     0.186 HD
BRANCH   9  11
HETATM   11  N2  UNL     1       4.324  -0.082   0.621  1.00  0.00    -0.276 N 
HETATM   12  C6  UNL     1       5.259   0.393  -0.129  1.00  0.00     0.215 C 
HETATM   13  N3  UNL     1       4.922   1.029  -1.350  1.00  0.00    -0.065 NA
HETATM   14  N4  UNL     1       6.615   0.277   0.268  1.00  0.00    -0.065 NA
ATOM     15  H2  UNL     1       4.566  -0.541   1.499  1.00  0.00     0.189 HD
ENDBRANCH   9  11
ENDBRANCH   4   8
BRANCH   7  16
HETATM   16  N5  UNL     1      -3.333   0.115  -0.676  1.00  0.00    -0.389 N 
HETATM   17  C10 UNL     1      -4.151  -1.071  -0.833  1.00  0.00     0.149 C 
HETATM   18  C11 UNL     1      -3.838   1.429  -0.948  1.00  0.00     0.149 C 
ENDBRANCH   7  16
TORSDOF 3
