REMARK  4 active torsions:
REMARK  status: ('A' for Active; 'I' for Inactive)
REMARK    1  A    between atoms: C3_3  and  C4_4 
REMARK    2  A    between atoms: C4_4  and  N1_5 
REMARK    3  A    between atoms: N1_5  and  C5_7 
REMARK    4  A    between atoms: C8_16  and  C9_17 
ROOT
HETATM    1  C1  UNL     1      -5.956  -1.195  -0.115  1.00  0.00     0.012 C 
HETATM    2  C2  UNL     1      -4.756  -1.284  -0.152  1.00  0.00    -0.116 C 
HETATM    3  C3  UNL     1      -3.318  -1.414  -0.188  1.00  0.00     0.112 C 
ENDROOT
BRANCH   3   4
HETATM    4  C4  UNL     1      -2.707  -0.126   0.379  1.00  0.00     0.133 C 
BRANCH   4   5
HETATM    5  N1  UNL     1      -1.290  -0.288   0.329  1.00  0.00    -0.373 N 
ATOM      6  H1  UNL     1      -0.939  -1.246   0.353  1.00  0.00     0.161 HD
BRANCH   5   7
HETATM    7  C5  UNL     1      -0.423   0.630   0.258  1.00  0.00     0.133 A 
HETATM    8  N2  UNL     1      -0.771   1.922   0.220  1.00  0.00    -0.337 N 
HETATM    9  C6  UNL     1       0.180   2.904   0.143  1.00  0.00     0.183 A 
ATOM     10  H2  UNL     1      -1.758   2.178   0.249  1.00  0.00     0.168 HD
HETATM   11  N3  UNL     1       1.489   2.623   0.102  1.00  0.00    -0.337 N 
HETATM   12  C7  UNL     1       1.885   1.332   0.138  1.00  0.00     0.138 A 
ATOM     13  H3  UNL     1       2.177   3.374   0.044  1.00  0.00     0.168 HD
HETATM   14  N4  UNL     1       3.075   0.706   0.115  1.00  0.00    -0.327 N 
HETATM   15  C11 UNL     1       0.915   0.319   0.217  1.00  0.00     0.122 A 
HETATM   16  C8  UNL     1       2.870  -0.618   0.176  1.00  0.00     0.106 A 
ATOM     17  H4  UNL     1       3.985   1.163   0.060  1.00  0.00     0.169 HD
HETATM   18  N5  UNL     1       1.537  -0.856   0.239  1.00  0.00    -0.336 N 
ATOM     19  H5  UNL     1       1.091  -1.772   0.293  1.00  0.00     0.168 HD
BRANCH  16  20
HETATM   20  C9  UNL     1       3.884  -1.645   0.176  1.00  0.00     0.038 C 
HETATM   21  C10 UNL     1       5.164  -1.315   0.112  1.00  0.00     0.015 C 
ENDBRANCH  16  20
ENDBRANCH   5   7
ENDBRANCH   4   5
ENDBRANCH   3   4
TORSDOF 4
