REMARK  4 active torsions:
REMARK  status: ('A' for Active; 'I' for Inactive)
REMARK    1  A    between atoms: N1_1  and  C1_5 
REMARK    2  A    between atoms: C1_5  and  C2_6 
REMARK    3  A    between atoms: N2_7  and  C3_9 
REMARK    4  A    between atoms: C5_11  and  C6_12 
ROOT
HETATM    1  C3  UNL     1      -1.294   0.109   0.446  1.00  0.00     0.120 A 
HETATM    2  C4  UNL     1       0.044  -0.334   0.293  1.00  0.00     0.063 A 
HETATM    3  C5  UNL     1       1.050   0.564   0.069  1.00  0.00    -0.005 A 
HETATM    4  C12 UNL     1       0.819   1.923  -0.018  1.00  0.00     0.119 A 
HETATM    5  N3  UNL     1      -0.455   2.304   0.132  1.00  0.00    -0.309 N 
ATOM      6  H3  UNL     1      -0.675   3.298   0.077  1.00  0.00     0.186 HD
HETATM    7  N4  UNL     1      -1.457   1.437   0.352  1.00  0.00    -0.286 N 
ATOM      8  H4  UNL     1      -2.400   1.812   0.454  1.00  0.00     0.188 HD
ENDROOT
BRANCH   1   9
HETATM    9  N2  UNL     1      -2.203  -0.716   0.651  1.00  0.00    -0.353 N 
HETATM   10  C2  UNL     1      -3.522  -0.941   0.861  1.00  0.00     0.089 C 
ATOM     11  H2  UNL     1      -1.754  -1.632   0.669  1.00  0.00     0.166 HD
BRANCH  10  12
HETATM   12  C1  UNL     1      -4.534   0.032   0.313  1.00  0.00     0.274 C 
BRANCH  12  13
HETATM   13  N1  UNL     1      -4.468   0.204  -1.104  1.00  0.00    -0.075 N 
ATOM     14  H13 UNL     1      -3.525   0.470  -1.389  1.00  0.00     0.274 HD
ATOM     15  H12 UNL     1      -4.544  -0.696  -1.578  1.00  0.00     0.274 HD
ATOM     16  H11 UNL     1      -5.153   0.863  -1.475  1.00  0.00     0.274 HD
ENDBRANCH  12  13
ENDBRANCH  10  12
ENDBRANCH   1   9
BRANCH   3  17
HETATM   17  C6  UNL     1       2.414   0.094  -0.087  1.00  0.00    -0.025 A 
HETATM   18  C7  UNL     1       3.328   0.737  -0.881  1.00  0.00     0.012 A 
HETATM   19  C8  UNL     1       4.620   0.279  -1.020  1.00  0.00     0.001 A 
HETATM   20  C9  UNL     1       5.039  -0.849  -0.361  1.00  0.00     0.000 A 
HETATM   21  C10 UNL     1       4.138  -1.514   0.444  1.00  0.00     0.001 A 
HETATM   22  C11 UNL     1       2.830  -1.038   0.576  1.00  0.00     0.012 A 
ENDBRANCH   3  17
TORSDOF 4
