REMARK  4 active torsions:
REMARK  status: ('A' for Active; 'I' for Inactive)
REMARK    1  A    between atoms: C4_7  and  C5_8 
REMARK    2  A    between atoms: C5_8  and  C6_9 
REMARK    3  A    between atoms: C6_9  and  N3_10 
REMARK    4  A    between atoms: N3_10  and  C7_12 
ROOT
HETATM    1  N1  UNL     1       6.236   2.139   0.952  1.00  0.00    -0.188 NA
HETATM    2  C1  UNL     1       5.442   1.391   0.569  1.00  0.00     0.137 C 
HETATM    3  C2  UNL     1       4.447   0.473   0.097  1.00  0.00     0.188 A 
HETATM    4  N2  UNL     1       4.526  -0.251  -1.044  1.00  0.00    -0.342 N 
ATOM      5  H2  UNL     1       5.300  -0.235  -1.708  1.00  0.00     0.167 HD
HETATM    6  C3  UNL     1       3.401  -1.002  -1.156  1.00  0.00     0.115 A 
HETATM    7  C4  UNL     1       2.652  -0.693  -0.033  1.00  0.00     0.028 A 
HETATM    8  N5  UNL     1       3.288   0.207   0.731  1.00  0.00    -0.336 N 
ATOM      9  H5  UNL     1       2.962   0.608   1.611  1.00  0.00     0.168 HD
ENDROOT
BRANCH   7  10
HETATM   10  C5  UNL     1       1.310  -1.278   0.293  1.00  0.00     0.078 C 
BRANCH  10  11
HETATM   11  C6  UNL     1       0.224  -0.392  -0.328  1.00  0.00     0.127 C 
BRANCH  11  12
HETATM   12  N3  UNL     1      -1.042  -0.956  -0.013  1.00  0.00    -0.376 N 
ATOM     13  H3  UNL     1      -1.066  -1.947   0.228  1.00  0.00     0.161 HD
BRANCH  12  14
HETATM   14  C7  UNL     1      -2.164  -0.319  -0.007  1.00  0.00     0.100 A 
HETATM   15  C8  UNL     1      -3.323  -0.991   0.319  1.00  0.00     0.048 A 
HETATM   16  C9  UNL     1      -4.558  -0.362   0.343  1.00  0.00     0.005 A 
HETATM   17  C10 UNL     1      -4.637   0.980   0.031  1.00  0.00     0.017 A 
HETATM   18  C11 UNL     1      -3.464   1.631  -0.292  1.00  0.00     0.089 A 
HETATM   19  N4  UNL     1      -2.262   0.989  -0.308  1.00  0.00    -0.353 N 
ATOM     20  H4  UNL     1      -1.420   1.510  -0.553  1.00  0.00     0.166 HD
ENDBRANCH  12  14
ENDBRANCH  11  12
ENDBRANCH  10  11
ENDBRANCH   7  10
TORSDOF 4
