REMARK  5 active torsions:
REMARK  status: ('A' for Active; 'I' for Inactive)
REMARK    1  A    between atoms: O1_1  and  C1_3 
REMARK    2  A    between atoms: C1_3  and  C2_4 
REMARK    3  A    between atoms: C5_9  and  N2_10 
REMARK    4  A    between atoms: N2_10  and  C6_12 
REMARK    5  A    between atoms: C6_12  and  C7_13 
ROOT
HETATM    1  C2  UNL     1       3.437   0.166   0.431  1.00  0.00     0.106 A 
HETATM    2  N1  UNL     1       3.863  -0.568  -0.608  1.00  0.00    -0.354 N 
ATOM      3  H1  UNL     1       4.857  -0.775  -0.708  1.00  0.00     0.166 HD
HETATM    4  C3  UNL     1       2.980  -1.037  -1.527  1.00  0.00     0.093 A 
HETATM    5  C4  UNL     1       1.624  -0.774  -1.421  1.00  0.00     0.065 A 
HETATM    6  C5  UNL     1       1.206  -0.017  -0.346  1.00  0.00     0.103 A 
HETATM    7  N3  UNL     1       2.131   0.433   0.553  1.00  0.00    -0.331 N 
ATOM      8  H3  UNL     1       1.815   0.992   1.345  1.00  0.00     0.168 HD
ENDROOT
BRANCH   6   9
HETATM    9  N2  UNL     1      -0.025   0.270  -0.177  1.00  0.00    -0.372 N 
ATOM     10  H2  UNL     1      -0.294   0.832   0.630  1.00  0.00     0.161 HD
BRANCH   9  11
HETATM   11  C6  UNL     1      -1.040  -0.170  -1.081  1.00  0.00     0.159 C 
BRANCH  11  12
HETATM   12  C7  UNL     1      -2.397  -0.035  -0.510  1.00  0.00    -0.041 A 
HETATM   13  C8  UNL     1      -3.029  -1.022   0.216  1.00  0.00     0.009 A 
HETATM   14  C9  UNL     1      -4.306  -0.850   0.732  1.00  0.00     0.001 A 
HETATM   15  C10 UNL     1      -4.989   0.336   0.528  1.00  0.00     0.000 A 
HETATM   16  C11 UNL     1      -4.372   1.327  -0.193  1.00  0.00     0.001 A 
HETATM   17  C12 UNL     1      -3.088   1.142  -0.708  1.00  0.00     0.009 A 
ENDBRANCH  11  12
ENDBRANCH   9  11
ENDBRANCH   6   9
BRANCH   1  18
HETATM   18  C1  UNL     1       4.448   0.658   1.415  1.00  0.00     0.240 C 
BRANCH  18  19
HETATM   19  O1  UNL     1       5.712   0.251   1.066  1.00  0.00    -0.393 OA
ATOM     20  H1  UNL     1       6.355   0.564   1.692  1.00  0.00     0.209 HD
ENDBRANCH  18  19
ENDBRANCH   1  18
TORSDOF 5
