REMARK  4 active torsions:
REMARK  status: ('A' for Active; 'I' for Inactive)
REMARK    1  A    between atoms: O1_1  and  C1_3 
REMARK    2  A    between atoms: C7_9  and  N1_10 
REMARK    3  A    between atoms: N1_10  and  C8_12 
REMARK    4  A    between atoms: C8_12  and  C9_13 
ROOT
HETATM    1  C1  UNL     1       3.813   1.337   0.353  1.00  0.00     0.066 A 
HETATM    2  C2  UNL     1       4.527   0.148   0.362  1.00  0.00     0.037 A 
HETATM    3  C3  UNL     1       3.802  -1.022   0.325  1.00  0.00     0.015 A 
HETATM    4  C4  UNL     1       2.426  -1.008   0.281  1.00  0.00    -0.021 A 
HETATM    5  C5  UNL     1       1.701   0.173   0.271  1.00  0.00     0.003 A 
HETATM    6  C6  UNL     1       2.435   1.351   0.308  1.00  0.00     0.051 A 
HETATM    7  C7  UNL     1       0.521  -0.428   0.226  1.00  0.00     0.040 A 
HETATM    8  C13 UNL     1       1.271  -1.653   0.236  1.00  0.00     0.042 A 
ENDROOT
BRANCH   7   9
HETATM    9  N1  UNL     1      -0.849   0.021   0.186  1.00  0.00    -0.385 N 
ATOM     10  H1  UNL     1      -1.067   1.010   0.306  1.00  0.00     0.160 HD
BRANCH   9  11
HETATM   11  C8  UNL     1      -1.894  -0.921  -0.021  1.00  0.00     0.160 C 
BRANCH  11  12
HETATM   12  C9  UNL     1      -3.201  -0.269  -0.028  1.00  0.00    -0.017 A 
HETATM   13  C10 UNL     1      -4.423  -0.927  -0.208  1.00  0.00     0.035 A 
HETATM   14  C11 UNL     1      -5.396   0.026  -0.150  1.00  0.00     0.142 A 
HETATM   15  O2  UNL     1      -4.862   1.202   0.050  1.00  0.00    -0.334 OA
HETATM   16  C12 UNL     1      -3.541   1.050   0.127  1.00  0.00     0.150 A 
ENDBRANCH  11  12
ENDBRANCH   9  11
ENDBRANCH   7   9
BRANCH   1  17
HETATM   17  O1  UNL     1       4.510   2.545   0.389  1.00  0.00    -0.361 OA
ATOM     18  H1  UNL     1       4.021   3.359   0.383  1.00  0.00     0.217 HD
ENDBRANCH   1  17
TORSDOF 4
