REMARK  3 active torsions:
REMARK  status: ('A' for Active; 'I' for Inactive)
REMARK    1  A    between atoms: C2_2  and  C5_5 
REMARK    2  A    between atoms: C5_5  and  C6_6 
REMARK       I    between atoms: C6_6  and  N1_8 
REMARK    3  A    between atoms: N1_8  and  N2_10 
REMARK       I    between atoms: N2_10  and  C7_12 
REMARK       I    between atoms: C7_12  and  N3_14 
ROOT
HETATM    1  N2  UNL     1       0.617   0.035   0.270  1.00  0.00    -0.249 N 
ATOM      2  H2  UNL     1       0.739  -0.146  -0.726  1.00  0.00     0.192 HD
HETATM    3  C7  UNL     1       1.746   0.347   1.073  1.00  0.00     0.343 C 
HETATM    4  O2  UNL     1       1.586   0.568   2.285  1.00  0.00    -0.245 OA
HETATM    5  N3  UNL     1       3.016   0.403   0.495  1.00  0.00    -0.267 N 
HETATM    6  C8  UNL     1       4.347   0.687   0.998  1.00  0.00     0.155 C 
HETATM    7  C9  UNL     1       4.852  -0.080  -0.222  1.00  0.00     0.051 C 
HETATM    8  C10 UNL     1       5.925   0.657  -0.935  1.00  0.00     0.027 C 
HETATM    9  C11 UNL     1       5.092  -1.512   0.149  1.00  0.00     0.027 C 
HETATM   10  C12 UNL     1       3.513   0.193  -0.820  1.00  0.00     0.237 C 
HETATM   11  O3  UNL     1       3.117   0.203  -2.006  1.00  0.00    -0.272 OA
ENDROOT
BRANCH   1  12
HETATM   12  N1  UNL     1      -0.662  -0.026   0.836  1.00  0.00    -0.266 N 
HETATM   13  C6  UNL     1      -1.832  -0.034   0.025  1.00  0.00     0.236 C 
HETATM   14  O1  UNL     1      -1.657   0.019  -1.219  1.00  0.00    -0.272 OA
ATOM     15  H1  UNL     1      -0.758  -0.066   1.851  1.00  0.00     0.190 HD
BRANCH  13  16
HETATM   16  C5  UNL     1      -3.135  -0.100   0.695  1.00  0.00     0.112 C 
BRANCH  16  17
HETATM   17  C2  UNL     1      -4.335  -0.037  -0.170  1.00  0.00    -0.043 C 
HETATM   18  C1  UNL     1      -5.554  -0.145   0.764  1.00  0.00     0.015 C 
HETATM   19  C3  UNL     1      -4.439   1.321  -0.848  1.00  0.00     0.015 C 
HETATM   20  C4  UNL     1      -4.446  -1.107  -1.195  1.00  0.00     0.015 C 
ENDBRANCH  16  17
ENDBRANCH  13  16
ENDBRANCH   1  12
TORSDOF 3
