REMARK  3 active torsions:
REMARK  status: ('A' for Active; 'I' for Inactive)
REMARK    1  A    between atoms: C5_5  and  O1_6 
REMARK    2  A    between atoms: C6_8  and  O2_9 
REMARK    3  A    between atoms: C10_14  and  C11_15 
ROOT
HETATM    1  C1  UNL     1      -2.381  -1.183   1.424  1.00  0.00     0.015 C 
HETATM    2  C2  UNL     1      -1.075  -0.900   0.638  1.00  0.00     0.012 C 
HETATM    3  C3  UNL     1      -0.062  -0.499   1.592  1.00  0.00    -0.016 C 
HETATM    4  C4  UNL     1       1.128   0.277   1.251  1.00  0.00    -0.047 C 
HETATM    5  C5  UNL     1       0.877   1.707   0.819  1.00  0.00     0.176 C 
HETATM    6  C6  UNL     1       0.212   1.868  -0.472  1.00  0.00     0.156 C 
HETATM    7  C7  UNL     1      -0.297   0.667  -1.171  1.00  0.00     0.026 C 
HETATM    8  C8  UNL     1       0.640  -0.366  -1.598  1.00  0.00     0.014 C 
HETATM    9  C9  UNL     1       1.985  -0.427  -1.022  1.00  0.00     0.006 A 
HETATM   10  C10 UNL     1       2.284  -1.653  -0.100  1.00  0.00     0.060 A 
HETATM   11  C12 UNL     1       2.193  -0.270   0.407  1.00  0.00     0.033 A 
HETATM   12  C13 UNL     1      -1.482   0.024  -0.432  1.00  0.00    -0.035 C 
HETATM   13  C14 UNL     1      -2.180  -0.822  -1.517  1.00  0.00     0.016 C 
HETATM   14  C15 UNL     1      -2.497   1.064  -0.033  1.00  0.00     0.016 C 
ENDROOT
BRANCH   5  15
HETATM   15  O1  UNL     1       0.298   2.409   1.888  1.00  0.00    -0.389 OA
ATOM     16  H1  UNL     1       0.141   3.306   1.617  1.00  0.00     0.210 HD
ENDBRANCH   5  15
BRANCH   6  17
HETATM   17  O2  UNL     1       0.986   2.622  -1.388  1.00  0.00    -0.392 OA
ATOM     18  H2  UNL     1       0.554   2.727  -2.227  1.00  0.00     0.210 HD
ENDBRANCH   6  17
BRANCH  10  19
HETATM   19  C11 UNL     1       3.608  -2.319  -0.240  1.00  0.00     0.236 C 
HETATM   20  O3  UNL     1       4.581  -1.572  -0.367  1.00  0.00    -0.306 OA
ENDBRANCH  10  19
TORSDOF 3
