REMARK  6 active torsions:
REMARK  status: ('A' for Active; 'I' for Inactive)
REMARK    1  A    between atoms: O1_2  and  C2_3 
REMARK    2  A    between atoms: C2_3  and  C3_4 
REMARK    3  A    between atoms: C3_4  and  N1_5 
REMARK    4  A    between atoms: N1_5  and  C4_7 
REMARK    5  A    between atoms: C4_7  and  N2_9 
REMARK    6  A    between atoms: N2_9  and  C5_11 
ROOT
HETATM    1  N2  UNL     1       0.128  -0.411   0.693  1.00  0.00    -0.363 N 
ATOM      2  H2  UNL     1      -0.272   0.509   0.878  1.00  0.00     0.162 HD
ENDROOT
BRANCH   1   3
HETATM    3  C4  UNL     1      -0.742  -1.431   0.287  1.00  0.00     0.168 C 
HETATM    4  S1  UNL     1      -0.259  -2.959  -0.042  1.00  0.00    -0.041 SA
BRANCH   3   5
HETATM    5  N1  UNL     1      -2.134  -1.188   0.136  1.00  0.00    -0.365 N 
ATOM      6  H1  UNL     1      -2.766  -1.932  -0.160  1.00  0.00     0.161 HD
BRANCH   5   7
HETATM    7  C3  UNL     1      -2.636   0.151   0.415  1.00  0.00     0.148 C 
BRANCH   7   8
HETATM    8  C2  UNL     1      -4.131   0.237   0.206  1.00  0.00     0.186 C 
BRANCH   8   9
HETATM    9  O1  UNL     1      -4.456  -0.077  -1.111  1.00  0.00    -0.394 OA
HETATM   10  C1  UNL     1      -5.814  -0.012  -1.350  1.00  0.00     0.201 C 
ENDBRANCH   8   9
ENDBRANCH   7   8
ENDBRANCH   5   7
ENDBRANCH   3   5
ENDBRANCH   1   3
BRANCH   1  11
HETATM   11  C5  UNL     1       1.567  -0.573   0.870  1.00  0.00     0.085 C 
HETATM   12  C6  UNL     1       2.155   0.725   1.344  1.00  0.00     0.027 C 
HETATM   13  C7  UNL     1       2.621   1.644   0.264  1.00  0.00     0.029 C 
HETATM   14  C8  UNL     1       4.109   1.444  -0.004  1.00  0.00     0.232 C 
HETATM   15  N3  UNL     1       4.313   0.013   0.070  1.00  0.00    -0.075 N 
HETATM   16  C9  UNL     1       3.443  -0.615  -0.844  1.00  0.00     0.234 C 
ATOM     17  H32 UNL     1       5.288  -0.250  -0.075  1.00  0.00     0.277 HD
ATOM     18  H31 UNL     1       4.209  -0.348   1.018  1.00  0.00     0.277 HD
HETATM   19  C10 UNL     1       2.157  -1.151  -0.355  1.00  0.00     0.052 C 
ENDBRANCH   1  11
TORSDOF 6
