REMARK  4 active torsions:
REMARK  status: ('A' for Active; 'I' for Inactive)
REMARK    1  A    between atoms: N3_8  and  C4_10 
REMARK    2  A    between atoms: C4_10  and  C5_11 
REMARK    3  A    between atoms: C5_11  and  C6_12 
REMARK    4  A    between atoms: C6_12  and  N4_13 
ROOT
HETATM    1  C4  UNL     1       1.324  -1.695  -0.106  1.00  0.00     0.139 C 
ENDROOT
BRANCH   1   2
HETATM    2  N3  UNL     1       2.385  -1.122   0.690  1.00  0.00    -0.225 N 
HETATM    3  C3  UNL     1       3.432  -0.624   0.122  1.00  0.00     0.694 A 
HETATM    4  N2  UNL     1       3.744  -0.533  -1.184  1.00  0.00    -0.131 N 
HETATM    5  N6  UNL     1       4.480  -0.065   0.762  1.00  0.00    -0.179 N 
HETATM    6  N1  UNL     1       4.917   0.049  -1.333  1.00  0.00    -0.275 N 
ATOM      7  H2  UNL     1       3.157  -0.867  -1.949  1.00  0.00     0.205 HD
HETATM    8  C2  UNL     1       5.404   0.355  -0.118  1.00  0.00     0.108 A 
ATOM      9  H1  UNL     1       5.379   0.236  -2.223  1.00  0.00     0.189 HD
HETATM   10  C1  UNL     1       6.715   1.030   0.190  1.00  0.00     0.091 C 
ATOM     11  H6  UNL     1       4.560   0.026   1.775  1.00  0.00     0.185 HD
ATOM     12  H3  UNL     1       2.306  -1.111   1.707  1.00  0.00     0.177 HD
ENDBRANCH   1   2
BRANCH   1  13
HETATM   13  C5  UNL     1       0.317  -0.669  -0.546  1.00  0.00     0.040 C 
BRANCH  13  14
HETATM   14  C6  UNL     1      -0.346   0.014   0.631  1.00  0.00     0.122 C 
BRANCH  14  15
HETATM   15  N4  UNL     1      -1.311   0.999   0.224  1.00  0.00    -0.380 N 
HETATM   16  C7  UNL     1      -2.512   0.745  -0.128  1.00  0.00     0.072 C 
HETATM   17  C8  UNL     1      -2.998  -0.637  -0.136  1.00  0.00     0.076 C 
HETATM   18  N5  UNL     1      -3.365   1.845  -0.508  1.00  0.00    -0.380 N 
HETATM   19  C9  UNL     1      -4.496  -0.725   0.091  1.00  0.00     0.009 C 
HETATM   20  C10 UNL     1      -5.135   0.262  -0.889  1.00  0.00     0.020 C 
HETATM   21  C11 UNL     1      -4.800   1.641  -0.393  1.00  0.00     0.121 C 
ATOM     22  H5  UNL     1      -2.978   2.727  -0.843  1.00  0.00     0.160 HD
ATOM     23  H4  UNL     1      -1.014   1.975   0.216  1.00  0.00     0.160 HD
ENDBRANCH  14  15
ENDBRANCH  13  14
ENDBRANCH   1  13
TORSDOF 4
