REMARK  7 active torsions:
REMARK  status: ('A' for Active; 'I' for Inactive)
REMARK    1  A    between atoms: C2_2  and  N1_3 
REMARK    2  A    between atoms: N1_3  and  C3_5 
REMARK    3  A    between atoms: C4_8  and  N3_9 
REMARK    4  A    between atoms: C6_14  and  N5_15 
REMARK    5  A    between atoms: N5_15  and  C7_17 
REMARK    6  A    between atoms: C7_17  and  C8_18 
REMARK    7  A    between atoms: C8_18  and  C9_19 
ROOT
HETATM    1  C3  UNL     1      -2.663  -0.074  -0.642  1.00  0.00     0.707 A 
HETATM    2  N2  UNL     1      -2.384  -1.383  -0.485  1.00  0.00    -0.022 N 
ATOM      3  H2  UNL     1      -3.073  -2.084  -0.760  1.00  0.00     0.203 HD
HETATM    4  C4  UNL     1      -1.205  -1.773   0.031  1.00  0.00     0.706 A 
HETATM    5  N4  UNL     1      -0.286  -0.869   0.399  1.00  0.00    -0.022 N 
ATOM      6  H4  UNL     1       0.604  -1.180   0.789  1.00  0.00     0.203 HD
HETATM    7  C6  UNL     1      -0.529   0.440   0.258  1.00  0.00     0.707 A 
HETATM    8  N6  UNL     1      -1.716   0.796  -0.260  1.00  0.00    -0.022 N 
ATOM      9  H6  UNL     1      -1.910   1.791  -0.370  1.00  0.00     0.203 HD
ENDROOT
BRANCH   7  10
HETATM   10  N5  UNL     1       0.283   1.356   0.580  1.00  0.00    -0.225 N 
ATOM     11  H5  UNL     1      -0.014   2.319   0.425  1.00  0.00     0.177 HD
BRANCH  10  12
HETATM   12  C7  UNL     1       1.599   1.151   1.150  1.00  0.00     0.138 C 
BRANCH  12  13
HETATM   13  C8  UNL     1       2.539   0.903   0.022  1.00  0.00     0.024 C 
BRANCH  13  14
HETATM   14  C9  UNL     1       3.958   0.668   0.425  1.00  0.00    -0.021 C 
HETATM   15  C10 UNL     1       4.784   0.432  -0.822  1.00  0.00     0.009 C 
HETATM   16  C11 UNL     1       4.164  -0.465   1.361  1.00  0.00     0.009 C 
ENDBRANCH  13  14
ENDBRANCH  12  13
ENDBRANCH  10  12
ENDBRANCH   7  10
BRANCH   4  17
HETATM   17  N3  UNL     1      -0.973  -3.060   0.167  1.00  0.00    -0.229 N 
HETATM   18  C5  UNL     1      -1.965  -4.023  -0.231  1.00  0.00     0.165 C 
ATOM     19  H3  UNL     1      -0.085  -3.377   0.557  1.00  0.00     0.177 HD
ENDBRANCH   4  17
BRANCH   1  20
HETATM   20  N1  UNL     1      -3.799   0.321  -1.139  1.00  0.00    -0.225 N 
ATOM     21  H1  UNL     1      -4.491  -0.376  -1.414  1.00  0.00     0.177 HD
BRANCH  20  22
HETATM   22  C2  UNL     1      -4.102   1.708  -1.309  1.00  0.00     0.133 C 
HETATM   23  C1  UNL     1      -4.535   2.277   0.017  1.00  0.00     0.027 C 
ENDBRANCH  20  22
ENDBRANCH   1  20
TORSDOF 7
