REMARK  7 active torsions:
REMARK  status: ('A' for Active; 'I' for Inactive)
REMARK    1  A    between atoms: C2_2  and  N1_3 
REMARK    2  A    between atoms: N1_3  and  C3_5 
REMARK    3  A    between atoms: C4_8  and  N3_9 
REMARK    4  A    between atoms: C6_14  and  N5_15 
REMARK    5  A    between atoms: N5_15  and  C7_17 
REMARK    6  A    between atoms: C7_17  and  C8_18 
REMARK    7  A    between atoms: C8_18  and  C9_19 
ROOT
HETATM    1  C3  UNL     1      -2.633   0.094   0.187  1.00  0.00     0.707 A 
HETATM    2  N2  UNL     1      -2.774  -1.230   0.008  1.00  0.00    -0.022 N 
ATOM      3  H2  UNL     1      -3.703  -1.629   0.140  1.00  0.00     0.203 HD
HETATM    4  C4  UNL     1      -1.779  -2.066  -0.333  1.00  0.00     0.706 A 
HETATM    5  N4  UNL     1      -0.553  -1.497  -0.502  1.00  0.00    -0.022 N 
ATOM      6  H4  UNL     1       0.239  -2.085  -0.762  1.00  0.00     0.203 HD
HETATM    7  C6  UNL     1      -0.364  -0.177  -0.333  1.00  0.00     0.707 A 
HETATM    8  N6  UNL     1      -1.393   0.618   0.008  1.00  0.00    -0.022 N 
ATOM      9  H6  UNL     1      -1.242   1.619   0.133  1.00  0.00     0.203 HD
ENDROOT
BRANCH   7  10
HETATM   10  N5  UNL     1       0.785   0.383  -0.487  1.00  0.00    -0.225 N 
ATOM     11  H5  UNL     1       0.906   1.387  -0.355  1.00  0.00     0.177 HD
BRANCH  10  12
HETATM   12  C7  UNL     1       1.900  -0.466  -0.855  1.00  0.00     0.138 C 
BRANCH  12  13
HETATM   13  C8  UNL     1       3.183   0.310  -0.996  1.00  0.00     0.025 C 
BRANCH  13  14
HETATM   14  C9  UNL     1       3.488   0.962   0.326  1.00  0.00    -0.013 A 
HETATM   15  C10 UNL     1       4.702   1.800   0.492  1.00  0.00     0.005 A 
HETATM   16  C11 UNL     1       4.694   0.384   1.048  1.00  0.00     0.005 A 
ENDBRANCH  13  14
ENDBRANCH  12  13
ENDBRANCH  10  12
ENDBRANCH   7  10
BRANCH   4  17
HETATM   17  N3  UNL     1      -1.981  -3.330  -0.490  1.00  0.00    -0.229 N 
HETATM   18  C5  UNL     1      -0.977  -4.275  -0.850  1.00  0.00     0.165 C 
ATOM     19  H3  UNL     1      -2.929  -3.679  -0.346  1.00  0.00     0.177 HD
ENDBRANCH   4  17
BRANCH   1  20
HETATM   20  N1  UNL     1      -3.646   0.849   0.519  1.00  0.00    -0.225 N 
ATOM     21  H1  UNL     1      -4.578   0.456   0.653  1.00  0.00     0.177 HD
BRANCH  20  22
HETATM   22  C2  UNL     1      -3.395   2.267   0.690  1.00  0.00     0.133 C 
HETATM   23  C1  UNL     1      -4.705   2.888   1.149  1.00  0.00     0.027 C 
ENDBRANCH  20  22
ENDBRANCH   1  20
TORSDOF 7
