REMARK  5 active torsions:
REMARK  status: ('A' for Active; 'I' for Inactive)
REMARK    1  A    between atoms: C4_9  and  O1_10 
REMARK    2  A    between atoms: O1_10  and  C5_11 
REMARK    3  A    between atoms: C5_11  and  C6_12 
REMARK    4  A    between atoms: C6_12  and  C7_13 
REMARK    5  A    between atoms: C7_13  and  N3_14 
ROOT
HETATM    1  N1  UNL     1      -5.188   1.899  -0.217  1.00  0.00    -0.235 N 
ATOM      2  H11 UNL     1      -5.443   2.575   0.503  1.00  0.00     0.174 HD
ATOM      3  H12 UNL     1      -5.511   1.912  -1.184  1.00  0.00     0.174 HD
HETATM    4  C1  UNL     1      -4.385   0.947   0.136  1.00  0.00     0.667 C 
HETATM    5  N2  UNL     1      -4.023  -0.011  -0.884  1.00  0.00    -0.227 N 
ATOM      6  H2  UNL     1      -4.096   0.291  -1.856  1.00  0.00     0.177 HD
HETATM    7  C2  UNL     1      -3.566  -1.360  -0.642  1.00  0.00     0.140 C 
HETATM    8  C3  UNL     1      -2.194  -1.322  -0.038  1.00  0.00     0.054 C 
HETATM    9  C4  UNL     1      -1.851  -0.144   0.798  1.00  0.00     0.141 C 
HETATM   10  C12 UNL     1      -2.798   0.132   1.947  1.00  0.00     0.170 C 
HETATM   11  N4  UNL     1      -3.934   0.929   1.485  1.00  0.00    -0.224 N 
ATOM     12  H4  UNL     1      -4.430   1.503   2.167  1.00  0.00     0.177 HD
ENDROOT
BRANCH   9  13
HETATM   13  O1  UNL     1      -1.619   0.942   0.011  1.00  0.00    -0.384 OA
BRANCH  13  14
HETATM   14  C5  UNL     1      -0.372   1.460  -0.055  1.00  0.00     0.170 C 
BRANCH  14  15
HETATM   15  C6  UNL     1       0.592   0.448  -0.618  1.00  0.00     0.056 C 
BRANCH  15  16
HETATM   16  C7  UNL     1       2.000   1.010  -0.708  1.00  0.00     0.274 C 
BRANCH  16  17
HETATM   17  N3  UNL     1       2.920   0.028  -1.250  1.00  0.00     0.088 N 
HETATM   18  C8  UNL     1       4.243   0.554  -1.336  1.00  0.00     0.272 C 
HETATM   19  C9  UNL     1       5.178  -0.442  -0.686  1.00  0.00     0.032 C 
HETATM   20  C10 UNL     1       4.346  -1.636  -0.345  1.00  0.00     0.032 C 
HETATM   21  C11 UNL     1       2.937  -1.093  -0.346  1.00  0.00     0.272 C 
ENDBRANCH  16  17
ENDBRANCH  15  16
ENDBRANCH  14  15
ENDBRANCH  13  14
ENDBRANCH   9  13
TORSDOF 5
