REMARK  6 active torsions:
REMARK  status: ('A' for Active; 'I' for Inactive)
REMARK    1  A    between atoms: O1_2  and  C2_3 
REMARK    2  A    between atoms: C3_4  and  O2_5 
REMARK    3  A    between atoms: C4_7  and  C6_9 
REMARK    4  A    between atoms: C6_9  and  O3_10 
REMARK    5  A    between atoms: C7_12  and  O4_13 
REMARK    6  A    between atoms: C7_12  and  O5_15 
ROOT
HETATM    1  C2  UNL     1       0.890  -0.116  -0.567  1.00  0.00     0.213 C 
HETATM    2  C3  UNL     1      -0.409  -0.521  -1.259  1.00  0.00     0.168 C 
HETATM    3  C4  UNL     1      -1.091  -0.425   0.057  1.00  0.00     0.065 C 
HETATM    4  C5  UNL     1      -1.195  -1.654   0.883  1.00  0.00     0.026 C 
HETATM    5  C7  UNL     1       0.008   0.555   0.494  1.00  0.00     0.202 C 
ENDROOT
BRANCH   3   6
HETATM    6  C6  UNL     1      -2.454   0.278  -0.001  1.00  0.00     0.181 C 
BRANCH   6   7
HETATM    7  O3  UNL     1      -3.010   0.318   1.276  1.00  0.00    -0.400 OA
ATOM      8  H3  UNL     1      -3.854   0.753   1.240  1.00  0.00     0.209 HD
ENDBRANCH   6   7
ENDBRANCH   3   6
BRANCH   2   9
HETATM    9  O2  UNL     1      -0.389  -1.738  -1.887  1.00  0.00    -0.392 OA
ATOM     10  H2  UNL     1      -1.197  -1.990  -2.318  1.00  0.00     0.210 HD
ENDBRANCH   2   9
BRANCH   5  11
HETATM   11  O4  UNL     1       0.460   0.373   1.774  1.00  0.00    -0.362 OA
ATOM     12  H4  UNL     1      -0.086   0.788   2.431  1.00  0.00     0.213 HD
ENDBRANCH   5  11
BRANCH   5  13
HETATM   13  O5  UNL     1      -0.360   1.829   0.121  1.00  0.00    -0.357 OA
HETATM   14  C8  UNL     1       0.659   2.760   0.213  1.00  0.00     0.205 C 
ENDBRANCH   5  13
BRANCH   1  15
HETATM   15  O1  UNL     1       1.547  -1.242  -0.122  1.00  0.00    -0.383 OA
HETATM   16  C1  UNL     1       2.886  -1.281  -0.443  1.00  0.00     0.202 C 
ENDBRANCH   1  15
TORSDOF 6
