REMARK  6 active torsions:
REMARK  status: ('A' for Active; 'I' for Inactive)
REMARK    1  A    between atoms: N1_2  and  N2_4 
REMARK    2  A    between atoms: C2_6  and  N3_7 
REMARK    3  A    between atoms: C2_6  and  C5_14 
REMARK    4  A    between atoms: N3_7  and  N4_9 
REMARK       I    between atoms: N4_9  and  C3_11 
REMARK    5  A    between atoms: C8_17  and  N5_18 
REMARK    6  A    between atoms: N5_18  and  S1_20 
ROOT
HETATM    1  N2  UNL     1      -1.918  -1.483  -0.440  1.00  0.00    -0.288 N 
ATOM      2  H2  UNL     1      -2.743  -1.883  -0.887  1.00  0.00     0.188 HD
HETATM    3  C2  UNL     1      -1.295  -0.538  -1.018  1.00  0.00     0.144 C 
ENDROOT
BRANCH   3   4
HETATM    4  N3  UNL     1      -1.807  -0.082  -2.300  1.00  0.00    -0.281 N 
ATOM      5  H3  UNL     1      -1.535   0.834  -2.656  1.00  0.00     0.188 HD
BRANCH   4   6
HETATM    6  N4  UNL     1      -2.667  -0.886  -3.047  1.00  0.00    -0.269 N 
HETATM    7  C3  UNL     1      -3.742  -0.297  -3.735  1.00  0.00     0.232 C 
HETATM    8  C4  UNL     1      -4.654  -1.143  -4.526  1.00  0.00     0.119 C 
HETATM    9  O1  UNL     1      -3.927   0.933  -3.681  1.00  0.00    -0.272 OA
ATOM     10  H4  UNL     1      -2.517  -1.894  -3.094  1.00  0.00     0.190 HD
ENDBRANCH   4   6
ENDBRANCH   3   4
BRANCH   3  11
HETATM   11  C5  UNL     1      -0.126   0.117  -0.467  1.00  0.00     0.011 A 
HETATM   12  C6  UNL     1      -0.089   0.521   0.825  1.00  0.00     0.017 A 
HETATM   13  C7  UNL     1       1.045   1.141   1.357  1.00  0.00     0.031 A 
HETATM   14  C8  UNL     1       2.148   1.354   0.578  1.00  0.00     0.042 A 
HETATM   15  C10 UNL     1       2.108   0.939  -0.749  1.00  0.00     0.031 A 
HETATM   16  C11 UNL     1       0.977   0.327  -1.258  1.00  0.00     0.017 A 
BRANCH  14  17
HETATM   17  N5  UNL     1       3.301   1.980   1.093  1.00  0.00    -0.285 N 
ATOM     18  H5  UNL     1       3.728   2.708   0.520  1.00  0.00     0.178 HD
BRANCH  17  19
HETATM   19  S1  UNL     1       4.051   1.630   2.595  1.00  0.00     0.227 S 
HETATM   20  C9  UNL     1       3.028   1.926   3.995  1.00  0.00     0.186 C 
HETATM   21  O2  UNL     1       5.266   2.535   2.740  1.00  0.00    -0.206 OA
HETATM   22  O3  UNL     1       4.550   0.210   2.655  1.00  0.00    -0.206 OA
ENDBRANCH  17  19
ENDBRANCH  14  17
ENDBRANCH   3  11
BRANCH   1  23
HETATM   23  N1  UNL     1      -1.504  -1.979   0.776  1.00  0.00    -0.339 N 
HETATM   24  C1  UNL     1      -0.274  -2.779   0.856  1.00  0.00     0.167 C 
ATOM     25  H1  UNL     1      -2.049  -1.792   1.618  1.00  0.00     0.179 HD
ENDBRANCH   1  23
TORSDOF 6
