REMARK  7 active torsions:
REMARK  status: ('A' for Active; 'I' for Inactive)
REMARK    1  A    between atoms: C2_2  and  N1_5 
REMARK       I    between atoms: N1_5  and  C5_7 
REMARK    2  A    between atoms: C5_7  and  C6_9 
REMARK    3  A    between atoms: C7_10  and  O2_11 
REMARK    4  A    between atoms: C8_13  and  C9_14 
REMARK    5  A    between atoms: C10_15  and  C11_16 
REMARK    6  A    between atoms: C12_19  and  O5_20 
REMARK    7  A    between atoms: C12_19  and  C13_22 
ROOT
HETATM    1  C6  UNL     1       0.388   0.554  -0.993  1.00  0.00     0.183 C 
HETATM    2  C7  UNL     1       1.382  -0.481  -0.544  1.00  0.00     0.170 C 
HETATM    3  C8  UNL     1       2.652   0.315  -0.334  1.00  0.00     0.178 C 
HETATM    4  O4  UNL     1       2.497   1.490  -1.080  1.00  0.00    -0.334 OA
HETATM    5  C12 UNL     1       1.125   1.823  -0.971  1.00  0.00     0.269 C 
ENDROOT
BRANCH   1   6
HETATM    6  C5  UNL     1      -0.887   0.491  -0.280  1.00  0.00     0.231 C 
HETATM    7  N1  UNL     1      -1.641  -0.704  -0.325  1.00  0.00    -0.352 N 
ATOM      8  H1  UNL     1      -1.279  -1.497  -0.854  1.00  0.00     0.163 HD
HETATM    9  O1  UNL     1      -1.364   1.453   0.383  1.00  0.00    -0.273 OA
BRANCH   7  10
HETATM   10  C2  UNL     1      -2.913  -0.837   0.358  1.00  0.00     0.022 C 
HETATM   11  C1  UNL     1      -3.885   0.215  -0.196  1.00  0.00     0.037 C 
HETATM   12  C3  UNL     1      -2.792  -0.709   1.850  1.00  0.00     0.037 C 
HETATM   13  C4  UNL     1      -3.546  -2.178   0.059  1.00  0.00     0.037 C 
ENDBRANCH   7  10
ENDBRANCH   1   6
BRANCH   2  14
HETATM   14  O2  UNL     1       1.049  -1.084   0.654  1.00  0.00    -0.392 OA
ATOM     15  H2  UNL     1       1.677  -1.738   0.938  1.00  0.00     0.210 HD
ENDBRANCH   2  14
BRANCH   5  16
HETATM   16  O5  UNL     1       0.844   2.547  -2.156  1.00  0.00    -0.356 OA
ATOM     17  H5  UNL     1       1.321   3.368  -2.142  1.00  0.00     0.213 HD
ENDBRANCH   5  16
BRANCH   5  18
HETATM   18  C13 UNL     1       0.990   2.692   0.182  1.00  0.00     0.239 C 
HETATM   19  O6  UNL     1       1.220   2.265   1.339  1.00  0.00    -0.644 OA
HETATM   20  O7  UNL     1       0.603   4.015   0.027  1.00  0.00    -0.644 OA
ENDBRANCH   5  18
BRANCH   3  21
HETATM   21  C9  UNL     1       3.762  -0.491  -0.893  1.00  0.00     0.010 C 
HETATM   22  C10 UNL     1       4.533  -1.248  -0.174  1.00  0.00     0.040 C 
BRANCH  22  23
HETATM   23  C11 UNL     1       4.421  -1.408   1.251  1.00  0.00     0.258 C 
HETATM   24  O3  UNL     1       5.206  -2.162   1.891  1.00  0.00    -0.302 OA
ENDBRANCH  22  23
ENDBRANCH   3  21
TORSDOF 7
