REMARK  5 active torsions:
REMARK  status: ('A' for Active; 'I' for Inactive)
REMARK       I    between atoms: N1_2  and  C2_4 
REMARK    1  A    between atoms: C2_4  and  C3_6 
REMARK    2  A    between atoms: C3_6  and  N2_7 
REMARK    3  A    between atoms: C3_6  and  C6_12 
REMARK       I    between atoms: N2_7  and  C4_9 
REMARK       I    between atoms: C6_12  and  N3_14 
REMARK    4  A    between atoms: N3_14  and  C7_16 
REMARK    5  A    between atoms: N4_23  and  O5_25 
ROOT
HETATM    1  C6  UNL     1      -0.418   1.174  -0.433  1.00  0.00     0.250 C 
HETATM    2  O3  UNL     1       0.239   2.114   0.134  1.00  0.00    -0.271 OA
HETATM    3  N3  UNL     1       0.198  -0.075  -0.543  1.00  0.00    -0.347 N 
ATOM      4  H3  UNL     1      -0.296  -0.850  -0.986  1.00  0.00     0.163 HD
ENDROOT
BRANCH   1   5
HETATM    5  C3  UNL     1      -1.775   1.520  -0.909  1.00  0.00     0.269 C 
BRANCH   5   6
HETATM    6  C2  UNL     1      -2.709   0.438  -0.571  1.00  0.00     0.249 C 
HETATM    7  N1  UNL     1      -2.808  -0.795  -1.219  1.00  0.00    -0.363 N 
HETATM    8  C1  UNL     1      -3.797  -1.765  -0.749  1.00  0.00     0.149 C 
ATOM      9  H1  UNL     1      -2.200  -1.016  -2.008  1.00  0.00     0.162 HD
HETATM   10  O1  UNL     1      -3.508   0.655   0.410  1.00  0.00    -0.271 OA
ENDBRANCH   5   6
BRANCH   5  11
HETATM   11  N2  UNL     1      -2.209   2.736  -0.194  1.00  0.00    -0.340 N 
HETATM   12  C4  UNL     1      -2.372   3.990  -0.834  1.00  0.00     0.214 C 
HETATM   13  C5  UNL     1      -2.799   5.228  -0.167  1.00  0.00     0.117 C 
HETATM   14  O2  UNL     1      -2.129   4.051  -2.086  1.00  0.00    -0.274 OA
ATOM     15  H2  UNL     1      -2.400   2.671   0.806  1.00  0.00     0.163 HD
ENDBRANCH   5  11
ENDBRANCH   1   5
BRANCH   3  16
HETATM   16  C7  UNL     1       1.554  -0.271  -0.022  1.00  0.00     0.164 C 
HETATM   17  C8  UNL     1       1.455  -1.229   1.188  1.00  0.00     0.071 C 
HETATM   18  C9  UNL     1       2.778  -1.943   1.190  1.00  0.00     0.064 C 
HETATM   19  C10 UNL     1       3.735  -1.212   2.117  1.00  0.00     0.046 C 
HETATM   20  C11 UNL     1       2.642  -3.377   1.665  1.00  0.00     0.046 C 
HETATM   21  O4  UNL     1       3.186  -1.945  -0.142  1.00  0.00    -0.326 OA
HETATM   22  C12 UNL     1       2.413  -1.090  -0.889  1.00  0.00     0.162 C 
HETATM   23  N4  UNL     1       2.480  -1.057  -2.201  1.00  0.00    -0.249 N 
ATOM     24  H4  UNL     1       1.888  -0.405  -2.716  1.00  0.00     0.196 HD
BRANCH  23  25
HETATM   25  O5  UNL     1       3.325  -1.876  -2.887  1.00  0.00    -0.288 OA
ATOM     26  H5  UNL     1       3.373  -1.852  -3.835  1.00  0.00     0.244 HD
ENDBRANCH  23  25
ENDBRANCH   3  16
TORSDOF 5
