REMARK  6 active torsions:
REMARK  status: ('A' for Active; 'I' for Inactive)
REMARK    1  A    between atoms: N1_1  and  C1_4 
REMARK    2  A    between atoms: C2_9  and  N4_10 
REMARK    3  A    between atoms: N4_10  and  C3_12 
REMARK    4  A    between atoms: C3_12  and  C4_13 
REMARK    5  A    between atoms: C4_13  and  C5_14 
REMARK    6  A    between atoms: C5_14  and  N5_15 
ROOT
HETATM    1  C1  UNL     1       4.622  -0.137  -0.259  1.00  0.00     0.705 A 
HETATM    2  N2  UNL     1       4.977   1.135  -0.428  1.00  0.00    -0.118 N 
ATOM      3  H2  UNL     1       5.932   1.493  -0.434  1.00  0.00     0.206 HD
HETATM    4  N3  UNL     1       3.871   1.859  -0.588  1.00  0.00    -0.117 N 
ATOM      5  H3  UNL     1       3.847   2.868  -0.737  1.00  0.00     0.206 HD
HETATM    6  C2  UNL     1       2.791   1.063  -0.524  1.00  0.00     0.707 A 
HETATM    7  N6  UNL     1       3.267  -0.175  -0.320  1.00  0.00    -0.020 N 
ATOM      8  H6  UNL     1       2.697  -1.016  -0.225  1.00  0.00     0.203 HD
ENDROOT
BRANCH   6   9
HETATM    9  N4  UNL     1       1.565   1.372  -0.629  1.00  0.00    -0.224 N 
ATOM     10  H4  UNL     1       1.332   2.353  -0.783  1.00  0.00     0.177 HD
BRANCH   9  11
HETATM   11  C3  UNL     1       0.473   0.422  -0.544  1.00  0.00     0.139 C 
BRANCH  11  12
HETATM   12  C4  UNL     1       0.149   0.115   0.896  1.00  0.00     0.040 C 
BRANCH  12  13
HETATM   13  C5  UNL     1      -0.958  -0.849   1.086  1.00  0.00     0.129 C 
BRANCH  13  14
HETATM   14  N5  UNL     1      -2.222  -0.441   0.533  1.00  0.00    -0.366 N 
HETATM   15  C6  UNL     1      -3.097   0.259   1.256  1.00  0.00     0.090 A 
HETATM   16  C7  UNL     1      -4.295   0.630   0.691  1.00  0.00     0.017 A 
HETATM   17  C8  UNL     1      -4.593   0.286  -0.607  1.00  0.00     0.003 A 
HETATM   18  C9  UNL     1      -3.698  -0.429  -1.345  1.00  0.00     0.017 A 
HETATM   19  C10 UNL     1      -2.505  -0.778  -0.727  1.00  0.00     0.090 A 
ENDBRANCH  13  14
ENDBRANCH  12  13
ENDBRANCH  11  12
ENDBRANCH   9  11
ENDBRANCH   6   9
BRANCH   1  20
HETATM   20  N1  UNL     1       5.386  -1.159  -0.072  1.00  0.00    -0.233 N 
ATOM     21  H12 UNL     1       6.405  -1.130  -0.026  1.00  0.00     0.174 HD
ATOM     22  H11 UNL     1       5.114  -2.134   0.057  1.00  0.00     0.174 HD
ENDBRANCH   1  20
TORSDOF 6
