REMARK  5 active torsions:
REMARK  status: ('A' for Active; 'I' for Inactive)
REMARK    1  A    between atoms: N1_1  and  C1_5 
REMARK    2  A    between atoms: C1_5  and  C2_6 
REMARK    3  A    between atoms: S1_8  and  C3_9 
REMARK    4  A    between atoms: C3_9  and  C4_10 
REMARK    5  A    between atoms: C4_10  and  C5_11 
ROOT
HETATM    1  C2  UNL     1       3.269  -0.675  -0.481  1.00  0.00     0.216 C 
HETATM    2  N2  UNL     1       2.262  -1.358   0.311  1.00  0.00    -0.150 NA
HETATM    3  S1  UNL     1       1.573   0.183   0.642  1.00  0.00    -0.041 SA
HETATM    4  N3  UNL     1       2.207   0.191  -0.963  1.00  0.00    -0.150 NA
ENDROOT
BRANCH   3   5
HETATM    5  C3  UNL     1      -0.177   0.227   0.765  1.00  0.00     0.103 C 
BRANCH   5   6
HETATM    6  C4  UNL     1      -0.880  -0.218  -0.490  1.00  0.00     0.050 C 
BRANCH   6   7
HETATM    7  C5  UNL     1      -2.347  -0.124  -0.226  1.00  0.00    -0.057 A 
HETATM    8  C6  UNL     1      -3.051   1.054  -0.501  1.00  0.00     0.007 A 
HETATM    9  C7  UNL     1      -4.399   1.157  -0.263  1.00  0.00     0.001 A 
HETATM   10  C8  UNL     1      -5.072   0.094   0.251  1.00  0.00     0.000 A 
HETATM   11  C9  UNL     1      -4.422  -1.084   0.538  1.00  0.00     0.001 A 
HETATM   12  C10 UNL     1      -3.077  -1.174   0.296  1.00  0.00     0.007 A 
ENDBRANCH   6   7
ENDBRANCH   5   6
ENDBRANCH   3   5
BRANCH   1  13
HETATM   13  C1  UNL     1       4.216   0.105   0.410  1.00  0.00     0.269 C 
BRANCH  13  14
HETATM   14  N1  UNL     1       5.228   0.794  -0.352  1.00  0.00    -0.076 N 
ATOM     15  H13 UNL     1       5.736   0.151  -0.960  1.00  0.00     0.274 HD
ATOM     16  H12 UNL     1       4.811   1.393  -1.064  1.00  0.00     0.274 HD
ATOM     17  H11 UNL     1       5.865   1.319   0.247  1.00  0.00     0.274 HD
ENDBRANCH  13  14
ENDBRANCH   1  13
TORSDOF 5
