REMARK  6 active torsions:
REMARK  status: ('A' for Active; 'I' for Inactive)
REMARK    1  A    between atoms: O1_1  and  C1_3 
REMARK    2  A    between atoms: C1_3  and  N1_4 
REMARK    3  A    between atoms: C4_7  and  C5_8 
REMARK    4  A    between atoms: C5_8  and  C6_9 
REMARK    5  A    between atoms: C6_9  and  N2_10 
REMARK    6  A    between atoms: N2_10  and  C7_12 
ROOT
HETATM    1  C5  UNL     1       0.561  -1.715  -0.132  1.00  0.00     0.058 C 
ENDROOT
BRANCH   1   2
HETATM    2  C4  UNL     1      -0.714  -0.993  -0.079  1.00  0.00    -0.054 A 
HETATM    3  C3  UNL     1      -0.890   0.241  -0.674  1.00  0.00     0.024 A 
HETATM    4  C2  UNL     1      -2.107   0.847  -0.579  1.00  0.00     0.093 A 
HETATM    5  N1  UNL     1      -3.172   0.326   0.062  1.00  0.00    -0.345 N 
HETATM    6  C11 UNL     1      -3.005  -0.878   0.644  1.00  0.00     0.093 A 
HETATM    7  C10 UNL     1      -1.796  -1.547   0.586  1.00  0.00     0.024 A 
BRANCH   5   8
HETATM    8  C1  UNL     1      -4.455   1.010   0.138  1.00  0.00     0.294 C 
BRANCH   8   9
HETATM    9  O1  UNL     1      -5.293   0.688  -0.912  1.00  0.00    -0.382 OA
ATOM     10  H1  UNL     1      -6.130   1.134  -0.862  1.00  0.00     0.211 HD
ENDBRANCH   8   9
ENDBRANCH   5   8
ENDBRANCH   1   2
BRANCH   1  11
HETATM   11  C6  UNL     1       1.471  -1.371   1.033  1.00  0.00     0.126 C 
BRANCH  11  12
HETATM   12  N2  UNL     1       1.759   0.039   1.017  1.00  0.00    -0.375 N 
ATOM     13  H2  UNL     1       1.084   0.676   1.440  1.00  0.00     0.161 HD
BRANCH  12  14
HETATM   14  C7  UNL     1       2.827   0.539   0.495  1.00  0.00     0.117 A 
HETATM   15  C8  UNL     1       3.839  -0.162  -0.114  1.00  0.00     0.068 A 
HETATM   16  C9  UNL     1       4.765   0.785  -0.516  1.00  0.00     0.111 A 
HETATM   17  N3  UNL     1       4.305   1.973  -0.153  1.00  0.00    -0.310 N 
HETATM   18  N4  UNL     1       3.144   1.838   0.453  1.00  0.00    -0.286 N 
ATOM     19  H3  UNL     1       4.780   2.861  -0.318  1.00  0.00     0.186 HD
ATOM     20  H4  UNL     1       2.579   2.599   0.829  1.00  0.00     0.188 HD
ENDBRANCH  12  14
ENDBRANCH  11  12
ENDBRANCH   1  11
TORSDOF 6
