REMARK  4 active torsions:
REMARK  status: ('A' for Active; 'I' for Inactive)
REMARK    1  A    between atoms: C3_3  and  C4_4 
REMARK    2  A    between atoms: C4_4  and  C5_5 
REMARK    3  A    between atoms: C5_5  and  C6_6 
REMARK    4  A    between atoms: C6_6  and  N1_7 
ROOT
HETATM    1  C1  UNL     1       5.242   0.384  -0.900  1.00  0.00     0.012 C 
HETATM    2  C2  UNL     1       4.224   0.751  -0.365  1.00  0.00    -0.117 C 
HETATM    3  C3  UNL     1       2.979   1.193   0.258  1.00  0.00     0.093 C 
ENDROOT
BRANCH   3   4
HETATM    4  C4  UNL     1       2.311   0.140   1.082  1.00  0.00     0.014 C 
BRANCH   4   5
HETATM    5  C5  UNL     1       1.948  -1.108   0.323  1.00  0.00     0.021 C 
BRANCH   5   6
HETATM    6  C6  UNL     1       1.006  -0.925  -0.808  1.00  0.00     0.130 C 
BRANCH   6   7
HETATM    7  N1  UNL     1      -0.297  -0.445  -0.500  1.00  0.00    -0.344 N 
HETATM    8  C7  UNL     1      -0.598   0.742  -0.872  1.00  0.00     0.094 C 
HETATM    9  C8  UNL     1      -1.778   1.586  -0.757  1.00  0.00     0.048 C 
HETATM   10  C9  UNL     1      -2.924   1.276  -0.203  1.00  0.00     0.091 C 
HETATM   11  N2  UNL     1      -3.912   2.285  -0.226  1.00  0.00    -0.098 NA
HETATM   12  C10 UNL     1      -3.327   0.027   0.433  1.00  0.00     0.125 C 
HETATM   13  N3  UNL     1      -4.576  -0.129   0.637  1.00  0.00    -0.384 N 
HETATM   14  N4  UNL     1      -2.424  -1.015   0.829  1.00  0.00    -0.328 N 
ATOM     15  H32 UNL     1      -5.218   0.612   0.355  1.00  0.00     0.157 HD
ATOM     16  H31 UNL     1      -4.858  -1.003   1.082  1.00  0.00     0.157 HD
HETATM   17  C11 UNL     1      -1.156  -1.334   0.193  1.00  0.00     0.099 C 
ATOM     18  H4  UNL     1      -2.696  -1.584   1.630  1.00  0.00     0.169 HD
HETATM   19  C12 UNL     1      -0.825  -2.596   0.272  1.00  0.00     0.064 C 
ENDBRANCH   6   7
ENDBRANCH   5   6
ENDBRANCH   4   5
ENDBRANCH   3   4
TORSDOF 4
