REMARK  10 active torsions:
REMARK  status: ('A' for Active; 'I' for Inactive)
REMARK    1  A    between atoms: O1_2  and  C2_3 
REMARK    2  A    between atoms: C2_3  and  C3_7 
REMARK    3  A    between atoms: C3_7  and  N2_8 
REMARK    4  A    between atoms: C3_7  and  N3_12 
REMARK       I    between atoms: N3_12  and  C4_14 
REMARK    5  A    between atoms: C4_14  and  C5_16 
REMARK    6  A    between atoms: C5_16  and  N4_17 
REMARK    7  A    between atoms: C5_16  and  C14_29 
REMARK       I    between atoms: N4_17  and  C6_19 
REMARK    8  A    between atoms: C6_19  and  O4_21 
REMARK    9  A    between atoms: O4_21  and  C7_22 
REMARK   10  A    between atoms: C7_22  and  C8_23 
ROOT
HETATM    1  C5  UNL     1       0.458  -0.524   0.017  1.00  0.00     0.182 C 
ENDROOT
BRANCH   1   2
HETATM    2  C4  UNL     1       1.385  -0.922   1.086  1.00  0.00     0.242 C 
HETATM    3  N3  UNL     1       2.721  -0.467   1.119  1.00  0.00    -0.325 N 
ATOM      4  H3  UNL     1       3.033   0.155   0.373  1.00  0.00     0.165 HD
HETATM    5  O2  UNL     1       0.984  -1.685   1.993  1.00  0.00    -0.271 OA
BRANCH   3   6
HETATM    6  C3  UNL     1       3.674  -0.827   2.143  1.00  0.00     0.359 C 
BRANCH   6   7
HETATM    7  C2  UNL     1       4.204   0.395   2.774  1.00  0.00     0.162 C 
HETATM    8  N1  UNL     1       3.774   1.564   2.446  1.00  0.00    -0.380 N 
ATOM      9  H12 UNL     1       4.141   2.410   2.883  1.00  0.00     0.158 HD
ATOM     10  H11 UNL     1       3.050   1.581   1.728  1.00  0.00     0.158 HD
BRANCH   7  11
HETATM   11  O1  UNL     1       5.200   0.372   3.761  1.00  0.00    -0.341 OA
HETATM   12  C1  UNL     1       5.936   1.560   4.029  1.00  0.00     0.211 C 
ENDBRANCH   7  11
ENDBRANCH   6   7
BRANCH   6  13
HETATM   13  N2  UNL     1       4.816  -1.520   1.545  1.00  0.00    -0.051 N 
ATOM     14  H23 UNL     1       5.351  -0.935   0.903  1.00  0.00     0.277 HD
ATOM     15  H22 UNL     1       5.568  -1.703   2.209  1.00  0.00     0.277 HD
ATOM     16  H21 UNL     1       4.449  -2.366   1.108  1.00  0.00     0.277 HD
ENDBRANCH   6  13
ENDBRANCH   3   6
ENDBRANCH   1   2
BRANCH   1  17
HETATM   17  N4  UNL     1      -0.843  -1.085   0.125  1.00  0.00    -0.323 N 
HETATM   18  C6  UNL     1      -2.057  -0.366   0.186  1.00  0.00     0.361 C 
HETATM   19  O3  UNL     1      -2.000   0.887   0.144  1.00  0.00    -0.238 OA
ATOM     20  H4  UNL     1      -0.906  -2.102   0.162  1.00  0.00     0.165 HD
BRANCH  18  21
HETATM   21  O4  UNL     1      -3.298  -0.949   0.288  1.00  0.00    -0.299 OA
BRANCH  21  22
HETATM   22  C7  UNL     1      -4.532  -0.296   0.350  1.00  0.00     0.219 C 
BRANCH  22  23
HETATM   23  C8  UNL     1      -4.794   0.548  -0.844  1.00  0.00    -0.034 A 
HETATM   24  C9  UNL     1      -5.011   0.042  -2.110  1.00  0.00     0.009 A 
HETATM   25  C10 UNL     1      -5.255   0.833  -3.208  1.00  0.00     0.001 A 
HETATM   26  C11 UNL     1      -5.283   2.214  -3.036  1.00  0.00     0.000 A 
HETATM   27  C12 UNL     1      -5.070   2.747  -1.791  1.00  0.00     0.001 A 
HETATM   28  C13 UNL     1      -4.829   1.929  -0.711  1.00  0.00     0.009 A 
ENDBRANCH  22  23
ENDBRANCH  21  22
ENDBRANCH  18  21
ENDBRANCH   1  17
BRANCH   1  29
HETATM   29  C14 UNL     1       1.072  -0.870  -1.346  1.00  0.00     0.009 C 
HETATM   30  C15 UNL     1       1.334  -2.358  -1.456  1.00  0.00     0.012 C 
HETATM   31  C16 UNL     1       0.110  -0.496  -2.458  1.00  0.00     0.012 C 
ENDBRANCH   1  29
TORSDOF 10
