REMARK  10 active torsions:
REMARK  status: ('A' for Active; 'I' for Inactive)
REMARK    1  A    between atoms: C1_2  and  C2_4 
REMARK    2  A    between atoms: C2_4  and  O3_5 
REMARK    3  A    between atoms: O3_5  and  C3_6 
REMARK    4  A    between atoms: C3_6  and  C4_8 
REMARK    5  A    between atoms: C4_8  and  C5_9 
REMARK    6  A    between atoms: C4_8  and  N1_13 
REMARK    7  A    between atoms: C5_9  and  C6_10 
REMARK    8  A    between atoms: N1_13  and  C7_15 
REMARK    9  A    between atoms: C7_15  and  N2_17 
REMARK   10  A    between atoms: N2_17  and  C8_19 
ROOT
HETATM    1  C4  UNL     1       2.083  -0.370  -0.983  1.00  0.00     0.193 C 
ENDROOT
BRANCH   1   2
HETATM    2  C3  UNL     1       2.730   0.087   0.242  1.00  0.00     0.282 C 
HETATM    3  O4  UNL     1       2.180   0.012   1.364  1.00  0.00    -0.263 OA
BRANCH   2   4
HETATM    4  O3  UNL     1       4.003   0.633   0.211  1.00  0.00    -0.309 OA
BRANCH   4   5
HETATM    5  C2  UNL     1       4.660   1.089   1.396  1.00  0.00     0.291 C 
BRANCH   5   6
HETATM    6  C1  UNL     1       5.982   1.612   1.061  1.00  0.00     0.198 C 
HETATM    7  O1  UNL     1       6.712   2.062   1.984  1.00  0.00    -0.646 OA
HETATM    8  O2  UNL     1       6.427   1.615  -0.250  1.00  0.00    -0.646 OA
ENDBRANCH   5   6
ENDBRANCH   4   5
ENDBRANCH   2   4
ENDBRANCH   1   2
BRANCH   1   9
HETATM    9  C5  UNL     1       2.860  -1.385  -1.764  1.00  0.00     0.148 C 
BRANCH   9  10
HETATM   10  C6  UNL     1       3.152  -2.621  -1.055  1.00  0.00     0.175 C 
HETATM   11  O5  UNL     1       2.797  -2.857   0.122  1.00  0.00    -0.648 OA
HETATM   12  O6  UNL     1       3.866  -3.620  -1.694  1.00  0.00    -0.648 OA
ENDBRANCH   9  10
ENDBRANCH   1   9
BRANCH   1  13
HETATM   13  N1  UNL     1       0.754  -0.864  -0.693  1.00  0.00    -0.353 N 
ATOM     14  H1  UNL     1       0.589  -1.861  -0.833  1.00  0.00     0.162 HD
BRANCH  13  15
HETATM   15  C7  UNL     1      -0.324  -0.098  -0.238  1.00  0.00     0.168 C 
HETATM   16  S1  UNL     1      -0.162   1.499  -0.008  1.00  0.00    -0.041 SA
BRANCH  15  17
HETATM   17  N2  UNL     1      -1.571  -0.712   0.014  1.00  0.00    -0.363 N 
ATOM     18  H2  UNL     1      -1.682  -1.715  -0.138  1.00  0.00     0.162 HD
BRANCH  17  19
HETATM   19  C8  UNL     1      -2.681   0.064   0.481  1.00  0.00     0.083 C 
HETATM   20  C9  UNL     1      -3.087   1.158  -0.454  1.00  0.00     0.025 C 
HETATM   21  C10 UNL     1      -4.581   1.192  -0.682  1.00  0.00     0.002 C 
HETATM   22  C11 UNL     1      -5.346   1.152   0.621  1.00  0.00     0.000 C 
HETATM   23  C12 UNL     1      -4.865   0.084   1.555  1.00  0.00     0.002 C 
HETATM   24  C13 UNL     1      -3.884  -0.793   0.803  1.00  0.00     0.025 C 
ENDBRANCH  17  19
ENDBRANCH  15  17
ENDBRANCH  13  15
ENDBRANCH   1  13
TORSDOF 10
