REMARK  10 active torsions:
REMARK  status: ('A' for Active; 'I' for Inactive)
REMARK    1  A    between atoms: C2_2  and  C4_4 
REMARK    2  A    between atoms: C4_4  and  C5_6 
REMARK    3  A    between atoms: C5_6  and  C6_7 
REMARK    4  A    between atoms: C5_6  and  N1_11 
REMARK    5  A    between atoms: C6_7  and  C7_8 
REMARK       I    between atoms: N1_11  and  C8_12 
REMARK    6  A    between atoms: C8_12  and  C9_14 
REMARK    7  A    between atoms: C9_14  and  N2_15 
REMARK    8  A    between atoms: C13_19  and  C15_21 
REMARK    9  A    between atoms: C15_21  and  O5_22 
REMARK   10  A    between atoms: N3_24  and  O6_26 
ROOT
HETATM    1  C9  UNL     1      -1.210  -0.685   0.089  1.00  0.00     0.151 C 
ENDROOT
BRANCH   1   2
HETATM    2  C8  UNL     1      -0.197  -0.008   0.996  1.00  0.00     0.321 C 
HETATM    3  N1  UNL     1       1.079   0.179   0.559  1.00  0.00    -0.397 NA
HETATM    4  O4  UNL     1      -0.673   0.323   2.111  1.00  0.00    -0.251 OA
BRANCH   3   5
HETATM    5  C5  UNL     1       2.372   0.369   0.120  1.00  0.00     0.246 C 
BRANCH   5   6
HETATM    6  C4  UNL     1       3.183  -0.872   0.155  1.00  0.00     0.166 C 
HETATM    7  O1  UNL     1       2.597  -1.922   0.472  1.00  0.00    -0.294 OA
BRANCH   6   8
HETATM    8  C2  UNL     1       4.613  -0.991  -0.144  1.00  0.00     0.050 C 
HETATM    9  C1  UNL     1       5.102  -2.437  -0.018  1.00  0.00     0.017 C 
HETATM   10  C3  UNL     1       5.050  -0.485  -1.480  1.00  0.00     0.017 C 
ENDBRANCH   6   8
ENDBRANCH   5   6
BRANCH   5  11
HETATM   11  C6  UNL     1       3.234   1.434   0.802  1.00  0.00     0.160 C 
BRANCH  11  12
HETATM   12  C7  UNL     1       2.536   2.740   0.820  1.00  0.00     0.176 C 
HETATM   13  O2  UNL     1       1.382   2.875   0.361  1.00  0.00    -0.648 OA
HETATM   14  O3  UNL     1       3.176   3.833   1.353  1.00  0.00    -0.648 OA
ENDBRANCH  11  12
ENDBRANCH   5  11
ENDBRANCH   3   5
ENDBRANCH   1   2
BRANCH   1  15
HETATM   15  N2  UNL     1      -2.497  -0.865   0.610  1.00  0.00    -0.270 NA
HETATM   16  C10 UNL     1      -3.095  -1.930  -0.285  1.00  0.00     0.096 C 
HETATM   17  C11 UNL     1      -3.294  -1.208  -1.573  1.00  0.00     0.017 C 
HETATM   18  C12 UNL     1      -3.605   0.194  -1.146  1.00  0.00     0.035 C 
HETATM   19  C13 UNL     1      -3.432   0.179   0.352  1.00  0.00     0.080 C 
HETATM   20  C14 UNL     1      -3.062   1.568   0.847  1.00  0.00     0.042 C 
BRANCH  19  21
HETATM   21  C15 UNL     1      -4.752  -0.120   0.985  1.00  0.00     0.159 C 
HETATM   22  N3  UNL     1      -5.802   0.482   0.729  1.00  0.00    -0.249 N 
ATOM     23  H3  UNL     1      -6.602   0.135   1.258  1.00  0.00     0.196 HD
BRANCH  21  24
HETATM   24  O5  UNL     1      -4.820  -1.153   1.951  1.00  0.00    -0.347 OA
ATOM     25  H5  UNL     1      -5.659  -1.343   2.353  1.00  0.00     0.219 HD
ENDBRANCH  21  24
BRANCH  22  26
HETATM   26  O6  UNL     1      -6.111   1.489  -0.092  1.00  0.00    -0.288 OA
ATOM     27  H6  UNL     1      -6.917   1.951  -0.289  1.00  0.00     0.244 HD
ENDBRANCH  22  26
ENDBRANCH  19  21
ENDBRANCH   1  15
TORSDOF 10
