REMARK  9 active torsions:
REMARK  status: ('A' for Active; 'I' for Inactive)
REMARK    1  A    between atoms: C3_3  and  C4_5 
REMARK    2  A    between atoms: C4_5  and  C5_6 
REMARK    3  A    between atoms: C4_5  and  C13_21 
REMARK       I    between atoms: C5_6  and  N1_8 
REMARK    4  A    between atoms: N1_8  and  C6_10 
REMARK    5  A    between atoms: C10_14  and  C11_15 
REMARK    6  A    between atoms: C13_21  and  N4_22 
REMARK    7  A    between atoms: C13_21  and  C14_30 
REMARK    8  A    between atoms: N4_22  and  S1_24 
REMARK    9  A    between atoms: S1_24  and  N5_25 
ROOT
HETATM    1  C1  UNL     1      -0.427   2.318   3.957  1.00  0.00     0.021 C 
HETATM    2  C2  UNL     1      -1.132   1.765   3.150  1.00  0.00    -0.039 C 
HETATM    3  C3  UNL     1      -1.968   1.077   2.179  1.00  0.00     0.217 C 
HETATM    4  O1  UNL     1      -2.870   0.359   2.630  1.00  0.00    -0.282 OA
ENDROOT
BRANCH   3   5
HETATM    5  C4  UNL     1      -1.736   1.242   0.737  1.00  0.00     0.193 C 
BRANCH   5   6
HETATM    6  C5  UNL     1      -0.374   0.823   0.301  1.00  0.00     0.237 C 
HETATM    7  O2  UNL     1       0.273   1.594  -0.446  1.00  0.00    -0.272 OA
HETATM    8  N1  UNL     1       0.190  -0.388   0.697  1.00  0.00    -0.326 N 
ATOM      9  H1  UNL     1      -0.397  -0.960   1.304  1.00  0.00     0.169 HD
BRANCH   8  10
HETATM   10  C6  UNL     1       1.437  -0.938   0.390  1.00  0.00     0.035 A 
HETATM   11  C7  UNL     1       1.709  -2.290   0.693  1.00  0.00     0.029 A 
HETATM   12  C8  UNL     1       2.923  -2.873   0.423  1.00  0.00     0.003 A 
HETATM   13  C9  UNL     1       3.921  -2.154  -0.154  1.00  0.00     0.015 A 
HETATM   14  C10 UNL     1       3.715  -0.838  -0.470  1.00  0.00     0.007 A 
HETATM   15  C12 UNL     1       2.475  -0.267  -0.187  1.00  0.00     0.044 A 
BRANCH  14  16
HETATM   16  C11 UNL     1       4.774  -0.041  -1.092  1.00  0.00     0.120 C 
HETATM   17  N2  UNL     1       5.896  -0.596  -1.337  1.00  0.00    -0.387 N 
ATOM     18  H22 UNL     1       6.055  -1.576  -1.103  1.00  0.00     0.157 HD
ATOM     19  H21 UNL     1       6.634  -0.041  -1.770  1.00  0.00     0.157 HD
HETATM   20  N3  UNL     1       4.555   1.310  -1.414  1.00  0.00    -0.082 NA
ENDBRANCH  14  16
ENDBRANCH   8  10
ENDBRANCH   5   6
BRANCH   5  21
HETATM   21  C13 UNL     1      -2.853   0.758  -0.133  1.00  0.00     0.204 C 
BRANCH  21  22
HETATM   22  N4  UNL     1      -3.165  -0.615  -0.008  1.00  0.00    -0.288 N 
ATOM     23  H4  UNL     1      -3.369  -1.036   0.898  1.00  0.00     0.174 HD
BRANCH  22  24
HETATM   24  S1  UNL     1      -3.184  -1.530  -1.436  1.00  0.00     0.313 S 
HETATM   25  O3  UNL     1      -4.214  -2.637  -1.254  1.00  0.00    -0.183 OA
HETATM   26  O4  UNL     1      -3.626  -0.755  -2.640  1.00  0.00    -0.183 OA
BRANCH  24  27
HETATM   27  N5  UNL     1      -1.680  -2.271  -1.830  1.00  0.00    -0.312 N 
ATOM     28  H52 UNL     1      -0.854  -2.159  -1.242  1.00  0.00     0.170 HD
ATOM     29  H51 UNL     1      -1.691  -2.821  -2.689  1.00  0.00     0.170 HD
ENDBRANCH  24  27
ENDBRANCH  22  24
ENDBRANCH  21  22
BRANCH  21  30
HETATM   30  C14 UNL     1      -4.050   1.573   0.305  1.00  0.00     0.255 C 
HETATM   31  N6  UNL     1      -4.043   2.985   0.293  1.00  0.00    -0.060 NA
HETATM   32  O5  UNL     1      -5.061   0.957   0.683  1.00  0.00    -0.275 OA
ENDBRANCH  21  30
ENDBRANCH   5  21
ENDBRANCH   3   5
TORSDOF 9
