REMARK  10 active torsions:
REMARK  status: ('A' for Active; 'I' for Inactive)
REMARK    1  A    between atoms: C1_2  and  C2_4 
REMARK    2  A    between atoms: C2_4  and  C3_5 
REMARK    3  A    between atoms: C3_5  and  N2_6 
REMARK    4  A    between atoms: C3_5  and  C10_17 
REMARK    5  A    between atoms: N2_6  and  S1_8 
REMARK    6  A    between atoms: S1_8  and  C4_11 
REMARK       I    between atoms: C10_17  and  N3_19 
REMARK    7  A    between atoms: N3_19  and  C11_21 
REMARK    8  A    between atoms: C11_21  and  N4_22 
REMARK       I    between atoms: N4_22  and  C12_24 
REMARK    9  A    between atoms: N6_26  and  O5_28 
REMARK   10  A    between atoms: O5_28  and  C13_29 
ROOT
HETATM    1  C3  UNL     1      -0.643  -1.015  -1.129  1.00  0.00     0.193 C 
ENDROOT
BRANCH   1   2
HETATM    2  C2  UNL     1      -0.380  -1.973  -2.259  1.00  0.00     0.135 C 
BRANCH   2   3
HETATM    3  C1  UNL     1      -0.643  -3.357  -1.761  1.00  0.00     0.233 C 
HETATM    4  N1  UNL     1      -1.405  -4.284  -2.548  1.00  0.00    -0.062 NA
HETATM    5  O1  UNL     1      -0.178  -3.665  -0.641  1.00  0.00    -0.277 OA
ENDBRANCH   2   3
ENDBRANCH   1   2
BRANCH   1   6
HETATM    6  N2  UNL     1      -1.974  -1.095  -0.718  1.00  0.00    -0.301 N 
ATOM      7  H2  UNL     1      -2.702  -0.905  -1.406  1.00  0.00     0.173 HD
BRANCH   6   8
HETATM    8  S1  UNL     1      -2.438  -1.482   0.826  1.00  0.00     0.259 S 
HETATM    9  O2  UNL     1      -3.354  -2.672   0.810  1.00  0.00    -0.201 OA
HETATM   10  O3  UNL     1      -1.339  -1.791   1.803  1.00  0.00    -0.201 OA
BRANCH   8  11
HETATM   11  C4  UNL     1      -3.334  -0.159   1.606  1.00  0.00     0.079 A 
HETATM   12  C5  UNL     1      -4.697  -0.003   1.405  1.00  0.00     0.025 A 
HETATM   13  C6  UNL     1      -5.426   1.015   2.005  1.00  0.00     0.002 A 
HETATM   14  C7  UNL     1      -4.782   1.927   2.847  1.00  0.00     0.000 A 
HETATM   15  C8  UNL     1      -3.439   1.761   3.035  1.00  0.00     0.002 A 
HETATM   16  C9  UNL     1      -2.714   0.748   2.438  1.00  0.00     0.025 A 
ENDBRANCH   8  11
ENDBRANCH   6   8
ENDBRANCH   1   6
BRANCH   1  17
HETATM   17  C10 UNL     1      -0.085   0.340  -1.348  1.00  0.00     0.242 C 
HETATM   18  O4  UNL     1      -0.785   1.338  -1.116  1.00  0.00    -0.271 OA
HETATM   19  N3  UNL     1       1.230   0.476  -1.814  1.00  0.00    -0.343 N 
ATOM     20  H3  UNL     1       1.796  -0.348  -2.015  1.00  0.00     0.164 HD
BRANCH  19  21
HETATM   21  C11 UNL     1       1.773   1.809  -2.006  1.00  0.00     0.249 C 
BRANCH  21  22
HETATM   22  N4  UNL     1       1.894   2.490  -0.713  1.00  0.00    -0.347 N 
HETATM   23  C12 UNL     1       2.814   1.919   0.211  1.00  0.00     0.209 C 
HETATM   24  N5  UNL     1       2.334   1.199   1.326  1.00  0.00    -0.062 NA
HETATM   25  N6  UNL     1       4.070   2.068   0.020  1.00  0.00    -0.228 N 
ATOM     26  H6  UNL     1       4.360   2.599  -0.801  1.00  0.00     0.197 HD
ATOM     27  H4  UNL     1       1.351   3.324  -0.489  1.00  0.00     0.163 HD
BRANCH  25  28
HETATM   28  O5  UNL     1       5.041   1.579   0.817  1.00  0.00    -0.181 OA
BRANCH  28  29
HETATM   29  C13 UNL     1       6.223   0.994   0.363  1.00  0.00     0.394 C 
HETATM   30  N7  UNL     1       7.212   0.499   1.255  1.00  0.00    -0.031 NA
HETATM   31  O6  UNL     1       6.426   0.900  -0.859  1.00  0.00    -0.240 OA
ENDBRANCH  28  29
ENDBRANCH  25  28
ENDBRANCH  21  22
ENDBRANCH  19  21
ENDBRANCH   1  17
TORSDOF 10
