REMARK  8 active torsions:
REMARK  status: ('A' for Active; 'I' for Inactive)
REMARK       I    between atoms: C2_2  and  N1_4 
REMARK    1  A    between atoms: N1_4  and  N2_6 
REMARK    2  A    between atoms: C3_8  and  C5_10 
REMARK    3  A    between atoms: C5_10  and  C6_11 
REMARK    4  A    between atoms: C6_11  and  N3_12 
REMARK    5  A    between atoms: C6_11  and  C14_27 
REMARK    6  A    between atoms: N3_12  and  C7_14 
REMARK       I    between atoms: C14_27  and  N6_29 
REMARK    7  A    between atoms: N6_29  and  C15_31 
REMARK    8  A    between atoms: C15_31  and  C16_32 
ROOT
HETATM    1  C6  UNL     1       0.633   0.496   0.335  1.00  0.00     0.177 C 
ENDROOT
BRANCH   1   2
HETATM    2  C5  UNL     1       1.758   0.224  -0.636  1.00  0.00     0.088 C 
BRANCH   2   3
HETATM    3  C3  UNL     1       2.295  -1.124  -0.657  1.00  0.00     0.002 C 
HETATM    4  N2  UNL     1       2.175  -1.787  -1.768  1.00  0.00    -0.307 N 
ATOM      5  H2  UNL     1       1.708  -1.346  -2.560  1.00  0.00     0.186 HD
HETATM    6  C4  UNL     1       2.968  -1.767   0.481  1.00  0.00     0.065 C 
BRANCH   4   7
HETATM    7  N1  UNL     1       2.664  -3.078  -1.908  1.00  0.00    -0.271 N 
HETATM    8  C2  UNL     1       3.946  -3.366  -2.410  1.00  0.00     0.232 C 
HETATM    9  C1  UNL     1       4.400  -4.756  -2.531  1.00  0.00     0.119 C 
HETATM   10  O1  UNL     1       4.700  -2.421  -2.757  1.00  0.00    -0.272 OA
ATOM     11  H1  UNL     1       2.064  -3.856  -1.633  1.00  0.00     0.190 HD
ENDBRANCH   4   7
ENDBRANCH   2   3
ENDBRANCH   1   2
BRANCH   1  12
HETATM   12  N3  UNL     1      -0.479  -0.317   0.052  1.00  0.00    -0.370 N 
ATOM     13  H3  UNL     1      -0.732  -0.501  -0.919  1.00  0.00     0.157 HD
BRANCH  12  14
HETATM   14  C7  UNL     1      -1.245  -0.879   1.084  1.00  0.00     0.271 C 
HETATM   15  C8  UNL     1      -0.547  -1.838   2.012  1.00  0.00     0.081 C 
HETATM   16  N4  UNL     1      -2.293  -1.700   0.421  1.00  0.00    -0.038 N 
HETATM   17  C9  UNL     1      -3.026  -0.803  -0.445  1.00  0.00     0.266 C 
ATOM     18  H42 UNL     1      -1.921  -2.517  -0.064  1.00  0.00     0.280 HD
ATOM     19  H41 UNL     1      -2.888  -2.204   1.078  1.00  0.00     0.280 HD
HETATM   20  C10 UNL     1      -4.037  -0.081   0.403  1.00  0.00     0.049 C 
HETATM   21  C11 UNL     1      -5.275  -0.968   0.522  1.00  0.00     0.039 C 
HETATM   22  C12 UNL     1      -4.456   1.234  -0.201  1.00  0.00     0.039 C 
HETATM   23  N5  UNL     1      -3.429   0.190   1.676  1.00  0.00    -0.347 N 
HETATM   24  C13 UNL     1      -2.018   0.068   1.925  1.00  0.00     0.274 C 
ATOM     25  H5  UNL     1      -4.031   0.485   2.445  1.00  0.00     0.163 HD
HETATM   26  O2  UNL     1      -1.536   0.770   2.844  1.00  0.00    -0.269 OA
ENDBRANCH  12  14
ENDBRANCH   1  12
BRANCH   1  27
HETATM   27  C14 UNL     1       0.331   1.962   0.147  1.00  0.00     0.240 C 
HETATM   28  O3  UNL     1      -0.829   2.319  -0.184  1.00  0.00    -0.271 OA
HETATM   29  N6  UNL     1       1.315   2.947   0.328  1.00  0.00    -0.351 N 
ATOM     30  H6  UNL     1       2.257   2.663   0.597  1.00  0.00     0.163 HD
BRANCH  29  31
HETATM   31  C15 UNL     1       1.032   4.351   0.144  1.00  0.00     0.222 C 
BRANCH  31  32
HETATM   32  C16 UNL     1       2.232   5.196   0.343  1.00  0.00     0.248 C 
HETATM   33  N7  UNL     1       2.135   6.597   0.186  1.00  0.00    -0.061 NA
HETATM   34  O4  UNL     1       3.314   4.679   0.644  1.00  0.00    -0.275 OA
ENDBRANCH  31  32
ENDBRANCH  29  31
ENDBRANCH   1  27
TORSDOF 8
