REMARK  9 active torsions:
REMARK  status: ('A' for Active; 'I' for Inactive)
REMARK    1  A    between atoms: C2_2  and  C4_4 
REMARK    2  A    between atoms: C4_4  and  N1_5 
REMARK    3  A    between atoms: C4_4  and  C15_28 
REMARK       I    between atoms: N1_5  and  C5_7 
REMARK    4  A    between atoms: C5_7  and  C6_9 
REMARK    5  A    between atoms: C6_9  and  N2_10 
REMARK       I    between atoms: N2_10  and  C7_12 
REMARK    6  A    between atoms: C7_12  and  C8_14 
REMARK    7  A    between atoms: C8_14  and  C9_15 
REMARK    8  A    between atoms: C9_15  and  C10_16 
REMARK       I    between atoms: C10_16  and  N3_18 
REMARK       I    between atoms: N3_18  and  C11_20 
REMARK    9  A    between atoms: C15_28  and  C16_30 
ROOT
HETATM    1  C6  UNL     1      -0.214  -1.753   0.347  1.00  0.00     0.113 A 
HETATM    2  C12 UNL     1       0.054  -1.167   1.719  1.00  0.00     0.041 A 
HETATM    3  C13 UNL     1      -0.665  -2.322   2.349  1.00  0.00     0.006 A 
HETATM    4  C14 UNL     1      -1.021  -2.848   0.978  1.00  0.00     0.041 A 
ENDROOT
BRANCH   1   5
HETATM    5  C5  UNL     1      -1.003  -0.764  -0.436  1.00  0.00     0.246 C 
HETATM    6  N1  UNL     1      -2.183  -0.178  -0.003  1.00  0.00    -0.347 N 
ATOM      7  H1  UNL     1      -2.573  -0.411   0.910  1.00  0.00     0.163 HD
HETATM    8  O1  UNL     1      -0.539  -0.451  -1.581  1.00  0.00    -0.271 OA
BRANCH   6   9
HETATM    9  C4  UNL     1      -2.866   0.790  -0.886  1.00  0.00     0.167 C 
BRANCH   9  10
HETATM   10  C2  UNL     1      -2.828   2.073  -0.080  1.00  0.00     0.008 C 
HETATM   11  C1  UNL     1      -3.551   1.917   1.214  1.00  0.00     0.012 C 
HETATM   12  C3  UNL     1      -3.244   3.307  -0.786  1.00  0.00     0.012 C 
ENDBRANCH   9  10
BRANCH   9  13
HETATM   13  C15 UNL     1      -4.211   0.314  -1.210  1.00  0.00     0.236 C 
HETATM   14  O4  UNL     1      -4.640  -0.714  -0.571  1.00  0.00    -0.285 OA
BRANCH  13  15
HETATM   15  C16 UNL     1      -5.119   0.876  -2.182  1.00  0.00     0.302 C 
HETATM   16  N6  UNL     1      -6.451   0.330  -2.361  1.00  0.00    -0.054 NA
HETATM   17  O5  UNL     1      -4.878   1.846  -2.941  1.00  0.00    -0.268 OA
ENDBRANCH  13  15
ENDBRANCH   9  13
ENDBRANCH   6   9
ENDBRANCH   1   5
BRANCH   1  18
HETATM   18  N2  UNL     1       0.990  -2.222  -0.281  1.00  0.00    -0.343 N 
HETATM   19  C7  UNL     1       2.100  -1.405  -0.627  1.00  0.00     0.219 C 
HETATM   20  O2  UNL     1       2.009  -0.168  -0.347  1.00  0.00    -0.274 OA
ATOM     21  H2  UNL     1       1.053  -3.217  -0.495  1.00  0.00     0.163 HD
BRANCH  19  22
HETATM   22  C8  UNL     1       3.304  -1.990  -1.288  1.00  0.00     0.112 C 
BRANCH  22  23
HETATM   23  C9  UNL     1       4.348  -0.940  -1.443  1.00  0.00     0.112 C 
BRANCH  23  24
HETATM   24  C10 UNL     1       4.833  -0.374  -0.162  1.00  0.00     0.224 C 
HETATM   25  O3  UNL     1       4.447  -0.819   0.960  1.00  0.00    -0.273 OA
HETATM   26  N3  UNL     1       5.754   0.695  -0.199  1.00  0.00    -0.301 N 
HETATM   27  C11 UNL     1       6.230   1.247   1.009  1.00  0.00     0.188 C 
ATOM     28  H3  UNL     1       6.074   1.066  -1.094  1.00  0.00     0.171 HD
HETATM   29  N4  UNL     1       7.065   2.219   0.972  1.00  0.00    -0.373 N 
HETATM   30  N5  UNL     1       5.821   0.769   2.273  1.00  0.00    -0.064 NA
ATOM     31  H42 UNL     1       7.360   2.564   0.059  1.00  0.00     0.158 HD
ATOM     32  H41 UNL     1       7.409   2.618   1.845  1.00  0.00     0.158 HD
ENDBRANCH  23  24
ENDBRANCH  22  23
ENDBRANCH  19  22
ENDBRANCH   1  18
TORSDOF 9
