REMARK  9 active torsions:
REMARK  status: ('A' for Active; 'I' for Inactive)
REMARK    1  A    between atoms: C3_3  and  N1_4 
REMARK       I    between atoms: N1_4  and  C4_6 
REMARK    2  A    between atoms: C4_6  and  C5_8 
REMARK    3  A    between atoms: C9_12  and  C10_13 
REMARK    4  A    between atoms: C10_13  and  N2_14 
REMARK    5  A    between atoms: N2_14  and  C11_16 
REMARK    6  A    between atoms: C11_16  and  N3_18 
REMARK    7  A    between atoms: N3_18  and  N4_20 
REMARK    8  A    between atoms: C12_22  and  N5_23 
REMARK    9  A    between atoms: N5_23  and  C14_25 
ROOT
HETATM    1  C1  UNL     1       8.558  -2.985  -0.094  1.00  0.00     0.014 C 
HETATM    2  C2  UNL     1       8.437  -1.845  -0.481  1.00  0.00    -0.098 C 
HETATM    3  C3  UNL     1       8.274  -0.471  -0.972  1.00  0.00     0.216 C 
ENDROOT
BRANCH   3   4
HETATM    4  N1  UNL     1       6.885  -0.134  -0.774  1.00  0.00    -0.350 N 
HETATM    5  C4  UNL     1       6.288  -0.132   0.507  1.00  0.00     0.226 C 
HETATM    6  O1  UNL     1       6.989  -0.430   1.498  1.00  0.00    -0.273 OA
ATOM      7  H1  UNL     1       6.316   0.111  -1.584  1.00  0.00     0.163 HD
BRANCH   5   8
HETATM    8  C5  UNL     1       4.839   0.219   0.686  1.00  0.00     0.037 C 
HETATM    9  C6  UNL     1       4.505   0.155   2.159  1.00  0.00     0.025 C 
HETATM   10  C7  UNL     1       4.609   1.589   0.158  1.00  0.00     0.019 C 
HETATM   11  C8  UNL     1       3.120   1.890  -0.057  1.00  0.00     0.011 C 
HETATM   12  C9  UNL     1       2.575   0.900  -0.994  1.00  0.00     0.024 C 
HETATM   13  C20 UNL     1       2.629  -0.466  -0.272  1.00  0.00     0.011 C 
HETATM   14  C21 UNL     1       4.061  -0.826  -0.076  1.00  0.00     0.019 C 
BRANCH  12  15
HETATM   15  C10 UNL     1       1.267   1.088  -1.645  1.00  0.00     0.068 C 
BRANCH  15  16
HETATM   16  N2  UNL     1       0.092   1.190  -0.886  1.00  0.00    -0.345 N 
ATOM     17  H2  UNL     1      -0.492   0.353  -0.890  1.00  0.00     0.167 HD
BRANCH  16  18
HETATM   18  C11 UNL     1      -0.410   2.245  -0.127  1.00  0.00     0.190 C 
HETATM   19  S1  UNL     1       0.253   3.739  -0.026  1.00  0.00    -0.039 SA
BRANCH  18  20
HETATM   20  N3  UNL     1      -1.662   2.014   0.582  1.00  0.00    -0.275 N 
ATOM     21  H3  UNL     1      -2.055   2.769   1.144  1.00  0.00     0.189 HD
BRANCH  20  22
HETATM   22  N4  UNL     1      -2.333   0.815   0.521  1.00  0.00    -0.294 N 
HETATM   23  C12 UNL     1      -3.589   0.675   0.713  1.00  0.00     0.195 C 
ATOM     24  H4  UNL     1      -1.790  -0.022   0.307  1.00  0.00     0.187 HD
BRANCH  23  25
HETATM   25  N5  UNL     1      -4.265  -0.570   0.646  1.00  0.00    -0.376 N 
HETATM   26  C13 UNL     1      -3.696  -1.734   1.273  1.00  0.00     0.150 C 
BRANCH  25  27
HETATM   27  C14 UNL     1      -5.544  -0.643  -0.071  1.00  0.00     0.084 C 
HETATM   28  C15 UNL     1      -6.117  -2.023  -0.014  1.00  0.00     0.025 C 
HETATM   29  C16 UNL     1      -7.346  -2.078  -0.888  1.00  0.00     0.002 C 
HETATM   30  C17 UNL     1      -8.370  -1.051  -0.415  1.00  0.00     0.000 C 
HETATM   31  C18 UNL     1      -7.771   0.330  -0.360  1.00  0.00     0.002 C 
HETATM   32  C19 UNL     1      -6.491   0.397   0.435  1.00  0.00     0.025 C 
ENDBRANCH  25  27
ENDBRANCH  23  25
ENDBRANCH  20  22
ENDBRANCH  18  20
ENDBRANCH  16  18
ENDBRANCH  15  16
ENDBRANCH  12  15
ENDBRANCH   5   8
ENDBRANCH   3   4
TORSDOF 9
