REMARK  8 active torsions:
REMARK  status: ('A' for Active; 'I' for Inactive)
REMARK    1  A    between atoms: C2_2  and  N1_4 
REMARK       I    between atoms: N1_4  and  C4_6 
REMARK       I    between atoms: C4_6  and  N2_8 
REMARK    2  A    between atoms: N2_8  and  C5_10 
REMARK    3  A    between atoms: C5_10  and  C6_11 
REMARK    4  A    between atoms: C5_10  and  C16_28 
REMARK       I    between atoms: C6_11  and  N3_13 
REMARK    5  A    between atoms: C10_17  and  C11_18 
REMARK    6  A    between atoms: C11_18  and  O3_19 
REMARK    7  A    between atoms: C11_18  and  N4_21 
REMARK    8  A    between atoms: N4_21  and  C12_23 
ROOT
HETATM    1  C12 UNL     1       5.342   1.019  -0.746  1.00  0.00     0.121 A 
HETATM    2  C13 UNL     1       6.284   0.997   0.390  1.00  0.00     0.091 C 
HETATM    3  N5  UNL     1       7.008   0.970   1.296  1.00  0.00    -0.195 NA
HETATM    4  C14 UNL     1       5.780   0.454  -2.053  1.00  0.00     0.050 A 
HETATM    5  C15 UNL     1       5.656   1.957  -1.819  1.00  0.00     0.050 A 
ENDROOT
BRANCH   1   6
HETATM    6  N4  UNL     1       3.989   0.695  -0.300  1.00  0.00    -0.351 N 
ATOM      7  H4  UNL     1       3.234   1.362  -0.461  1.00  0.00     0.163 HD
BRANCH   6   8
HETATM    8  C11 UNL     1       3.707  -0.537   0.355  1.00  0.00     0.136 C 
BRANCH   8   9
HETATM    9  C10 UNL     1       2.521  -1.066   0.922  1.00  0.00     0.162 C 
HETATM   10  N3  UNL     1       1.205  -0.722   0.669  1.00  0.00    -0.335 N 
HETATM   11  C6  UNL     1       0.351  -0.071  -0.206  1.00  0.00     0.267 C 
HETATM   12  C7  UNL     1       0.553  -1.411   1.875  1.00  0.00     0.127 C 
HETATM   13  O2  UNL     1       0.665   0.166  -1.415  1.00  0.00    -0.266 OA
HETATM   14  C8  UNL     1       1.005  -2.851   1.396  1.00  0.00     0.022 C 
HETATM   15  C9  UNL     1       2.380  -2.605   0.758  1.00  0.00     0.035 C 
BRANCH  11  16
HETATM   16  C5  UNL     1      -1.035   0.392   0.210  1.00  0.00     0.086 C 
BRANCH  16  17
HETATM   17  N2  UNL     1      -2.062  -0.490  -0.131  1.00  0.00    -0.307 N 
HETATM   18  C4  UNL     1      -2.641  -0.956  -1.309  1.00  0.00     0.320 C 
HETATM   19  N1  UNL     1      -3.696  -1.936  -1.204  1.00  0.00    -0.339 N 
HETATM   20  O1  UNL     1      -2.326  -0.617  -2.482  1.00  0.00    -0.247 OA
ATOM     21  H1  UNL     1      -4.026  -2.206  -0.277  1.00  0.00     0.164 HD
ATOM     22  H2  UNL     1      -2.501  -0.898   0.694  1.00  0.00     0.170 HD
BRANCH  19  23
HETATM   23  C2  UNL     1      -4.295  -2.542  -2.353  1.00  0.00     0.078 C 
HETATM   24  C1  UNL     1      -5.799  -2.389  -2.362  1.00  0.00     0.032 C 
HETATM   25  C3  UNL     1      -3.983  -4.064  -2.179  1.00  0.00     0.032 C 
ENDBRANCH  19  23
ENDBRANCH  16  17
BRANCH  16  26
HETATM   26  C16 UNL     1      -1.104   1.248   1.396  1.00  0.00     0.041 C 
HETATM   27  C17 UNL     1      -2.341   2.164   1.410  1.00  0.00     0.011 C 
HETATM   28  C18 UNL     1      -2.139   3.480   0.735  1.00  0.00     0.001 C 
HETATM   29  C19 UNL     1      -1.311   4.396   1.638  1.00  0.00     0.000 C 
HETATM   30  C20 UNL     1      -0.266   3.478   2.264  1.00  0.00     0.001 C 
HETATM   31  C21 UNL     1       0.051   2.297   1.377  1.00  0.00     0.011 C 
ENDBRANCH  16  26
ENDBRANCH  11  16
ENDBRANCH   8   9
BRANCH   8  32
HETATM   32  O3  UNL     1       4.754  -1.309   0.453  1.00  0.00    -0.348 OA
ATOM     33  H3  UNL     1       5.549  -0.954   0.073  1.00  0.00     0.219 HD
ENDBRANCH   8  32
ENDBRANCH   6   8
ENDBRANCH   1   6
TORSDOF 8
