REMARK  7 active torsions:
REMARK  status: ('A' for Active; 'I' for Inactive)
REMARK    1  A    between atoms: C2_2  and  N1_4 
REMARK       I    between atoms: N1_4  and  C4_6 
REMARK    2  A    between atoms: C4_6  and  C5_8 
REMARK       I    between atoms: N2_13  and  C10_14 
REMARK    3  A    between atoms: C10_14  and  C11_16 
REMARK    4  A    between atoms: C11_16  and  N3_17 
REMARK    5  A    between atoms: C11_16  and  C17_26 
REMARK    6  A    between atoms: N3_17  and  C12_20 
REMARK    7  A    between atoms: C17_26  and  N4_27 
ROOT
HETATM    1  C11 UNL     1      -1.563  -0.032  -0.234  1.00  0.00     0.313 C 
ENDROOT
BRANCH   1   2
HETATM    2  C10 UNL     1      -0.173   0.340   0.062  1.00  0.00     0.254 C 
HETATM    3  N2  UNL     1       0.730   1.026  -0.765  1.00  0.00    -0.337 N 
HETATM    4  C5  UNL     1       2.105   1.276  -0.370  1.00  0.00     0.179 C 
HETATM    5  C9  UNL     1       0.342   1.570  -2.040  1.00  0.00     0.127 C 
HETATM    6  C6  UNL     1       2.854   2.001  -1.468  1.00  0.00     0.035 C 
HETATM    7  C7  UNL     1       2.194   3.189  -2.035  1.00  0.00     0.004 C 
HETATM    8  C8  UNL     1       0.732   3.052  -2.134  1.00  0.00     0.020 C 
HETATM    9  O2  UNL     1       0.226  -0.024   1.231  1.00  0.00    -0.271 OA
BRANCH   4  10
HETATM   10  C4  UNL     1       2.887   0.050  -0.126  1.00  0.00     0.240 C 
HETATM   11  N1  UNL     1       4.213   0.146   0.328  1.00  0.00    -0.355 N 
ATOM     12  H1  UNL     1       4.626   1.066   0.485  1.00  0.00     0.162 HD
HETATM   13  O1  UNL     1       2.379  -1.061  -0.320  1.00  0.00    -0.271 OA
BRANCH  11  14
HETATM   14  C2  UNL     1       5.003  -1.043   0.577  1.00  0.00     0.076 C 
HETATM   15  C1  UNL     1       5.436  -1.004   2.040  1.00  0.00     0.032 C 
HETATM   16  C3  UNL     1       6.252  -1.107  -0.256  1.00  0.00     0.032 C 
ENDBRANCH  11  14
ENDBRANCH   4  10
ENDBRANCH   1   2
BRANCH   1  17
HETATM   17  N3  UNL     1      -2.347  -0.152   1.010  1.00  0.00    -0.049 N 
ATOM     18  H32 UNL     1      -3.271  -0.556   0.859  1.00  0.00     0.279 HD
ATOM     19  H31 UNL     1      -1.987  -0.871   1.638  1.00  0.00     0.279 HD
BRANCH  17  20
HETATM   20  C12 UNL     1      -2.400   1.167   1.630  1.00  0.00     0.256 C 
HETATM   21  C13 UNL     1      -2.929   1.018   3.049  1.00  0.00     0.041 C 
HETATM   22  C14 UNL     1      -3.416   2.414   3.371  1.00  0.00     0.010 C 
HETATM   23  C15 UNL     1      -3.686   3.107   2.052  1.00  0.00     0.080 C 
HETATM   24  C16 UNL     1      -3.449   2.038   1.053  1.00  0.00     0.157 C 
HETATM   25  O3  UNL     1      -4.017   1.933  -0.005  1.00  0.00    -0.296 OA
ENDBRANCH  17  20
ENDBRANCH   1  17
BRANCH   1  26
HETATM   26  C17 UNL     1      -1.713  -1.386  -0.918  1.00  0.00     0.160 C 
HETATM   27  C18 UNL     1      -1.189  -2.534  -0.134  1.00  0.00     0.041 C 
HETATM   28  C19 UNL     1      -1.738  -3.829  -0.688  1.00  0.00     0.002 C 
HETATM   29  C20 UNL     1      -3.233  -3.959  -0.569  1.00  0.00     0.000 C 
HETATM   30  C21 UNL     1      -3.812  -2.592  -0.293  1.00  0.00     0.002 C 
HETATM   31  C22 UNL     1      -3.154  -1.651  -1.278  1.00  0.00     0.041 C 
BRANCH  26  32
HETATM   32  N4  UNL     1      -0.989  -1.349  -2.199  1.00  0.00    -0.068 N 
ATOM     33  H43 UNL     1      -1.287  -0.576  -2.794  1.00  0.00     0.275 HD
ATOM     34  H42 UNL     1      -0.013  -1.073  -2.088  1.00  0.00     0.275 HD
ATOM     35  H41 UNL     1      -1.089  -2.255  -2.657  1.00  0.00     0.275 HD
ENDBRANCH  26  32
ENDBRANCH   1  26
TORSDOF 7
