REMARK  8 active torsions:
REMARK  status: ('A' for Active; 'I' for Inactive)
REMARK    1  A    between atoms: N1_4  and  C4_5 
REMARK    2  A    between atoms: C4_5  and  C6_7 
REMARK    3  A    between atoms: C6_7  and  O1_8 
REMARK    4  A    between atoms: C21_24  and  N2_25 
REMARK    5  A    between atoms: N2_25  and  O2_26 
REMARK       I    between atoms: N2_25  and  C22_28 
REMARK       I    between atoms: C22_28  and  N3_30 
REMARK    6  A    between atoms: N3_30  and  C23_31 
REMARK    7  A    between atoms: C26_34  and  C27_35 
REMARK       I    between atoms: C27_35  and  N4_37 
REMARK    8  A    between atoms: C35_45  and  C36_46 
ROOT
HETATM    1  C1  UNL     1      -2.342  -0.765  -2.704  1.00  0.00     0.016 C 
HETATM    2  C2  UNL     1      -2.140   0.290  -1.556  1.00  0.00     0.030 C 
HETATM    3  C3  UNL     1      -1.925  -0.498  -0.349  1.00  0.00     0.131 C 
HETATM    4  N1  UNL     1      -3.077  -0.954   0.399  1.00  0.00    -0.386 N 
HETATM    5  C7  UNL     1      -4.249  -1.307  -0.215  1.00  0.00     0.058 C 
HETATM    6  C8  UNL     1      -4.538  -2.731  -0.550  1.00  0.00     0.044 C 
HETATM    7  C9  UNL     1      -5.904  -3.224  -0.356  1.00  0.00     0.005 C 
HETATM    8  C10 UNL     1      -7.050  -2.303  -0.438  1.00  0.00     0.000 C 
HETATM    9  C11 UNL     1      -7.322  -1.629  -1.729  1.00  0.00     0.000 C 
HETATM   10  C12 UNL     1      -8.238  -0.452  -1.669  1.00  0.00     0.000 C 
HETATM   11  C13 UNL     1      -7.988   0.555  -0.616  1.00  0.00     0.000 C 
HETATM   12  C14 UNL     1      -7.539   1.908  -1.207  1.00  0.00     0.000 C 
HETATM   13  C15 UNL     1      -6.038   1.990  -1.168  1.00  0.00     0.000 C 
HETATM   14  C16 UNL     1      -5.491   3.394  -1.071  1.00  0.00     0.000 C 
HETATM   15  C17 UNL     1      -4.421   3.608  -2.120  1.00  0.00     0.000 C 
HETATM   16  C18 UNL     1      -3.044   3.165  -1.673  1.00  0.00     0.004 C 
HETATM   17  C19 UNL     1      -2.311   2.415  -2.753  1.00  0.00     0.036 C 
HETATM   18  C20 UNL     1      -1.342   1.337  -2.094  1.00  0.00    -0.056 C 
HETATM   19  C21 UNL     1      -0.225   2.125  -1.626  1.00  0.00     0.132 C 
ENDROOT
BRANCH  19  20
HETATM   20  N2  UNL     1       1.028   1.563  -1.259  1.00  0.00    -0.172 N 
HETATM   21  C22 UNL     1       1.424   1.270   0.069  1.00  0.00     0.419 C 
HETATM   22  O3  UNL     1       0.710   1.600   1.013  1.00  0.00    -0.228 OA
HETATM   23  N3  UNL     1       2.714   0.573   0.276  1.00  0.00    -0.388 NA
BRANCH  20  24
HETATM   24  O2  UNL     1       1.899   1.321  -2.301  1.00  0.00    -0.278 OA
ATOM     25  H2  UNL     1       2.736   0.945  -2.056  1.00  0.00     0.245 HD
ENDBRANCH  20  24
BRANCH  23  26
HETATM   26  C23 UNL     1       3.808  -0.018   0.463  1.00  0.00     0.183 C 
HETATM   27  C24 UNL     1       5.027   0.678  -0.154  1.00  0.00     0.041 C 
HETATM   28  C25 UNL     1       6.043  -0.338  -0.523  1.00  0.00     0.017 C 
HETATM   29  C26 UNL     1       6.184  -1.310   0.613  1.00  0.00     0.079 C 
HETATM   30  C34 UNL     1       5.736  -0.741   1.916  1.00  0.00     0.032 C 
HETATM   31  C35 UNL     1       4.310  -0.352   1.926  1.00  0.00     0.123 C 
BRANCH  29  32
HETATM   32  C27 UNL     1       7.559  -1.838   0.612  1.00  0.00     0.224 C 
HETATM   33  O4  UNL     1       7.712  -3.078   0.339  1.00  0.00    -0.273 OA
HETATM   34  N4  UNL     1       8.717  -1.113   0.880  1.00  0.00    -0.342 N 
HETATM   35  C28 UNL     1      10.099  -1.644   0.919  1.00  0.00     0.087 C 
HETATM   36  C31 UNL     1       8.980   0.262   1.185  1.00  0.00     0.087 C 
HETATM   37  C29 UNL     1      10.435  -1.229   2.335  1.00  0.00     0.027 C 
HETATM   38  C33 UNL     1      10.788  -0.702  -0.005  1.00  0.00     0.027 C 
HETATM   39  C30 UNL     1       9.726   0.101   2.499  1.00  0.00     0.027 C 
HETATM   40  C32 UNL     1      10.034   0.598   0.138  1.00  0.00     0.027 C 
ENDBRANCH  29  32
BRANCH  31  41
HETATM   41  C36 UNL     1       3.494  -1.477   2.447  1.00  0.00     0.180 C 
HETATM   42  O5  UNL     1       4.044  -2.568   2.708  1.00  0.00    -0.648 OA
HETATM   43  O6  UNL     1       2.115  -1.385   2.667  1.00  0.00    -0.648 OA
ENDBRANCH  31  41
ENDBRANCH  23  26
ENDBRANCH  19  20
BRANCH   4  44
HETATM   44  C4  UNL     1      -3.029  -0.579   1.769  1.00  0.00     0.102 C 
HETATM   45  C5  UNL     1      -3.041   0.907   2.018  1.00  0.00     0.034 C 
BRANCH  44  46
HETATM   46  C6  UNL     1      -4.033  -1.205   2.681  1.00  0.00     0.189 C 
BRANCH  46  47
HETATM   47  O1  UNL     1      -3.949  -2.570   2.734  1.00  0.00    -0.399 OA
ATOM     48  H1  UNL     1      -4.587  -2.968   3.314  1.00  0.00     0.209 HD
ENDBRANCH  46  47
ENDBRANCH  44  46
ENDBRANCH   4  44
TORSDOF 8
