REMARK  8 active torsions:
REMARK  status: ('A' for Active; 'I' for Inactive)
REMARK    1  A    between atoms: C2_2  and  C4_4 
REMARK    2  A    between atoms: C4_4  and  N1_5 
REMARK    3  A    between atoms: C4_4  and  C35_43 
REMARK       I    between atoms: N1_5  and  C5_7 
REMARK    4  A    between atoms: C5_7  and  C6_9 
REMARK    5  A    between atoms: C8_14  and  C9_15 
REMARK    6  A    between atoms: C35_43  and  O5_44 
REMARK    7  A    between atoms: C35_43  and  C36_46 
REMARK    8  A    between atoms: C36_46  and  C37_47 
ROOT
HETATM    1  C6  UNL     1      -1.815   0.281   0.002  1.00  0.00     0.192 C 
HETATM    2  N2  UNL     1      -2.267   1.660  -0.270  1.00  0.00    -0.346 N 
ATOM      3  H2  UNL     1      -3.124   1.670  -0.824  1.00  0.00     0.163 HD
HETATM    4  C7  UNL     1      -1.828   2.973   0.033  1.00  0.00     0.223 C 
HETATM    5  O2  UNL     1      -2.661   3.827  -0.363  1.00  0.00    -0.273 OA
HETATM    6  C8  UNL     1      -0.675   3.623   0.677  1.00  0.00     0.082 C 
HETATM    7  C15 UNL     1       0.646   3.296   0.030  1.00  0.00     0.015 C 
HETATM    8  C16 UNL     1       0.503   2.219  -1.055  1.00  0.00     0.007 C 
HETATM    9  C17 UNL     1       0.504   0.850  -0.481  1.00  0.00     0.008 C 
HETATM   10  C18 UNL     1       1.838   0.169  -0.568  1.00  0.00    -0.004 C 
HETATM   11  C19 UNL     1       2.355  -0.205  -1.881  1.00  0.00     0.006 C 
HETATM   12  C20 UNL     1       3.434  -1.292  -1.740  1.00  0.00     0.007 C 
HETATM   13  C21 UNL     1       4.128  -1.169  -0.399  1.00  0.00     0.009 C 
HETATM   14  C22 UNL     1       5.379  -1.955  -0.411  1.00  0.00     0.017 C 
HETATM   15  C23 UNL     1       5.907  -2.230  -1.818  1.00  0.00     0.023 C 
HETATM   16  C24 UNL     1       6.515  -1.187   0.285  1.00  0.00     0.023 C 
HETATM   17  C25 UNL     1       5.307  -3.266   0.271  1.00  0.00     0.135 C 
HETATM   18  O3  UNL     1       5.751  -4.304  -0.209  1.00  0.00    -0.297 OA
HETATM   19  C26 UNL     1       4.647  -3.267   1.610  1.00  0.00     0.080 C 
HETATM   20  C27 UNL     1       3.260  -2.741   1.374  1.00  0.00     0.017 C 
HETATM   21  C28 UNL     1       3.214  -1.386   0.764  1.00  0.00    -0.035 C 
HETATM   22  C29 UNL     1       3.712  -0.443   1.883  1.00  0.00     0.016 C 
HETATM   23  C30 UNL     1       1.824  -0.949   0.472  1.00  0.00     0.005 C 
HETATM   24  C31 UNL     1       0.849  -1.977   0.011  1.00  0.00     0.085 C 
HETATM   25  C32 UNL     1      -0.182  -1.400  -0.928  1.00  0.00     0.138 C 
HETATM   26  O4  UNL     1      -0.636  -2.179  -1.779  1.00  0.00    -0.297 OA
HETATM   27  C33 UNL     1      -0.667  -0.030  -0.908  1.00  0.00     0.050 C 
HETATM   28  C34 UNL     1      -1.140   0.363  -2.305  1.00  0.00     0.026 C 
ENDROOT
BRANCH   1  29
HETATM   29  C5  UNL     1      -3.017  -0.533  -0.082  1.00  0.00     0.242 C 
HETATM   30  N1  UNL     1      -3.020  -1.891   0.271  1.00  0.00    -0.352 N 
ATOM     31  H1  UNL     1      -2.148  -2.311   0.592  1.00  0.00     0.163 HD
HETATM   32  O1  UNL     1      -4.108  -0.062  -0.469  1.00  0.00    -0.271 OA
BRANCH  30  33
HETATM   33  C4  UNL     1      -4.217  -2.737   0.201  1.00  0.00     0.117 C 
BRANCH  33  34
HETATM   34  C2  UNL     1      -4.142  -3.804  -0.837  1.00  0.00     0.003 C 
HETATM   35  C1  UNL     1      -3.055  -4.787  -0.732  1.00  0.00     0.011 C 
HETATM   36  C3  UNL     1      -4.160  -3.190  -2.209  1.00  0.00     0.011 C 
ENDBRANCH  33  34
BRANCH  33  37
HETATM   37  C35 UNL     1      -4.535  -3.189   1.571  1.00  0.00     0.151 C 
BRANCH  37  38
HETATM   38  O5  UNL     1      -3.470  -3.929   2.152  1.00  0.00    -0.393 OA
ATOM     39  H5  UNL     1      -3.674  -4.220   3.033  1.00  0.00     0.210 HD
ENDBRANCH  37  38
BRANCH  37  40
HETATM   40  C36 UNL     1      -5.842  -3.844   1.800  1.00  0.00     0.146 C 
BRANCH  40  41
HETATM   41  C37 UNL     1      -7.024  -3.007   1.514  1.00  0.00     0.175 C 
HETATM   42  O6  UNL     1      -6.937  -1.805   1.183  1.00  0.00    -0.648 OA
HETATM   43  O7  UNL     1      -8.322  -3.522   1.599  1.00  0.00    -0.648 OA
ENDBRANCH  40  41
ENDBRANCH  37  40
ENDBRANCH  33  37
ENDBRANCH  30  33
ENDBRANCH   1  29
BRANCH   6  44
HETATM   44  C9  UNL     1      -0.891   5.120   0.768  1.00  0.00    -0.002 C 
HETATM   45  C10 UNL     1      -1.053   5.803  -0.547  1.00  0.00     0.005 C 
HETATM   46  C11 UNL     1      -0.025   6.930  -0.734  1.00  0.00     0.000 C 
HETATM   47  C12 UNL     1      -0.216   7.949   0.343  1.00  0.00     0.000 C 
HETATM   48  C13 UNL     1      -0.192   7.254   1.681  1.00  0.00     0.000 C 
HETATM   49  C14 UNL     1       0.224   5.786   1.547  1.00  0.00     0.005 C 
ENDBRANCH   6  44
TORSDOF 8
