REMARK  11 active torsions:
REMARK  status: ('A' for Active; 'I' for Inactive)
REMARK    1  A    between atoms: C2_2  and  C3_3 
REMARK    2  A    between atoms: C3_3  and  O1_4 
REMARK    3  A    between atoms: C3_3  and  C4_6 
REMARK    4  A    between atoms: C4_6  and  O2_7 
REMARK    5  A    between atoms: C4_6  and  C5_9 
REMARK    6  A    between atoms: N1_12  and  C7_13 
REMARK    7  A    between atoms: C7_13  and  C8_14 
REMARK    8  A    between atoms: C8_14  and  O4_15 
REMARK    9  A    between atoms: C8_14  and  N2_17 
REMARK   10  A    between atoms: C11_20  and  N3_21 
REMARK   11  A    between atoms: C29_39  and  O5_40 
ROOT
HETATM    1  C5  UNL     1       0.972   2.552  -0.684  1.00  0.00     0.116 C 
HETATM    2  C6  UNL     1       2.422   2.280  -0.879  1.00  0.00     0.227 C 
HETATM    3  O3  UNL     1       3.277   3.082  -1.272  1.00  0.00    -0.273 OA
HETATM    4  N1  UNL     1       2.589   0.915  -0.514  1.00  0.00    -0.338 N 
HETATM    5  C15 UNL     1       1.495   0.258  -1.213  1.00  0.00     0.036 C 
HETATM    6  C16 UNL     1       2.060  -0.085  -2.576  1.00  0.00     0.039 C 
HETATM    7  C17 UNL     1       1.050  -0.969  -0.513  1.00  0.00     0.032 C 
HETATM    8  C18 UNL     1      -0.273  -1.502  -0.907  1.00  0.00     0.012 C 
HETATM    9  C19 UNL     1      -1.311  -0.508  -1.300  1.00  0.00    -0.032 C 
HETATM   10  C20 UNL     1      -1.519  -0.649  -2.795  1.00  0.00     0.016 C 
HETATM   11  C21 UNL     1      -0.947   0.924  -0.976  1.00  0.00     0.002 C 
HETATM   12  C22 UNL     1      -1.893   1.849  -1.727  1.00  0.00     0.006 C 
HETATM   13  C23 UNL     1      -3.285   1.351  -1.818  1.00  0.00     0.006 C 
HETATM   14  C24 UNL     1      -3.627   0.335  -0.764  1.00  0.00     0.003 C 
HETATM   15  C25 UNL     1      -5.078  -0.136  -0.868  1.00  0.00    -0.035 C 
HETATM   16  C26 UNL     1      -5.476  -0.641  -2.201  1.00  0.00     0.016 C 
HETATM   17  C27 UNL     1      -6.046   0.976  -0.494  1.00  0.00     0.012 C 
HETATM   18  C28 UNL     1      -6.483   0.887   0.966  1.00  0.00     0.033 C 
HETATM   19  C29 UNL     1      -7.342  -0.307   1.222  1.00  0.00     0.126 C 
HETATM   20  C30 UNL     1      -6.697  -1.512   0.539  1.00  0.00    -0.017 C 
HETATM   21  C31 UNL     1      -7.602  -2.080  -0.474  1.00  0.00     0.018 C 
HETATM   22  C32 UNL     1      -6.600  -2.581   1.650  1.00  0.00     0.018 C 
HETATM   23  C33 UNL     1      -5.299  -1.206   0.177  1.00  0.00     0.004 C 
HETATM   24  C34 UNL     1      -4.466  -2.397  -0.127  1.00  0.00     0.007 C 
HETATM   25  C35 UNL     1      -3.181  -2.122  -0.834  1.00  0.00     0.011 C 
HETATM   26  C36 UNL     1      -2.638  -0.751  -0.552  1.00  0.00    -0.032 C 
HETATM   27  C37 UNL     1      -2.235  -0.753   0.932  1.00  0.00     0.016 C 
HETATM   28  C38 UNL     1       0.430   1.332  -1.295  1.00  0.00     0.034 C 
ENDROOT
BRANCH   4  29
HETATM   29  C7  UNL     1       3.599   0.319   0.329  1.00  0.00     0.190 C 
BRANCH  29  30
HETATM   30  C8  UNL     1       4.835  -0.166  -0.319  1.00  0.00     0.374 C 
BRANCH  30  31
HETATM   31  O4  UNL     1       4.708  -1.187  -1.233  1.00  0.00    -0.366 OA
ATOM     32  H4  UNL     1       5.503  -1.499  -1.650  1.00  0.00     0.212 HD
ENDBRANCH  30  31
BRANCH  30  33
HETATM   33  N2  UNL     1       5.806  -0.510   0.693  1.00  0.00     0.120 N 
HETATM   34  C9  UNL     1       5.459  -1.569   1.559  1.00  0.00     0.278 C 
HETATM   35  C10 UNL     1       6.310  -2.767   1.183  1.00  0.00     0.068 C 
HETATM   36  C11 UNL     1       7.399  -2.230   0.308  1.00  0.00     0.252 C 
HETATM   37  C14 UNL     1       7.111  -0.777   0.137  1.00  0.00     0.311 C 
BRANCH  36  38
HETATM   38  N3  UNL     1       8.716  -2.530   0.789  1.00  0.00     0.086 N 
HETATM   39  C12 UNL     1       9.043  -1.963   2.063  1.00  0.00     0.310 C 
HETATM   40  C13 UNL     1       9.713  -2.261  -0.203  1.00  0.00     0.310 C 
ENDBRANCH  36  38
ENDBRANCH  30  33
ENDBRANCH  29  30
ENDBRANCH   4  29
BRANCH   1  41
HETATM   41  C4  UNL     1       0.799   2.835   0.752  1.00  0.00     0.160 C 
BRANCH  41  42
HETATM   42  C3  UNL     1       1.618   4.038   1.190  1.00  0.00     0.147 C 
BRANCH  42  43
HETATM   43  C2  UNL     1       1.596   4.178   2.709  1.00  0.00     0.030 C 
HETATM   44  C1  UNL     1       2.424   5.341   3.146  1.00  0.00     0.007 C 
ENDBRANCH  42  43
BRANCH  42  45
HETATM   45  O1  UNL     1       1.097   5.225   0.710  1.00  0.00    -0.393 OA
ATOM     46  H1  UNL     1       1.111   5.138  -0.236  1.00  0.00     0.210 HD
ENDBRANCH  42  45
ENDBRANCH  41  42
BRANCH  41  47
HETATM   47  O2  UNL     1      -0.443   3.026   1.272  1.00  0.00    -0.392 OA
ATOM     48  H2  UNL     1      -0.955   2.274   0.998  1.00  0.00     0.210 HD
ENDBRANCH  41  47
ENDBRANCH   1  41
BRANCH  19  49
HETATM   49  O5  UNL     1      -7.487  -0.463   2.580  1.00  0.00    -0.395 OA
ATOM     50  H5  UNL     1      -8.034  -1.223   2.743  1.00  0.00     0.210 HD
ENDBRANCH  19  49
TORSDOF 11
