REMARK  7 active torsions:
REMARK  status: ('A' for Active; 'I' for Inactive)
REMARK    1  A    between atoms: C2_2  and  C4_4 
REMARK    2  A    between atoms: C20_20  and  O1_21 
REMARK    3  A    between atoms: C29_31  and  N1_33 
REMARK    4  A    between atoms: N1_33  and  S1_35 
REMARK    5  A    between atoms: S1_35  and  N2_38 
REMARK    6  A    between atoms: N2_38  and  S2_40 
REMARK    7  A    between atoms: S2_40  and  N3_43 
REMARK       I    between atoms: N3_43  and  C31_45 
ROOT
HETATM    1  C4  UNL     1       3.751   0.665   0.485  1.00  0.00     0.042 C 
HETATM    2  C5  UNL     1       2.978   1.798   1.222  1.00  0.00     0.012 C 
HETATM    3  C6  UNL     1       1.594   1.999   0.716  1.00  0.00     0.011 C 
HETATM    4  C7  UNL     1       0.701   0.744   0.906  1.00  0.00    -0.030 C 
HETATM    5  C8  UNL     1       0.328   0.873   2.370  1.00  0.00     0.016 C 
HETATM    6  C9  UNL     1       1.457  -0.427   0.482  1.00  0.00     0.023 C 
HETATM    7  C10 UNL     1       1.332  -0.578  -1.043  1.00  0.00     0.008 C 
HETATM    8  C11 UNL     1      -0.094  -1.042  -1.239  1.00  0.00     0.006 C 
HETATM    9  C12 UNL     1      -0.908   0.207  -1.033  1.00  0.00    -0.001 C 
HETATM   10  C13 UNL     1      -2.336  -0.244  -1.052  1.00  0.00    -0.005 C 
HETATM   11  C14 UNL     1      -3.148   0.093  -2.240  1.00  0.00     0.006 C 
HETATM   12  C15 UNL     1      -4.542  -0.503  -1.970  1.00  0.00     0.006 C 
HETATM   13  C16 UNL     1      -5.102   0.118  -0.712  1.00  0.00     0.004 C 
HETATM   14  C17 UNL     1      -6.526  -0.171  -0.468  1.00  0.00    -0.017 C 
HETATM   15  C18 UNL     1      -7.045  -1.332  -1.314  1.00  0.00     0.018 C 
HETATM   16  C19 UNL     1      -7.404   1.029  -0.855  1.00  0.00     0.018 C 
HETATM   17  C20 UNL     1      -6.885  -0.505   0.957  1.00  0.00     0.126 C 
HETATM   18  C21 UNL     1      -6.161   0.274   1.988  1.00  0.00     0.033 C 
HETATM   19  C22 UNL     1      -4.805   0.741   1.611  1.00  0.00     0.012 C 
HETATM   20  C23 UNL     1      -4.196  -0.137   0.505  1.00  0.00    -0.035 C 
HETATM   21  C24 UNL     1      -4.131  -1.561   0.895  1.00  0.00     0.016 C 
HETATM   22  C25 UNL     1      -2.910   0.497   0.127  1.00  0.00    -0.001 C 
HETATM   23  C26 UNL     1      -1.777   0.375   1.100  1.00  0.00     0.016 C 
HETATM   24  C27 UNL     1      -0.625   0.940   0.223  1.00  0.00    -0.032 C 
HETATM   25  C28 UNL     1      -1.017   2.382   0.004  1.00  0.00     0.016 C 
HETATM   26  C29 UNL     1       2.908  -0.529   0.749  1.00  0.00     0.050 C 
HETATM   27  C30 UNL     1       3.016  -0.866   2.264  1.00  0.00     0.040 C 
ENDROOT
BRANCH  26  28
HETATM   28  N1  UNL     1       3.368  -1.773   0.157  1.00  0.00    -0.291 N 
ATOM     29  H1  UNL     1       2.847  -2.191  -0.614  1.00  0.00     0.174 HD
BRANCH  28  30
HETATM   30  S1  UNL     1       4.737  -2.518   0.728  1.00  0.00     0.330 S 
HETATM   31  O2  UNL     1       4.492  -3.902   1.317  1.00  0.00    -0.182 OA
HETATM   32  O3  UNL     1       5.550  -1.689   1.718  1.00  0.00    -0.182 OA
BRANCH  30  33
HETATM   33  N2  UNL     1       5.877  -2.831  -0.531  1.00  0.00    -0.177 N 
ATOM     34  H2  UNL     1       5.623  -3.292  -1.404  1.00  0.00     0.195 HD
BRANCH  33  35
HETATM   35  S2  UNL     1       7.456  -2.307  -0.194  1.00  0.00     0.335 S 
HETATM   36  O4  UNL     1       8.411  -3.205  -0.980  1.00  0.00    -0.181 OA
HETATM   37  O5  UNL     1       7.743  -2.588   1.258  1.00  0.00    -0.181 OA
BRANCH  35  38
HETATM   38  N3  UNL     1       7.819  -0.700  -0.587  1.00  0.00    -0.237 N 
HETATM   39  C31 UNL     1       8.819  -0.338  -1.539  1.00  0.00     0.228 C 
HETATM   40  C32 UNL     1       9.135   1.051  -1.883  1.00  0.00     0.118 C 
HETATM   41  O6  UNL     1       9.451  -1.266  -2.101  1.00  0.00    -0.273 OA
ATOM     42  H3  UNL     1       7.299   0.044  -0.122  1.00  0.00     0.183 HD
ENDBRANCH  35  38
ENDBRANCH  33  35
ENDBRANCH  30  33
ENDBRANCH  28  30
ENDBRANCH  26  28
BRANCH   1  43
HETATM   43  C2  UNL     1       4.054   1.134  -0.831  1.00  0.00    -0.086 C 
HETATM   44  C1  UNL     1       3.910   2.373  -1.235  1.00  0.00     0.014 C 
HETATM   45  C3  UNL     1       4.536   0.312  -1.998  1.00  0.00     0.043 C 
ENDBRANCH   1  43
BRANCH  17  46
HETATM   46  O1  UNL     1      -8.264  -0.222   1.113  1.00  0.00    -0.395 OA
ATOM     47  H1  UNL     1      -8.490  -0.433   2.011  1.00  0.00     0.210 HD
ENDBRANCH  17  46
TORSDOF 7
