REMARK  8 active torsions:
REMARK  status: ('A' for Active; 'I' for Inactive)
REMARK    1  A    between atoms: C2_2  and  C3_3 
REMARK    2  A    between atoms: C3_3  and  C4_4 
REMARK    3  A    between atoms: C4_4  and  C5_5 
REMARK    4  A    between atoms: C5_5  and  O1_6 
REMARK    5  A    between atoms: C23_26  and  N1_27 
REMARK    6  A    between atoms: N1_27  and  S1_29 
REMARK    7  A    between atoms: S1_29  and  C24_32 
REMARK    8  A    between atoms: C36_44  and  O5_45 
ROOT
HETATM    1  C5  UNL     1      -4.774   0.430   0.158  1.00  0.00     0.076 C 
HETATM    2  C6  UNL     1      -3.327   0.404  -0.149  1.00  0.00     0.038 C 
HETATM    3  C7  UNL     1      -2.304   0.815   0.880  1.00  0.00     0.002 C 
HETATM    4  C8  UNL     1      -2.135   2.330   0.831  1.00  0.00     0.007 C 
HETATM    5  C9  UNL     1      -1.690   2.855  -0.544  1.00  0.00     0.012 C 
HETATM    6  C10 UNL     1      -1.824   1.643  -1.433  1.00  0.00    -0.017 A 
HETATM    7  C11 UNL     1      -0.822   0.654  -0.945  1.00  0.00     0.005 C 
HETATM    8  C12 UNL     1       0.511   1.434  -1.026  1.00  0.00     0.007 C 
HETATM    9  C13 UNL     1       1.679   0.514  -1.246  1.00  0.00     0.014 C 
HETATM   10  C14 UNL     1       2.382   0.244   0.106  1.00  0.00     0.004 C 
HETATM   11  C15 UNL     1       2.894   1.537   0.677  1.00  0.00     0.020 C 
HETATM   12  C16 UNL     1       1.381  -0.463   0.893  1.00  0.00     0.136 C 
HETATM   13  O2  UNL     1       2.101  -1.146   1.912  1.00  0.00    -0.384 OA
HETATM   14  C17 UNL     1       2.279  -2.458   1.653  1.00  0.00     0.173 C 
HETATM   15  C18 UNL     1       2.577  -2.852   0.263  1.00  0.00     0.015 C 
HETATM   16  C19 UNL     1       3.100  -4.302   0.418  1.00  0.00     0.013 C 
HETATM   17  C20 UNL     1       3.450  -1.986  -0.543  1.00  0.00    -0.021 C 
HETATM   18  C21 UNL     1       4.834  -2.664  -0.503  1.00  0.00     0.017 C 
HETATM   19  C22 UNL     1       3.093  -2.125  -2.033  1.00  0.00     0.017 C 
HETATM   20  C23 UNL     1       3.669  -0.561  -0.120  1.00  0.00     0.111 C 
HETATM   21  C27 UNL     1       0.116   0.100   1.388  1.00  0.00     0.020 C 
HETATM   22  C28 UNL     1       0.184   1.039   2.527  1.00  0.00     0.013 C 
HETATM   23  C29 UNL     1      -1.016   0.112   0.440  1.00  0.00    -0.030 C 
HETATM   24  C30 UNL     1      -1.419  -1.368   0.232  1.00  0.00     0.016 C 
HETATM   25  C31 UNL     1      -2.616   1.344  -2.530  1.00  0.00     0.030 A 
HETATM   26  C32 UNL     1      -3.486   0.190  -2.901  1.00  0.00    -0.023 C 
HETATM   27  C33 UNL     1      -4.661  -0.037  -2.316  1.00  0.00    -0.015 C 
HETATM   28  C34 UNL     1      -5.285   0.778  -1.238  1.00  0.00     0.032 C 
HETATM   29  C35 UNL     1      -6.725   0.984  -1.341  1.00  0.00     0.025 C 
HETATM   30  C36 UNL     1      -4.468   2.103  -1.328  1.00  0.00     0.143 C 
HETATM   31  C37 UNL     1      -3.209   1.480  -1.190  1.00  0.00     0.010 A 
ENDROOT
BRANCH  20  32
HETATM   32  N1  UNL     1       4.637  -0.403   0.882  1.00  0.00    -0.313 N 
ATOM     33  H1  UNL     1       4.356  -0.760   1.795  1.00  0.00     0.172 HD
BRANCH  32  34
HETATM   34  S1  UNL     1       6.115   0.241   0.851  1.00  0.00     0.230 S 
HETATM   35  O3  UNL     1       6.747   0.013   2.266  1.00  0.00    -0.206 OA
HETATM   36  O4  UNL     1       7.111  -0.601   0.036  1.00  0.00    -0.206 OA
BRANCH  34  37
HETATM   37  C24 UNL     1       6.516   1.892   0.474  1.00  0.00     0.121 C 
HETATM   38  C25 UNL     1       6.292   2.873   1.589  1.00  0.00     0.027 C 
HETATM   39  C26 UNL     1       8.071   1.974   0.238  1.00  0.00     0.027 C 
ENDBRANCH  34  37
ENDBRANCH  32  34
ENDBRANCH  20  32
BRANCH  30  40
HETATM   40  O5  UNL     1      -4.768   2.575  -2.629  1.00  0.00    -0.394 OA
ATOM     41  H5  UNL     1      -4.270   3.382  -2.684  1.00  0.00     0.210 HD
ENDBRANCH  30  40
BRANCH   1  42
HETATM   42  C4  UNL     1      -5.417  -0.737   0.778  1.00  0.00     0.043 C 
BRANCH  42  43
HETATM   43  C3  UNL     1      -5.295  -2.080   0.180  1.00  0.00     0.029 C 
BRANCH  43  44
HETATM   44  C2  UNL     1      -6.042  -3.020   1.073  1.00  0.00    -0.037 C 
HETATM   45  C1  UNL     1      -7.049  -3.706   0.598  1.00  0.00     0.007 C 
ENDBRANCH  43  44
ENDBRANCH  42  43
ENDBRANCH   1  42
BRANCH   1  46
HETATM   46  O1  UNL     1      -5.141   1.520   0.973  1.00  0.00    -0.388 OA
ATOM     47  H1  UNL     1      -4.725   2.274   0.572  1.00  0.00     0.210 HD
ENDBRANCH   1  46
TORSDOF 8
