REMARK  16 active torsions:
REMARK  status: ('A' for Active; 'I' for Inactive)
REMARK    1  A    between atoms: O1_2  and  C2_3 
REMARK    2  A    between atoms: C2_3  and  C3_5 
REMARK    3  A    between atoms: C3_5  and  N1_6 
REMARK    4  A    between atoms: N1_6  and  N2_8 
REMARK    5  A    between atoms: C4_13  and  O3_14 
REMARK    6  A    between atoms: O3_14  and  C5_15 
REMARK    7  A    between atoms: C7_18  and  O5_19 
REMARK    8  A    between atoms: C10_24  and  O7_25 
REMARK    9  A    between atoms: C12_28  and  O8_29 
REMARK   10  A    between atoms: C14_32  and  O9_33 
REMARK   11  A    between atoms: O9_33  and  C15_34 
REMARK   12  A    between atoms: C16_35  and  O10_36 
REMARK   13  A    between atoms: C19_41  and  O12_42 
REMARK   14  A    between atoms: C20_44  and  O13_45 
REMARK   15  A    between atoms: C21_47  and  O14_48 
REMARK   16  A    between atoms: O14_48  and  S1_49 
ROOT
HETATM    1  C3  UNL     1      -0.443  -1.120   0.459  1.00  0.00     0.192 C 
HETATM    2  C4  UNL     1      -1.297  -0.755  -0.736  1.00  0.00     0.196 C 
HETATM    3  C12 UNL     1      -0.531  -0.306  -1.920  1.00  0.00     0.152 C 
HETATM    4  C13 UNL     1       0.739   0.424  -1.704  1.00  0.00     0.069 C 
HETATM    5  C14 UNL     1       1.482   0.044  -0.447  1.00  0.00     0.158 C 
HETATM    6  C21 UNL     1       0.998  -1.295   0.027  1.00  0.00     0.216 C 
ENDROOT
BRANCH   2   7
HETATM    7  O3  UNL     1      -2.318  -0.043  -0.277  1.00  0.00    -0.350 OA
BRANCH   7   8
HETATM    8  C5  UNL     1      -3.592  -0.383  -0.192  1.00  0.00     0.269 C 
HETATM    9  O4  UNL     1      -4.039  -0.698   1.118  1.00  0.00    -0.358 OA
HETATM   10  C6  UNL     1      -5.418  -0.878   1.167  1.00  0.00     0.205 C 
HETATM   11  C7  UNL     1      -6.133   0.457   1.039  1.00  0.00     0.171 C 
HETATM   12  C8  UNL     1      -5.508   1.203  -0.073  1.00  0.00     0.163 C 
HETATM   13  O6  UNL     1      -4.559   2.143   0.318  1.00  0.00    -0.380 OA
HETATM   14  C11 UNL     1      -4.623   0.334  -0.988  1.00  0.00     0.103 C 
HETATM   15  C9  UNL     1      -3.937   2.551  -0.886  1.00  0.00     0.200 C 
HETATM   16  C10 UNL     1      -4.120   1.429  -1.874  1.00  0.00     0.153 C 
BRANCH  11  17
HETATM   17  O5  UNL     1      -7.484   0.306   0.823  1.00  0.00    -0.391 OA
ATOM     18  H5  UNL     1      -7.931   1.140   0.743  1.00  0.00     0.210 HD
ENDBRANCH  11  17
BRANCH  16  19
HETATM   19  O7  UNL     1      -5.220   1.814  -2.682  1.00  0.00    -0.393 OA
ATOM     20  H7  UNL     1      -5.335   1.106  -3.305  1.00  0.00     0.210 HD
ENDBRANCH  16  19
ENDBRANCH   7   8
ENDBRANCH   2   7
BRANCH   1  21
HETATM   21  C2  UNL     1      -0.986  -2.388   1.021  1.00  0.00     0.294 C 
HETATM   22  O2  UNL     1      -1.362  -2.406   2.211  1.00  0.00    -0.262 OA
BRANCH  21  23
HETATM   23  O1  UNL     1      -1.091  -3.550   0.272  1.00  0.00    -0.324 OA
HETATM   24  C1  UNL     1      -1.625  -4.694   0.910  1.00  0.00     0.213 C 
ENDBRANCH  21  23
ENDBRANCH   1  21
BRANCH   1  25
HETATM   25  N1  UNL     1      -0.553  -0.115   1.509  1.00  0.00    -0.297 N 
ATOM     26  H1  UNL     1      -1.116   0.718   1.338  1.00  0.00     0.183 HD
BRANCH  25  27
HETATM   27  N2  UNL     1       0.089  -0.256   2.743  1.00  0.00    -0.252 N 
HETATM   28  N3  UNL     1      -0.487  -0.029   3.848  1.00  0.00    -0.331 N 
ATOM     29  H32 UNL     1      -1.462   0.269   3.819  1.00  0.00     0.178 HD
ATOM     30  H31 UNL     1      -0.019  -0.132   4.748  1.00  0.00     0.178 HD
ATOM     31  H2  UNL     1       1.064  -0.555   2.754  1.00  0.00     0.207 HD
ENDBRANCH  25  27
ENDBRANCH   1  25
BRANCH   3  32
HETATM   32  O8  UNL     1      -0.269  -1.348  -2.846  1.00  0.00    -0.393 OA
ATOM     33  H8  UNL     1       0.223  -1.060  -3.606  1.00  0.00     0.210 HD
ENDBRANCH   3  32
BRANCH   6  34
HETATM   34  O14 UNL     1       1.797  -1.945   0.904  1.00  0.00    -0.246 OA
BRANCH  34  35
HETATM   35  S1  UNL     1       2.491  -3.339   0.603  1.00  0.00     0.252 S 
HETATM   36  O15 UNL     1       1.942  -4.419   1.534  1.00  0.00    -0.572 OA
HETATM   37  O16 UNL     1       2.115  -3.837  -0.787  1.00  0.00    -0.572 OA
HETATM   38  O17 UNL     1       4.146  -3.465   0.708  1.00  0.00    -0.572 OA
ENDBRANCH  34  35
ENDBRANCH   6  34
BRANCH   5  39
HETATM   39  O9  UNL     1       2.836  -0.016  -0.608  1.00  0.00    -0.372 OA
BRANCH  39  40
HETATM   40  C15 UNL     1       3.553   0.931   0.111  1.00  0.00     0.184 C 
HETATM   41  C16 UNL     1       4.506   0.335   1.118  1.00  0.00     0.173 C 
HETATM   42  C17 UNL     1       5.774   1.136   1.286  1.00  0.00     0.201 C 
HETATM   43  O11 UNL     1       6.499   1.278   0.129  1.00  0.00    -0.386 OA
HETATM   44  C18 UNL     1       6.437   2.642  -0.221  1.00  0.00     0.201 C 
HETATM   45  C19 UNL     1       4.960   2.974  -0.304  1.00  0.00     0.173 C 
HETATM   46  C20 UNL     1       4.270   1.780  -0.912  1.00  0.00     0.180 C 
BRANCH  41  47
HETATM   47  O10 UNL     1       3.945   0.216   2.388  1.00  0.00    -0.391 OA
ATOM     48  H10 UNL     1       4.545  -0.159   3.022  1.00  0.00     0.210 HD
ENDBRANCH  41  47
BRANCH  45  49
HETATM   49  O12 UNL     1       4.868   4.056  -1.211  1.00  0.00    -0.391 OA
ATOM     50  H12 UNL     1       3.943   4.264  -1.263  1.00  0.00     0.210 HD
ENDBRANCH  45  49
BRANCH  46  51
HETATM   51  O13 UNL     1       3.325   2.269  -1.805  1.00  0.00    -0.390 OA
ATOM     52  H13 UNL     1       3.776   2.803  -2.448  1.00  0.00     0.210 HD
ENDBRANCH  46  51
ENDBRANCH  39  40
ENDBRANCH   5  39
TORSDOF 16
