REMARK  16 active torsions:
REMARK  status: ('A' for Active; 'I' for Inactive)
REMARK    1  A    between atoms: C2_3  and  C3_4 
REMARK    2  A    between atoms: C3_4  and  C4_5 
REMARK    3  A    between atoms: C3_4  and  N2_7 
REMARK    4  A    between atoms: N2_7  and  S1_9 
REMARK    5  A    between atoms: S1_9  and  O4_12 
REMARK    6  A    between atoms: O4_12  and  C5_13 
REMARK    7  A    between atoms: C6_14  and  O5_15 
REMARK    8  A    between atoms: C7_17  and  N3_18 
REMARK    9  A    between atoms: C9_23  and  O6_24 
REMARK   10  A    between atoms: O6_24  and  C10_25 
REMARK   11  A    between atoms: C12_28  and  O8_29 
REMARK   12  A    between atoms: C13_31  and  O9_32 
REMARK   13  A    between atoms: C14_34  and  N4_35 
REMARK   14  A    between atoms: C15_39  and  O10_40 
REMARK   15  A    between atoms: C16_42  and  O11_43 
REMARK   16  A    between atoms: O11_43  and  S2_44 
ROOT
HETATM    1  C5  UNL     1       0.490   0.595  -0.481  1.00  0.00     0.206 C 
HETATM    2  C6  UNL     1       0.513  -0.502   0.562  1.00  0.00     0.181 C 
HETATM    3  C7  UNL     1       1.632  -1.474   0.345  1.00  0.00     0.217 C 
HETATM    4  C8  UNL     1       2.113  -1.254  -1.095  1.00  0.00     0.070 C 
HETATM    5  C9  UNL     1       2.862   0.066  -1.077  1.00  0.00     0.158 C 
HETATM    6  C15 UNL     1       1.839   1.145  -0.802  1.00  0.00     0.180 C 
ENDROOT
BRANCH   1   7
HETATM    7  O4  UNL     1      -0.269   1.637   0.071  1.00  0.00    -0.249 OA
BRANCH   7   8
HETATM    8  S1  UNL     1      -1.676   1.923  -0.830  1.00  0.00     0.359 S 
HETATM    9  O2  UNL     1      -1.402   3.145  -1.663  1.00  0.00    -0.176 OA
HETATM   10  O3  UNL     1      -1.973   0.756  -1.722  1.00  0.00    -0.176 OA
BRANCH   8  11
HETATM   11  N2  UNL     1      -2.970   2.150   0.250  1.00  0.00    -0.284 N 
ATOM     12  H2  UNL     1      -3.217   3.056   0.648  1.00  0.00     0.175 HD
BRANCH  11  13
HETATM   13  C3  UNL     1      -3.692   0.916   0.549  1.00  0.00     0.177 C 
BRANCH  13  14
HETATM   14  C2  UNL     1      -5.136   1.188   0.380  1.00  0.00     0.135 C 
HETATM   15  N1  UNL     1      -5.578   1.508  -0.950  1.00  0.00    -0.205 NA
HETATM   16  C1  UNL     1      -5.569   0.428  -1.883  1.00  0.00     0.130 C 
HETATM   17  S3  UNL     1      -7.251   1.886  -0.569  1.00  0.00     0.214 S 
HETATM   18  C17 UNL     1      -7.431   0.881   0.912  1.00  0.00     0.192 C 
HETATM   19  O15 UNL     1      -8.162   1.437  -1.642  1.00  0.00    -0.211 OA
HETATM   20  O16 UNL     1      -7.335   3.332  -0.248  1.00  0.00    -0.211 OA
HETATM   21  C16 UNL     1      -6.075   0.169   0.938  1.00  0.00     0.181 C 
BRANCH  21  22
HETATM   22  O11 UNL     1      -6.154  -1.009   0.239  1.00  0.00    -0.249 OA
BRANCH  22  23
HETATM   23  S2  UNL     1      -5.888  -2.374   1.145  1.00  0.00     0.252 S 
HETATM   24  O12 UNL     1      -6.120  -2.107   2.617  1.00  0.00    -0.572 OA
HETATM   25  O13 UNL     1      -4.446  -2.770   1.005  1.00  0.00    -0.572 OA
HETATM   26  O14 UNL     1      -6.920  -3.620   0.711  1.00  0.00    -0.572 OA
ENDBRANCH  22  23
ENDBRANCH  21  22
ENDBRANCH  13  14
BRANCH  13  27
HETATM   27  C4  UNL     1      -3.454   0.609   1.985  1.00  0.00     0.258 C 
HETATM   28  O1  UNL     1      -2.770   1.352   2.647  1.00  0.00    -0.305 OA
ENDBRANCH  13  27
ENDBRANCH  11  13
ENDBRANCH   8  11
ENDBRANCH   7   8
ENDBRANCH   1   7
BRANCH   2  29
HETATM   29  O5  UNL     1      -0.687  -1.209   0.418  1.00  0.00    -0.391 OA
ATOM     30  H5  UNL     1      -0.673  -1.897   1.073  1.00  0.00     0.210 HD
ENDBRANCH   2  29
BRANCH   6  31
HETATM   31  O10 UNL     1       2.296   2.076   0.127  1.00  0.00    -0.390 OA
ATOM     32  H10 UNL     1       3.155   2.426  -0.077  1.00  0.00     0.210 HD
ENDBRANCH   6  31
BRANCH   3  33
HETATM   33  N3  UNL     1       1.247  -2.843   0.482  1.00  0.00    -0.072 N 
ATOM     34  H33 UNL     1       0.805  -3.002   1.387  1.00  0.00     0.274 HD
ATOM     35  H32 UNL     1       0.462  -3.058  -0.133  1.00  0.00     0.274 HD
ATOM     36  H31 UNL     1       2.009  -3.505   0.334  1.00  0.00     0.274 HD
ENDBRANCH   3  33
BRANCH   5  37
HETATM   37  O6  UNL     1       3.755   0.013  -0.036  1.00  0.00    -0.351 OA
BRANCH  37  38
HETATM   38  C10 UNL     1       5.075   0.078  -0.363  1.00  0.00     0.293 C 
HETATM   39  O7  UNL     1       5.607   1.195   0.230  1.00  0.00    -0.356 OA
HETATM   40  C11 UNL     1       6.936   1.393   0.061  1.00  0.00     0.205 C 
HETATM   41  C12 UNL     1       7.629   0.449  -0.852  1.00  0.00     0.173 C 
HETATM   42  C13 UNL     1       7.244  -0.991  -0.635  1.00  0.00     0.184 C 
HETATM   43  C14 UNL     1       5.891  -1.115   0.046  1.00  0.00     0.269 C 
BRANCH  41  44
HETATM   44  O8  UNL     1       7.477   0.840  -2.188  1.00  0.00    -0.391 OA
ATOM     45  H8  UNL     1       7.920   0.236  -2.772  1.00  0.00     0.210 HD
ENDBRANCH  41  44
BRANCH  42  46
HETATM   46  O9  UNL     1       8.216  -1.681   0.082  1.00  0.00    -0.391 OA
ATOM     47  H9  UNL     1       7.973  -2.589   0.219  1.00  0.00     0.210 HD
ENDBRANCH  42  46
BRANCH  43  48
HETATM   48  N4  UNL     1       6.131  -1.024   1.473  1.00  0.00    -0.068 N 
ATOM     49  H43 UNL     1       6.560  -0.140   1.746  1.00  0.00     0.275 HD
ATOM     50  H42 UNL     1       5.271  -0.930   2.013  1.00  0.00     0.275 HD
ATOM     51  H41 UNL     1       6.685  -1.834   1.751  1.00  0.00     0.275 HD
ENDBRANCH  43  48
ENDBRANCH  37  38
ENDBRANCH   5  37
TORSDOF 16
