REMARK  15 active torsions:
REMARK  status: ('A' for Active; 'I' for Inactive)
REMARK    1  A    between atoms: C2_2  and  S1_3 
REMARK    2  A    between atoms: S1_3  and  N1_6 
REMARK    3  A    between atoms: N1_6  and  C3_8 
REMARK    4  A    between atoms: C4_9  and  O3_10 
REMARK    5  A    between atoms: C5_12  and  O4_13 
REMARK    6  A    between atoms: C6_15  and  O5_16 
REMARK    7  A    between atoms: C7_18  and  C8_19 
REMARK    8  A    between atoms: C8_19  and  O6_20 
REMARK    9  A    between atoms: C8_19  and  C9_22 
REMARK   10  A    between atoms: N2_26  and  O8_27 
REMARK   11  A    between atoms: C13_31  and  O10_32 
REMARK   12  A    between atoms: O10_32  and  S2_33 
REMARK   13  A    between atoms: C14_37  and  O14_38 
REMARK   14  A    between atoms: O14_38  and  S3_39 
REMARK   15  A    between atoms: C15_44  and  O19_45 
ROOT
HETATM    1  C8  UNL     1       0.109   0.104  -1.410  1.00  0.00     0.182 C 
ENDROOT
BRANCH   1   2
HETATM    2  C7  UNL     1       1.145   0.872  -0.653  1.00  0.00     0.081 C 
HETATM    3  C6  UNL     1       1.261   0.417   0.769  1.00  0.00     0.158 C 
HETATM    4  C5  UNL     1       1.970  -0.914   0.902  1.00  0.00     0.178 C 
HETATM    5  C4  UNL     1       3.169  -1.052   0.035  1.00  0.00     0.175 C 
HETATM    6  C3  UNL     1       3.612   0.279  -0.498  1.00  0.00     0.153 C 
HETATM    7  C15 UNL     1       2.482   0.946  -1.311  1.00  0.00     0.153 C 
BRANCH   3   8
HETATM    8  O5  UNL     1       1.918   1.401   1.562  1.00  0.00    -0.392 OA
ATOM      9  H5  UNL     1       1.473   2.236   1.479  1.00  0.00     0.210 HD
ENDBRANCH   3   8
BRANCH   4  10
HETATM   10  O4  UNL     1       2.278  -1.048   2.276  1.00  0.00    -0.390 OA
ATOM     11  H4  UNL     1       1.512  -0.960   2.830  1.00  0.00     0.210 HD
ENDBRANCH   4  10
BRANCH   5  12
HETATM   12  O3  UNL     1       3.062  -2.023  -0.960  1.00  0.00    -0.391 OA
ATOM     13  H3  UNL     1       2.782  -2.866  -0.623  1.00  0.00     0.210 HD
ENDBRANCH   5  12
BRANCH   6  14
HETATM   14  N1  UNL     1       4.748   0.084  -1.342  1.00  0.00    -0.310 N 
ATOM     15  H1  UNL     1       4.715  -0.523  -2.161  1.00  0.00     0.172 HD
BRANCH  14  16
HETATM   16  S1  UNL     1       6.155   0.921  -0.901  1.00  0.00     0.226 S 
HETATM   17  O1  UNL     1       5.909   2.436  -0.918  1.00  0.00    -0.206 OA
HETATM   18  O2  UNL     1       7.256   0.723  -1.951  1.00  0.00    -0.206 OA
BRANCH  16  19
HETATM   19  C2  UNL     1       6.867   0.552   0.639  1.00  0.00     0.158 C 
HETATM   20  C1  UNL     1       6.060   0.824   1.861  1.00  0.00     0.023 C 
ENDBRANCH  16  19
ENDBRANCH  14  16
ENDBRANCH   6  14
BRANCH   7  21
HETATM   21  O19 UNL     1       2.538   0.389  -2.570  1.00  0.00    -0.393 OA
ATOM     22  H19 UNL     1       1.843   0.799  -3.070  1.00  0.00     0.210 HD
ENDBRANCH   7  21
ENDBRANCH   1   2
BRANCH   1  23
HETATM   23  O6  UNL     1       0.049   0.582  -2.764  1.00  0.00    -0.390 OA
ATOM     24  H6  UNL     1      -0.609   0.094  -3.245  1.00  0.00     0.210 HD
ENDBRANCH   1  23
BRANCH   1  25
HETATM   25  C9  UNL     1      -1.296   0.161  -0.828  1.00  0.00     0.295 C 
HETATM   26  O7  UNL     1      -1.709   1.423  -0.797  1.00  0.00    -0.324 OA
HETATM   27  C10 UNL     1      -2.807   1.838  -0.145  1.00  0.00     0.308 C 
HETATM   28  C11 UNL     1      -2.828   1.400   1.302  1.00  0.00     0.153 C 
HETATM   29  O18 UNL     1      -3.907   1.271  -0.778  1.00  0.00    -0.322 OA
HETATM   30  N2  UNL     1      -2.720   0.182   1.701  1.00  0.00    -0.238 N 
HETATM   31  C12 UNL     1      -2.563  -0.966   0.822  1.00  0.00     0.287 C 
HETATM   32  O9  UNL     1      -1.430  -0.749   0.121  1.00  0.00    -0.329 OA
HETATM   33  C13 UNL     1      -3.823  -1.029   0.007  1.00  0.00     0.252 C 
HETATM   34  C14 UNL     1      -4.565   0.302  -0.071  1.00  0.00     0.319 C 
BRANCH  30  35
HETATM   35  O8  UNL     1      -2.758  -0.045   3.029  1.00  0.00    -0.286 OA
ATOM     36  H8  UNL     1      -2.678  -0.945   3.324  1.00  0.00     0.244 HD
ENDBRANCH  30  35
BRANCH  33  37
HETATM   37  O10 UNL     1      -4.681  -2.036   0.422  1.00  0.00    -0.242 OA
BRANCH  37  38
HETATM   38  S2  UNL     1      -4.957  -3.205  -0.721  1.00  0.00     0.252 S 
HETATM   39  O11 UNL     1      -5.959  -2.677  -1.708  1.00  0.00    -0.572 OA
HETATM   40  O12 UNL     1      -3.696  -3.514  -1.519  1.00  0.00    -0.572 OA
HETATM   41  O13 UNL     1      -5.511  -4.635  -0.113  1.00  0.00    -0.572 OA
ENDBRANCH  37  38
ENDBRANCH  33  37
BRANCH  34  42
HETATM   42  O14 UNL     1      -5.757   0.050  -0.780  1.00  0.00    -0.221 OA
BRANCH  42  43
HETATM   43  S3  UNL     1      -7.037   0.456   0.215  1.00  0.00     0.254 S 
HETATM   44  O15 UNL     1      -8.261  -0.336  -0.141  1.00  0.00    -0.572 OA
HETATM   45  O16 UNL     1      -6.731   0.154   1.658  1.00  0.00    -0.572 OA
HETATM   46  O17 UNL     1      -7.442   2.077   0.074  1.00  0.00    -0.572 OA
ENDBRANCH  42  43
ENDBRANCH  34  42
ENDBRANCH   1  25
TORSDOF 15
