REMARK  13 active torsions:
REMARK  status: ('A' for Active; 'I' for Inactive)
REMARK    1  A    between atoms: N1_1  and  S1_4 
REMARK    2  A    between atoms: C2_10  and  O3_11 
REMARK    3  A    between atoms: C3_13  and  O4_14 
REMARK    4  A    between atoms: O4_14  and  C4_15 
REMARK    5  A    between atoms: C5_16  and  N3_17 
REMARK    6  A    between atoms: C6_21  and  O5_22 
REMARK    7  A    between atoms: O5_22  and  S2_23 
REMARK    8  A    between atoms: C7_27  and  O9_28 
REMARK    9  A    between atoms: O9_28  and  S3_29 
REMARK   10  A    between atoms: C8_32  and  O12_33 
REMARK   11  A    between atoms: O12_33  and  S4_34 
REMARK   12  A    between atoms: C9_38  and  O16_39 
REMARK   13  A    between atoms: O16_39  and  S5_40 
ROOT
HETATM    1  C4  UNL     1       0.427   0.322   0.299  1.00  0.00     0.190 C 
HETATM    2  C5  UNL     1      -0.354   1.610   0.232  1.00  0.00     0.247 C 
HETATM    3  C6  UNL     1      -1.829   1.491   0.288  1.00  0.00     0.211 C 
HETATM    4  C7  UNL     1      -2.403   0.274  -0.386  1.00  0.00     0.209 C 
HETATM    5  C8  UNL     1      -1.712  -0.921   0.240  1.00  0.00     0.211 C 
HETATM    6  C9  UNL     1      -0.300  -0.846  -0.339  1.00  0.00     0.209 C 
ENDROOT
BRANCH   1   7
HETATM    7  O4  UNL     1       1.576   0.498  -0.322  1.00  0.00    -0.353 OA
BRANCH   7   8
HETATM    8  C3  UNL     1       2.788   0.386   0.196  1.00  0.00     0.269 C 
HETATM    9  C2  UNL     1       3.785   1.466   0.056  1.00  0.00     0.260 C 
HETATM   10  C1  UNL     1       4.825   1.283   1.129  1.00  0.00     0.264 C 
HETATM   11  N2  UNL     1       5.351  -0.027   1.315  1.00  0.00    -0.253 N 
HETATM   12  O2  UNL     1       5.233   2.216   1.845  1.00  0.00    -0.269 OA
HETATM   13  S1  UNL     1       4.889  -1.214   0.167  1.00  0.00     0.197 S 
ATOM     14  H2  UNL     1       5.972  -0.249   2.093  1.00  0.00     0.181 HD
HETATM   15  O1  UNL     1       5.946  -1.197  -0.928  1.00  0.00    -0.206 OA
HETATM   16  N4  UNL     1       3.354  -0.796  -0.454  1.00  0.00    -0.289 N 
ATOM     17  H4  UNL     1       2.884  -1.314  -1.196  1.00  0.00     0.175 HD
BRANCH   9  18
HETATM   18  O3  UNL     1       3.351   2.746   0.146  1.00  0.00    -0.382 OA
ATOM     19  H3  UNL     1       2.695   2.861  -0.531  1.00  0.00     0.210 HD
ENDBRANCH   9  18
BRANCH  13  20
HETATM   20  N1  UNL     1       4.855  -2.638   0.735  1.00  0.00    -0.328 N 
ATOM     21  H12 UNL     1       5.437  -3.416   0.427  1.00  0.00     0.168 HD
ATOM     22  H11 UNL     1       4.147  -2.649   1.469  1.00  0.00     0.168 HD
ENDBRANCH  13  20
ENDBRANCH   7   8
ENDBRANCH   1   7
BRANCH   2  23
HETATM   23  N3  UNL     1      -0.004   2.372  -0.965  1.00  0.00    -0.070 N 
ATOM     24  H33 UNL     1       1.001   2.537  -1.026  1.00  0.00     0.274 HD
ATOM     25  H32 UNL     1      -0.121   1.816  -1.812  1.00  0.00     0.274 HD
ATOM     26  H31 UNL     1      -0.532   3.243  -1.010  1.00  0.00     0.274 HD
ENDBRANCH   2  23
BRANCH   6  27
HETATM   27  O16 UNL     1      -0.319  -0.801  -1.715  1.00  0.00    -0.246 OA
BRANCH  27  28
HETATM   28  S5  UNL     1       0.352  -2.169  -2.421  1.00  0.00     0.252 S 
HETATM   29  O17 UNL     1       1.513  -1.829  -3.311  1.00  0.00    -0.572 OA
HETATM   30  O18 UNL     1       0.836  -3.153  -1.392  1.00  0.00    -0.572 OA
HETATM   31  O19 UNL     1      -0.879  -2.926  -3.291  1.00  0.00    -0.572 OA
ENDBRANCH  27  28
ENDBRANCH   6  27
BRANCH   3  32
HETATM   32  O5  UNL     1      -2.274   1.478   1.607  1.00  0.00    -0.247 OA
BRANCH  32  33
HETATM   33  S2  UNL     1      -3.302   2.746   1.899  1.00  0.00     0.252 S 
HETATM   34  O6  UNL     1      -2.536   3.872   2.573  1.00  0.00    -0.572 OA
HETATM   35  O7  UNL     1      -3.926   3.302   0.669  1.00  0.00    -0.572 OA
HETATM   36  O8  UNL     1      -4.537   2.202   2.899  1.00  0.00    -0.572 OA
ENDBRANCH  32  33
ENDBRANCH   3  32
BRANCH   5  37
HETATM   37  O12 UNL     1      -2.332  -2.110  -0.037  1.00  0.00    -0.246 OA
BRANCH  37  38
HETATM   38  S4  UNL     1      -2.746  -2.835   1.426  1.00  0.00     0.252 S 
HETATM   39  O13 UNL     1      -1.652  -2.585   2.423  1.00  0.00    -0.572 OA
HETATM   40  O14 UNL     1      -4.009  -2.251   1.995  1.00  0.00    -0.572 OA
HETATM   41  O15 UNL     1      -2.906  -4.493   1.235  1.00  0.00    -0.572 OA
ENDBRANCH  37  38
ENDBRANCH   5  37
BRANCH   4  42
HETATM   42  O9  UNL     1      -3.767   0.266  -0.208  1.00  0.00    -0.252 OA
BRANCH  42  43
HETATM   43  S3  UNL     1      -4.650   0.273  -1.642  1.00  0.00     0.401 S 
HETATM   44  O10 UNL     1      -5.988   0.951  -1.386  1.00  0.00    -0.179 OA
HETATM   45  O11 UNL     1      -3.812   0.959  -2.940  1.00  0.00    -0.179 OA
ENDBRANCH  42  43
ENDBRANCH   4  42
TORSDOF 13
