REMARK  14 active torsions:
REMARK  status: ('A' for Active; 'I' for Inactive)
REMARK    1  A    between atoms: C2_2  and  S1_3 
REMARK    2  A    between atoms: S1_3  and  C3_6 
REMARK    3  A    between atoms: C4_7  and  O3_8 
REMARK    4  A    between atoms: C5_10  and  O4_11 
REMARK    5  A    between atoms: C6_13  and  O5_14 
REMARK    6  A    between atoms: C7_16  and  C8_17 
REMARK    7  A    between atoms: C7_16  and  O8_24 
REMARK    8  A    between atoms: C8_17  and  S2_18 
REMARK    9  A    between atoms: S2_18  and  N1_19 
REMARK   10  A    between atoms: O8_24  and  C9_25 
REMARK   11  A    between atoms: C14_33  and  O11_34 
REMARK   12  A    between atoms: O11_34  and  S4_35 
REMARK   13  A    between atoms: C16_40  and  O15_41 
REMARK   14  A    between atoms: C17_43  and  O16_44 
ROOT
HETATM    1  C3  UNL     1      -3.120   0.342   0.406  1.00  0.00     0.171 C 
HETATM    2  C4  UNL     1      -3.871  -0.940   0.722  1.00  0.00     0.170 C 
HETATM    3  C5  UNL     1      -2.785  -1.981   0.873  1.00  0.00     0.180 C 
HETATM    4  C6  UNL     1      -1.994  -2.119  -0.357  1.00  0.00     0.187 C 
HETATM    5  C7  UNL     1      -1.362  -0.870  -0.946  1.00  0.00     0.131 C 
HETATM    6  C17 UNL     1      -2.459   0.207  -0.929  1.00  0.00     0.177 C 
ENDROOT
BRANCH   5   7
HETATM    7  C8  UNL     1      -1.204  -1.211  -2.404  1.00  0.00     0.206 C 
BRANCH   7   8
HETATM    8  S2  UNL     1      -0.575  -0.036  -3.502  1.00  0.00     0.227 S 
HETATM    9  O6  UNL     1       0.825   0.392  -3.353  1.00  0.00    -0.206 OA
HETATM   10  O7  UNL     1      -1.508   1.146  -3.715  1.00  0.00    -0.206 OA
BRANCH   8  11
HETATM   11  N1  UNL     1      -0.608  -0.834  -5.091  1.00  0.00    -0.328 N 
ATOM     12  H12 UNL     1      -0.931  -1.780  -5.294  1.00  0.00     0.168 HD
ATOM     13  H11 UNL     1      -0.236  -0.140  -5.740  1.00  0.00     0.168 HD
ENDBRANCH   8  11
ENDBRANCH   7   8
ENDBRANCH   5   7
BRANCH   5  14
HETATM   14  O8  UNL     1      -0.325  -0.395  -0.259  1.00  0.00    -0.366 OA
BRANCH  14  15
HETATM   15  C9  UNL     1       0.837  -1.014  -0.014  1.00  0.00     0.152 C 
HETATM   16  C10 UNL     1       0.797  -1.513   1.465  1.00  0.00     0.035 C 
HETATM   17  C11 UNL     1       2.233  -2.011   1.733  1.00  0.00     0.009 C 
HETATM   18  C12 UNL     1       2.928  -0.710   2.148  1.00  0.00     0.010 C 
HETATM   19  C13 UNL     1       4.369  -0.913   2.551  1.00  0.00     0.148 C 
HETATM   20  C15 UNL     1       2.789   0.237   1.054  1.00  0.00     0.067 C 
HETATM   21  S3  UNL     1       5.334  -0.662   0.955  1.00  0.00     0.173 S 
HETATM   22  O9  UNL     1       5.012  -2.324   0.398  1.00  0.00    -0.225 OA
HETATM   23  O10 UNL     1       6.876  -0.386   2.002  1.00  0.00    -0.225 OA
HETATM   24  C14 UNL     1       4.167   0.761   0.606  1.00  0.00     0.273 C 
HETATM   25  C16 UNL     1       2.106  -0.250  -0.181  1.00  0.00     0.155 C 
BRANCH  24  26
HETATM   26  O11 UNL     1       4.517   1.845   1.441  1.00  0.00    -0.235 OA
BRANCH  26  27
HETATM   27  S4  UNL     1       4.547   3.285   0.633  1.00  0.00     0.252 S 
HETATM   28  O12 UNL     1       4.000   4.353   1.564  1.00  0.00    -0.572 OA
HETATM   29  O13 UNL     1       3.600   3.274  -0.557  1.00  0.00    -0.572 OA
HETATM   30  O14 UNL     1       6.078   3.775   0.182  1.00  0.00    -0.572 OA
ENDBRANCH  26  27
ENDBRANCH  24  26
BRANCH  25  31
HETATM   31  O15 UNL     1       2.995  -0.889  -1.074  1.00  0.00    -0.392 OA
ATOM     32  H15 UNL     1       3.804  -0.402  -1.180  1.00  0.00     0.210 HD
ENDBRANCH  25  31
ENDBRANCH  14  15
ENDBRANCH   5  14
BRANCH   4  33
HETATM   33  O5  UNL     1      -2.934  -2.561  -1.329  1.00  0.00    -0.390 OA
ATOM     34  H5  UNL     1      -2.422  -2.650  -2.125  1.00  0.00     0.210 HD
ENDBRANCH   4  33
BRANCH   6  35
HETATM   35  O16 UNL     1      -3.375  -0.081  -1.918  1.00  0.00    -0.391 OA
ATOM     36  H16 UNL     1      -2.955  -0.167  -2.766  1.00  0.00     0.210 HD
ENDBRANCH   6  35
BRANCH   3  37
HETATM   37  O4  UNL     1      -3.357  -3.253   1.129  1.00  0.00    -0.390 OA
ATOM     38  H4  UNL     1      -2.675  -3.907   1.224  1.00  0.00     0.210 HD
ENDBRANCH   3  37
BRANCH   1  39
HETATM   39  S1  UNL     1      -4.100   1.778   0.514  1.00  0.00     0.153 S 
HETATM   40  O1  UNL     1      -4.671   1.910   1.921  1.00  0.00    -0.227 OA
HETATM   41  O2  UNL     1      -5.248   1.832  -0.416  1.00  0.00    -0.227 OA
BRANCH  39  42
HETATM   42  C2  UNL     1      -3.079   3.208   0.194  1.00  0.00     0.136 C 
HETATM   43  C1  UNL     1      -3.957   4.443   0.295  1.00  0.00     0.021 C 
ENDBRANCH  39  42
ENDBRANCH   1  39
BRANCH   2  44
HETATM   44  O3  UNL     1      -4.559  -0.734   1.920  1.00  0.00    -0.391 OA
ATOM     45  H3  UNL     1      -5.029  -1.536   2.118  1.00  0.00     0.210 HD
ENDBRANCH   2  44
TORSDOF 14
