REMARK  14 active torsions:
REMARK  status: ('A' for Active; 'I' for Inactive)
REMARK    1  A    between atoms: C3_4  and  O2_5 
REMARK    2  A    between atoms: O2_5  and  C4_6 
REMARK    3  A    between atoms: C5_7  and  O3_8 
REMARK    4  A    between atoms: C6_10  and  O4_11 
REMARK    5  A    between atoms: C7_13  and  O5_14 
REMARK    6  A    between atoms: C8_16  and  O6_17 
REMARK    7  A    between atoms: C9_19  and  C10_20 
REMARK    8  A    between atoms: C10_20  and  O7_21 
REMARK    9  A    between atoms: C12_25  and  O9_26 
REMARK   10  A    between atoms: O9_26  and  C13_27 
REMARK   11  A    between atoms: C15_34  and  O12_35 
REMARK   12  A    between atoms: O12_35  and  S2_36 
REMARK   13  A    between atoms: C16_40  and  O16_41 
REMARK   14  A    between atoms: O16_41  and  S3_42 
ROOT
HETATM    1  O1  UNL     1       0.562   0.117   3.379  1.00  0.00    -0.295 OA
HETATM    2  C1  UNL     1       0.107  -0.028   2.282  1.00  0.00     0.162 C 
HETATM    3  C2  UNL     1      -1.323  -0.330   2.081  1.00  0.00     0.142 C 
HETATM    4  C3  UNL     1      -1.683   0.315   0.735  1.00  0.00     0.267 C 
HETATM    5  O8  UNL     1      -0.954   1.471   0.628  1.00  0.00    -0.358 OA
HETATM    6  C11 UNL     1       0.336   1.144   0.208  1.00  0.00     0.211 C 
HETATM    7  C12 UNL     1       0.965   0.092   1.080  1.00  0.00     0.217 C 
ENDROOT
BRANCH   7   8
HETATM    8  O9  UNL     1       2.229   0.498   1.458  1.00  0.00    -0.348 OA
BRANCH   8   9
HETATM    9  C13 UNL     1       3.219  -0.433   1.174  1.00  0.00     0.264 C 
HETATM   10  N1  UNL     1       3.734  -0.910   2.450  1.00  0.00    -0.289 N 
HETATM   11  S1  UNL     1       5.025  -2.031   2.254  1.00  0.00     0.231 S 
ATOM     12  H1  UNL     1       3.371  -0.614   3.356  1.00  0.00     0.174 HD
HETATM   13  O10 UNL     1       6.275  -1.569   2.939  1.00  0.00    -0.206 OA
HETATM   14  O11 UNL     1       4.596  -3.391   2.674  1.00  0.00    -0.206 OA
HETATM   15  C14 UNL     1       5.295  -2.101   0.479  1.00  0.00     0.199 C 
HETATM   16  C15 UNL     1       5.440  -0.668   0.020  1.00  0.00     0.195 C 
HETATM   17  C16 UNL     1       4.239   0.172   0.304  1.00  0.00     0.225 C 
BRANCH  16  18
HETATM   18  O12 UNL     1       5.838  -0.716  -1.305  1.00  0.00    -0.248 OA
BRANCH  18  19
HETATM   19  S2  UNL     1       7.482  -0.311  -1.431  1.00  0.00     0.252 S 
HETATM   20  O13 UNL     1       8.335  -1.547  -1.202  1.00  0.00    -0.572 OA
HETATM   21  O14 UNL     1       7.877   0.683  -0.382  1.00  0.00    -0.572 OA
HETATM   22  O15 UNL     1       7.818   0.374  -2.927  1.00  0.00    -0.572 OA
ENDBRANCH  18  19
ENDBRANCH  16  18
BRANCH  17  23
HETATM   23  O16 UNL     1       3.665   0.514  -0.916  1.00  0.00    -0.244 OA
BRANCH  23  24
HETATM   24  S3  UNL     1       3.790   2.143  -1.281  1.00  0.00     0.252 S 
HETATM   25  O17 UNL     1       5.057   2.364  -2.053  1.00  0.00    -0.572 OA
HETATM   26  O18 UNL     1       2.661   2.476  -2.248  1.00  0.00    -0.572 OA
HETATM   27  O19 UNL     1       3.750   3.114   0.071  1.00  0.00    -0.572 OA
ENDBRANCH  23  24
ENDBRANCH  17  23
ENDBRANCH   8   9
ENDBRANCH   7   8
BRANCH   4  28
HETATM   28  O2  UNL     1      -3.047   0.490   0.609  1.00  0.00    -0.352 OA
BRANCH  28  29
HETATM   29  C4  UNL     1      -3.620  -0.275  -0.400  1.00  0.00     0.164 C 
HETATM   30  C5  UNL     1      -4.705  -1.104   0.210  1.00  0.00     0.179 C 
HETATM   31  C6  UNL     1      -5.658  -0.128   0.914  1.00  0.00     0.180 C 
HETATM   32  C7  UNL     1      -6.329   0.658  -0.192  1.00  0.00     0.178 C 
HETATM   33  C8  UNL     1      -5.380   1.409  -1.044  1.00  0.00     0.158 C 
HETATM   34  C9  UNL     1      -4.143   0.689  -1.438  1.00  0.00     0.072 C 
BRANCH  30  35
HETATM   35  O3  UNL     1      -4.201  -1.931   1.186  1.00  0.00    -0.390 OA
ATOM     36  H3  UNL     1      -4.890  -2.458   1.573  1.00  0.00     0.210 HD
ENDBRANCH  30  35
BRANCH  31  37
HETATM   37  O4  UNL     1      -6.632  -0.776   1.633  1.00  0.00    -0.390 OA
ATOM     38  H4  UNL     1      -7.222  -0.172   2.069  1.00  0.00     0.210 HD
ENDBRANCH  31  37
BRANCH  32  39
HETATM   39  O5  UNL     1      -7.179  -0.194  -0.926  1.00  0.00    -0.390 OA
ATOM     40  H5  UNL     1      -7.600   0.299  -1.620  1.00  0.00     0.210 HD
ENDBRANCH  32  39
BRANCH  33  41
HETATM   41  O6  UNL     1      -5.058   2.610  -0.372  1.00  0.00    -0.392 OA
ATOM     42  H6  UNL     1      -4.449   3.092  -0.919  1.00  0.00     0.210 HD
ENDBRANCH  33  41
BRANCH  34  43
HETATM   43  C10 UNL     1      -4.243   0.051  -2.816  1.00  0.00     0.174 C 
BRANCH  43  44
HETATM   44  O7  UNL     1      -5.079  -1.033  -2.857  1.00  0.00    -0.400 OA
ATOM     45  H7  UNL     1      -5.141  -1.431  -3.717  1.00  0.00     0.209 HD
ENDBRANCH  43  44
ENDBRANCH  34  43
ENDBRANCH  28  29
ENDBRANCH   4  28
TORSDOF 14
