REMARK  11 active torsions:
REMARK  status: ('A' for Active; 'I' for Inactive)
REMARK    1  A    between atoms: C2_2  and  C3_3 
REMARK    2  A    between atoms: C3_3  and  C4_4 
REMARK    3  A    between atoms: C4_4  and  C5_5 
REMARK    4  A    between atoms: C4_4  and  O3_20 
REMARK    5  A    between atoms: C6_6  and  C7_7 
REMARK    6  A    between atoms: C8_8  and  O1_9 
REMARK    7  A    between atoms: C10_12  and  O2_13 
REMARK    8  A    between atoms: C11_15  and  C12_16 
REMARK    9  A    between atoms: O3_20  and  C16_21 
REMARK   10  A    between atoms: C16_21  and  O5_23 
REMARK   11  A    between atoms: O5_23  and  C17_24 
ROOT
HETATM    1  C7  UNL     1      -1.235   0.450  -0.903  1.00  0.00     0.047 C 
HETATM    2  C8  UNL     1      -0.950   0.293  -2.390  1.00  0.00     0.129 C 
HETATM    3  C9  UNL     1      -2.371   0.243  -2.955  1.00  0.00     0.065 C 
HETATM    4  C10 UNL     1      -2.981  -0.778  -2.022  1.00  0.00     0.129 C 
HETATM    5  C11 UNL     1      -2.468  -0.379  -0.665  1.00  0.00     0.047 C 
ENDROOT
BRANCH   1   6
HETATM    6  C6  UNL     1      -0.086   0.097  -0.059  1.00  0.00    -0.020 C 
HETATM    7  C5  UNL     1       1.052  -0.283  -0.588  1.00  0.00     0.002 C 
BRANCH   7   8
HETATM    8  C4  UNL     1       2.254  -0.654   0.205  1.00  0.00     0.160 C 
BRANCH   8   9
HETATM    9  C3  UNL     1       1.826  -1.710   1.198  1.00  0.00     0.063 C 
BRANCH   9  10
HETATM   10  C2  UNL     1       1.303  -2.876   0.397  1.00  0.00    -0.034 C 
HETATM   11  C1  UNL     1       0.062  -3.290   0.549  1.00  0.00     0.007 C 
ENDBRANCH   9  10
ENDBRANCH   8   9
BRANCH   8  12
HETATM   12  O3  UNL     1       2.864   0.449   0.815  1.00  0.00    -0.288 OA
BRANCH  12  13
HETATM   13  C16 UNL     1       4.183   0.768   0.523  1.00  0.00     0.407 C 
HETATM   14  O4  UNL     1       4.820   0.037  -0.308  1.00  0.00    -0.229 OA
BRANCH  13  15
HETATM   15  O5  UNL     1       4.856   1.830   1.076  1.00  0.00    -0.298 OA
BRANCH  15  16
HETATM   16  C17 UNL     1       6.222   2.070   0.703  1.00  0.00     0.176 C 
HETATM   17  C18 UNL     1       6.785   3.261   1.401  1.00  0.00     0.034 C 
ENDBRANCH  15  16
ENDBRANCH  13  15
ENDBRANCH  12  13
ENDBRANCH   8  12
ENDBRANCH   7   8
ENDBRANCH   1   6
BRANCH   2  18
HETATM   18  O1  UNL     1      -0.215   1.352  -2.846  1.00  0.00    -0.395 OA
ATOM     19  H1  UNL     1      -0.037   1.254  -3.774  1.00  0.00     0.210 HD
ENDBRANCH   2  18
BRANCH   5  20
HETATM   20  C12 UNL     1      -3.543   0.445  -0.024  1.00  0.00    -0.017 C 
HETATM   21  C13 UNL     1      -4.103   0.071   1.118  1.00  0.00    -0.091 C 
HETATM   22  C14 UNL     1      -3.639  -1.186   1.751  1.00  0.00     0.042 C 
HETATM   23  C15 UNL     1      -5.169   0.869   1.774  1.00  0.00     0.042 C 
ENDBRANCH   5  20
BRANCH   4  24
HETATM   24  O2  UNL     1      -4.383  -0.741  -2.069  1.00  0.00    -0.395 OA
ATOM     25  H2  UNL     1      -4.766  -1.383  -1.483  1.00  0.00     0.210 HD
ENDBRANCH   4  24
TORSDOF 11
