REMARK  10 active torsions:
REMARK  status: ('A' for Active; 'I' for Inactive)
REMARK    1  A    between atoms: C2_2  and  C3_3 
REMARK    2  A    between atoms: C3_3  and  C4_4 
REMARK    3  A    between atoms: C4_4  and  C5_5 
REMARK    4  A    between atoms: C5_5  and  C6_6 
REMARK    5  A    between atoms: C6_6  and  C7_7 
REMARK    6  A    between atoms: C7_7  and  C8_8 
REMARK    7  A    between atoms: C8_8  and  N1_9 
REMARK    8  A    between atoms: C9_10  and  O1_11 
REMARK    9  A    between atoms: C12_15  and  O2_16 
REMARK   10  A    between atoms: C13_18  and  N2_19 
ROOT
HETATM    1  N1  UNL     1      -1.785  -0.714  -0.394  1.00  0.00    -0.307 N 
HETATM    2  C9  UNL     1      -2.627  -0.464  -1.405  1.00  0.00     0.152 A 
HETATM    3  C10 UNL     1      -3.858  -0.198  -0.872  1.00  0.00     0.023 A 
HETATM    4  C11 UNL     1      -3.791  -0.282   0.511  1.00  0.00     0.049 A 
HETATM    5  C12 UNL     1      -2.461  -0.613   0.787  1.00  0.00     0.157 A 
HETATM    6  C13 UNL     1      -4.927  -0.051   1.378  1.00  0.00     0.032 C 
HETATM    7  C14 UNL     1      -6.018   0.886   1.079  1.00  0.00     0.198 C 
HETATM    8  S1  UNL     1      -6.068   1.353  -0.628  1.00  0.00     0.153 S 
HETATM    9  O3  UNL     1      -5.555   2.740  -0.843  1.00  0.00    -0.227 OA
HETATM   10  O4  UNL     1      -7.497   1.281  -1.132  1.00  0.00    -0.227 OA
HETATM   11  C15 UNL     1      -5.141   0.137  -1.525  1.00  0.00     0.184 C 
ENDROOT
BRANCH   1  12
HETATM   12  C8  UNL     1      -0.381  -1.042  -0.519  1.00  0.00     0.133 C 
BRANCH  12  13
HETATM   13  C7  UNL     1       0.391   0.255  -0.489  1.00  0.00     0.020 C 
BRANCH  13  14
HETATM   14  C6  UNL     1       1.884   0.020  -0.614  1.00  0.00     0.002 C 
BRANCH  14  15
HETATM   15  C5  UNL     1       2.391  -0.833   0.508  1.00  0.00     0.000 C 
BRANCH  15  16
HETATM   16  C4  UNL     1       3.871  -1.051   0.339  1.00  0.00     0.000 C 
BRANCH  16  17
HETATM   17  C3  UNL     1       4.632   0.255   0.354  1.00  0.00    -0.000 C 
BRANCH  17  18
HETATM   18  C2  UNL     1       6.125   0.017   0.194  1.00  0.00    -0.005 C 
HETATM   19  C1  UNL     1       6.807   1.371   0.220  1.00  0.00     0.005 C 
ENDBRANCH  17  18
ENDBRANCH  16  17
ENDBRANCH  15  16
ENDBRANCH  14  15
ENDBRANCH  13  14
ENDBRANCH  12  13
ENDBRANCH   1  12
BRANCH   2  20
HETATM   20  O1  UNL     1      -2.284  -0.479  -2.741  1.00  0.00    -0.345 OA
ATOM     21  H1  UNL     1      -2.881  -0.302  -3.458  1.00  0.00     0.219 HD
ENDBRANCH   2  20
BRANCH   5  22
HETATM   22  O2  UNL     1      -1.910  -0.807   2.046  1.00  0.00    -0.345 OA
ATOM     23  H2  UNL     1      -2.381  -0.737   2.868  1.00  0.00     0.219 HD
ENDBRANCH   5  22
BRANCH   6  24
HETATM   24  N2  UNL     1      -4.984  -0.708   2.483  1.00  0.00    -0.401 N 
ATOM     25  H22 UNL     1      -4.226  -1.359   2.691  1.00  0.00     0.156 HD
ATOM     26  H21 UNL     1      -5.784  -0.545   3.094  1.00  0.00     0.156 HD
ENDBRANCH   6  24
TORSDOF 10
