REMARK  8 active torsions:
REMARK  status: ('A' for Active; 'I' for Inactive)
REMARK    1  A    between atoms: C2_2  and  C3_3 
REMARK    2  A    between atoms: C3_3  and  C4_4 
REMARK    3  A    between atoms: C4_4  and  C5_5 
REMARK    4  A    between atoms: C5_5  and  C6_6 
REMARK    5  A    between atoms: C6_6  and  C7_7 
REMARK    6  A    between atoms: C11_15  and  N3_16 
REMARK    7  A    between atoms: N5_22  and  C13_23 
REMARK    8  A    between atoms: C13_23  and  C14_24 
ROOT
HETATM    1  C7  UNL     1       0.024   0.715  -0.156  1.00  0.00     0.085 A 
HETATM    2  N1  UNL     1       0.185   1.976  -0.634  1.00  0.00    -0.341 N 
ATOM      3  H1  UNL     1       1.019   2.312  -1.115  1.00  0.00     0.167 HD
HETATM    4  C8  UNL     1      -0.901   2.716  -0.387  1.00  0.00     0.102 A 
HETATM    5  C9  UNL     1      -1.227   4.027  -0.662  1.00  0.00     0.053 A 
HETATM    6  C10 UNL     1      -0.323   4.953  -1.363  1.00  0.00     0.071 C 
HETATM    7  N2  UNL     1      -2.436   4.477  -0.267  1.00  0.00    -0.194 N 
ATOM      8  H2  UNL     1      -2.700   5.443  -0.460  1.00  0.00     0.184 HD
HETATM    9  C11 UNL     1      -3.297   3.670   0.377  1.00  0.00     0.677 A 
HETATM   10  N4  UNL     1      -2.953   2.396   0.633  1.00  0.00    -0.174 N 
ATOM     11  H4  UNL     1      -3.620   1.800   1.123  1.00  0.00     0.186 HD
HETATM   12  C12 UNL     1      -1.769   1.874   0.271  1.00  0.00     0.153 A 
HETATM   13  N5  UNL     1      -1.180   0.640   0.404  1.00  0.00    -0.318 N 
ENDROOT
BRANCH   1  14
HETATM   14  C6  UNL     1       1.095  -0.310  -0.263  1.00  0.00     0.076 C 
BRANCH  14  15
HETATM   15  C5  UNL     1       1.992  -0.211   0.976  1.00  0.00     0.007 C 
BRANCH  15  16
HETATM   16  C4  UNL     1       3.104  -1.217   0.974  1.00  0.00     0.000 C 
BRANCH  16  17
HETATM   17  C3  UNL     1       3.983  -1.026  -0.213  1.00  0.00    -0.000 C 
BRANCH  17  18
HETATM   18  C2  UNL     1       5.133  -2.017  -0.247  1.00  0.00    -0.005 C 
HETATM   19  C1  UNL     1       6.007  -1.877   0.983  1.00  0.00     0.005 C 
ENDBRANCH  17  18
ENDBRANCH  16  17
ENDBRANCH  15  16
ENDBRANCH  14  15
ENDBRANCH   1  14
BRANCH  13  20
HETATM   20  C13 UNL     1      -1.847  -0.480   1.012  1.00  0.00     0.164 C 
BRANCH  20  21
HETATM   21  C14 UNL     1      -2.789  -1.209   0.139  1.00  0.00     0.140 C 
HETATM   22  C15 UNL     1      -2.207  -1.827  -1.103  1.00  0.00     0.035 C 
HETATM   23  C16 UNL     1      -3.236  -2.916  -1.420  1.00  0.00     0.029 C 
HETATM   24  C17 UNL     1      -4.050  -2.981  -0.178  1.00  0.00     0.168 C 
HETATM   25  O1  UNL     1      -3.343  -2.329   0.804  1.00  0.00    -0.384 OA
ENDBRANCH  20  21
ENDBRANCH  13  20
BRANCH   9  26
HETATM   26  N3  UNL     1      -4.437   4.166   0.727  1.00  0.00    -0.234 N 
ATOM     27  H32 UNL     1      -4.698   5.133   0.533  1.00  0.00     0.174 HD
ATOM     28  H31 UNL     1      -5.090   3.554   1.216  1.00  0.00     0.174 HD
ENDBRANCH   9  26
TORSDOF 8
