REMARK  8 active torsions:
REMARK  status: ('A' for Active; 'I' for Inactive)
REMARK    1  A    between atoms: C3_3  and  O1_4 
REMARK    2  A    between atoms: C3_3  and  C4_6 
REMARK    3  A    between atoms: C4_6  and  C5_7 
REMARK    4  A    between atoms: C4_6  and  N2_16 
REMARK    5  A    between atoms: C5_7  and  C6_8 
REMARK    6  A    between atoms: C6_8  and  S1_9 
REMARK    7  A    between atoms: S1_9  and  C7_10 
REMARK       I    between atoms: N2_16  and  C10_18 
REMARK    8  A    between atoms: C10_18  and  C11_20 
ROOT
HETATM    1  C1  UNL     1       1.306  -5.230   0.811  1.00  0.00     0.015 C 
HETATM    2  C2  UNL     1       0.686  -4.341   0.328  1.00  0.00    -0.083 C 
HETATM    3  C3  UNL     1      -0.053  -3.242  -0.250  1.00  0.00     0.218 C 
ENDROOT
BRANCH   3   4
HETATM    4  O1  UNL     1      -0.108  -3.315  -1.659  1.00  0.00    -0.381 OA
ATOM      5  H1  UNL     1      -0.594  -2.592  -2.039  1.00  0.00     0.211 HD
ENDBRANCH   3   4
BRANCH   3   6
HETATM    6  C4  UNL     1       0.553  -1.916   0.139  1.00  0.00     0.125 C 
BRANCH   6   7
HETATM    7  C5  UNL     1       1.938  -1.731  -0.405  1.00  0.00     0.039 C 
BRANCH   7   8
HETATM    8  C6  UNL     1       2.472  -0.383   0.027  1.00  0.00     0.085 C 
BRANCH   8   9
HETATM    9  S1  UNL     1       4.162  -0.132  -0.624  1.00  0.00    -0.086 SA
BRANCH   9  10
HETATM   10  C7  UNL     1       4.809   1.440  -0.131  1.00  0.00     0.186 A 
HETATM   11  N1  UNL     1       6.021   1.893  -0.460  1.00  0.00    -0.339 N 
HETATM   12  C8  UNL     1       6.206   3.123   0.073  1.00  0.00     0.115 A 
ATOM     13  H1  UNL     1       6.703   1.389  -1.027  1.00  0.00     0.167 HD
HETATM   14  C9  UNL     1       5.020   3.392   0.754  1.00  0.00     0.162 A 
HETATM   15  O2  UNL     1       4.225   2.355   0.598  1.00  0.00    -0.299 OA
ENDBRANCH   9  10
ENDBRANCH   8   9
ENDBRANCH   7   8
ENDBRANCH   6   7
BRANCH   6  16
HETATM   16  N2  UNL     1      -0.296  -0.874  -0.399  1.00  0.00    -0.353 N 
HETATM   17  C10 UNL     1      -0.976   0.060   0.446  1.00  0.00     0.222 C 
HETATM   18  O3  UNL     1      -0.812  -0.052   1.682  1.00  0.00    -0.273 OA
ATOM     19  H2  UNL     1      -0.413  -0.803  -1.410  1.00  0.00     0.163 HD
BRANCH  17  20
HETATM   20  C11 UNL     1      -1.847   1.126  -0.116  1.00  0.00     0.078 C 
HETATM   21  C12 UNL     1      -2.422   1.960   0.985  1.00  0.00     0.014 C 
HETATM   22  C13 UNL     1      -3.782   1.588   1.426  1.00  0.00     0.001 C 
HETATM   23  C14 UNL     1      -4.696   1.461   0.202  1.00  0.00     0.000 C 
HETATM   24  C15 UNL     1      -4.165   0.255  -0.546  1.00  0.00     0.001 C 
HETATM   25  C16 UNL     1      -2.827   0.595  -1.093  1.00  0.00     0.014 C 
ENDBRANCH  17  20
ENDBRANCH   6  16
ENDBRANCH   3   6
TORSDOF 8
