REMARK  11 active torsions:
REMARK  status: ('A' for Active; 'I' for Inactive)
REMARK    1  A    between atoms: O1_2  and  C2_3 
REMARK    2  A    between atoms: C2_3  and  C3_7 
REMARK    3  A    between atoms: C4_8  and  C5_9 
REMARK    4  A    between atoms: C5_9  and  C7_11 
REMARK    5  A    between atoms: C7_11  and  C8_12 
REMARK    6  A    between atoms: C8_12  and  O2_13 
REMARK    7  A    between atoms: C8_12  and  C9_15 
REMARK    8  A    between atoms: C9_15  and  O3_16 
REMARK    9  A    between atoms: C9_15  and  C10_18 
REMARK   10  A    between atoms: C10_18  and  C11_20 
REMARK   11  A    between atoms: C12_21  and  C13_22 
ROOT
HETATM    1  C8  UNL     1      -0.689   0.855  -0.344  1.00  0.00     0.080 C 
ENDROOT
BRANCH   1   2
HETATM    2  C7  UNL     1      -1.979   1.207  -0.789  1.00  0.00     0.042 C 
BRANCH   2   3
HETATM    3  C5  UNL     1      -3.223   0.883  -0.604  1.00  0.00    -0.059 C 
HETATM    4  C6  UNL     1      -4.207   1.685  -1.430  1.00  0.00     0.048 C 
BRANCH   3   5
HETATM    5  C4  UNL     1      -3.706  -0.121   0.270  1.00  0.00     0.011 C 
HETATM    6  C3  UNL     1      -4.829  -0.617   0.650  1.00  0.00     0.056 C 
BRANCH   6   7
HETATM    7  C2  UNL     1      -6.222  -0.474   0.439  1.00  0.00     0.135 C 
HETATM    8  N1  UNL     1      -6.867   0.277  -0.272  1.00  0.00    -0.380 N 
ATOM      9  H12 UNL     1      -7.870   0.380  -0.424  1.00  0.00     0.158 HD
ATOM     10  H11 UNL     1      -6.274   0.912  -0.806  1.00  0.00     0.158 HD
BRANCH   7  11
HETATM   11  O1  UNL     1      -7.075  -1.387   1.206  1.00  0.00    -0.341 OA
HETATM   12  C1  UNL     1      -8.476  -1.275   1.001  1.00  0.00     0.211 C 
ENDBRANCH   7  11
ENDBRANCH   6   7
ENDBRANCH   3   5
ENDBRANCH   2   3
ENDBRANCH   1   2
BRANCH   1  13
HETATM   13  O2  UNL     1       0.309   1.503  -0.959  1.00  0.00    -0.362 OA
ATOM     14  H2  UNL     1       1.179   1.266  -0.659  1.00  0.00     0.217 HD
ENDBRANCH   1  13
BRANCH   1  15
HETATM   15  C9  UNL     1      -0.254  -0.089   0.670  1.00  0.00     0.248 C 
BRANCH  15  16
HETATM   16  O3  UNL     1      -0.700   0.248   1.921  1.00  0.00    -0.381 OA
ATOM     17  H3  UNL     1      -0.415  -0.370   2.584  1.00  0.00     0.211 HD
ENDBRANCH  15  16
BRANCH  15  18
HETATM   18  C10 UNL     1       1.295  -0.185   0.691  1.00  0.00     0.184 C 
HETATM   19  O4  UNL     1       1.829   0.066   1.768  1.00  0.00    -0.290 OA
BRANCH  18  20
HETATM   20  C11 UNL     1       1.957  -0.547  -0.508  1.00  0.00     0.054 C 
HETATM   21  C12 UNL     1       3.161  -0.712  -0.850  1.00  0.00     0.010 C 
BRANCH  21  22
HETATM   22  C13 UNL     1       4.485  -0.654  -0.333  1.00  0.00    -0.062 C 
HETATM   23  C14 UNL     1       5.549  -0.950  -1.165  1.00  0.00    -0.020 C 
HETATM   24  C15 UNL     1       6.927  -0.892  -0.635  1.00  0.00     0.027 C 
HETATM   25  C16 UNL     1       7.186   0.391   0.126  1.00  0.00     0.004 C 
HETATM   26  C17 UNL     1       5.951   0.851   0.858  1.00  0.00     0.005 C 
HETATM   27  C18 UNL     1       4.951  -0.311   1.005  1.00  0.00     0.038 C 
ENDBRANCH  21  22
ENDBRANCH  18  20
ENDBRANCH  15  18
ENDBRANCH   1  15
TORSDOF 11
