REMARK  4 active torsions:
REMARK  status: ('A' for Active; 'I' for Inactive)
REMARK    1  A    between atoms: C3_5  and  C4_6 
REMARK    2  A    between atoms: C4_6  and  C5_8 
REMARK    3  A    between atoms: C5_8  and  C6_9 
REMARK    4  A    between atoms: C9_12  and  C10_13 
ROOT
HETATM    1  C6  UNL     1       1.333  -0.268  -0.768  1.00  0.00    -0.007 C 
HETATM    2  C7  UNL     1       0.824  -1.550  -1.328  1.00  0.00     0.005 C 
HETATM    3  C8  UNL     1      -0.610  -1.561  -0.783  1.00  0.00     0.006 C 
HETATM    4  C9  UNL     1      -1.044  -0.171  -1.109  1.00  0.00    -0.003 C 
HETATM    5  C18 UNL     1       0.121   0.675  -0.723  1.00  0.00     0.010 C 
ENDROOT
BRANCH   1   6
HETATM    6  C5  UNL     1       1.796  -0.421   0.636  1.00  0.00     0.090 C 
BRANCH   6   7
HETATM    7  C4  UNL     1       2.899  -1.394   0.821  1.00  0.00     0.176 C 
HETATM    8  O1  UNL     1       2.592  -2.594   1.020  1.00  0.00    -0.291 OA
BRANCH   7   9
HETATM    9  C3  UNL     1       4.330  -0.970   0.775  1.00  0.00     0.085 A 
HETATM   10  N1  UNL     1       4.687   0.262   0.571  1.00  0.00    -0.351 N 
HETATM   11  C2  UNL     1       5.964   0.582   0.540  1.00  0.00     0.047 A 
ATOM     12  H1  UNL     1       3.978   0.982   0.435  1.00  0.00     0.166 HD
HETATM   13  C1  UNL     1       6.595   1.939   0.320  1.00  0.00     0.076 C 
HETATM   14  S1  UNL     1       6.733  -0.919   0.809  1.00  0.00    -0.087 SA
HETATM   15  C19 UNL     1       5.336  -1.892   0.950  1.00  0.00     0.084 A 
ENDBRANCH   7   9
ENDBRANCH   6   7
ENDBRANCH   1   6
BRANCH   4  16
HETATM   16  C10 UNL     1      -2.332   0.243  -0.474  1.00  0.00    -0.008 C 
HETATM   17  C11 UNL     1      -2.324   0.216   1.036  1.00  0.00     0.017 C 
HETATM   18  C12 UNL     1      -3.836   0.122   1.299  1.00  0.00    -0.009 C 
HETATM   19  C13 UNL     1      -4.543   1.322   0.746  1.00  0.00     0.036 C 
HETATM   20  C17 UNL     1      -4.165  -1.066   0.383  1.00  0.00     0.037 C 
HETATM   21  C14 UNL     1      -4.265   1.512  -0.712  1.00  0.00     0.123 C 
HETATM   22  C15 UNL     1      -2.742   1.652  -0.870  1.00  0.00     0.044 C 
HETATM   23  O2  UNL     1      -4.458   0.335  -1.453  1.00  0.00    -0.380 OA
HETATM   24  C16 UNL     1      -3.511  -0.562  -0.913  1.00  0.00     0.131 C 
ENDBRANCH   4  16
TORSDOF 4
