REMARK  5 active torsions:
REMARK  status: ('A' for Active; 'I' for Inactive)
REMARK    1  A    between atoms: C2_2  and  C3_3 
REMARK    2  A    between atoms: C11_12  and  C12_13 
REMARK    3  A    between atoms: C13_14  and  C14_15 
REMARK    4  A    between atoms: C17_19  and  C18_20 
REMARK    5  A    between atoms: C18_20  and  O3_22 
ROOT
HETATM    1  C3  UNL     1      -3.375   0.518  -0.210  1.00  0.00    -0.017 C 
HETATM    2  C4  UNL     1      -4.116   1.052  -1.371  1.00  0.00     0.020 C 
HETATM    3  C5  UNL     1      -2.415   1.524   0.376  1.00  0.00     0.014 C 
HETATM    4  C6  UNL     1      -1.521   0.950   1.422  1.00  0.00     0.014 C 
HETATM    5  C7  UNL     1      -1.139  -0.460   1.237  1.00  0.00     0.063 C 
HETATM    6  C8  UNL     1      -2.289  -1.327   0.822  1.00  0.00     0.137 C 
HETATM    7  O1  UNL     1      -2.827  -2.231   1.392  1.00  0.00    -0.297 OA
HETATM    8  C9  UNL     1      -2.616  -0.776  -0.519  1.00  0.00     0.068 C 
HETATM    9  C10 UNL     1      -1.258  -0.445  -1.113  1.00  0.00     0.022 C 
HETATM   10  C11 UNL     1      -0.240  -0.636   0.033  1.00  0.00     0.020 C 
ENDROOT
BRANCH  10  11
HETATM   11  C12 UNL     1       0.860   0.304  -0.073  1.00  0.00    -0.020 C 
HETATM   12  C13 UNL     1       2.135   0.196  -0.191  1.00  0.00     0.016 C 
BRANCH  12  13
HETATM   13  C14 UNL     1       2.914  -1.032  -0.258  1.00  0.00     0.020 A 
HETATM   14  S1  UNL     1       2.351  -2.664  -0.200  1.00  0.00    -0.101 SA
HETATM   15  C15 UNL     1       3.815  -3.487  -0.331  1.00  0.00     0.051 A 
HETATM   16  C16 UNL     1       4.724  -2.483  -0.419  1.00  0.00     0.026 A 
HETATM   17  C17 UNL     1       4.274  -1.203  -0.382  1.00  0.00     0.057 A 
BRANCH  17  18
HETATM   18  C18 UNL     1       5.237  -0.061  -0.475  1.00  0.00     0.294 C 
HETATM   19  O2  UNL     1       6.493  -0.273  -0.589  1.00  0.00    -0.259 OA
BRANCH  18  20
HETATM   20  O3  UNL     1       4.899   1.254  -0.448  1.00  0.00    -0.322 OA
HETATM   21  C19 UNL     1       5.801   2.325  -0.535  1.00  0.00     0.213 C 
ENDBRANCH  18  20
ENDBRANCH  17  18
ENDBRANCH  12  13
ENDBRANCH  10  11
BRANCH   1  22
HETATM   22  C2  UNL     1      -4.359   0.176   0.866  1.00  0.00    -0.027 C 
HETATM   23  C1  UNL     1      -5.634  -0.034   0.629  1.00  0.00     0.007 C 
ENDBRANCH   1  22
TORSDOF 5
