REMARK  5 active torsions:
REMARK  status: ('A' for Active; 'I' for Inactive)
REMARK    1  A    between atoms: C2_2  and  C3_3 
REMARK    2  A    between atoms: C3_3  and  O2_5 
REMARK    3  A    between atoms: O2_5  and  C4_6 
REMARK    4  A    between atoms: C11_13  and  O3_14 
REMARK    5  A    between atoms: O3_14  and  C12_15 
ROOT
HETATM    1  C4  UNL     1      -2.292   0.298   0.521  1.00  0.00     0.065 C 
HETATM    2  C5  UNL     1      -1.374  -0.491   0.015  1.00  0.00    -0.033 C 
HETATM    3  C6  UNL     1      -1.853  -1.934   0.052  1.00  0.00     0.046 C 
HETATM    4  C7  UNL     1      -1.021  -2.561   1.153  1.00  0.00     0.014 C 
HETATM    5  C8  UNL     1       0.408  -2.536   0.671  1.00  0.00     0.007 C 
HETATM    6  C9  UNL     1       0.901  -1.149   0.343  1.00  0.00     0.001 C 
HETATM    7  C10 UNL     1       2.260  -1.274  -0.277  1.00  0.00     0.038 C 
HETATM    8  C11 UNL     1       2.861   0.043  -0.663  1.00  0.00     0.132 C 
HETATM    9  C14 UNL     1       1.912   1.076  -1.098  1.00  0.00     0.034 C 
HETATM   10  C15 UNL     1       0.520   1.036  -0.601  1.00  0.00     0.016 C 
HETATM   11  C16 UNL     1      -0.006  -0.363  -0.559  1.00  0.00    -0.014 C 
HETATM   12  C17 UNL     1      -0.076  -0.911  -1.958  1.00  0.00     0.020 C 
HETATM   13  C18 UNL     1      -3.273  -1.860   0.367  1.00  0.00    -0.075 C 
HETATM   14  C19 UNL     1      -4.198  -2.776   0.179  1.00  0.00     0.015 C 
HETATM   15  C20 UNL     1      -3.486  -0.517   0.956  1.00  0.00     0.099 C 
ENDROOT
BRANCH   1  16
HETATM   16  O2  UNL     1      -2.267   1.668   0.676  1.00  0.00    -0.279 OA
BRANCH  16  17
HETATM   17  C3  UNL     1      -2.829   2.495  -0.285  1.00  0.00     0.287 C 
HETATM   18  O1  UNL     1      -3.353   1.939  -1.285  1.00  0.00    -0.260 OA
BRANCH  17  19
HETATM   19  C2  UNL     1      -2.816   3.947  -0.146  1.00  0.00     0.072 C 
HETATM   20  C1  UNL     1      -3.347   4.718  -1.055  1.00  0.00     0.017 C 
ENDBRANCH  17  19
ENDBRANCH  16  17
ENDBRANCH   1  16
BRANCH   8  21
HETATM   21  O3  UNL     1       3.652   0.558   0.410  1.00  0.00    -0.316 OA
BRANCH  21  22
HETATM   22  C12 UNL     1       5.021   0.712   0.308  1.00  0.00     0.255 C 
HETATM   23  C13 UNL     1       5.875   1.245   1.405  1.00  0.00     0.126 C 
HETATM   24  O4  UNL     1       5.562   0.379  -0.780  1.00  0.00    -0.266 OA
ENDBRANCH  21  22
ENDBRANCH   8  21
TORSDOF 5
