REMARK  3 active torsions:
REMARK  status: ('A' for Active; 'I' for Inactive)
REMARK    1  A    between atoms: C2_2  and  C3_3 
REMARK    2  A    between atoms: C3_3  and  C4_4 
REMARK    3  A    between atoms: C4_4  and  C5_5 
ROOT
HETATM    1  C5  UNL     1       1.940   0.253  -1.388  1.00  0.00    -0.017 C 
HETATM    2  N1  UNL     1       1.000   1.138  -1.427  1.00  0.00    -0.396 N 
ATOM      3  H1  UNL     1       1.170   2.009  -0.924  1.00  0.00     0.159 HD
HETATM    4  C6  UNL     1      -0.240   1.024  -2.095  1.00  0.00     0.120 C 
HETATM    5  C7  UNL     1      -1.279   1.938  -1.525  1.00  0.00     0.028 C 
HETATM    6  C8  UNL     1      -1.513   1.806  -0.055  1.00  0.00     0.006 C 
HETATM    7  C9  UNL     1      -0.934   3.063   0.588  1.00  0.00     0.014 C 
HETATM    8  C10 UNL     1      -2.968   1.789   0.282  1.00  0.00    -0.012 C 
HETATM    9  C11 UNL     1      -3.727   0.720   0.391  1.00  0.00    -0.019 C 
HETATM   10  C12 UNL     1      -5.189   0.979   0.745  1.00  0.00     0.052 C 
HETATM   11  C13 UNL     1      -3.337  -0.663   0.214  1.00  0.00     0.166 C 
HETATM   12  O1  UNL     1      -3.985  -1.345  -0.660  1.00  0.00    -0.292 OA
HETATM   13  C14 UNL     1      -2.277  -1.413   0.915  1.00  0.00     0.137 C 
HETATM   14  C15 UNL     1      -3.018  -2.536   1.676  1.00  0.00     0.027 C 
HETATM   15  C16 UNL     1      -1.363  -2.148  -0.013  1.00  0.00     0.197 C 
HETATM   16  O2  UNL     1      -1.891  -2.877  -0.830  1.00  0.00    -0.285 OA
HETATM   17  S1  UNL     1       0.375  -1.906   0.146  1.00  0.00    -0.091 SA
HETATM   18  C17 UNL     1       1.350  -2.200  -1.301  1.00  0.00     0.088 C 
HETATM   19  C18 UNL     1       1.771  -1.034  -2.106  1.00  0.00     0.062 C 
ENDROOT
BRANCH   1  20
HETATM   20  C4  UNL     1       3.206   0.486  -0.652  1.00  0.00     0.052 C 
BRANCH  20  21
HETATM   21  C3  UNL     1       3.514  -0.436   0.465  1.00  0.00     0.005 C 
BRANCH  21  22
HETATM   22  C2  UNL     1       4.880   0.045   1.011  1.00  0.00    -0.004 C 
HETATM   23  C1  UNL     1       5.327  -0.798   2.155  1.00  0.00     0.005 C 
ENDBRANCH  21  22
ENDBRANCH  20  21
ENDBRANCH   1  20
TORSDOF 3
