REMARK  3 active torsions:
REMARK  status: ('A' for Active; 'I' for Inactive)
REMARK    1  A    between atoms: C3_3  and  O1_4 
REMARK    2  A    between atoms: O1_4  and  C4_5 
REMARK    3  A    between atoms: C12_16  and  C13_17 
ROOT
HETATM    1  C1  UNL     1       1.655   3.210   2.416  1.00  0.00     0.091 A 
HETATM    2  C2  UNL     1       2.537   2.343   1.815  1.00  0.00     0.055 A 
HETATM    3  C3  UNL     1       1.996   1.301   1.012  1.00  0.00     0.089 A 
HETATM    4  C9  UNL     1       0.640   1.212   0.876  1.00  0.00     0.057 A 
HETATM    5  C10 UNL     1      -0.219   2.087   1.484  1.00  0.00     0.029 A 
HETATM    6  N1  UNL     1       0.352   3.073   2.247  1.00  0.00    -0.368 N 
ATOM      7  H1  UNL     1      -0.265   3.739   2.711  1.00  0.00     0.165 HD
HETATM    8  C11 UNL     1      -1.638   1.861   1.264  1.00  0.00     0.074 C 
HETATM    9  C12 UNL     1      -1.874   1.204  -0.075  1.00  0.00     0.062 C 
HETATM   10  S1  UNL     1      -0.396   0.092  -0.047  1.00  0.00    -0.120 SA
ENDROOT
BRANCH   3  11
HETATM   11  O1  UNL     1       2.934   0.492   0.458  1.00  0.00    -0.344 OA
BRANCH  11  12
HETATM   12  C4  UNL     1       2.943  -0.596  -0.350  1.00  0.00     0.133 C 
HETATM   13  C5  UNL     1       3.626  -0.257  -1.688  1.00  0.00     0.058 C 
HETATM   14  C6  UNL     1       5.108  -0.020  -1.468  1.00  0.00     0.170 C 
HETATM   15  O2  UNL     1       5.598  -0.792  -0.417  1.00  0.00    -0.391 OA
HETATM   16  C7  UNL     1       4.969  -2.024  -0.366  1.00  0.00     0.170 C 
HETATM   17  C8  UNL     1       3.604  -1.825   0.258  1.00  0.00     0.058 C 
ENDBRANCH  11  12
ENDBRANCH   3  11
BRANCH   9  18
HETATM   18  C13 UNL     1      -3.133   0.405  -0.116  1.00  0.00     0.000 C 
HETATM   19  C14 UNL     1      -3.159  -0.708   0.890  1.00  0.00     0.006 C 
HETATM   20  C15 UNL     1      -4.162  -1.757   0.409  1.00  0.00     0.000 C 
HETATM   21  C16 UNL     1      -5.236  -1.082  -0.443  1.00  0.00     0.000 C 
HETATM   22  C17 UNL     1      -4.603  -0.756  -1.773  1.00  0.00     0.000 C 
HETATM   23  C18 UNL     1      -3.209  -0.238  -1.506  1.00  0.00     0.006 C 
ENDBRANCH   9  18
TORSDOF 3
