REMARK  4 active torsions:
REMARK  status: ('A' for Active; 'I' for Inactive)
REMARK    1  A    between atoms: C14_14  and  C16_16 
REMARK    2  A    between atoms: C16_16  and  C17_17 
REMARK    3  A    between atoms: C17_17  and  O2_19 
REMARK    4  A    between atoms: O2_19  and  C18_20 
ROOT
HETATM    1  C1  UNL     1       1.328  -1.057   2.030  1.00  0.00     0.015 C 
HETATM    2  C2  UNL     1       0.590  -0.161   1.374  1.00  0.00    -0.080 C 
HETATM    3  C3  UNL     1      -0.222   0.820   2.125  1.00  0.00     0.034 C 
HETATM    4  C4  UNL     1      -1.499   1.160   1.405  1.00  0.00     0.010 C 
HETATM    5  C5  UNL     1      -1.783  -0.042   0.495  1.00  0.00     0.003 C 
HETATM    6  C6  UNL     1      -3.244  -0.080   0.202  1.00  0.00    -0.043 C 
HETATM    7  C7  UNL     1      -3.917  -0.746   1.402  1.00  0.00     0.015 C 
HETATM    8  C8  UNL     1      -3.857   1.331   0.172  1.00  0.00     0.015 C 
HETATM    9  C9  UNL     1      -3.651  -0.836  -1.012  1.00  0.00     0.009 C 
HETATM   10  C10 UNL     1      -2.617  -1.809  -1.396  1.00  0.00     0.002 C 
HETATM   11  C11 UNL     1      -1.199  -1.386  -1.425  1.00  0.00     0.011 C 
HETATM   12  C12 UNL     1      -0.866  -0.117  -0.668  1.00  0.00    -0.028 C 
HETATM   13  C13 UNL     1      -0.997   1.018  -1.640  1.00  0.00     0.016 C 
HETATM   14  C14 UNL     1       0.575  -0.113  -0.132  1.00  0.00    -0.005 C 
HETATM   15  C15 UNL     1       1.313  -1.271  -0.743  1.00  0.00     0.021 C 
ENDROOT
BRANCH  14  16
HETATM   16  C16 UNL     1       1.279   1.166  -0.484  1.00  0.00     0.125 C 
BRANCH  16  17
HETATM   17  C17 UNL     1       2.645   1.280   0.027  1.00  0.00     0.262 C 
HETATM   18  O1  UNL     1       2.876   2.065   1.030  1.00  0.00    -0.265 OA
BRANCH  17  19
HETATM   19  O2  UNL     1       3.792   0.654  -0.412  1.00  0.00    -0.289 OA
BRANCH  19  20
HETATM   20  C18 UNL     1       5.052   0.849   0.154  1.00  0.00     0.288 C 
HETATM   21  C19 UNL     1       5.762  -0.403   0.675  1.00  0.00     0.172 C 
HETATM   22  C20 UNL     1       6.938   0.339   0.233  1.00  0.00     0.265 C 
HETATM   23  O3  UNL     1       8.154   0.292   0.600  1.00  0.00    -0.265 OA
HETATM   24  O4  UNL     1       6.149   1.029  -0.672  1.00  0.00    -0.289 OA
ENDBRANCH  19  20
ENDBRANCH  17  19
ENDBRANCH  16  17
ENDBRANCH  14  16
TORSDOF 4
