REMARK  4 active torsions:
REMARK  status: ('A' for Active; 'I' for Inactive)
REMARK    1  A    between atoms: C2_2  and  C3_3 
REMARK    2  A    between atoms: C4_5  and  S2_6 
REMARK    3  A    between atoms: C8_12  and  C9_13 
REMARK    4  A    between atoms: C9_13  and  N2_14 
ROOT
HETATM    1  C3  UNL     1      -1.388  -1.966   0.764  1.00  0.00     0.002 A 
HETATM    2  S1  UNL     1      -3.066  -2.003   0.691  1.00  0.00    -0.069 SA
HETATM    3  C4  UNL     1      -3.757  -0.507   0.107  1.00  0.00     0.116 A 
HETATM    4  N1  UNL     1      -2.835   0.403  -0.177  1.00  0.00    -0.307 N 
HETATM    5  C6  UNL     1      -3.352   1.691  -0.678  1.00  0.00     0.161 C 
HETATM    6  C7  UNL     1      -1.498   0.290  -0.065  1.00  0.00     0.261 A 
HETATM    7  O1  UNL     1      -0.839   1.339  -0.403  1.00  0.00    -0.267 OA
HETATM    8  C8  UNL     1      -0.758  -0.761   0.356  1.00  0.00     0.061 A 
ENDROOT
BRANCH   8   9
HETATM    9  C9  UNL     1       0.702  -0.800   0.497  1.00  0.00     0.108 C 
BRANCH   9  10
HETATM   10  N2  UNL     1       1.546   0.199   0.081  1.00  0.00    -0.369 N 
HETATM   11  C10 UNL     1       1.909   0.373  -1.256  1.00  0.00     0.063 C 
HETATM   12  C11 UNL     1       2.467   1.701  -1.641  1.00  0.00     0.044 C 
HETATM   13  C12 UNL     1       3.822   2.019  -1.135  1.00  0.00     0.005 C 
HETATM   14  C13 UNL     1       4.661   0.868  -0.710  1.00  0.00     0.000 C 
HETATM   15  C14 UNL     1       4.315   0.251   0.590  1.00  0.00     0.002 C 
HETATM   16  C15 UNL     1       3.405   1.043   1.465  1.00  0.00     0.020 C 
HETATM   17  C16 UNL     1       2.002   1.153   1.029  1.00  0.00     0.127 C 
ENDBRANCH   9  10
ENDBRANCH   8   9
BRANCH   1  18
HETATM   18  C2  UNL     1      -0.564  -3.134   1.233  1.00  0.00     0.043 C 
HETATM   19  C1  UNL     1      -1.555  -4.220   1.604  1.00  0.00     0.010 C 
ENDBRANCH   1  18
BRANCH   3  20
HETATM   20  S2  UNL     1      -5.366  -0.399  -0.011  1.00  0.00    -0.109 SA
HETATM   21  C5  UNL     1      -6.327   1.005  -0.573  1.00  0.00     0.097 C 
ENDBRANCH   3  20
TORSDOF 4
