REMARK  2 active torsions:
REMARK  status: ('A' for Active; 'I' for Inactive)
REMARK    1  A    between atoms: C2_2  and  C3_3 
REMARK    2  A    between atoms: C7_9  and  O2_10 
ROOT
HETATM    1  C3  UNL     1      -0.953   2.169  -0.552  1.00  0.00     0.022 C 
HETATM    2  C4  UNL     1       0.033   3.345  -0.550  1.00  0.00     0.090 C 
HETATM    3  S1  UNL     1       1.097   3.043  -2.018  1.00  0.00    -0.104 SA
HETATM    4  C5  UNL     1       2.079   1.595  -1.529  1.00  0.00     0.121 A 
HETATM    5  O1  UNL     1       3.152   1.222  -2.160  1.00  0.00    -0.312 OA
HETATM    6  C6  UNL     1       3.701   0.164  -1.642  1.00  0.00     0.180 A 
HETATM    7  C7  UNL     1       2.920  -0.206  -0.559  1.00  0.00     0.100 A 
HETATM    8  C9  UNL     1       1.870   0.709  -0.477  1.00  0.00     0.022 A 
HETATM    9  C10 UNL     1       0.833   0.677   0.532  1.00  0.00     0.030 C 
HETATM   10  C11 UNL     1       0.865  -0.684   1.209  1.00  0.00     0.011 C 
HETATM   11  C12 UNL     1      -0.465  -1.019   1.887  1.00  0.00     0.018 C 
HETATM   12  C13 UNL     1      -1.514  -1.264   0.812  1.00  0.00     0.021 C 
HETATM   13  C14 UNL     1      -2.848  -1.409   1.478  1.00  0.00     0.024 C 
HETATM   14  C15 UNL     1      -1.235  -2.528   0.070  1.00  0.00     0.135 C 
HETATM   15  O3  UNL     1      -0.956  -3.600   0.523  1.00  0.00    -0.297 OA
HETATM   16  C16 UNL     1      -1.358  -2.256  -1.404  1.00  0.00     0.079 C 
HETATM   17  C17 UNL     1      -1.024  -0.758  -1.513  1.00  0.00     0.013 C 
HETATM   18  C18 UNL     1      -1.421  -0.167  -0.194  1.00  0.00     0.007 C 
HETATM   19  C19 UNL     1      -0.564   1.012   0.255  1.00  0.00     0.008 C 
ENDROOT
BRANCH   1  20
HETATM   20  C2  UNL     1      -2.212   2.794  -0.072  1.00  0.00    -0.031 C 
HETATM   21  C1  UNL     1      -2.947   2.450   0.946  1.00  0.00     0.007 C 
ENDBRANCH   1  20
BRANCH   7  22
HETATM   22  O2  UNL     1       3.235  -1.300   0.216  1.00  0.00    -0.353 OA
HETATM   23  C8  UNL     1       4.331  -2.133   0.010  1.00  0.00     0.210 C 
ENDBRANCH   7  22
TORSDOF 2
