REMARK  4 active torsions:
REMARK  status: ('A' for Active; 'I' for Inactive)
REMARK    1  A    between atoms: C2_2  and  C3_3 
REMARK    2  A    between atoms: C3_3  and  C5_5 
REMARK    3  A    between atoms: C5_5  and  O2_7 
REMARK    4  A    between atoms: O2_7  and  C6_8 
ROOT
HETATM    1  C6  UNL     1       0.200  -0.389  -0.368  1.00  0.00     0.169 C 
HETATM    2  C7  UNL     1      -0.504  -1.195   0.737  1.00  0.00     0.044 C 
HETATM    3  C8  UNL     1      -1.536  -2.153   0.398  1.00  0.00    -0.042 C 
HETATM    4  C9  UNL     1      -1.192  -3.416   1.245  1.00  0.00     0.015 C 
HETATM    5  C10 UNL     1      -1.455  -2.734  -1.023  1.00  0.00     0.015 C 
HETATM    6  C11 UNL     1      -2.996  -1.855   0.668  1.00  0.00     0.036 C 
HETATM    7  C12 UNL     1      -3.374  -0.793   1.568  1.00  0.00    -0.026 C 
HETATM    8  C13 UNL     1      -3.591   0.591   1.304  1.00  0.00     0.003 C 
HETATM    9  C14 UNL     1      -3.353   1.507   0.403  1.00  0.00    -0.030 C 
HETATM   10  C15 UNL     1      -3.816   2.948   0.574  1.00  0.00     0.048 C 
HETATM   11  C16 UNL     1      -2.630   1.381  -0.891  1.00  0.00     0.291 C 
HETATM   12  O3  UNL     1      -1.783   2.433  -1.230  1.00  0.00    -0.354 OA
HETATM   13  C17 UNL     1      -0.524   1.814  -1.574  1.00  0.00     0.211 C 
HETATM   14  C18 UNL     1      -0.502   0.921  -0.369  1.00  0.00     0.108 C 
HETATM   15  C19 UNL     1      -0.287   1.792   0.775  1.00  0.00     0.051 C 
HETATM   16  O4  UNL     1      -1.744   0.421  -0.661  1.00  0.00    -0.342 OA
ENDROOT
BRANCH   1  17
HETATM   17  O2  UNL     1       1.554  -0.128  -0.052  1.00  0.00    -0.312 OA
BRANCH  17  18
HETATM   18  C5  UNL     1       2.607  -0.431  -0.870  1.00  0.00     0.263 C 
HETATM   19  O1  UNL     1       2.377  -0.974  -1.974  1.00  0.00    -0.265 OA
BRANCH  18  20
HETATM   20  C3  UNL     1       4.029  -0.134  -0.492  1.00  0.00     0.081 C 
HETATM   21  C4  UNL     1       4.987  -0.612  -1.545  1.00  0.00     0.020 C 
BRANCH  20  22
HETATM   22  C2  UNL     1       4.224   1.349  -0.268  1.00  0.00     0.010 C 
HETATM   23  C1  UNL     1       5.667   1.532   0.185  1.00  0.00     0.006 C 
ENDBRANCH  20  22
ENDBRANCH  18  20
ENDBRANCH  17  18
ENDBRANCH   1  17
TORSDOF 4
