REMARK  7 active torsions:
REMARK  status: ('A' for Active; 'I' for Inactive)
REMARK    1  A    between atoms: N1_4  and  N2_6 
REMARK    2  A    between atoms: C4_8  and  C5_9 
REMARK    3  A    between atoms: C4_8  and  C11_20 
REMARK       I    between atoms: C5_9  and  N3_11 
REMARK    4  A    between atoms: N3_11  and  C6_12 
REMARK    5  A    between atoms: N3_11  and  C9_16 
REMARK    6  A    between atoms: C6_12  and  C7_13 
REMARK    7  A    between atoms: C9_16  and  C10_17 
ROOT
HETATM    1  C7  UNL     1       3.065   2.001   0.125  1.00  0.00     0.143 C 
HETATM    2  C8  UNL     1       4.494   1.882  -0.130  1.00  0.00     0.060 C 
HETATM    3  N4  UNL     1       5.633   1.812  -0.317  1.00  0.00    -0.197 NA
ENDROOT
BRANCH   1   4
HETATM    4  C6  UNL     1       2.158   1.623  -0.983  1.00  0.00     0.141 C 
BRANCH   4   5
HETATM    5  N3  UNL     1       2.095   0.297  -1.459  1.00  0.00    -0.336 N 
HETATM    6  C5  UNL     1       1.198  -0.674  -0.962  1.00  0.00     0.268 C 
HETATM    7  O1  UNL     1       1.249  -1.868  -1.458  1.00  0.00    -0.266 OA
BRANCH   6   8
HETATM    8  C4  UNL     1       0.175  -0.465   0.094  1.00  0.00     0.097 C 
HETATM    9  N2  UNL     1       0.028   0.630   0.666  1.00  0.00    -0.299 N 
ATOM     10  H2  UNL     1       0.691   1.318   0.308  1.00  0.00     0.186 HD
BRANCH   9  11
HETATM   11  N1  UNL     1      -0.732   1.156   1.596  1.00  0.00    -0.309 N 
HETATM   12  C2  UNL     1      -1.353   2.260   1.675  1.00  0.00    -0.004 C 
HETATM   13  C1  UNL     1      -2.141   2.535   2.913  1.00  0.00     0.064 C 
HETATM   14  C3  UNL     1      -1.365   3.313   0.631  1.00  0.00     0.064 C 
ATOM     15  H1  UNL     1      -0.847   0.561   2.417  1.00  0.00     0.186 HD
ENDBRANCH   9  11
BRANCH   8  16
HETATM   16  C11 UNL     1      -0.670  -1.662   0.373  1.00  0.00     0.043 C 
HETATM   17  C12 UNL     1      -1.504  -1.611   1.596  1.00  0.00     0.011 C 
HETATM   18  C13 UNL     1      -2.961  -1.265   1.279  1.00  0.00     0.001 C 
HETATM   19  C14 UNL     1      -3.571  -2.463   0.538  1.00  0.00     0.000 C 
HETATM   20  C15 UNL     1      -2.506  -3.088  -0.358  1.00  0.00     0.001 C 
HETATM   21  C16 UNL     1      -1.592  -1.949  -0.838  1.00  0.00     0.011 C 
ENDBRANCH   8  16
ENDBRANCH   6   8
BRANCH   5  22
HETATM   22  C9  UNL     1       2.900  -0.167  -2.605  1.00  0.00     0.239 C 
BRANCH  22  23
HETATM   23  C10 UNL     1       4.083  -0.927  -2.289  1.00  0.00     0.191 C 
HETATM   24  O2  UNL     1       4.951  -1.092  -3.182  1.00  0.00    -0.647 OA
HETATM   25  O3  UNL     1       4.333  -1.500  -1.059  1.00  0.00    -0.647 OA
ENDBRANCH  22  23
ENDBRANCH   5  22
ENDBRANCH   4   5
ENDBRANCH   1   4
TORSDOF 7
