REMARK  10 active torsions:
REMARK  status: ('A' for Active; 'I' for Inactive)
REMARK    1  A    between atoms: C3_3  and  C5_5 
REMARK    2  A    between atoms: C5_5  and  C6_6 
REMARK    3  A    between atoms: C6_6  and  N1_7 
REMARK    4  A    between atoms: N1_7  and  N2_8 
REMARK    5  A    between atoms: N1_7  and  C7_12 
REMARK    6  A    between atoms: N2_8  and  O1_10 
REMARK    7  A    between atoms: C8_13  and  O2_14 
REMARK    8  A    between atoms: N3_20  and  C13_21 
REMARK    9  A    between atoms: C13_21  and  C14_22 
REMARK   10  A    between atoms: C14_22  and  O3_25 
ROOT
HETATM    1  C7  UNL     1      -0.127   0.391  -0.436  1.00  0.00     0.370 C 
HETATM    2  C8  UNL     1       0.017   1.604   0.389  1.00  0.00     0.182 C 
HETATM    3  C9  UNL     1      -1.405   2.237   0.280  1.00  0.00     0.009 C 
HETATM    4  C10 UNL     1      -1.555   2.994  -0.995  1.00  0.00     0.019 C 
HETATM    5  C11 UNL     1      -1.719   3.066   1.477  1.00  0.00     0.019 C 
HETATM    6  C12 UNL     1      -2.231   0.964   0.340  1.00  0.00     0.286 C 
HETATM    7  N3  UNL     1      -1.522   0.002  -0.432  1.00  0.00     0.119 N 
ENDROOT
BRANCH   1   8
HETATM    8  N1  UNL     1       0.793  -0.691  -0.294  1.00  0.00    -0.273 N 
BRANCH   8   9
HETATM    9  C6  UNL     1       1.431  -1.189   0.872  1.00  0.00     0.151 C 
BRANCH   9  10
HETATM   10  C5  UNL     1       2.537  -0.355   1.381  1.00  0.00     0.055 C 
BRANCH  10  11
HETATM   11  C3  UNL     1       3.720  -0.231   0.494  1.00  0.00    -0.086 C 
HETATM   12  C2  UNL     1       4.877  -0.671   0.971  1.00  0.00    -0.029 C 
HETATM   13  C1  UNL     1       6.099  -0.565   0.152  1.00  0.00     0.036 C 
HETATM   14  C4  UNL     1       3.749   0.347  -0.860  1.00  0.00     0.043 C 
ENDBRANCH  10  11
ENDBRANCH   9  10
ENDBRANCH   8   9
BRANCH   8  15
HETATM   15  N2  UNL     1       1.093  -1.406  -1.509  1.00  0.00    -0.210 N 
ATOM     16  H2  UNL     1       1.076  -0.942  -2.417  1.00  0.00     0.215 HD
BRANCH  15  17
HETATM   17  O1  UNL     1       1.373  -2.610  -1.402  1.00  0.00    -0.275 OA
ATOM     18  H1  UNL     1       1.571  -3.081  -2.203  1.00  0.00     0.246 HD
ENDBRANCH  15  17
ENDBRANCH   8  15
ENDBRANCH   1   8
BRANCH   2  19
HETATM   19  O2  UNL     1       0.910   2.563  -0.050  1.00  0.00    -0.391 OA
ATOM     20  H2  UNL     1       1.003   3.345   0.482  1.00  0.00     0.210 HD
ENDBRANCH   2  19
BRANCH   7  21
HETATM   21  C13 UNL     1      -1.808  -1.358  -0.233  1.00  0.00     0.312 C 
BRANCH  21  22
HETATM   22  C14 UNL     1      -3.296  -1.632  -0.241  1.00  0.00     0.077 C 
HETATM   23  C15 UNL     1      -3.443  -3.135   0.030  1.00  0.00     0.047 C 
HETATM   24  C16 UNL     1      -3.922  -1.369  -1.582  1.00  0.00     0.047 C 
BRANCH  22  25
HETATM   25  O3  UNL     1      -4.002  -0.974   0.733  1.00  0.00    -0.389 OA
ATOM     26  H3  UNL     1      -4.936  -1.146   0.728  1.00  0.00     0.210 HD
ENDBRANCH  22  25
ENDBRANCH  21  22
ENDBRANCH   7  21
TORSDOF 10
