REMARK  9 active torsions:
REMARK  status: ('A' for Active; 'I' for Inactive)
REMARK    1  A    between atoms: C2_2  and  C4_4 
REMARK    2  A    between atoms: C4_4  and  C5_5 
REMARK    3  A    between atoms: C7_7  and  O1_8 
REMARK    4  A    between atoms: C9_11  and  C11_13 
REMARK    5  A    between atoms: C11_13  and  O2_14 
REMARK    6  A    between atoms: C11_13  and  C12_16 
REMARK    7  A    between atoms: C12_16  and  C13_17 
REMARK    8  A    between atoms: C13_17  and  C14_18 
REMARK    9  A    between atoms: C17_23  and  C18_24 
ROOT
HETATM    1  C5  UNL     1       2.555   0.094   0.250  1.00  0.00     0.034 C 
HETATM    2  C6  UNL     1       2.061  -0.306  -1.034  1.00  0.00     0.042 C 
HETATM    3  C7  UNL     1       0.911  -1.181  -1.283  1.00  0.00     0.121 C 
HETATM    4  C8  UNL     1      -0.448  -0.897  -0.948  1.00  0.00     0.072 C 
HETATM    5  C9  UNL     1      -0.981   0.468  -0.757  1.00  0.00     0.095 C 
HETATM    6  C10 UNL     1      -0.995   1.348  -1.960  1.00  0.00     0.049 C 
HETATM    7  O3  UNL     1      -0.460   1.072   0.389  1.00  0.00    -0.304 OA
HETATM    8  C16 UNL     1       0.440   0.795   1.397  1.00  0.00     0.293 C 
HETATM    9  O4  UNL     1       0.085   1.344   2.489  1.00  0.00    -0.259 OA
HETATM   10  C17 UNL     1       1.680   0.025   1.470  1.00  0.00     0.059 C 
ENDROOT
BRANCH   5  11
HETATM   11  C11 UNL     1      -2.481   0.212  -0.460  1.00  0.00     0.153 C 
BRANCH  11  12
HETATM   12  O2  UNL     1      -3.091  -0.394  -1.558  1.00  0.00    -0.393 OA
ATOM     13  H2  UNL     1      -4.010  -0.551  -1.376  1.00  0.00     0.210 HD
ENDBRANCH  11  12
BRANCH  11  14
HETATM   14  C12 UNL     1      -3.198   1.516  -0.217  1.00  0.00     0.035 C 
BRANCH  14  15
HETATM   15  C13 UNL     1      -4.635   1.205   0.063  1.00  0.00     0.002 C 
BRANCH  15  16
HETATM   16  C14 UNL     1      -4.839   0.328   1.262  1.00  0.00    -0.004 C 
HETATM   17  C15 UNL     1      -6.345   0.111   1.404  1.00  0.00     0.005 C 
ENDBRANCH  15  16
ENDBRANCH  14  15
ENDBRANCH  11  14
ENDBRANCH   5  11
BRANCH   3  18
HETATM   18  O1  UNL     1       1.246  -2.478  -0.802  1.00  0.00    -0.395 OA
ATOM     19  H1  UNL     1       0.501  -3.045  -0.963  1.00  0.00     0.210 HD
ENDBRANCH   3  18
BRANCH  10  20
HETATM   20  C18 UNL     1       1.543  -1.328   2.059  1.00  0.00     0.272 C 
HETATM   21  O5  UNL     1       0.567  -1.510   2.786  1.00  0.00    -0.302 OA
ENDBRANCH  10  20
BRANCH   1  22
HETATM   22  C4  UNL     1       3.880  -0.472   0.700  1.00  0.00     0.042 C 
BRANCH  22  23
HETATM   23  C2  UNL     1       5.057  -0.187  -0.092  1.00  0.00    -0.092 C 
HETATM   24  C1  UNL     1       5.107   0.587  -1.141  1.00  0.00     0.014 C 
HETATM   25  C3  UNL     1       6.368  -0.847   0.309  1.00  0.00     0.042 C 
ENDBRANCH  22  23
ENDBRANCH   1  22
TORSDOF 9
