REMARK  7 active torsions:
REMARK  status: ('A' for Active; 'I' for Inactive)
REMARK    1  A    between atoms: C2_2  and  C4_4 
REMARK    2  A    between atoms: C4_4  and  C5_5 
REMARK    3  A    between atoms: C5_5  and  S1_6 
REMARK    4  A    between atoms: C5_5  and  C11_19 
REMARK    5  A    between atoms: S1_6  and  C6_7 
REMARK    6  A    between atoms: N3_13  and  C8_15 
REMARK       I    between atoms: C11_19  and  N4_21 
REMARK    7  A    between atoms: N4_21  and  C12_23 
ROOT
HETATM    1  S1  UNL     1      -0.003  -2.040  -0.386  1.00  0.00    -0.070 SA
ENDROOT
BRANCH   1   2
HETATM    2  C5  UNL     1      -1.612  -1.415   0.156  1.00  0.00     0.148 C 
BRANCH   2   3
HETATM    3  C4  UNL     1      -2.711  -2.405  -0.169  1.00  0.00     0.029 C 
BRANCH   3   4
HETATM    4  C2  UNL     1      -2.511  -3.734   0.493  1.00  0.00    -0.021 C 
HETATM    5  C1  UNL     1      -3.671  -4.623   0.088  1.00  0.00     0.009 C 
HETATM    6  C3  UNL     1      -2.421  -3.669   1.981  1.00  0.00     0.009 C 
ENDBRANCH   3   4
ENDBRANCH   2   3
BRANCH   2   7
HETATM    7  C11 UNL     1      -1.938  -0.126  -0.494  1.00  0.00     0.232 C 
HETATM    8  O2  UNL     1      -2.859  -0.066  -1.347  1.00  0.00    -0.272 OA
HETATM    9  N4  UNL     1      -1.259   1.090  -0.216  1.00  0.00    -0.356 N 
ATOM     10  H4  UNL     1      -0.508   1.075   0.474  1.00  0.00     0.162 HD
BRANCH   9  11
HETATM   11  C12 UNL     1      -1.571   2.337  -0.851  1.00  0.00     0.076 C 
HETATM   12  C13 UNL     1      -0.380   2.916  -1.568  1.00  0.00     0.032 C 
HETATM   13  C14 UNL     1      -1.983   3.307   0.261  1.00  0.00     0.032 C 
ENDBRANCH   9  11
ENDBRANCH   2   7
ENDBRANCH   1   2
BRANCH   1  14
HETATM   14  C6  UNL     1       1.319  -0.902  -0.068  1.00  0.00     0.205 A 
HETATM   15  N1  UNL     1       2.085  -0.779   1.042  1.00  0.00    -0.271 N 
HETATM   16  N2  UNL     1       2.951   0.200   0.841  1.00  0.00    -0.263 N 
ATOM     17  H1  UNL     1       2.007  -1.344   1.888  1.00  0.00     0.189 HD
HETATM   18  C7  UNL     1       2.706   0.667  -0.390  1.00  0.00     0.241 A 
ATOM     19  H2  UNL     1       3.662   0.532   1.492  1.00  0.00     0.190 HD
HETATM   20  N3  UNL     1       3.341   1.629  -0.960  1.00  0.00    -0.350 N 
HETATM   21  O1  UNL     1       1.721   0.001  -0.937  1.00  0.00    -0.253 OA
ATOM     22  H3  UNL     1       3.081   1.914  -1.904  1.00  0.00     0.163 HD
BRANCH  20  23
HETATM   23  C8  UNL     1       4.416   2.310  -0.282  1.00  0.00     0.085 A 
HETATM   24  C9  UNL     1       5.443   2.909  -1.233  1.00  0.00     0.027 A 
HETATM   25  C10 UNL     1       5.806   1.782  -0.360  1.00  0.00     0.027 A 
ENDBRANCH  20  23
ENDBRANCH   1  14
TORSDOF 7
