REMARK  9 active torsions:
REMARK  status: ('A' for Active; 'I' for Inactive)
REMARK    1  A    between atoms: C2_2  and  C3_3 
REMARK    2  A    between atoms: C3_3  and  C4_4 
REMARK    3  A    between atoms: C4_4  and  C5_5 
REMARK    4  A    between atoms: C5_5  and  C6_6 
REMARK    5  A    between atoms: C6_6  and  O2_8 
REMARK    6  A    between atoms: O2_8  and  C7_9 
REMARK    7  A    between atoms: C12_14  and  O3_15 
REMARK    8  A    between atoms: C14_18  and  C16_21 
REMARK    9  A    between atoms: C16_21  and  O4_22 
ROOT
HETATM    1  C7  UNL     1      -0.709  -1.151   0.608  1.00  0.00     0.142 C 
HETATM    2  C8  UNL     1      -0.569  -2.349  -0.391  1.00  0.00     0.034 C 
HETATM    3  C9  UNL     1      -1.324  -1.902  -1.613  1.00  0.00     0.008 C 
HETATM    4  C10 UNL     1      -1.902  -0.593  -1.218  1.00  0.00     0.000 C 
HETATM    5  C11 UNL     1      -3.142  -0.184  -1.929  1.00  0.00     0.037 C 
HETATM    6  C12 UNL     1      -3.413   1.247  -1.463  1.00  0.00     0.120 C 
HETATM    7  C13 UNL     1      -2.709   1.578  -0.200  1.00  0.00     0.059 C 
HETATM    8  C14 UNL     1      -2.646   0.478   0.836  1.00  0.00     0.082 C 
HETATM    9  C15 UNL     1      -1.863   0.998   1.965  1.00  0.00     0.072 C 
HETATM   10  N1  UNL     1      -1.260   1.422   2.880  1.00  0.00    -0.196 NA
HETATM   11  C17 UNL     1      -2.110  -0.781   0.295  1.00  0.00     0.009 C 
HETATM   12  C18 UNL     1      -3.000  -1.976   0.539  1.00  0.00     0.020 C 
ENDROOT
BRANCH   8  13
HETATM   13  C16 UNL     1      -4.079   0.373   1.381  1.00  0.00     0.189 C 
BRANCH  13  14
HETATM   14  O4  UNL     1      -4.211  -0.574   2.373  1.00  0.00    -0.399 OA
ATOM     15  H4  UNL     1      -5.097  -0.639   2.710  1.00  0.00     0.209 HD
ENDBRANCH  13  14
ENDBRANCH   8  13
BRANCH   6  16
HETATM   16  O3  UNL     1      -4.763   1.572  -1.503  1.00  0.00    -0.396 OA
ATOM     17  H3  UNL     1      -4.931   2.461  -1.213  1.00  0.00     0.210 HD
ENDBRANCH   6  16
BRANCH   1  18
HETATM   18  O2  UNL     1       0.256  -0.233   0.068  1.00  0.00    -0.315 OA
BRANCH  18  19
HETATM   19  C6  UNL     1       1.437   0.087   0.655  1.00  0.00     0.259 C 
HETATM   20  O1  UNL     1       1.724  -0.465   1.762  1.00  0.00    -0.265 OA
BRANCH  19  21
HETATM   21  C5  UNL     1       2.443   1.034   0.115  1.00  0.00     0.111 C 
BRANCH  21  22
HETATM   22  C4  UNL     1       3.780   0.306   0.183  1.00  0.00     0.010 C 
BRANCH  22  23
HETATM   23  C3  UNL     1       4.922   1.128  -0.324  1.00  0.00     0.000 C 
BRANCH  23  24
HETATM   24  C2  UNL     1       6.177   0.250  -0.222  1.00  0.00    -0.005 C 
HETATM   25  C1  UNL     1       7.395   1.005  -0.711  1.00  0.00     0.005 C 
ENDBRANCH  23  24
ENDBRANCH  22  23
ENDBRANCH  21  22
ENDBRANCH  19  21
ENDBRANCH  18  19
ENDBRANCH   1  18
TORSDOF 9
