REMARK  7 active torsions:
REMARK  status: ('A' for Active; 'I' for Inactive)
REMARK    1  A    between atoms: C2_2  and  C3_4 
REMARK    2  A    between atoms: C3_4  and  C4_5 
REMARK    3  A    between atoms: C4_5  and  C5_6 
REMARK       I    between atoms: C5_6  and  N1_8 
REMARK    4  A    between atoms: N1_8  and  N2_9 
REMARK    5  A    between atoms: C6_11  and  C8_14 
REMARK    6  A    between atoms: C8_14  and  C9_15 
REMARK       I    between atoms: C9_15  and  N4_17 
REMARK    7  A    between atoms: N4_17  and  C10_19 
ROOT
HETATM    1  N2  UNL     1       2.256  -0.338   0.999  1.00  0.00    -0.226 N 
ATOM      2  H2  UNL     1       1.880   0.322   1.680  1.00  0.00     0.202 HD
HETATM    3  C6  UNL     1       1.363  -1.120   0.730  1.00  0.00     0.127 C 
HETATM    4  C7  UNL     1       1.530  -2.195  -0.202  1.00  0.00     0.116 C 
HETATM    5  N3  UNL     1       1.638  -3.065  -0.976  1.00  0.00    -0.190 NA
ENDROOT
BRANCH   3   6
HETATM    6  C8  UNL     1       0.035  -0.963   1.377  1.00  0.00     0.174 C 
BRANCH   6   7
HETATM    7  C9  UNL     1      -1.067  -0.742   0.430  1.00  0.00     0.224 C 
HETATM    8  O3  UNL     1      -0.877  -0.809  -0.793  1.00  0.00    -0.273 OA
HETATM    9  N4  UNL     1      -2.354  -0.447   0.935  1.00  0.00    -0.356 N 
ATOM     10  H4  UNL     1      -2.507  -0.391   1.942  1.00  0.00     0.162 HD
BRANCH   9  11
HETATM   11  C10 UNL     1      -3.455  -0.225   0.021  1.00  0.00     0.084 C 
HETATM   12  C11 UNL     1      -4.047   1.122   0.264  1.00  0.00     0.025 C 
HETATM   13  C12 UNL     1      -4.894   1.654  -0.851  1.00  0.00     0.002 C 
HETATM   14  C13 UNL     1      -6.295   1.126  -0.893  1.00  0.00     0.000 C 
HETATM   15  C14 UNL     1      -6.524  -0.104  -0.070  1.00  0.00     0.000 C 
HETATM   16  C15 UNL     1      -5.658  -1.228  -0.607  1.00  0.00     0.002 C 
HETATM   17  C16 UNL     1      -4.446  -1.346   0.262  1.00  0.00     0.025 C 
ENDBRANCH   9  11
ENDBRANCH   6   7
ENDBRANCH   3   6
BRANCH   1  18
HETATM   18  N1  UNL     1       3.437  -0.011   0.787  1.00  0.00    -0.286 NA
HETATM   19  C5  UNL     1       4.746   0.351   0.553  1.00  0.00     0.312 C 
HETATM   20  O2  UNL     1       5.639   0.664   1.383  1.00  0.00    -0.255 OA
BRANCH  19  21
HETATM   21  C4  UNL     1       5.150   0.374  -0.911  1.00  0.00     0.128 C 
BRANCH  21  22
HETATM   22  C3  UNL     1       6.515   0.959  -1.016  1.00  0.00     0.088 C 
BRANCH  22  23
HETATM   23  C2  UNL     1       7.521   0.097  -0.364  1.00  0.00     0.123 C 
HETATM   24  C1  UNL     1       8.885   0.758  -0.193  1.00  0.00     0.091 C 
HETATM   25  O1  UNL     1       7.347  -1.049   0.028  1.00  0.00    -0.298 OA
ENDBRANCH  22  23
ENDBRANCH  21  22
ENDBRANCH  19  21
ENDBRANCH   1  18
TORSDOF 7
