REMARK  2 active torsions:
REMARK  status: ('A' for Active; 'I' for Inactive)
REMARK    1  A    between atoms: C6_7  and  C7_8 
REMARK    2  A    between atoms: N1_9  and  N2_11 
ROOT
HETATM    1  C1  UNL     1      -5.009   0.507  -1.421  1.00  0.00     0.015 C 
HETATM    2  C2  UNL     1      -4.131   0.033  -0.260  1.00  0.00    -0.040 C 
HETATM    3  C3  UNL     1      -5.023   0.008   0.971  1.00  0.00     0.015 C 
HETATM    4  C4  UNL     1      -3.657  -1.335  -0.559  1.00  0.00     0.088 C 
HETATM    5  C5  UNL     1      -2.224  -1.461  -0.846  1.00  0.00     0.138 C 
HETATM    6  O1  UNL     1      -1.847  -2.521  -1.355  1.00  0.00    -0.297 OA
HETATM    7  C6  UNL     1      -1.213  -0.401  -0.564  1.00  0.00     0.117 C 
HETATM    8  C14 UNL     1      -1.782   0.462   0.523  1.00  0.00     0.061 C 
HETATM    9  C15 UNL     1      -0.888   1.641   0.854  1.00  0.00     0.032 C 
HETATM   10  C16 UNL     1      -2.053  -0.269   1.744  1.00  0.00     0.070 C 
HETATM   11  N3  UNL     1      -2.254  -0.859   2.741  1.00  0.00    -0.196 NA
HETATM   12  C17 UNL     1      -3.071   1.061  -0.051  1.00  0.00     0.034 C 
ENDROOT
BRANCH   7  13
HETATM   13  C7  UNL     1       0.097  -0.994  -0.215  1.00  0.00     0.094 C 
HETATM   14  N1  UNL     1       1.010  -0.404   0.436  1.00  0.00    -0.315 N 
ATOM     15  H1  UNL     1       0.855   0.552   0.755  1.00  0.00     0.185 HD
BRANCH  14  16
HETATM   16  N2  UNL     1       2.213  -1.027   0.724  1.00  0.00    -0.310 N 
HETATM   17  C8  UNL     1       3.363  -0.533   0.467  1.00  0.00     0.003 C 
HETATM   18  C9  UNL     1       3.559   0.792  -0.183  1.00  0.00     0.054 C 
HETATM   19  C13 UNL     1       4.577  -1.320   0.835  1.00  0.00     0.054 C 
HETATM   20  C10 UNL     1       4.942   1.280   0.185  1.00  0.00     0.006 C 
HETATM   21  C11 UNL     1       6.030   0.331  -0.225  1.00  0.00     0.001 C 
HETATM   22  C12 UNL     1       5.575  -1.108  -0.290  1.00  0.00     0.006 C 
ATOM     23  H2  UNL     1       2.179  -1.943   1.172  1.00  0.00     0.186 HD
ENDBRANCH  14  16
ENDBRANCH   7  13
TORSDOF 2
