REMARK  3 active torsions:
REMARK  status: ('A' for Active; 'I' for Inactive)
REMARK    1  A    between atoms: C2_2  and  C4_4 
REMARK    2  A    between atoms: C5_7  and  C6_8 
REMARK    3  A    between atoms: C18_24  and  O1_25 
ROOT
HETATM    1  C4  UNL     1       3.082  -0.769  -0.025  1.00  0.00     0.066 A 
HETATM    2  N1  UNL     1       1.850  -0.326   0.178  1.00  0.00    -0.344 N 
ATOM      3  H1  UNL     1       1.715   0.538   0.703  1.00  0.00     0.167 HD
HETATM    4  C5  UNL     1       0.769  -0.985  -0.289  1.00  0.00     0.105 A 
HETATM    5  N2  UNL     1       0.991  -2.110  -0.970  1.00  0.00    -0.286 N 
ATOM      6  H2  UNL     1       0.174  -2.606  -1.326  1.00  0.00     0.188 HD
HETATM    7  N3  UNL     1       2.175  -2.639  -1.225  1.00  0.00    -0.277 N 
ATOM      8  H3  UNL     1       2.279  -3.507  -1.751  1.00  0.00     0.189 HD
HETATM    9  C18 UNL     1       3.238  -1.958  -0.745  1.00  0.00     0.178 A 
ENDROOT
BRANCH   4  10
HETATM   10  C6  UNL     1      -0.625  -0.469  -0.142  1.00  0.00     0.021 C 
HETATM   11  C7  UNL     1      -0.812  -0.038   1.287  1.00  0.00     0.022 C 
HETATM   12  C8  UNL     1      -2.234   0.144   1.669  1.00  0.00    -0.013 C 
HETATM   13  C9  UNL     1      -2.946  -1.183   1.491  1.00  0.00     0.009 C 
HETATM   14  C13 UNL     1      -2.983   1.204   0.927  1.00  0.00     0.010 C 
HETATM   15  C10 UNL     1      -2.932  -1.491   0.016  1.00  0.00    -0.013 C 
HETATM   16  C11 UNL     1      -3.662  -0.482  -0.816  1.00  0.00     0.010 C 
HETATM   17  C17 UNL     1      -1.543  -1.605  -0.514  1.00  0.00     0.022 C 
HETATM   18  C12 UNL     1      -3.163   0.908  -0.539  1.00  0.00    -0.010 C 
HETATM   19  C14 UNL     1      -1.970   1.270  -1.391  1.00  0.00    -0.013 C 
HETATM   20  C15 UNL     1      -1.902   2.815  -1.385  1.00  0.00     0.010 C 
HETATM   21  C16 UNL     1      -0.683   0.728  -1.027  1.00  0.00     0.022 C 
ENDBRANCH   4  10
BRANCH   1  22
HETATM   22  C2  UNL     1       4.332  -0.124   0.426  1.00  0.00     0.032 C 
HETATM   23  C1  UNL     1       4.153   0.919   1.473  1.00  0.00     0.016 C 
HETATM   24  C3  UNL     1       4.949   0.509  -0.851  1.00  0.00     0.016 C 
ENDBRANCH   1  22
BRANCH   9  25
HETATM   25  O1  UNL     1       4.498  -2.503  -0.991  1.00  0.00    -0.344 OA
ATOM     26  H1  UNL     1       4.604  -3.311  -1.480  1.00  0.00     0.219 HD
ENDBRANCH   9  25
TORSDOF 3
