REMARK  3 active torsions:
REMARK  status: ('A' for Active; 'I' for Inactive)
REMARK    1  A    between atoms: C2_2  and  C5_5 
REMARK    2  A    between atoms: N1_6  and  N2_8 
REMARK    3  A    between atoms: N3_20  and  O1_22 
ROOT
HETATM    1  N2  UNL     1       0.497   0.539   0.554  1.00  0.00    -0.323 N 
HETATM    2  C6  UNL     1       0.595   1.534   1.599  1.00  0.00     0.143 C 
HETATM    3  C7  UNL     1      -0.525   1.201   2.595  1.00  0.00     0.022 C 
HETATM    4  C8  UNL     1      -1.816   1.409   1.841  1.00  0.00     0.013 C 
HETATM    5  C9  UNL     1      -1.971   0.431   0.699  1.00  0.00    -0.013 C 
HETATM    6  C10 UNL     1      -2.463  -0.869   1.293  1.00  0.00     0.012 C 
HETATM    7  C11 UNL     1      -3.190  -1.745   0.330  1.00  0.00     0.011 C 
HETATM    8  C12 UNL     1      -3.078  -1.321  -1.109  1.00  0.00     0.033 C 
HETATM    9  C13 UNL     1      -1.687  -1.512  -1.659  1.00  0.00     0.013 C 
HETATM   10  C14 UNL     1      -0.613  -1.161  -0.677  1.00  0.00     0.028 C 
HETATM   11  C15 UNL     1      -0.745   0.235  -0.115  1.00  0.00     0.111 C 
HETATM   12  C16 UNL     1      -3.523   0.083  -1.203  1.00  0.00     0.015 C 
HETATM   13  N3  UNL     1      -4.304   0.488  -2.144  1.00  0.00    -0.277 N 
ATOM     14  H3  UNL     1      -4.619  -0.189  -2.839  1.00  0.00     0.193 HD
HETATM   15  C17 UNL     1      -3.061   1.039  -0.197  1.00  0.00     0.066 C 
ENDROOT
BRANCH   1  16
HETATM   16  N1  UNL     1       1.670  -0.133   0.205  1.00  0.00    -0.317 N 
HETATM   17  C5  UNL     1       2.718   0.539  -0.102  1.00  0.00     0.088 C 
ATOM     18  H1  UNL     1       1.693  -1.153   0.194  1.00  0.00     0.185 HD
BRANCH  17  19
HETATM   19  C2  UNL     1       3.993  -0.127  -0.481  1.00  0.00    -0.018 C 
HETATM   20  C1  UNL     1       3.712  -1.321  -1.381  1.00  0.00     0.020 C 
HETATM   21  C3  UNL     1       4.750  -0.640   0.720  1.00  0.00     0.020 C 
HETATM   22  C4  UNL     1       4.838   0.839  -1.264  1.00  0.00     0.020 C 
ENDBRANCH  17  19
ENDBRANCH   1  16
BRANCH  13  23
HETATM   23  O1  UNL     1      -4.731   1.780  -2.256  1.00  0.00    -0.290 OA
ATOM     24  H1  UNL     1      -5.307   2.079  -2.950  1.00  0.00     0.244 HD
ENDBRANCH  13  23
TORSDOF 3
