REMARK  2 active torsions:
REMARK  status: ('A' for Active; 'I' for Inactive)
REMARK    1  A    between atoms: C9_10  and  S1_11 
REMARK    2  A    between atoms: S1_11  and  C10_12 
ROOT
HETATM    1  O1  UNL     1       0.524   1.148  -1.104  1.00  0.00    -0.297 OA
HETATM    2  C1  UNL     1       0.277   0.607  -0.025  1.00  0.00     0.141 C 
HETATM    3  C2  UNL     1      -0.475   1.331   0.995  1.00  0.00     0.079 C 
HETATM    4  C3  UNL     1      -1.923   0.928   1.144  1.00  0.00     0.007 C 
HETATM    5  C4  UNL     1      -2.723   1.076  -0.094  1.00  0.00     0.000 C 
HETATM    6  C5  UNL     1      -3.493  -0.113  -0.536  1.00  0.00     0.000 C 
HETATM    7  C6  UNL     1      -2.794  -1.434  -0.381  1.00  0.00     0.000 C 
HETATM    8  C7  UNL     1      -1.389  -1.398  -0.970  1.00  0.00     0.002 C 
HETATM    9  C8  UNL     1      -0.345  -1.778   0.017  1.00  0.00     0.023 C 
HETATM   10  C9  UNL     1       0.751  -0.773   0.215  1.00  0.00     0.123 C 
ENDROOT
BRANCH  10  11
HETATM   11  S1  UNL     1       2.117  -1.195  -0.909  1.00  0.00    -0.091 SA
BRANCH  11  12
HETATM   12  C10 UNL     1       3.568  -0.202  -0.526  1.00  0.00     0.130 A 
HETATM   13  N1  UNL     1       4.559  -0.457   0.314  1.00  0.00    -0.287 N 
HETATM   14  N2  UNL     1       5.512   0.366   0.457  1.00  0.00    -0.283 N 
ATOM     15  H1  UNL     1       4.555  -1.324   0.851  1.00  0.00     0.188 HD
HETATM   16  C11 UNL     1       5.503   1.497  -0.252  1.00  0.00     0.159 A 
ATOM     17  H2  UNL     1       6.275   0.167   1.104  1.00  0.00     0.188 HD
HETATM   18  S2  UNL     1       6.613   2.713  -0.245  1.00  0.00    -0.051 SA
HETATM   19  S3  UNL     1       4.049   1.330  -1.148  1.00  0.00    -0.033 SA
ENDBRANCH  11  12
ENDBRANCH  10  11
TORSDOF 2
