REMARK  2 active torsions:
REMARK  status: ('A' for Active; 'I' for Inactive)
REMARK    1  A    between atoms: C2_2  and  C4_4 
REMARK    2  A    between atoms: C5_5  and  C6_6 
ROOT
HETATM    1  C6  UNL     1       0.638  -0.620  -0.575  1.00  0.00    -0.021 C 
HETATM    2  C7  UNL     1      -0.336   0.117  -1.159  1.00  0.00     0.080 C 
HETATM    3  N1  UNL     1      -0.090   1.552  -1.312  1.00  0.00    -0.351 N 
ATOM      4  H1  UNL     1       0.669   1.915  -1.889  1.00  0.00     0.166 HD
HETATM    5  C8  UNL     1      -0.950   2.378  -0.627  1.00  0.00     0.180 C 
HETATM    6  N2  UNL     1      -2.027   1.899   0.194  1.00  0.00    -0.350 N 
HETATM    7  C9  UNL     1      -2.828   2.907   0.815  1.00  0.00     0.153 C 
HETATM    8  C10 UNL     1      -2.292   0.467   0.387  1.00  0.00     0.136 C 
HETATM    9  C11 UNL     1      -3.631   0.422   1.120  1.00  0.00     0.071 C 
HETATM   10  C12 UNL     1      -1.396  -0.381   1.139  1.00  0.00     0.062 C 
HETATM   11  C13 UNL     1      -0.983  -1.732   0.777  1.00  0.00     0.020 C 
HETATM   12  C14 UNL     1       0.119  -1.981  -0.251  1.00  0.00     0.009 C 
HETATM   13  C15 UNL     1       1.117  -2.954   0.261  1.00  0.00     0.022 C 
HETATM   14  C16 UNL     1      -0.441  -2.559  -1.524  1.00  0.00     0.250 C 
HETATM   15  N3  UNL     1      -1.658  -1.865  -1.815  1.00  0.00    -0.036 N 
ATOM     16  H31 UNL     1      -2.431  -2.256  -1.277  1.00  0.00     0.281 HD
ATOM     17  H32 UNL     1      -1.978  -2.083  -2.759  1.00  0.00     0.281 HD
HETATM   18  C17 UNL     1      -1.580  -0.461  -1.627  1.00  0.00     0.268 C 
HETATM   19  C18 UNL     1      -1.842   0.130  -3.033  1.00  0.00     0.086 C 
HETATM   20  O1  UNL     1      -2.654  -0.058  -0.876  1.00  0.00    -0.319 OA
ENDROOT
BRANCH   1  21
HETATM   21  C5  UNL     1       1.860  -0.003  -0.159  1.00  0.00     0.006 C 
HETATM   22  C4  UNL     1       2.927  -0.427   0.400  1.00  0.00    -0.022 C 
BRANCH  22  23
HETATM   23  C2  UNL     1       4.076   0.514   0.717  1.00  0.00    -0.000 C 
HETATM   24  C1  UNL     1       3.836   1.893   0.192  1.00  0.00     0.013 C 
HETATM   25  C3  UNL     1       4.366   0.541   2.190  1.00  0.00     0.013 C 
ENDBRANCH  22  23
ENDBRANCH   1  21
TORSDOF 2
