REMARK  1 active torsions:
REMARK  status: ('A' for Active; 'I' for Inactive)
REMARK    1  A    between atoms: N3_8  and  C4_10 
ROOT
HETATM    1  C4  UNL     1       0.419  -1.030  -0.778  1.00  0.00     0.098 A 
HETATM    2  S1  UNL     1      -0.202   0.236  -1.737  1.00  0.00    -0.075 SA
HETATM    3  C5  UNL     1      -1.812   0.208  -1.206  1.00  0.00    -0.007 A 
HETATM    4  C6  UNL     1      -1.830  -0.804  -0.277  1.00  0.00    -0.021 A 
HETATM    5  C7  UNL     1      -0.664  -1.448  -0.056  1.00  0.00     0.085 A 
HETATM    6  C8  UNL     1      -0.493  -2.556   0.900  1.00  0.00     0.103 C 
HETATM    7  N4  UNL     1      -0.370  -3.448   1.654  1.00  0.00    -0.191 NA
HETATM    8  C9  UNL     1      -3.185  -1.059   0.381  1.00  0.00     0.041 C 
HETATM    9  C10 UNL     1      -3.851   0.209   0.708  1.00  0.00     0.005 C 
HETATM   10  C11 UNL     1      -3.553   1.407  -0.103  1.00  0.00     0.005 C 
HETATM   11  C12 UNL     1      -3.092   0.970  -1.496  1.00  0.00     0.047 C 
ENDROOT
BRANCH   1  12
HETATM   12  N3  UNL     1       1.770  -1.527  -0.749  1.00  0.00    -0.328 N 
HETATM   13  C3  UNL     1       2.740  -0.745  -0.342  1.00  0.00     0.166 A 
HETATM   14  N2  UNL     1       2.672   0.521   0.076  1.00  0.00    -0.279 N 
HETATM   15  S2  UNL     1       4.411  -1.063  -0.205  1.00  0.00    -0.038 SA
HETATM   16  N1  UNL     1       3.741   1.106   0.430  1.00  0.00    -0.296 N 
ATOM     17  H2  UNL     1       1.777   1.009   0.110  1.00  0.00     0.189 HD
HETATM   18  C2  UNL     1       4.901   0.466   0.384  1.00  0.00     0.066 A 
ATOM     19  H1  UNL     1       3.708   2.073   0.752  1.00  0.00     0.187 HD
HETATM   20  C1  UNL     1       6.241   1.010   0.764  1.00  0.00     0.078 C 
ATOM     21  H3  UNL     1       1.971  -2.483  -1.044  1.00  0.00     0.168 HD
ENDBRANCH   1  12
TORSDOF 1
