REMARK  2 active torsions:
REMARK  status: ('A' for Active; 'I' for Inactive)
REMARK    1  A    between atoms: C3_6  and  N2_7 
REMARK    2  A    between atoms: C12_17  and  N3_18 
ROOT
HETATM    1  N2  UNL     1       1.418  -1.244  -0.410  1.00  0.00    -0.304 N 
HETATM    2  C4  UNL     1       0.343  -0.576  -1.038  1.00  0.00     0.166 C 
HETATM    3  C5  UNL     1      -0.944  -0.790  -0.307  1.00  0.00     0.083 C 
HETATM    4  C6  UNL     1      -2.037  -0.832  -1.428  1.00  0.00     0.035 C 
HETATM    5  C7  UNL     1      -3.353  -0.236  -0.921  1.00  0.00     0.002 C 
HETATM    6  C8  UNL     1      -3.431   1.127  -0.464  1.00  0.00     0.001 C 
HETATM    7  C9  UNL     1      -3.279   1.508   0.995  1.00  0.00     0.011 C 
HETATM    8  C10 UNL     1      -1.887   1.089   1.563  1.00  0.00     0.081 C 
HETATM    9  C11 UNL     1      -1.353   0.128   0.675  1.00  0.00    -0.160 C 
HETATM   10  S2  UNL     1      -0.678  -2.504   0.311  1.00  0.00    -0.070 SA
HETATM   11  C12 UNL     1       1.100  -2.443   0.243  1.00  0.00     0.143 C 
ENDROOT
BRANCH   1  12
HETATM   12  C3  UNL     1       2.758  -0.734  -0.438  1.00  0.00     0.170 A 
HETATM   13  S1  UNL     1       4.012  -1.021  -1.577  1.00  0.00     0.024 SA
HETATM   14  N1  UNL     1       5.206  -0.065  -0.874  1.00  0.00    -0.313 N 
HETATM   15  C2  UNL     1       4.589   0.431   0.204  1.00  0.00     0.085 A 
ATOM     16  H1  UNL     1       6.162   0.096  -1.191  1.00  0.00     0.175 HD
HETATM   17  C1  UNL     1       5.348   1.368   1.130  1.00  0.00     0.089 C 
HETATM   18  N4  UNL     1       3.359   0.088   0.412  1.00  0.00    -0.325 N 
ATOM     19  H4  UNL     1       2.855   0.447   1.223  1.00  0.00     0.169 HD
ENDBRANCH   1  12
BRANCH  11  20
HETATM   20  N3  UNL     1       1.887  -3.317   0.700  1.00  0.00    -0.380 N 
ATOM     21  H32 UNL     1       2.906  -3.282   0.661  1.00  0.00     0.158 HD
ATOM     22  H31 UNL     1       1.656  -4.189   1.175  1.00  0.00     0.158 HD
ENDBRANCH  11  20
TORSDOF 2
