REMARK  1 active torsions:
REMARK  status: ('A' for Active; 'I' for Inactive)
REMARK    1  A    between atoms: N1_2  and  C1_4 
ROOT
HETATM    1  C1  UNL     1       2.956   0.431  -0.319  1.00  0.00     0.103 A 
HETATM    2  C2  UNL     1       3.462  -0.848  -0.269  1.00  0.00     0.037 A 
HETATM    3  C3  UNL     1       2.611  -1.871   0.091  1.00  0.00     0.021 A 
HETATM    4  C4  UNL     1       1.312  -1.593   0.385  1.00  0.00     0.007 A 
HETATM    5  C5  UNL     1       0.778  -0.349   0.348  1.00  0.00    -0.034 A 
HETATM    6  C6  UNL     1       1.611   0.689  -0.011  1.00  0.00     0.045 A 
HETATM    7  C7  UNL     1      -0.608  -0.099   0.681  1.00  0.00     0.034 C 
HETATM    8  C8  UNL     1      -1.033   1.329   0.272  1.00  0.00     0.011 C 
HETATM    9  C9  UNL     1      -2.507   1.507   0.542  1.00  0.00     0.011 C 
HETATM   10  C10 UNL     1      -3.325   1.141  -0.710  1.00  0.00     0.074 C 
HETATM   11  S1  UNL     1      -2.501  -0.396  -1.300  1.00  0.00    -0.163 SA
HETATM   12  C11 UNL     1      -1.651  -1.024   0.208  1.00  0.00     0.065 C 
HETATM   13  C12 UNL     1      -1.345  -2.443  -0.021  1.00  0.00     0.095 C 
HETATM   14  S2  UNL     1       0.212  -2.924   0.835  1.00  0.00    -0.128 SA
ENDROOT
BRANCH   1  15
HETATM   15  N1  UNL     1       3.814   1.489  -0.687  1.00  0.00    -0.116 N 
HETATM   16  O1  UNL     1       5.009   1.321  -0.969  1.00  0.00    -0.532 OA
HETATM   17  O2  UNL     1       3.328   2.765  -0.741  1.00  0.00    -0.532 OA
ENDBRANCH   1  15
TORSDOF 1
