REMARK  3 active torsions:
REMARK  status: ('A' for Active; 'I' for Inactive)
REMARK    1  A    between atoms: C8_9  and  N2_10 
REMARK    2  A    between atoms: C11_15  and  N3_16 
REMARK    3  A    between atoms: N3_16  and  C12_18 
ROOT
HETATM    1  C1  UNL     1       3.408   1.427  -0.209  1.00  0.00     0.016 C 
HETATM    2  C2  UNL     1       2.556   0.237   0.247  1.00  0.00    -0.033 C 
HETATM    3  C3  UNL     1       3.381  -0.533   1.276  1.00  0.00     0.016 C 
HETATM    4  C4  UNL     1       2.268  -0.583  -0.969  1.00  0.00     0.031 C 
HETATM    5  C5  UNL     1       1.160  -1.574  -0.699  1.00  0.00     0.144 C 
HETATM    6  N1  UNL     1       0.053  -0.812  -0.128  1.00  0.00    -0.314 N 
HETATM    7  C6  UNL     1      -1.207  -0.719  -0.776  1.00  0.00     0.034 C 
HETATM    8  C7  UNL     1      -2.304  -0.467  -0.080  1.00  0.00     0.011 C 
HETATM    9  C8  UNL     1      -3.479  -0.415  -0.941  1.00  0.00     0.013 C 
HETATM   10  C9  UNL     1      -2.928  -0.209  -2.325  1.00  0.00     0.063 C 
HETATM   11  C10 UNL     1      -1.564  -0.864  -2.225  1.00  0.00     0.065 C 
HETATM   12  C11 UNL     1      -2.155  -0.290   1.382  1.00  0.00     0.133 C 
HETATM   13  C13 UNL     1      -0.860   0.437   1.666  1.00  0.00     0.143 C 
HETATM   14  N4  UNL     1       0.282  -0.180   1.077  1.00  0.00    -0.226 NA
HETATM   15  C14 UNL     1       1.341   0.787   0.923  1.00  0.00     0.122 C 
ENDROOT
BRANCH  12  16
HETATM   16  N3  UNL     1      -3.224   0.535   1.913  1.00  0.00    -0.380 N 
ATOM     17  H3  UNL     1      -4.016   0.139   2.419  1.00  0.00     0.160 HD
BRANCH  16  18
HETATM   18  C12 UNL     1      -3.108   1.801   1.703  1.00  0.00     0.166 C 
HETATM   19  S1  UNL     1      -2.903   3.363   2.075  1.00  0.00    -0.075 SA
ENDBRANCH  16  18
ENDBRANCH  12  16
BRANCH   9  20
HETATM   20  N2  UNL     1      -4.735  -0.520  -0.619  1.00  0.00    -0.402 N 
ATOM     21  H22 UNL     1      -5.109  -0.660   0.320  1.00  0.00     0.156 HD
ATOM     22  H21 UNL     1      -5.557  -0.484  -1.222  1.00  0.00     0.156 HD
ENDBRANCH   9  20
TORSDOF 3
