REMARK  1 active torsions:
REMARK  status: ('A' for Active; 'I' for Inactive)
REMARK    1  A    between atoms: C3_5  and  C4_6 
ROOT
HETATM    1  C4  UNL     1       1.139   0.297  -0.230  1.00  0.00     0.097 C 
HETATM    2  C5  UNL     1       0.187   1.419   0.188  1.00  0.00     0.072 C 
HETATM    3  C6  UNL     1      -1.069   0.728   0.569  1.00  0.00     0.129 C 
HETATM    4  O1  UNL     1      -2.207   1.478   0.398  1.00  0.00    -0.381 OA
HETATM    5  C7  UNL     1      -3.325   0.734   0.022  1.00  0.00     0.117 C 
HETATM    6  C8  UNL     1      -4.518   1.437   0.655  1.00  0.00     0.039 C 
HETATM    7  C9  UNL     1      -3.317  -0.666   0.558  1.00  0.00     0.032 C 
HETATM    8  C10 UNL     1      -2.049  -1.439   0.185  1.00  0.00     0.010 C 
HETATM    9  C11 UNL     1      -1.134  -0.413  -0.431  1.00  0.00     0.026 C 
HETATM   10  C12 UNL     1       0.252  -0.823  -0.732  1.00  0.00    -0.006 C 
HETATM   11  C13 UNL     1       0.646  -2.177  -0.269  1.00  0.00     0.019 C 
HETATM   12  C14 UNL     1       0.404  -0.854  -2.260  1.00  0.00     0.014 C 
HETATM   13  C15 UNL     1       0.330   0.505  -2.875  1.00  0.00     0.020 C 
HETATM   14  C16 UNL     1       1.540   1.278  -2.401  1.00  0.00     0.115 C 
HETATM   15  N2  UNL     1       2.093   0.748  -1.195  1.00  0.00    -0.406 N 
ATOM     16  H2  UNL     1       3.099   0.695  -1.034  1.00  0.00     0.154 HD
ENDROOT
BRANCH   1  17
HETATM   17  C3  UNL     1       1.897  -0.080   1.010  1.00  0.00     0.133 A 
HETATM   18  N1  UNL     1       3.152   0.322   1.286  1.00  0.00    -0.325 N 
HETATM   19  C2  UNL     1       3.519  -0.190   2.449  1.00  0.00     0.144 A 
ATOM     20  H1  UNL     1       3.726   0.923   0.695  1.00  0.00     0.169 HD
HETATM   21  C1  UNL     1       4.851   0.060   3.062  1.00  0.00     0.100 C 
HETATM   22  O2  UNL     1       2.504  -0.891   2.869  1.00  0.00    -0.223 OA
HETATM   23  N3  UNL     1       1.516  -0.846   2.034  1.00  0.00    -0.245 N 
ATOM     24  H3  UNL     1       0.614  -1.310   2.139  1.00  0.00     0.196 HD
ENDBRANCH   1  17
TORSDOF 1
