REMARK  2 active torsions:
REMARK  status: ('A' for Active; 'I' for Inactive)
REMARK    1  A    between atoms: C2_2  and  C3_3 
REMARK    2  A    between atoms: C9_12  and  O4_13 
ROOT
HETATM    1  C3  UNL     1       3.154  -0.614  -0.458  1.00  0.00     0.109 A 
HETATM    2  O1  UNL     1       2.560  -1.750  -0.298  1.00  0.00    -0.319 OA
HETATM    3  C4  UNL     1       1.258  -1.563  -0.021  1.00  0.00     0.158 A 
HETATM    4  C5  UNL     1       1.050  -0.248  -0.007  1.00  0.00     0.035 A 
HETATM    5  C6  UNL     1       2.258   0.416  -0.294  1.00  0.00     0.126 A 
HETATM    6  O2  UNL     1       2.277   1.699  -0.349  1.00  0.00    -0.271 OA
HETATM    7  C7  UNL     1       1.230   2.449  -0.160  1.00  0.00     0.302 A 
HETATM    8  O3  UNL     1       1.270   3.710  -0.222  1.00  0.00    -0.259 OA
HETATM    9  C8  UNL     1       0.007   1.880   0.124  1.00  0.00     0.085 A 
HETATM   10  C9  UNL     1      -1.115   2.655   0.277  1.00  0.00     0.085 A 
HETATM   11  C10 UNL     1      -2.333   2.075   0.515  1.00  0.00     0.075 A 
HETATM   12  C11 UNL     1      -2.386   0.715   0.599  1.00  0.00     0.085 A 
HETATM   13  C12 UNL     1      -1.255  -0.151   0.456  1.00  0.00     0.044 A 
HETATM   14  C13 UNL     1      -0.084   0.515   0.206  1.00  0.00     0.014 A 
HETATM   15  C14 UNL     1      -1.535  -1.521   0.738  1.00  0.00     0.109 C 
HETATM   16  F1  UNL     1      -1.000  -2.375   1.625  1.00  0.00    -0.210 F 
HETATM   17  C15 UNL     1      -2.623  -2.024  -0.204  1.00  0.00     0.098 C 
HETATM   18  C16 UNL     1      -3.862  -1.157  -0.006  1.00  0.00     0.182 C 
HETATM   19  O5  UNL     1      -3.573  -0.027   0.827  1.00  0.00    -0.350 OA
ENDROOT
BRANCH   1  20
HETATM   20  C2  UNL     1       4.575  -0.373  -0.772  1.00  0.00     0.030 C 
HETATM   21  C1  UNL     1       5.391  -1.401  -0.919  1.00  0.00     0.014 C 
ENDBRANCH   1  20
BRANCH  10  22
HETATM   22  O4  UNL     1      -0.945   4.033   0.178  1.00  0.00    -0.360 OA
ATOM     23  H4  UNL     1      -1.722   4.570   0.284  1.00  0.00     0.217 HD
ENDBRANCH  10  22
TORSDOF 2
