REMARK  3 active torsions:
REMARK  status: ('A' for Active; 'I' for Inactive)
REMARK    1  A    between atoms: C4_4  and  N1_5 
REMARK    2  A    between atoms: N1_5  and  O1_6 
REMARK    3  A    between atoms: C5_9  and  O2_10 
ROOT
HETATM    1  C1  UNL     1       0.890   1.768  -1.674  1.00  0.00     0.049 C 
HETATM    2  C2  UNL     1       1.404   0.777  -0.727  1.00  0.00    -0.049 A 
HETATM    3  C3  UNL     1       2.756   0.524  -0.667  1.00  0.00     0.043 A 
HETATM    4  C4  UNL     1       3.335  -0.389   0.203  1.00  0.00     0.110 A 
HETATM    5  C5  UNL     1       2.512  -1.085   1.058  1.00  0.00     0.113 A 
HETATM    6  C6  UNL     1       1.126  -0.851   1.024  1.00  0.00     0.084 A 
HETATM    7  C7  UNL     1       0.574   0.055   0.155  1.00  0.00     0.002 A 
HETATM    8  C8  UNL     1      -0.850   0.029   0.356  1.00  0.00     0.100 A 
HETATM    9  C9  UNL     1      -1.518  -0.731  -0.820  1.00  0.00     0.044 C 
HETATM   10  C10 UNL     1      -2.871  -1.179  -0.250  1.00  0.00     0.003 C 
HETATM   11  C11 UNL     1      -3.699   0.062  -0.071  1.00  0.00     0.000 C 
HETATM   12  C12 UNL     1      -2.928   1.330  -0.258  1.00  0.00     0.003 C 
HETATM   13  C13 UNL     1      -1.579   1.319   0.431  1.00  0.00     0.044 C 
HETATM   14  O3  UNL     1      -1.091  -0.829   1.421  1.00  0.00    -0.301 OA
HETATM   15  C14 UNL     1       0.051  -1.419   1.836  1.00  0.00     0.298 A 
HETATM   16  O4  UNL     1       0.234  -2.303   2.746  1.00  0.00    -0.259 OA
ENDROOT
BRANCH   5  17
HETATM   17  O2  UNL     1       3.010  -2.007   1.947  1.00  0.00    -0.357 OA
ATOM     18  H2  UNL     1       2.442  -2.488   2.537  1.00  0.00     0.217 HD
ENDBRANCH   5  17
BRANCH   4  19
HETATM   19  N1  UNL     1       4.726  -0.538   0.143  1.00  0.00    -0.160 N 
HETATM   20 CL1  UNL     1       5.593  -0.185   1.558  1.00  0.00     0.042 Cl
BRANCH  19  21
HETATM   21  O1  UNL     1       5.169  -1.534  -0.617  1.00  0.00    -0.272 OA
ATOM     22  H1  UNL     1       6.113  -1.635  -0.658  1.00  0.00     0.246 HD
ENDBRANCH  19  21
ENDBRANCH   4  19
TORSDOF 3
