REMARK  2 active torsions:
REMARK  status: ('A' for Active; 'I' for Inactive)
REMARK    1  A    between atoms: C3_3  and  S1_5 
REMARK    2  A    between atoms: S1_5  and  C4_6 
ROOT
HETATM    1  C4  UNL     1       1.223   0.919  -0.647  1.00  0.00     0.116 C 
HETATM    2  N1  UNL     1       0.699  -0.084  -0.109  1.00  0.00    -0.330 N 
ATOM      3  H1  UNL     1       1.262  -0.897   0.140  1.00  0.00     0.165 HD
HETATM    4  C5  UNL     1      -0.735  -0.060   0.152  1.00  0.00     0.214 C 
HETATM    5  C6  UNL     1      -1.479  -0.195  -1.130  1.00  0.00     0.093 C 
HETATM    6  C7  UNL     1      -1.961  -1.625  -1.165  1.00  0.00     0.021 C 
HETATM    7  C8  UNL     1      -3.323  -1.847  -0.551  1.00  0.00     0.010 C 
HETATM    8  C9  UNL     1      -2.685  -2.870   0.365  1.00  0.00     0.033 C 
HETATM    9  C10 UNL     1      -1.334  -2.212   0.057  1.00  0.00     0.130 C 
HETATM   10  O1  UNL     1      -0.991  -1.205   0.907  1.00  0.00    -0.338 OA
HETATM   11  N2  UNL     1      -1.129   1.060   0.934  1.00  0.00    -0.357 N 
ATOM     12  H2  UNL     1      -1.487   0.942   1.882  1.00  0.00     0.159 HD
HETATM   13  C11 UNL     1      -1.007   2.347   0.351  1.00  0.00     0.077 C 
HETATM   14  C12 UNL     1      -2.316   2.917  -0.150  1.00  0.00     0.050 C 
HETATM   15  C13 UNL     1      -0.394   3.273   1.403  1.00  0.00     0.050 C 
HETATM   16  S2  UNL     1       0.159   2.275  -1.040  1.00  0.00    -0.074 SA
ENDROOT
BRANCH   1  17
HETATM   17  S1  UNL     1       2.938   1.020  -1.016  1.00  0.00    -0.036 SA
BRANCH  17  18
HETATM   18  C3  UNL     1       3.847  -0.429  -0.553  1.00  0.00     0.155 C 
HETATM   19  C2  UNL     1       5.153  -0.460  -0.787  1.00  0.00     0.019 C 
HETATM   20  C1  UNL     1       5.889  -1.702  -0.382  1.00  0.00     0.039 C 
HETATM   21  F1  UNL     1       3.185  -1.452   0.020  1.00  0.00    -0.198 F 
ENDBRANCH  17  18
ENDBRANCH   1  17
TORSDOF 2
