REMARK  3 active torsions:
REMARK  status: ('A' for Active; 'I' for Inactive)
REMARK    1  A    between atoms: C2_2  and  O2_4 
REMARK    2  A    between atoms: O2_4  and  C3_5 
REMARK    3  A    between atoms: C9_13  and  O5_14 
ROOT
HETATM    1  C3  UNL     1       0.966  -0.028   0.150  1.00  0.00     0.311 C 
HETATM    2  O3  UNL     1      -0.151   0.005   0.941  1.00  0.00    -0.341 OA
HETATM    3  C4  UNL     1      -1.346   0.077   0.309  1.00  0.00     0.084 C 
HETATM    4  C5  UNL     1      -1.872  -1.229  -0.171  1.00  0.00     0.012 C 
HETATM    5  C6  UNL     1      -1.149  -2.290  -0.489  1.00  0.00     0.013 C 
HETATM    6  C7  UNL     1       0.301  -2.413  -0.440  1.00  0.00     0.002 A 
HETATM    7  C8  UNL     1       1.027  -3.576  -0.671  1.00  0.00     0.157 A 
HETATM    8  O4  UNL     1       2.309  -3.322  -0.544  1.00  0.00    -0.299 OA
HETATM    9  C9  UNL     1       2.492  -2.047  -0.238  1.00  0.00     0.195 A 
HETATM   10  C10 UNL     1       1.260  -1.454  -0.166  1.00  0.00     0.067 A 
HETATM   11  C11 UNL     1      -1.416   1.039  -0.839  1.00  0.00     0.044 C 
HETATM   12  C12 UNL     1      -2.914   1.253  -0.978  1.00  0.00     0.023 C 
HETATM   13  C13 UNL     1      -3.425   1.321   0.430  1.00  0.00     0.085 C 
HETATM   14 CL1  UNL     1      -4.907   0.320   0.566  1.00  0.00    -0.125 Cl
HETATM   15  C14 UNL     1      -2.361   0.678   1.288  1.00  0.00     0.062 C 
ENDROOT
BRANCH   1  16
HETATM   16  O2  UNL     1       2.056   0.619   0.750  1.00  0.00    -0.285 OA
BRANCH  16  17
HETATM   17  C2  UNL     1       2.713   1.707   0.167  1.00  0.00     0.257 C 
HETATM   18  C1  UNL     1       3.869   2.380   0.820  1.00  0.00     0.126 C 
HETATM   19  O1  UNL     1       2.272   2.089  -0.945  1.00  0.00    -0.266 OA
ENDBRANCH  16  17
ENDBRANCH   1  16
BRANCH   9  20
HETATM   20  O5  UNL     1       3.692  -1.385  -0.020  1.00  0.00    -0.340 OA
ATOM     21  H5  UNL     1       3.823  -0.470   0.200  1.00  0.00     0.220 HD
ENDBRANCH   9  20
TORSDOF 3
