REMARK  9 active torsions:
REMARK  status: ('A' for Active; 'I' for Inactive)
REMARK    1  A    between atoms: C3_3  and  C4_4 
REMARK    2  A    between atoms: C4_4  and  N1_5 
REMARK    3  A    between atoms: C4_4  and  C10_14 
REMARK       I    between atoms: N1_5  and  C5_7 
REMARK    4  A    between atoms: C5_7  and  O2_9 
REMARK    5  A    between atoms: O2_9  and  C6_10 
REMARK    6  A    between atoms: C6_10  and  C7_11 
REMARK       I    between atoms: C10_14  and  N2_16 
REMARK    7  A    between atoms: N2_16  and  C11_18 
REMARK    8  A    between atoms: C11_18  and  C12_20 
REMARK       I    between atoms: C12_20  and  N3_22 
REMARK    9  A    between atoms: N3_22  and  C13_24 
ROOT
HETATM    1  C1  UNL     1      -0.840   1.392   5.509  1.00  0.00     0.112 C 
HETATM    2  C2  UNL     1      -0.880   1.003   4.111  1.00  0.00    -0.108 C 
HETATM    3  C3  UNL     1      -0.893   0.672   2.945  1.00  0.00    -0.072 C 
ENDROOT
BRANCH   3   4
HETATM    4  C4  UNL     1      -0.885   0.259   1.527  1.00  0.00     0.258 C 
BRANCH   4   5
HETATM    5  N1  UNL     1      -1.735  -0.895   1.375  1.00  0.00    -0.313 N 
HETATM    6  C5  UNL     1      -2.854  -0.793   0.495  1.00  0.00     0.361 C 
HETATM    7  O1  UNL     1      -3.119   0.251  -0.143  1.00  0.00    -0.238 OA
ATOM      8  H1  UNL     1      -1.542  -1.759   1.881  1.00  0.00     0.166 HD
BRANCH   6   9
HETATM    9  O2  UNL     1      -3.668  -1.887   0.347  1.00  0.00    -0.304 OA
BRANCH   9  10
HETATM   10  C6  UNL     1      -4.797  -1.982  -0.458  1.00  0.00     0.184 C 
BRANCH  10  11
HETATM   11  C7  UNL     1      -4.541  -1.764  -1.934  1.00  0.00     0.002 C 
HETATM   12  C8  UNL     1      -3.557  -2.801  -2.431  1.00  0.00     0.011 C 
HETATM   13  C9  UNL     1      -5.837  -1.955  -2.687  1.00  0.00     0.011 C 
ENDBRANCH  10  11
ENDBRANCH   9  10
ENDBRANCH   6   9
ENDBRANCH   4   5
BRANCH   4  14
HETATM   14  C10 UNL     1       0.534  -0.055   1.202  1.00  0.00     0.254 C 
HETATM   15  O3  UNL     1       0.817  -1.233   0.847  1.00  0.00    -0.270 OA
HETATM   16  N2  UNL     1       1.551   0.906   1.277  1.00  0.00    -0.336 N 
ATOM     17  H2  UNL     1       1.328   1.860   1.562  1.00  0.00     0.164 HD
BRANCH  16  18
HETATM   18  C11 UNL     1       2.912   0.554   0.953  1.00  0.00     0.250 C 
HETATM   19  S1  UNL     1       3.954   0.806   2.416  1.00  0.00    -0.060 SA
BRANCH  18  20
HETATM   20  C12 UNL     1       3.391   1.367  -0.186  1.00  0.00     0.251 C 
HETATM   21  O4  UNL     1       2.638   2.201  -0.711  1.00  0.00    -0.270 OA
HETATM   22  N3  UNL     1       4.702   1.232  -0.716  1.00  0.00    -0.354 N 
ATOM     23  H3  UNL     1       5.332   0.550  -0.294  1.00  0.00     0.162 HD
BRANCH  22  24
HETATM   24  C13 UNL     1       5.180   2.021  -1.828  1.00  0.00     0.084 A 
HETATM   25  C14 UNL     1       6.154   1.384  -2.790  1.00  0.00     0.027 A 
HETATM   26  C15 UNL     1       6.597   2.464  -1.874  1.00  0.00     0.027 A 
ENDBRANCH  22  24
ENDBRANCH  18  20
ENDBRANCH  16  18
ENDBRANCH   4  14
ENDBRANCH   3   4
TORSDOF 9
