REMARK  2 active torsions:
REMARK  status: ('A' for Active; 'I' for Inactive)
REMARK    1  A    between atoms: O1_2  and  N1_3 
REMARK    2  A    between atoms: N1_3  and  C2_4 
ROOT
HETATM    1  C2  UNL     1       0.664  -0.004   0.341  1.00  0.00     0.204 C 
HETATM    2  C3  UNL     1      -0.034  -1.174  -0.202  1.00  0.00     0.044 C 
HETATM    3  C4  UNL     1      -1.434  -0.920  -0.677  1.00  0.00     0.004 C 
HETATM    4  C5  UNL     1      -2.315  -0.857   0.543  1.00  0.00     0.007 C 
HETATM    5  C6  UNL     1      -2.555   0.555   0.914  1.00  0.00     0.075 C 
HETATM    6  C7  UNL     1      -1.469   1.487   0.594  1.00  0.00     0.071 C 
HETATM    7  N2  UNL     1      -1.803   2.708   0.390  1.00  0.00    -0.389 N 
ATOM      8  H21 UNL     1      -1.048   3.356   0.167  1.00  0.00     0.157 HD
ATOM      9  H22 UNL     1      -2.798   2.917   0.471  1.00  0.00     0.157 HD
HETATM   10  N3  UNL     1      -0.085   1.196   0.481  1.00  0.00    -0.360 N 
ATOM     11  H3  UNL     1       0.501   2.031   0.506  1.00  0.00     0.162 HD
ENDROOT
BRANCH   1  12
HETATM   12  N1  UNL     1       1.830   0.293  -0.506  1.00  0.00    -0.076 NA
BRANCH  12  13
HETATM   13  O1  UNL     1       2.676  -0.750  -0.534  1.00  0.00    -0.289 OA
HETATM   14  C1  UNL     1       3.747  -0.593   0.334  1.00  0.00     0.231 C 
ENDBRANCH  12  13
ENDBRANCH   1  12
TORSDOF 2
