REMARK  1 active torsions:
REMARK  status: ('A' for Active; 'I' for Inactive)
REMARK    1  A    between atoms: N2_4  and  C2_6 
ROOT
HETATM    1  C2  UNL     1      -0.047  -0.643   0.012  1.00  0.00     0.285 C 
HETATM    2  C3  UNL     1      -0.525   0.768  -0.099  1.00  0.00     0.056 C 
HETATM    3  C4  UNL     1      -2.018   0.693   0.132  1.00  0.00     0.031 C 
HETATM    4  C5  UNL     1      -2.289  -0.792   0.018  1.00  0.00     0.235 C 
HETATM    5  N3  UNL     1      -1.138  -1.345   0.707  1.00  0.00    -0.054 N 
ATOM      6  H31 UNL     1      -1.145  -1.254   1.723  1.00  0.00     0.279 HD
ATOM      7  H32 UNL     1      -1.074  -2.363   0.714  1.00  0.00     0.279 HD
ENDROOT
BRANCH   1   8
HETATM    8  N2  UNL     1       1.150  -0.807   0.761  1.00  0.00    -0.345 N 
HETATM    9  C1  UNL     1       2.192  -0.071   0.591  1.00  0.00     0.162 C 
HETATM   10  N1  UNL     1       2.282   0.979  -0.344  1.00  0.00    -0.074 NA
HETATM   11  S1  UNL     1       3.608  -0.447   1.647  1.00  0.00    -0.017 SA
ATOM     12  H2  UNL     1       1.185  -1.543   1.467  1.00  0.00     0.163 HD
ENDBRANCH   1   8
TORSDOF 1
