REMARK  2 active torsions:
REMARK  status: ('A' for Active; 'I' for Inactive)
REMARK    1  A    between atoms: C3_5  and  N2_6 
REMARK    2  A    between atoms: N2_6  and  C4_8 
ROOT
HETATM    1  N2  UNL     1       0.058  -0.963  -0.005  1.00  0.00    -0.352 N 
ATOM      2  H2  UNL     1       0.254  -1.871   0.417  1.00  0.00     0.162 HD
ENDROOT
BRANCH   1   3
HETATM    3  C3  UNL     1      -1.278  -0.390   0.001  1.00  0.00     0.074 C 
HETATM    4  N1  UNL     1      -1.760   0.346  -0.928  1.00  0.00    -0.380 N 
HETATM    5  C2  UNL     1      -3.106   0.794  -0.694  1.00  0.00     0.121 C 
ATOM      6  H1  UNL     1      -1.233   0.594  -1.765  1.00  0.00     0.160 HD
HETATM    7  C1  UNL     1      -3.583  -0.175   0.385  1.00  0.00     0.027 C 
HETATM    8  C8  UNL     1      -2.287  -0.551   1.061  1.00  0.00     0.077 C 
ENDBRANCH   1   3
BRANCH   1   9
HETATM    9  C4  UNL     1       1.090  -0.185  -0.637  1.00  0.00     0.285 C 
HETATM   10  C5  UNL     1       2.393  -0.956  -0.535  1.00  0.00     0.056 C 
HETATM   11  C6  UNL     1       3.321  -0.002   0.223  1.00  0.00     0.031 C 
HETATM   12  C7  UNL     1       2.680   1.340  -0.131  1.00  0.00     0.235 C 
HETATM   13  N3  UNL     1       1.272   1.032   0.132  1.00  0.00    -0.054 N 
ATOM     14  H32 UNL     1       0.616   1.783  -0.082  1.00  0.00     0.279 HD
ATOM     15  H31 UNL     1       1.019   0.965   1.118  1.00  0.00     0.279 HD
ENDBRANCH   1   9
TORSDOF 2
