REMARK  1 active torsions:
REMARK  status: ('A' for Active; 'I' for Inactive)
REMARK    1  A    between atoms: N3_12  and  N4_13 
ROOT
HETATM    1  N1  UNL     1      -1.801  -0.281   2.285  1.00  0.00    -0.087 NA
HETATM    2  C1  UNL     1      -1.170  -0.311   1.024  1.00  0.00     0.094 C 
HETATM    3  N2  UNL     1      -0.249  -1.192   0.822  1.00  0.00    -0.363 N 
ATOM      4  H2  UNL     1      -0.003  -1.838   1.572  1.00  0.00     0.162 HD
HETATM    5  C2  UNL     1       0.443  -1.283  -0.448  1.00  0.00     0.176 C 
HETATM    6  C3  UNL     1      -0.433  -1.049  -1.633  1.00  0.00     0.043 C 
HETATM    7  C4  UNL     1      -1.710  -0.304  -1.321  1.00  0.00     0.015 C 
HETATM    8  C5  UNL     1      -1.483   0.598  -0.101  1.00  0.00     0.050 C 
HETATM    9  C6  UNL     1      -0.373   1.562  -0.409  1.00  0.00     0.013 C 
HETATM   10  C7  UNL     1       0.674   1.641   0.655  1.00  0.00     0.017 C 
HETATM   11  C8  UNL     1       1.620   0.484   0.677  1.00  0.00     0.115 C 
HETATM   12  N3  UNL     1       1.548  -0.346  -0.505  1.00  0.00    -0.215 NA
ENDROOT
BRANCH  12  13
HETATM   13  N4  UNL     1       2.736  -1.095  -0.640  1.00  0.00    -0.361 NA
ATOM     14  H42 UNL     1       2.685  -1.680  -1.474  1.00  0.00     0.171 HD
ATOM     15  H41 UNL     1       3.513  -0.436  -0.680  1.00  0.00     0.171 HD
ENDBRANCH  12  13
TORSDOF 1
