REMARK  2 active torsions:
REMARK  status: ('A' for Active; 'I' for Inactive)
REMARK    1  A    between atoms: C2_2  and  C3_3 
REMARK    2  A    between atoms: C3_3  and  C4_4 
ROOT
HETATM    1  C4  UNL     1      -0.171  -0.736  -0.032  1.00  0.00     0.067 C 
HETATM    2  C5  UNL     1      -0.203  -1.289  -1.442  1.00  0.00     0.037 C 
HETATM    3  N1  UNL     1      -0.572  -1.837   0.841  1.00  0.00    -0.118 NA
HETATM    4  N2  UNL     1      -1.690  -1.407   1.556  1.00  0.00    -0.038 NA
HETATM    5  N3  UNL     1      -2.361  -0.612   0.603  1.00  0.00    -0.118 NA
HETATM    6  C6  UNL     1      -1.243   0.259   0.192  1.00  0.00     0.064 C 
HETATM    7  C7  UNL     1      -1.020   1.212   1.314  1.00  0.00     0.037 C 
HETATM    8  C8  UNL     1      -1.730   0.927  -1.074  1.00  0.00     0.037 C 
ENDROOT
BRANCH   1   9
HETATM    9  C3  UNL     1       1.197  -0.327   0.347  1.00  0.00     0.030 C 
BRANCH   9  10
HETATM   10  C2  UNL     1       1.797   0.739  -0.531  1.00  0.00    -0.002 C 
HETATM   11  C1  UNL     1       3.184   1.091  -0.072  1.00  0.00     0.005 C 
ENDBRANCH   9  10
ENDBRANCH   1   9
TORSDOF 2
