REMARK  6 active torsions:
REMARK  status: ('A' for Active; 'I' for Inactive)
REMARK    1  A    between atoms: C1_2  and  C2_3 
REMARK       I    between atoms: C1_2  and  N2_18 
REMARK    2  A    between atoms: C2_3  and  C3_4 
REMARK    3  A    between atoms: N1_12  and  O2_13 
REMARK    4  A    between atoms: C11_15  and  O3_16 
REMARK    5  A    between atoms: N2_18  and  N3_19 
REMARK    6  A    between atoms: C12_21  and  C13_22 
ROOT
HETATM    1  O1  UNL     1      -1.232  -2.188  -1.777  1.00  0.00    -0.255 OA
HETATM    2  C1  UNL     1      -0.723  -1.040  -1.679  1.00  0.00     0.316 C 
HETATM    3  N2  UNL     1       0.497  -0.725  -1.219  1.00  0.00    -0.287 NA
ENDROOT
BRANCH   2   4
HETATM    4  C2  UNL     1      -1.641   0.108  -2.146  1.00  0.00     0.164 C 
BRANCH   4   5
HETATM    5  C3  UNL     1      -2.812   0.160  -1.253  1.00  0.00     0.006 A 
HETATM    6  C4  UNL     1      -4.064  -0.304  -1.574  1.00  0.00     0.026 A 
HETATM    7  C5  UNL     1      -5.118  -0.235  -0.674  1.00  0.00    -0.006 A 
HETATM    8  C6  UNL     1      -6.391  -0.705  -0.982  1.00  0.00     0.014 A 
HETATM    9  C10 UNL     1      -4.880   0.315   0.566  1.00  0.00     0.075 A 
HETATM   10  C7  UNL     1      -7.437  -0.642  -0.086  1.00  0.00     0.001 A 
HETATM   11  C8  UNL     1      -7.202  -0.087   1.170  1.00  0.00     0.002 A 
HETATM   12  C9  UNL     1      -5.928   0.376   1.458  1.00  0.00     0.033 A 
HETATM   13  N1  UNL     1      -3.641   0.780   0.898  1.00  0.00    -0.201 N 
HETATM   14  C11 UNL     1      -2.641   0.699   0.006  1.00  0.00     0.174 A 
BRANCH  13  15
HETATM   15  O2  UNL     1      -3.417   1.326   2.139  1.00  0.00    -0.280 OA
ATOM     16  H2  UNL     1      -2.554   1.650   2.370  1.00  0.00     0.245 HD
ENDBRANCH  13  15
BRANCH  14  17
HETATM   17  O3  UNL     1      -1.390   1.177   0.365  1.00  0.00    -0.344 OA
ATOM     18  H3  UNL     1      -1.272   1.548   1.232  1.00  0.00     0.219 HD
ENDBRANCH  14  17
ENDBRANCH   4   5
ENDBRANCH   2   4
BRANCH   3  19
HETATM   19  N3  UNL     1       1.696  -0.415  -0.765  1.00  0.00    -0.241 N 
HETATM   20  C12 UNL     1       2.263   0.651  -0.404  1.00  0.00     0.158 C 
ATOM     21  H3  UNL     1       2.307  -1.228  -0.688  1.00  0.00     0.201 HD
BRANCH  20  22
HETATM   22  C13 UNL     1       3.663   0.536   0.044  1.00  0.00     0.094 A 
HETATM   23  C14 UNL     1       4.387  -0.635   0.098  1.00  0.00     0.053 A 
HETATM   24  C15 UNL     1       5.653  -0.347   0.562  1.00  0.00     0.000 A 
HETATM   25  C16 UNL     1       6.784  -1.084   0.818  1.00  0.00     0.014 A 
HETATM   26  C20 UNL     1       5.621   1.032   0.771  1.00  0.00     0.086 A 
HETATM   27  C17 UNL     1       7.932  -0.496   1.289  1.00  0.00     0.001 A 
HETATM   28  C18 UNL     1       7.929   0.878   1.506  1.00  0.00     0.003 A 
HETATM   29  C19 UNL     1       6.786   1.589   1.243  1.00  0.00     0.038 A 
HETATM   30  O4  UNL     1       4.433   1.499   0.453  1.00  0.00    -0.308 OA
ENDBRANCH  20  22
ENDBRANCH   3  19
TORSDOF 6
