REMARK  8 active torsions:
REMARK  status: ('A' for Active; 'I' for Inactive)
REMARK    1  A    between atoms: C2_2  and  O2_4 
REMARK    2  A    between atoms: O2_4  and  C3_5 
REMARK    3  A    between atoms: C5_7  and  C6_8 
REMARK    4  A    between atoms: C6_8  and  O3_9 
REMARK    5  A    between atoms: C13_18  and  C14_19 
REMARK    6  A    between atoms: C16_21  and  C17_22 
REMARK    7  A    between atoms: C17_22  and  O5_24 
REMARK    8  A    between atoms: C17_22  and  C19_26 
ROOT
HETATM    1  C3  UNL     1      -1.723  -0.337  -1.357  1.00  0.00     0.164 C 
HETATM    2  C4  UNL     1      -3.078   0.262  -1.176  1.00  0.00     0.012 C 
HETATM    3  C5  UNL     1      -3.525   0.847  -0.076  1.00  0.00    -0.046 C 
HETATM    4  C7  UNL     1      -2.685   0.956   1.091  1.00  0.00     0.099 C 
HETATM    5  C8  UNL     1      -3.246   0.694   2.415  1.00  0.00     0.164 C 
HETATM    6  O4  UNL     1      -4.379   0.774   2.917  1.00  0.00    -0.292 OA
HETATM    7  C9  UNL     1      -2.047   0.248   3.174  1.00  0.00    -0.019 C 
HETATM    8  C10 UNL     1      -1.893   0.415   4.664  1.00  0.00     0.052 C 
HETATM    9  C11 UNL     1      -1.189  -0.298   2.332  1.00  0.00    -0.010 C 
HETATM   10  C12 UNL     1      -1.735  -0.257   1.010  1.00  0.00     0.035 C 
HETATM   11  C13 UNL     1      -0.866   0.053  -0.155  1.00  0.00     0.056 C 
ENDROOT
BRANCH  11  12
HETATM   12  C14 UNL     1       0.443  -0.588  -0.149  1.00  0.00    -0.077 C 
HETATM   13  C15 UNL     1       0.583  -2.091  -0.128  1.00  0.00     0.044 C 
HETATM   14  C16 UNL     1       1.542   0.159  -0.160  1.00  0.00     0.013 C 
BRANCH  14  15
HETATM   15  C17 UNL     1       2.911  -0.370  -0.155  1.00  0.00     0.075 C 
HETATM   16  C18 UNL     1       3.412  -0.765  -1.520  1.00  0.00     0.051 C 
BRANCH  15  17
HETATM   17  O5  UNL     1       3.097  -1.454   0.713  1.00  0.00    -0.386 OA
ATOM     18  H5  UNL     1       3.983  -1.796   0.716  1.00  0.00     0.211 HD
ENDBRANCH  15  17
BRANCH  15  19
HETATM   19  C19 UNL     1       3.840   0.712   0.358  1.00  0.00     0.015 C 
HETATM   20  C20 UNL     1       3.459   1.129   1.765  1.00  0.00     0.013 C 
HETATM   21  C21 UNL     1       5.284   0.299   0.259  1.00  0.00     0.013 C 
ENDBRANCH  15  19
ENDBRANCH  14  15
ENDBRANCH  11  12
BRANCH   1  22
HETATM   22  O2  UNL     1      -1.152   0.081  -2.574  1.00  0.00    -0.312 OA
BRANCH  22  23
HETATM   23  C2  UNL     1      -0.856  -0.866  -3.545  1.00  0.00     0.255 C 
HETATM   24  C1  UNL     1      -0.250  -0.499  -4.857  1.00  0.00     0.126 C 
HETATM   25  O1  UNL     1      -1.084  -2.091  -3.367  1.00  0.00    -0.266 OA
ENDBRANCH  22  23
ENDBRANCH   1  22
BRANCH   3  26
HETATM   26  C6  UNL     1      -4.902   1.387  -0.075  1.00  0.00     0.199 C 
BRANCH  26  27
HETATM   27  O3  UNL     1      -5.534   1.173  -1.319  1.00  0.00    -0.397 OA
ATOM     28  H3  UNL     1      -6.418   1.520  -1.318  1.00  0.00     0.209 HD
ENDBRANCH  26  27
ENDBRANCH   3  26
TORSDOF 8
