REMARK  6 active torsions:
REMARK  status: ('A' for Active; 'I' for Inactive)
REMARK    1  A    between atoms: O1_2  and  C2_3 
REMARK    2  A    between atoms: C3_4  and  O2_5 
REMARK    3  A    between atoms: C5_8  and  O3_9 
REMARK    4  A    between atoms: O3_9  and  C6_10 
REMARK    5  A    between atoms: C6_10  and  C7_12 
REMARK    6  A    between atoms: C16_21  and  O5_22 
ROOT
HETATM    1  C7  UNL     1       0.276  -1.088  -0.538  1.00  0.00     0.091 C 
HETATM    2  C8  UNL     1      -0.611  -1.262  -1.714  1.00  0.00     0.024 C 
HETATM    3  C9  UNL     1      -1.957  -1.707  -1.272  1.00  0.00    -0.043 C 
HETATM    4  C10 UNL     1      -1.882  -3.236  -1.115  1.00  0.00     0.015 C 
HETATM    5  C11 UNL     1      -2.882  -1.514  -2.486  1.00  0.00     0.015 C 
HETATM    6  C12 UNL     1      -2.507  -1.053  -0.066  1.00  0.00     0.001 C 
HETATM    7  C13 UNL     1      -3.711  -0.161  -0.400  1.00  0.00     0.013 C 
HETATM    8  C14 UNL     1      -3.669   0.916   0.649  1.00  0.00     0.017 C 
HETATM    9  C15 UNL     1      -4.343   0.315   1.894  1.00  0.00     0.013 C 
HETATM   10  C16 UNL     1      -2.226   1.119   0.994  1.00  0.00     0.069 C 
HETATM   11  C17 UNL     1      -1.480   2.092   0.185  1.00  0.00     0.017 C 
HETATM   12  C18 UNL     1      -2.176   2.693  -0.992  1.00  0.00     0.013 C 
HETATM   13  C19 UNL     1      -0.237   1.367  -0.336  1.00  0.00     0.013 C 
HETATM   14  C20 UNL     1      -0.251   0.024   0.318  1.00  0.00     0.007 C 
HETATM   15  C21 UNL     1      -1.625  -0.263   0.786  1.00  0.00     0.030 C 
ENDROOT
BRANCH   1  16
HETATM   16  C6  UNL     1       1.699  -0.874  -0.930  1.00  0.00     0.263 C 
HETATM   17  O4  UNL     1       1.977  -0.866  -2.157  1.00  0.00    -0.265 OA
BRANCH  16  18
HETATM   18  O3  UNL     1       2.718  -0.686  -0.039  1.00  0.00    -0.313 OA
BRANCH  18  19
HETATM   19  C5  UNL     1       4.068  -0.482  -0.395  1.00  0.00     0.165 C 
HETATM   20  C2  UNL     1       4.763   0.651   0.296  1.00  0.00     0.179 C 
HETATM   21  C3  UNL     1       5.935  -0.295   0.562  1.00  0.00     0.152 C 
HETATM   22  C4  UNL     1       4.977  -1.445   0.334  1.00  0.00     0.069 C 
BRANCH  20  23
HETATM   23  O1  UNL     1       4.209   1.091   1.472  1.00  0.00    -0.386 OA
HETATM   24  C1  UNL     1       4.138   2.488   1.425  1.00  0.00     0.202 C 
ENDBRANCH  20  23
BRANCH  21  25
HETATM   25  O2  UNL     1       6.438  -0.217   1.857  1.00  0.00    -0.393 OA
ATOM     26  H2  UNL     1       7.166  -0.805   2.022  1.00  0.00     0.210 HD
ENDBRANCH  21  25
ENDBRANCH  18  19
ENDBRANCH  16  18
ENDBRANCH   1  16
BRANCH  10  27
HETATM   27  O5  UNL     1      -2.203   1.488   2.362  1.00  0.00    -0.389 OA
ATOM     28  H5  UNL     1      -1.288   1.617   2.581  1.00  0.00     0.210 HD
ENDBRANCH  10  27
TORSDOF 6
