REMARK  17 active torsions:
REMARK  status: ('A' for Active; 'I' for Inactive)
REMARK    1  A    between atoms: O1_2  and  C2_3 
REMARK    2  A    between atoms: C2_3  and  C3_5 
REMARK    3  A    between atoms: C3_5  and  C4_6 
REMARK    4  A    between atoms: C3_5  and  N1_11 
REMARK    5  A    between atoms: C4_6  and  O3_7 
REMARK    6  A    between atoms: C4_6  and  O4_9 
REMARK    7  A    between atoms: N1_11  and  C5_12 
REMARK    8  A    between atoms: N1_11  and  S1_29 
REMARK    9  A    between atoms: C6_14  and  C7_15 
REMARK   10  A    between atoms: C7_15  and  O6_17 
REMARK   11  A    between atoms: C9_19  and  O7_20 
REMARK   12  A    between atoms: C11_24  and  N2_25 
REMARK   13  A    between atoms: N2_25  and  O9_27 
REMARK   14  A    between atoms: S1_29  and  C12_31 
REMARK   15  A    between atoms: C13_34  and  N4_35 
REMARK   16  A    between atoms: C14_40  and  N6_41 
REMARK   17  A    between atoms: N7_44  and  N8_45 
ROOT
HETATM    1  N1  UNL     1      -0.024   0.656  -0.275  1.00  0.00    -0.224 N 
ENDROOT
BRANCH   1   2
HETATM    2  C3  UNL     1       0.090   2.063  -0.347  1.00  0.00     0.157 C 
BRANCH   2   3
HETATM    3  C2  UNL     1      -0.932   2.722  -1.239  1.00  0.00     0.311 C 
HETATM    4  O2  UNL     1      -1.754   2.026  -1.841  1.00  0.00    -0.258 OA
BRANCH   3   5
HETATM    5  O1  UNL     1      -0.949   4.088  -1.381  1.00  0.00    -0.322 OA
HETATM    6  C1  UNL     1      -1.839   4.833  -2.171  1.00  0.00     0.213 C 
ENDBRANCH   3   5
ENDBRANCH   2   3
BRANCH   2   7
HETATM    7  C4  UNL     1       1.451   2.664  -0.495  1.00  0.00     0.312 C 
BRANCH   7   8
HETATM    8  O3  UNL     1       2.195   2.391   0.621  1.00  0.00    -0.366 OA
ATOM      9  H3  UNL     1       3.060   2.773   0.527  1.00  0.00     0.213 HD
ENDBRANCH   7   8
BRANCH   7  10
HETATM   10  O4  UNL     1       1.291   4.063  -0.592  1.00  0.00    -0.366 OA
ATOM     11  H4  UNL     1       2.156   4.445  -0.686  1.00  0.00     0.213 HD
ENDBRANCH   7  10
ENDBRANCH   2   7
ENDBRANCH   1   2
BRANCH   1  12
HETATM   12  C5  UNL     1      -1.095   0.065   0.451  1.00  0.00     0.196 A 
HETATM   13  O5  UNL     1      -2.094  -0.521  -0.221  1.00  0.00    -0.289 OA
HETATM   14  C6  UNL     1      -3.123  -1.089   0.301  1.00  0.00     0.121 A 
HETATM   15  C9  UNL     1      -3.224  -1.107   1.693  1.00  0.00     0.151 A 
HETATM   16  C10 UNL     1      -2.222  -0.516   2.437  1.00  0.00     0.240 A 
HETATM   17  O8  UNL     1      -2.299  -0.523   3.692  1.00  0.00    -0.283 OA
HETATM   18  C11 UNL     1      -1.130   0.085   1.821  1.00  0.00     0.159 A 
BRANCH  14  19
HETATM   19  C7  UNL     1      -4.196  -1.725  -0.537  1.00  0.00     0.174 C 
HETATM   20  C8  UNL     1      -3.797  -1.745  -2.005  1.00  0.00     0.046 C 
BRANCH  19  21
HETATM   21  O6  UNL     1      -4.447  -3.029  -0.116  1.00  0.00    -0.389 OA
ATOM     22  H6  UNL     1      -5.125  -3.431  -0.646  1.00  0.00     0.210 HD
ENDBRANCH  19  21
ENDBRANCH  14  19
BRANCH  15  23
HETATM   23  O7  UNL     1      -4.327  -1.716   2.232  1.00  0.00    -0.355 OA
ATOM     24  H7  UNL     1      -4.396  -1.728   3.179  1.00  0.00     0.218 HD
ENDBRANCH  15  23
BRANCH  18  25
HETATM   25  N2  UNL     1      -0.116   0.684   2.645  1.00  0.00    -0.261 N 
ATOM     26  H2  UNL     1       0.482   1.412   2.253  1.00  0.00     0.194 HD
BRANCH  25  27
HETATM   27  O9  UNL     1       0.047   0.331   3.830  1.00  0.00    -0.289 OA
ATOM     28  H9  UNL     1       0.717   0.727   4.375  1.00  0.00     0.244 HD
ENDBRANCH  25  27
ENDBRANCH  18  25
ENDBRANCH   1  12
BRANCH   1  29
HETATM   29  S1  UNL     1       1.194  -0.461  -1.319  1.00  0.00     0.198 S 
HETATM   30  O10 UNL     1       1.375  -0.101  -2.820  1.00  0.00    -0.226 OA
BRANCH  29  31
HETATM   31  C12 UNL     1       2.660  -1.067  -0.230  1.00  0.00     0.249 A 
HETATM   32  N3  UNL     1       3.856  -0.406  -0.299  1.00  0.00    -0.164 N 
HETATM   33  C13 UNL     1       4.929  -0.746   0.387  1.00  0.00     0.692 A 
ATOM     34  H3  UNL     1       3.921   0.400  -0.920  1.00  0.00     0.186 HD
HETATM   35  N5  UNL     1       4.847  -1.807   1.208  1.00  0.00    -0.021 N 
HETATM   36  C14 UNL     1       3.707  -2.500   1.327  1.00  0.00     0.713 A 
ATOM     37  H5  UNL     1       5.665  -2.089   1.748  1.00  0.00     0.203 HD
HETATM   38  N7  UNL     1       2.642  -2.116   0.608  1.00  0.00    -0.065 N 
BRANCH  33  39
HETATM   39  N4  UNL     1       6.065  -0.117   0.320  1.00  0.00    -0.234 N 
ATOM     40  H42 UNL     1       6.127   0.688  -0.303  1.00  0.00     0.174 HD
ATOM     41  H41 UNL     1       6.895  -0.380   0.851  1.00  0.00     0.174 HD
ENDBRANCH  33  39
BRANCH  36  42
HETATM   42  N6  UNL     1       3.658  -3.522   2.117  1.00  0.00    -0.232 N 
ATOM     43  H62 UNL     1       4.468  -3.814   2.664  1.00  0.00     0.174 HD
ATOM     44  H61 UNL     1       2.790  -4.050   2.208  1.00  0.00     0.174 HD
ENDBRANCH  36  42
BRANCH  38  45
HETATM   45  N8  UNL     1       1.438  -2.832   0.721  1.00  0.00    -0.322 N 
ATOM     46  H82 UNL     1       0.628  -2.540   0.174  1.00  0.00     0.178 HD
ATOM     47  H81 UNL     1       1.424  -3.629   1.358  1.00  0.00     0.178 HD
ENDBRANCH  38  45
ENDBRANCH  29  31
ENDBRANCH   1  29
TORSDOF 17
