REMARK  10 active torsions:
REMARK  status: ('A' for Active; 'I' for Inactive)
REMARK    1  A    between atoms: C1_2  and  C2_4 
REMARK    2  A    between atoms: C2_4  and  C3_5 
REMARK    3  A    between atoms: C2_4  and  C8_25 
REMARK       I    between atoms: C3_5  and  N2_7 
REMARK    4  A    between atoms: N2_7  and  N3_9 
REMARK    5  A    between atoms: N3_9  and  N4_11 
REMARK       I    between atoms: N4_11  and  C4_13 
REMARK       I    between atoms: C4_13  and  N5_15 
REMARK    6  A    between atoms: C6_19  and  O4_20 
REMARK    7  A    between atoms: C7_22  and  O5_23 
REMARK    8  A    between atoms: C9_28  and  N8_29 
REMARK    9  A    between atoms: N8_29  and  C10_31 
REMARK   10  A    between atoms: C13_40  and  N12_41 
REMARK       I    between atoms: N12_41  and  C14_43 
REMARK       I    between atoms: C14_43  and  N13_44 
REMARK       I    between atoms: C14_43  and  N14_48 
ROOT
HETATM    1  C8  UNL     1      -0.705   0.522  -0.083  1.00  0.00     0.135 A 
HETATM    2  N7  UNL     1      -1.576  -0.354  -0.658  1.00  0.00    -0.178 N 
ATOM      3  H7  UNL     1      -1.216  -1.112  -1.238  1.00  0.00     0.185 HD
HETATM    4  C9  UNL     1      -2.897  -0.236  -0.474  1.00  0.00     0.700 A 
HETATM    5  N11 UNL     1      -3.370   0.754   0.288  1.00  0.00    -0.022 N 
ATOM      6  H11 UNL     1      -4.378   0.835   0.423  1.00  0.00     0.203 HD
HETATM    7  C13 UNL     1      -2.549   1.660   0.891  1.00  0.00     0.697 A 
HETATM    8  N15 UNL     1      -1.234   1.498   0.672  1.00  0.00    -0.178 N 
ATOM      9  H15 UNL     1      -0.594   2.161   1.109  1.00  0.00     0.185 HD
ENDROOT
BRANCH   1  10
HETATM   10  C2  UNL     1       0.723   0.349  -0.344  1.00  0.00     0.237 C 
BRANCH  10  11
HETATM   11  C1  UNL     1       0.964   0.206  -1.794  1.00  0.00     0.251 C 
HETATM   12  N1  UNL     1       0.764   1.305  -2.659  1.00  0.00    -0.061 NA
HETATM   13  O1  UNL     1       1.348  -0.886  -2.263  1.00  0.00    -0.275 OA
ENDBRANCH  10  11
BRANCH  10  14
HETATM   14  C3  UNL     1       1.421  -0.661   0.451  1.00  0.00     0.258 C 
HETATM   15  O2  UNL     1       0.889  -1.254   1.381  1.00  0.00    -0.270 OA
HETATM   16  N2  UNL     1       2.799  -0.972   0.127  1.00  0.00    -0.240 N 
ATOM     17  H2  UNL     1       3.231  -0.488  -0.660  1.00  0.00     0.192 HD
BRANCH  16  18
HETATM   18  N3  UNL     1       3.536  -1.862   0.806  1.00  0.00    -0.149 N 
HETATM   19  S1  UNL     1       2.979  -3.531   0.713  1.00  0.00     0.089 SA
BRANCH  18  20
HETATM   20  N4  UNL     1       4.889  -1.746   0.762  1.00  0.00    -0.222 N 
HETATM   21  C4  UNL     1       5.631  -0.721   0.159  1.00  0.00     0.350 C 
HETATM   22  O3  UNL     1       5.174   0.287  -0.450  1.00  0.00    -0.244 OA
HETATM   23  N5  UNL     1       7.080  -0.817   0.232  1.00  0.00    -0.235 N 
HETATM   24  C5  UNL     1       7.830  -1.747   0.817  1.00  0.00     0.197 A 
HETATM   25  C7  UNL     1       7.931   0.046  -0.340  1.00  0.00     0.204 A 
HETATM   26  N6  UNL     1       9.150  -1.486   0.624  1.00  0.00    -0.329 N 
HETATM   27  C6  UNL     1       9.232  -0.359  -0.103  1.00  0.00     0.194 A 
ATOM     28  H6  UNL     1       9.933  -2.042   0.967  1.00  0.00     0.168 HD
ATOM     29  H4  UNL     1       5.423  -2.486   1.218  1.00  0.00     0.194 HD
BRANCH  27  30
HETATM   30  O4  UNL     1      10.399   0.297  -0.549  1.00  0.00    -0.343 OA
ATOM     31  H4  UNL     1      10.457   1.094  -1.063  1.00  0.00     0.219 HD
ENDBRANCH  27  30
BRANCH  25  32
HETATM   32  O5  UNL     1       7.596   1.195  -1.073  1.00  0.00    -0.342 OA
ATOM     33  H5  UNL     1       8.199   1.807  -1.478  1.00  0.00     0.219 HD
ENDBRANCH  25  32
ENDBRANCH  18  20
ENDBRANCH  16  18
ENDBRANCH  10  14
ENDBRANCH   1  10
BRANCH   4  34
HETATM   34  N8  UNL     1      -3.770  -1.156  -1.098  1.00  0.00    -0.161 N 
ATOM     35  H8  UNL     1      -3.379  -1.905  -1.670  1.00  0.00     0.187 HD
BRANCH  34  36
HETATM   36  C10 UNL     1      -5.209  -1.060  -0.944  1.00  0.00     0.190 A 
HETATM   37  N9  UNL     1      -5.924  -0.019  -1.174  1.00  0.00    -0.360 N 
HETATM   38  C11 UNL     1      -7.328  -0.208  -0.936  1.00  0.00     0.142 A 
ATOM     39  H9  UNL     1      -5.530   0.865  -1.497  1.00  0.00     0.162 HD
HETATM   40  C12 UNL     1      -7.445  -1.615  -0.427  1.00  0.00     0.142 A 
HETATM   41  N10 UNL     1      -6.064  -2.102  -0.516  1.00  0.00    -0.360 N 
ATOM     42  H10 UNL     1      -5.764  -3.053  -0.301  1.00  0.00     0.162 HD
ENDBRANCH  34  36
ENDBRANCH   4  34
BRANCH   7  43
HETATM   43  N12 UNL     1      -2.993   2.626   1.624  1.00  0.00    -0.173 N 
HETATM   44  C14 UNL     1      -4.398   2.832   1.868  1.00  0.00     0.494 C 
HETATM   45  N13 UNL     1      -5.027   3.493   0.733  1.00  0.00    -0.032 N 
HETATM   46  N14 UNL     1      -5.141   1.664   2.210  1.00  0.00    -0.032 N 
ATOM     47 3H13 UNL     1      -4.554   4.364   0.493  1.00  0.00     0.278 HD
ATOM     48 2H13 UNL     1      -4.865   2.986  -0.137  1.00  0.00     0.278 HD
ATOM     49 1H13 UNL     1      -6.022   3.639   0.906  1.00  0.00     0.278 HD
ATOM     50 3H14 UNL     1      -5.013   0.947   1.496  1.00  0.00     0.278 HD
ATOM     51 2H14 UNL     1      -4.712   1.200   3.011  1.00  0.00     0.278 HD
ATOM     52 1H14 UNL     1      -6.136   1.810   2.383  1.00  0.00     0.278 HD
ATOM     53  H12 UNL     1      -2.323   3.268   2.047  1.00  0.00     0.181 HD
ENDBRANCH   7  43
TORSDOF 10
