REMARK  17 active torsions:
REMARK  status: ('A' for Active; 'I' for Inactive)
REMARK    1  A    between atoms: N1_1  and  C1_4 
REMARK    2  A    between atoms: C3_11  and  S1_12 
REMARK    3  A    between atoms: S1_12  and  C4_13 
REMARK    4  A    between atoms: C4_13  and  C5_14 
REMARK    5  A    between atoms: C5_14  and  O2_15 
REMARK    6  A    between atoms: O2_15  and  N4_16 
REMARK    7  A    between atoms: N4_16  and  C6_17 
REMARK    8  A    between atoms: C8_19  and  O3_20 
REMARK    9  A    between atoms: C10_24  and  N6_25 
REMARK   10  A    between atoms: N6_25  and  C11_27 
REMARK   11  A    between atoms: C11_27  and  O4_28 
REMARK   12  A    between atoms: C11_27  and  C12_30 
REMARK   13  A    between atoms: C12_30  and  O5_31 
REMARK   14  A    between atoms: C12_30  and  O6_33 
REMARK   15  A    between atoms: O6_33  and  N7_34 
REMARK   16  A    between atoms: C13_37  and  O7_38 
REMARK   17  A    between atoms: N10_46  and  N11_47 
ROOT
HETATM    1  C6  UNL     1      -0.645  -0.494  -0.777  1.00  0.00     0.162 C 
HETATM    2  C7  UNL     1       0.773  -0.215  -0.275  1.00  0.00     0.072 A 
HETATM    3  C8  UNL     1       1.320   0.639   0.631  1.00  0.00     0.108 A 
HETATM    4  C9  UNL     1       2.694   0.574   0.895  1.00  0.00     0.109 A 
HETATM    5  N5  UNL     1       3.254   1.463   1.837  1.00  0.00    -0.097 NA
HETATM    6  C10 UNL     1       3.514  -0.354   0.242  1.00  0.00     0.093 A 
HETATM    7  C13 UNL     1       2.940  -1.203  -0.671  1.00  0.00     0.123 A 
HETATM    8  C14 UNL     1       1.581  -1.153  -0.945  1.00  0.00     0.103 A 
HETATM    9  N8  UNL     1       0.729  -1.903  -1.822  1.00  0.00    -0.272 N 
HETATM   10  N9  UNL     1       0.010  -2.744  -2.633  1.00  0.00    -0.309 N 
ATOM     11  H9  UNL     1       0.150  -3.718  -2.900  1.00  0.00     0.186 HD
HETATM   12  C15 UNL     1      -0.899  -1.891  -2.942  1.00  0.00     0.115 A 
HETATM   13  C16 UNL     1      -0.314  -0.880  -2.181  1.00  0.00     0.216 A 
ENDROOT
BRANCH   1  14
HETATM   14  N4  UNL     1      -1.595  -0.407  -0.080  1.00  0.00    -0.282 NA
BRANCH  14  15
HETATM   15  O2  UNL     1      -2.611  -0.317   0.657  1.00  0.00    -0.208 OA
BRANCH  15  16
HETATM   16  C5  UNL     1      -2.518  -0.216   2.074  1.00  0.00     0.228 C 
BRANCH  16  17
HETATM   17  C4  UNL     1      -3.785  -0.191   2.821  1.00  0.00     0.112 C 
BRANCH  17  18
HETATM   18  S1  UNL     1      -4.914   1.127   2.488  1.00  0.00    -0.089 SA
BRANCH  18  19
HETATM   19  C3  UNL     1      -5.683   1.146   0.907  1.00  0.00     0.187 A 
HETATM   20  N3  UNL     1      -5.149   1.816  -0.124  1.00  0.00    -0.286 N 
HETATM   21  C2  UNL     1      -5.782   1.819  -1.315  1.00  0.00     0.340 A 
ATOM     22  H3  UNL     1      -4.270   2.320  -0.009  1.00  0.00     0.172 HD
HETATM   23  N2  UNL     1      -6.942   1.153  -1.465  1.00  0.00    -0.140 N 
HETATM   24  O1  UNL     1      -5.289   2.446  -2.291  1.00  0.00    -0.246 OA
HETATM   25  C1  UNL     1      -7.498   0.472  -0.450  1.00  0.00     0.703 A 
ATOM     26  H2  UNL     1      -7.410   1.166  -2.371  1.00  0.00     0.189 HD
HETATM   27  N10 UNL     1      -6.845   0.483   0.737  1.00  0.00    -0.070 N 
BRANCH  25  28
HETATM   28  N1  UNL     1      -8.606  -0.144  -0.643  1.00  0.00    -0.233 N 
ATOM     29  H12 UNL     1      -9.098  -0.152  -1.537  1.00  0.00     0.174 HD
ATOM     30  H11 UNL     1      -9.028  -0.661   0.128  1.00  0.00     0.174 HD
ENDBRANCH  25  28
BRANCH  27  31
HETATM   31  N11 UNL     1      -7.373  -0.222   1.825  1.00  0.00    -0.322 N 
ATOM     32 2H11 UNL     1      -8.252  -0.723   1.696  1.00  0.00     0.178 HD
ATOM     33 1H11 UNL     1      -6.881  -0.214   2.719  1.00  0.00     0.178 HD
ENDBRANCH  27  31
ENDBRANCH  18  19
ENDBRANCH  17  18
ENDBRANCH  16  17
ENDBRANCH  15  16
ENDBRANCH  14  15
ENDBRANCH   1  14
BRANCH   3  34
HETATM   34  O3  UNL     1       0.521   1.556   1.277  1.00  0.00    -0.358 OA
ATOM     35  H3  UNL     1       0.903   2.153   1.910  1.00  0.00     0.217 HD
ENDBRANCH   3  34
BRANCH   7  36
HETATM   36  O7  UNL     1       3.673  -2.131  -1.343  1.00  0.00    -0.356 OA
ATOM     37  H7  UNL     1       3.276  -2.719  -1.975  1.00  0.00     0.218 HD
ENDBRANCH   7  36
BRANCH   6  38
HETATM   38  N6  UNL     1       4.866  -0.413   0.577  1.00  0.00    -0.356 N 
ATOM     39  H6  UNL     1       5.151   0.202   1.340  1.00  0.00     0.162 HD
BRANCH  38  40
HETATM   40  C11 UNL     1       5.910  -1.203   0.014  1.00  0.00     0.276 C 
BRANCH  40  41
HETATM   41  O4  UNL     1       7.023  -1.128   0.924  1.00  0.00    -0.372 OA
ATOM     42  H4  UNL     1       7.719  -1.655   0.549  1.00  0.00     0.212 HD
ENDBRANCH  40  41
BRANCH  40  43
HETATM   43  C12 UNL     1       6.414  -0.536  -1.241  1.00  0.00     0.334 C 
BRANCH  43  44
HETATM   44  O5  UNL     1       7.440  -1.286  -1.842  1.00  0.00    -0.365 OA
ATOM     45  H5  UNL     1       7.758  -0.866  -2.633  1.00  0.00     0.212 HD
ENDBRANCH  43  44
BRANCH  43  46
HETATM   46  O6  UNL     1       6.928   0.720  -0.851  1.00  0.00    -0.250 OA
BRANCH  46  47
HETATM   47  N7  UNL     1       6.477   1.724  -1.637  1.00  0.00    -0.308 N 
ATOM     48  H72 UNL     1       5.839   1.575  -2.418  1.00  0.00     0.184 HD
ATOM     49  H71 UNL     1       6.848   2.631  -1.355  1.00  0.00     0.184 HD
ENDBRANCH  46  47
ENDBRANCH  43  46
ENDBRANCH  40  43
ENDBRANCH  38  40
ENDBRANCH   6  38
TORSDOF 17
