REMARK  13 active torsions:
REMARK  status: ('A' for Active; 'I' for Inactive)
REMARK    1  A    between atoms: O1_2  and  C2_3 
REMARK    2  A    between atoms: C2_3  and  C3_4 
REMARK    3  A    between atoms: C3_4  and  N1_5 
REMARK    4  A    between atoms: C5_9  and  O2_10 
REMARK    5  A    between atoms: O2_10  and  C6_11 
REMARK    6  A    between atoms: C6_11  and  C7_12 
REMARK    7  A    between atoms: C7_12  and  N3_13 
REMARK    8  A    between atoms: N4_17  and  N5_18 
REMARK    9  A    between atoms: C11_25  and  O4_26 
REMARK   10  A    between atoms: O4_26  and  N6_27 
REMARK   11  A    between atoms: C12_32  and  O5_33 
REMARK   12  A    between atoms: C13_35  and  C14_36 
REMARK   13  A    between atoms: C15_39  and  N12_40 
ROOT
HETATM    1  N1  UNL     1       1.689   1.310   0.181  1.00  0.00    -0.310 N 
HETATM    2  C4  UNL     1       1.658   0.732  -1.025  1.00  0.00     0.129 A 
HETATM    3  N2  UNL     1       2.374   0.844  -2.182  1.00  0.00    -0.305 N 
ATOM      4  H2  UNL     1       3.134   1.524  -2.214  1.00  0.00     0.171 HD
HETATM    5  C5  UNL     1       2.134   0.110  -3.280  1.00  0.00     0.249 A 
HETATM    6  N4  UNL     1       1.105  -0.808  -3.227  1.00  0.00    -0.188 N 
HETATM    7  C8  UNL     1       0.379  -0.951  -2.121  1.00  0.00     0.284 A 
HETATM    8  O3  UNL     1      -0.571  -1.788  -2.056  1.00  0.00    -0.265 OA
HETATM    9  C9  UNL     1       0.628  -0.194  -0.997  1.00  0.00     0.096 A 
HETATM   10  C10 UNL     1       0.072  -0.130   0.254  1.00  0.00     0.074 A 
HETATM   11  C11 UNL     1      -0.931  -0.651   1.117  1.00  0.00     0.153 A 
HETATM   12  C13 UNL     1      -0.832  -0.016   2.310  1.00  0.00     0.159 A 
HETATM   13  O6  UNL     1       0.193   0.853   2.184  1.00  0.00    -0.286 OA
HETATM   14  C17 UNL     1       0.726   0.805   1.008  1.00  0.00     0.166 A 
ENDROOT
BRANCH  12  15
HETATM   15  C14 UNL     1      -1.591  -0.107   3.565  1.00  0.00     0.173 A 
HETATM   16  N11 UNL     1      -0.887   0.050   4.748  1.00  0.00    -0.173 N 
HETATM   17  C15 UNL     1      -1.470  -0.096   5.940  1.00  0.00     0.692 A 
ATOM     18  H11 UNL     1       0.105   0.284   4.707  1.00  0.00     0.186 HD
HETATM   19  N13 UNL     1      -2.786  -0.405   5.989  1.00  0.00    -0.023 N 
HETATM   20  C16 UNL     1      -3.493  -0.560   4.863  1.00  0.00     0.692 A 
ATOM     21  H13 UNL     1      -3.244  -0.521   6.893  1.00  0.00     0.203 HD
HETATM   22  N14 UNL     1      -4.730  -0.846   4.942  1.00  0.00    -0.234 N 
HETATM   23  N15 UNL     1      -2.873  -0.406   3.650  1.00  0.00    -0.173 N 
ATOM     24 2H14 UNL     1      -5.191  -0.961   5.844  1.00  0.00     0.174 HD
ATOM     25 1H14 UNL     1      -5.269  -0.964   4.084  1.00  0.00     0.174 HD
ATOM     26  H15 UNL     1      -3.415  -0.525   2.794  1.00  0.00     0.186 HD
BRANCH  17  27
HETATM   27  N12 UNL     1      -0.817   0.006   7.051  1.00  0.00    -0.234 N 
ATOM     28 2H12 UNL     1       0.175   0.239   7.014  1.00  0.00     0.174 HD
ATOM     29 1H12 UNL     1      -1.262  -0.106   7.962  1.00  0.00     0.174 HD
ENDBRANCH  17  27
ENDBRANCH  12  15
BRANCH  11  30
HETATM   30  O4  UNL     1      -1.744  -1.617   0.632  1.00  0.00    -0.214 OA
BRANCH  30  31
HETATM   31  N6  UNL     1      -2.681  -2.421   1.026  1.00  0.00    -0.131 N 
HETATM   32  N7  UNL     1      -2.160  -3.673   1.350  1.00  0.00     0.017 NA
HETATM   33  N8  UNL     1      -2.854  -4.690   0.708  1.00  0.00     0.003 NA
HETATM   34  N9  UNL     1      -3.042  -4.366  -0.621  1.00  0.00    -0.015 NA
HETATM   35  N10 UNL     1      -3.968  -3.318  -0.778  1.00  0.00    -0.072 NA
HETATM   36  C12 UNL     1      -3.947  -2.464   0.394  1.00  0.00     0.379 C 
BRANCH  36  37
HETATM   37  O5  UNL     1      -4.471  -1.235   0.032  1.00  0.00    -0.359 OA
ATOM     38  H5  UNL     1      -5.321  -1.264  -0.392  1.00  0.00     0.213 HD
ENDBRANCH  36  37
ENDBRANCH  30  31
ENDBRANCH  11  30
BRANCH   1  39
HETATM   39  C3  UNL     1       2.590   2.365   0.592  1.00  0.00     0.159 C 
BRANCH  39  40
HETATM   40  C2  UNL     1       1.972   3.731   0.352  1.00  0.00     0.187 C 
BRANCH  40  41
HETATM   41  O1  UNL     1       1.703   3.873  -1.003  1.00  0.00    -0.394 OA
HETATM   42  C1  UNL     1       1.079   5.124  -1.247  1.00  0.00     0.201 C 
ENDBRANCH  40  41
ENDBRANCH  39  40
ENDBRANCH   1  39
BRANCH   6  43
HETATM   43  N5  UNL     1       0.868  -1.575  -4.334  1.00  0.00    -0.332 N 
ATOM     44  H52 UNL     1       1.424  -1.465  -5.182  1.00  0.00     0.177 HD
ATOM     45  H51 UNL     1       0.107  -2.254  -4.295  1.00  0.00     0.177 HD
ENDBRANCH   6  43
BRANCH   5  46
HETATM   46  O2  UNL     1       2.802   0.188  -4.416  1.00  0.00    -0.319 OA
BRANCH  46  47
HETATM   47  C6  UNL     1       3.791   0.787  -5.085  1.00  0.00     0.206 C 
BRANCH  47  48
HETATM   48  C7  UNL     1       5.202   0.686  -4.508  1.00  0.00     0.256 C 
BRANCH  48  49
HETATM   49  N3  UNL     1       5.266   1.290  -3.187  1.00  0.00    -0.077 N 
ATOM     50  H33 UNL     1       4.931   2.253  -3.196  1.00  0.00     0.274 HD
ATOM     51  H32 UNL     1       4.571   0.891  -2.556  1.00  0.00     0.274 HD
ATOM     52  H31 UNL     1       6.208   1.223  -2.802  1.00  0.00     0.274 HD
ENDBRANCH  48  49
ENDBRANCH  47  48
ENDBRANCH  46  47
ENDBRANCH   5  46
TORSDOF 13
