REMARK  18 active torsions:
REMARK  status: ('A' for Active; 'I' for Inactive)
REMARK       I    between atoms: C2_2  and  N1_4 
REMARK    1  A    between atoms: N2_6  and  C4_7 
REMARK    2  A    between atoms: C4_7  and  N3_8 
REMARK    3  A    between atoms: N3_8  and  N4_10 
REMARK    4  A    between atoms: N5_12  and  C5_14 
REMARK    5  A    between atoms: C5_14  and  O2_15 
REMARK    6  A    between atoms: C5_14  and  N6_17 
REMARK    7  A    between atoms: C5_14  and  C7_25 
REMARK    8  A    between atoms: N6_17  and  O3_18 
REMARK    9  A    between atoms: O3_18  and  C6_19 
REMARK   10  A    between atoms: N8_21  and  O4_23 
REMARK   11  A    between atoms: N10_28  and  C8_29 
REMARK   12  A    between atoms: C8_29  and  O5_30 
REMARK   13  A    between atoms: C8_29  and  C9_32 
REMARK   14  A    between atoms: C9_32  and  O6_33 
REMARK   15  A    between atoms: C9_32  and  O7_35 
REMARK   16  A    between atoms: C10_37  and  O8_38 
REMARK   17  A    between atoms: C11_40  and  O9_41 
REMARK   18  A    between atoms: C13_44  and  C14_45 
ROOT
HETATM    1  C5  UNL     1      -2.230  -1.088  -2.038  1.00  0.00     0.298 C 
ENDROOT
BRANCH   1   2
HETATM    2  N5  UNL     1      -0.858  -1.476  -1.905  1.00  0.00    -0.266 N 
HETATM    3  N4  UNL     1      -0.205  -1.328  -0.829  1.00  0.00    -0.246 N 
ATOM      4  H4  UNL     1      -0.653  -0.918  -0.010  1.00  0.00     0.207 HD
ATOM      5  H5  UNL     1      -0.387  -1.889  -2.710  1.00  0.00     0.187 HD
BRANCH   3   6
HETATM    6  N3  UNL     1       1.134  -1.730  -0.771  1.00  0.00    -0.294 N 
ATOM      7  H3  UNL     1       1.374  -2.704  -0.584  1.00  0.00     0.183 HD
BRANCH   6   8
HETATM    8  C4  UNL     1       2.174  -0.745  -0.980  1.00  0.00     0.415 C 
BRANCH   8   9
HETATM    9  N2  UNL     1       2.127   0.318  -0.019  1.00  0.00     0.127 N 
HETATM   10  C3  UNL     1       3.221   1.235  -0.339  1.00  0.00     0.403 C 
HETATM   11  N1  UNL     1       4.401   0.531   0.189  1.00  0.00    -0.310 N 
HETATM   12  C2  UNL     1       5.711   0.795  -0.289  1.00  0.00     0.218 C 
HETATM   13  C13 UNL     1       3.972  -0.395   1.196  1.00  0.00     0.218 C 
HETATM   14  C1  UNL     1       5.970   1.799  -1.346  1.00  0.00     0.117 C 
HETATM   15  O1  UNL     1       6.727   0.190   0.158  1.00  0.00    -0.274 OA
HETATM   16  C12 UNL     1       2.486  -0.218   1.276  1.00  0.00     0.312 C 
BRANCH  13  17
HETATM   17  C14 UNL     1       4.615  -0.142   2.509  1.00  0.00     0.198 C 
HETATM   18  O10 UNL     1       4.345  -0.901   3.462  1.00  0.00    -0.646 OA
HETATM   19  O11 UNL     1       5.485   0.916   2.644  1.00  0.00    -0.646 OA
ENDBRANCH  13  17
ENDBRANCH   8   9
ENDBRANCH   6   8
ENDBRANCH   3   6
ENDBRANCH   1   2
BRANCH   1  20
HETATM   20  O2  UNL     1      -2.487  -0.753  -3.358  1.00  0.00    -0.350 OA
ATOM     21  H2  UNL     1      -3.397  -0.496  -3.446  1.00  0.00     0.214 HD
ENDBRANCH   1  20
BRANCH   1  22
HETATM   22  N6  UNL     1      -3.108  -2.214  -1.712  1.00  0.00    -0.022 NA
BRANCH  22  23
HETATM   23  O3  UNL     1      -2.911  -2.648  -0.427  1.00  0.00    -0.204 OA
BRANCH  23  24
HETATM   24  C6  UNL     1      -3.093  -3.964  -0.039  1.00  0.00     0.271 C 
HETATM   25  N7  UNL     1      -2.876  -4.302   1.317  1.00  0.00    -0.053 NA
HETATM   26  N8  UNL     1      -3.448  -4.829  -0.899  1.00  0.00    -0.234 N 
ATOM     27  H8  UNL     1      -3.572  -5.787  -0.572  1.00  0.00     0.197 HD
BRANCH  26  28
HETATM   28  O4  UNL     1      -3.677  -4.589  -2.215  1.00  0.00    -0.287 OA
ATOM     29  H4  UNL     1      -3.942  -5.236  -2.858  1.00  0.00     0.244 HD
ENDBRANCH  26  28
ENDBRANCH  23  24
ENDBRANCH  22  23
ENDBRANCH   1  22
BRANCH   1  30
HETATM   30  C7  UNL     1      -2.581   0.079  -1.160  1.00  0.00     0.140 A 
HETATM   31  N9  UNL     1      -3.473   0.141  -0.205  1.00  0.00    -0.285 N 
HETATM   32  N10 UNL     1      -3.534   1.348   0.388  1.00  0.00    -0.208 N 
ATOM     33  H9  UNL     1      -4.063  -0.646   0.063  1.00  0.00     0.187 HD
HETATM   34  C10 UNL     1      -2.616   2.070  -0.249  1.00  0.00     0.200 A 
HETATM   35  C11 UNL     1      -1.982   1.308  -1.244  1.00  0.00     0.149 A 
BRANCH  32  36
HETATM   36  C8  UNL     1      -4.409   1.685   1.447  1.00  0.00     0.196 C 
BRANCH  36  37
HETATM   37  O5  UNL     1      -5.201   0.710   1.843  1.00  0.00    -0.344 OA
ATOM     38  H5  UNL     1      -5.789   0.936   2.554  1.00  0.00     0.219 HD
ENDBRANCH  36  37
BRANCH  36  39
HETATM   39  C9  UNL     1      -4.601   2.907   2.184  1.00  0.00     0.332 C 
BRANCH  39  40
HETATM   40  O6  UNL     1      -3.871   4.012   1.909  1.00  0.00    -0.364 OA
ATOM     41  H6  UNL     1      -3.998   4.818   2.395  1.00  0.00     0.213 HD
ENDBRANCH  39  40
BRANCH  39  42
HETATM   42  O7  UNL     1      -4.451   2.664   3.571  1.00  0.00    -0.364 OA
ATOM     43  H7  UNL     1      -4.578   3.470   4.057  1.00  0.00     0.213 HD
ENDBRANCH  39  42
ENDBRANCH  36  39
ENDBRANCH  32  36
BRANCH  34  44
HETATM   44  O8  UNL     1      -2.238   3.387  -0.063  1.00  0.00    -0.343 OA
ATOM     45  H8  UNL     1      -1.582   3.903  -0.518  1.00  0.00     0.219 HD
ENDBRANCH  34  44
BRANCH  35  46
HETATM   46  O9  UNL     1      -0.980   1.729  -2.100  1.00  0.00    -0.355 OA
ATOM     47  H9  UNL     1      -0.565   2.581  -2.158  1.00  0.00     0.218 HD
ENDBRANCH  35  46
ENDBRANCH   1  30
TORSDOF 18
