REMARK  18 active torsions:
REMARK  status: ('A' for Active; 'I' for Inactive)
REMARK    1  A    between atoms: C2_2  and  O1_4 
REMARK    2  A    between atoms: C2_2  and  C4_6 
REMARK    3  A    between atoms: C5_7  and  O2_8 
REMARK    4  A    between atoms: C6_10  and  O3_11 
REMARK    5  A    between atoms: C7_13  and  O4_14 
REMARK    6  A    between atoms: N1_16  and  C8_17 
REMARK    7  A    between atoms: N3_22  and  O5_23 
REMARK    8  A    between atoms: N6_30  and  C12_31 
REMARK    9  A    between atoms: C12_31  and  C13_32 
REMARK   10  A    between atoms: C13_32  and  O6_33 
REMARK   11  A    between atoms: C13_32  and  C14_35 
REMARK   12  A    between atoms: C14_35  and  O7_36 
REMARK   13  A    between atoms: C14_35  and  C15_38 
REMARK   14  A    between atoms: C15_38  and  O8_39 
REMARK   15  A    between atoms: C15_38  and  C16_41 
REMARK   16  A    between atoms: C16_41  and  O9_42 
REMARK   17  A    between atoms: C16_41  and  C17_44 
REMARK   18  A    between atoms: C17_44  and  O10_45 
ROOT
HETATM    1  C8  UNL     1      -3.221  -1.117   0.546  1.00  0.00     0.721 A 
HETATM    2  N2  UNL     1      -2.302  -0.843  -0.381  1.00  0.00    -0.167 N 
ATOM      3  H2  UNL     1      -2.399  -1.034  -1.378  1.00  0.00     0.186 HD
HETATM    4  C9  UNL     1      -1.240  -0.284   0.191  1.00  0.00     0.210 A 
HETATM    5  C10 UNL     1      -1.541  -0.218   1.537  1.00  0.00     0.214 A 
HETATM    6  N3  UNL     1      -2.783  -0.741   1.756  1.00  0.00    -0.029 N 
HETATM    7  N4  UNL     1      -0.557   0.351   2.412  1.00  0.00    -0.266 N 
ATOM      8  H4  UNL     1      -0.731   0.424   3.414  1.00  0.00     0.189 HD
HETATM    9  N5  UNL     1       0.646   0.804   1.861  1.00  0.00    -0.127 N 
ATOM     10  H5  UNL     1       1.343   1.206   2.488  1.00  0.00     0.206 HD
HETATM   11  C11 UNL     1       0.921   0.740   0.603  1.00  0.00     0.739 A 
HETATM   12  N6  UNL     1       2.077   1.138  -0.181  1.00  0.00    -0.102 N 
HETATM   13  N7  UNL     1       1.746   0.799  -1.467  1.00  0.00    -0.210 N 
ATOM     14  H7  UNL     1       2.365   0.956  -2.262  1.00  0.00     0.210 HD
HETATM   15  N8  UNL     1       0.596   0.271  -1.576  1.00  0.00    -0.204 N 
ATOM     16  H8  UNL     1       0.175  -0.046  -2.449  1.00  0.00     0.211 HD
HETATM   17  N9  UNL     1      -0.003   0.191  -0.319  1.00  0.00    -0.047 N 
ENDROOT
BRANCH   1  18
HETATM   18  N1  UNL     1      -4.466  -1.740   0.308  1.00  0.00    -0.119 N 
HETATM   19  C4  UNL     1      -5.585  -1.190  -0.147  1.00  0.00     0.106 A 
HETATM   20  C5  UNL     1      -6.554  -2.223  -0.206  1.00  0.00     0.130 A 
HETATM   21  C6  UNL     1      -5.986  -3.369   0.215  1.00  0.00     0.153 A 
HETATM   22  C7  UNL     1      -4.686  -3.088   0.539  1.00  0.00     0.200 A 
BRANCH  19  23
HETATM   23  C2  UNL     1      -5.929   0.178  -0.555  1.00  0.00     0.097 C 
HETATM   24  C1  UNL     1      -4.869   1.203  -0.513  1.00  0.00     0.052 C 
HETATM   25  C3  UNL     1      -7.169   0.684   0.170  1.00  0.00     0.052 C 
BRANCH  23  26
HETATM   26  O1  UNL     1      -6.335   0.099  -1.925  1.00  0.00    -0.384 OA
ATOM     27  H1  UNL     1      -7.018  -0.561  -1.952  1.00  0.00     0.211 HD
ENDBRANCH  23  26
ENDBRANCH  19  23
BRANCH  20  28
HETATM   28  O2  UNL     1      -7.873  -2.046  -0.637  1.00  0.00    -0.356 OA
ATOM     29  H2  UNL     1      -8.522  -2.738  -0.677  1.00  0.00     0.218 HD
ENDBRANCH  20  28
BRANCH  21  30
HETATM   30  O3  UNL     1      -6.580  -4.615   0.313  1.00  0.00    -0.354 OA
ATOM     31  H3  UNL     1      -6.179  -5.424   0.610  1.00  0.00     0.218 HD
ENDBRANCH  21  30
BRANCH  22  32
HETATM   32  O4  UNL     1      -3.713  -3.935   1.015  1.00  0.00    -0.343 OA
ATOM     33  H4  UNL     1      -2.811  -3.740   1.240  1.00  0.00     0.219 HD
ENDBRANCH  22  32
ENDBRANCH   1  18
BRANCH   6  34
HETATM   34  O5  UNL     1      -3.354  -0.812   2.989  1.00  0.00    -0.268 OA
ATOM     35  H5  UNL     1      -3.044  -0.546   3.846  1.00  0.00     0.246 HD
ENDBRANCH   6  34
BRANCH  12  36
HETATM   36  C12 UNL     1       3.199   1.789   0.415  1.00  0.00     0.204 C 
BRANCH  36  37
HETATM   37  C13 UNL     1       4.430   1.954  -0.407  1.00  0.00     0.170 C 
BRANCH  37  38
HETATM   38  O6  UNL     1       5.358   2.773   0.324  1.00  0.00    -0.391 OA
ATOM     39  H6  UNL     1       6.143   2.878  -0.200  1.00  0.00     0.210 HD
ENDBRANCH  37  38
BRANCH  37  40
HETATM   40  C14 UNL     1       5.171   0.602  -0.437  1.00  0.00     0.179 C 
BRANCH  40  41
HETATM   41  O7  UNL     1       4.262  -0.289  -1.079  1.00  0.00    -0.390 OA
ATOM     42  H7  UNL     1       4.719  -1.122  -1.097  1.00  0.00     0.210 HD
ENDBRANCH  40  41
BRANCH  40  43
HETATM   43  C15 UNL     1       6.436   0.641  -1.205  1.00  0.00     0.180 C 
BRANCH  43  44
HETATM   44  O8  UNL     1       6.282   1.123  -2.500  1.00  0.00    -0.390 OA
ATOM     45  H8  UNL     1       7.094   1.148  -2.993  1.00  0.00     0.210 HD
ENDBRANCH  43  44
BRANCH  43  46
HETATM   46  C16 UNL     1       7.683   1.132  -0.610  1.00  0.00     0.173 C 
BRANCH  46  47
HETATM   47  O9  UNL     1       7.857   2.503  -0.586  1.00  0.00    -0.391 OA
ATOM     48  H9  UNL     1       8.665   2.821  -0.201  1.00  0.00     0.210 HD
ENDBRANCH  46  47
BRANCH  46  49
HETATM   49  C17 UNL     1       7.981   0.522   0.756  1.00  0.00     0.198 C 
BRANCH  49  50
HETATM   50  O10 UNL     1       7.789  -0.833   0.663  1.00  0.00    -0.398 OA
ATOM     51  H10 UNL     1       7.975  -1.213   1.514  1.00  0.00     0.209 HD
ENDBRANCH  49  50
ENDBRANCH  46  49
ENDBRANCH  43  46
ENDBRANCH  40  43
ENDBRANCH  37  40
ENDBRANCH  36  37
ENDBRANCH  12  36
TORSDOF 18
