REMARK  14 active torsions:
REMARK  status: ('A' for Active; 'I' for Inactive)
REMARK    1  A    between atoms: O1_2  and  C2_3 
REMARK    2  A    between atoms: C2_3  and  C3_5 
REMARK    3  A    between atoms: N2_12  and  C7_13 
REMARK    4  A    between atoms: C9_20  and  C10_21 
REMARK    5  A    between atoms: C10_21  and  O4_22 
REMARK    6  A    between atoms: C10_21  and  N5_24 
REMARK       I    between atoms: N5_24  and  C11_27 
REMARK       I    between atoms: C11_27  and  N6_28 
REMARK       I    between atoms: C11_27  and  N7_32 
REMARK    7  A    between atoms: C12_36  and  C13_37 
REMARK    8  A    between atoms: C13_37  and  O5_38 
REMARK    9  A    between atoms: C13_37  and  O6_40 
REMARK   10  A    between atoms: C15_44  and  N8_45 
REMARK   11  A    between atoms: C15_44  and  C16_49 
REMARK   12  A    between atoms: C16_49  and  O8_50 
REMARK   13  A    between atoms: C17_52  and  O9_53 
REMARK   14  A    between atoms: O9_53  and  O10_54 
ROOT
HETATM    1  C7  UNL     1       0.085  -0.218   0.176  1.00  0.00     0.229 A 
HETATM    2  N3  UNL     1      -0.475   0.520   1.183  1.00  0.00    -0.308 N 
ATOM      3  H3  UNL     1       0.068   0.718   2.023  1.00  0.00     0.171 HD
HETATM    4  C8  UNL     1      -1.727   0.986   1.081  1.00  0.00     0.115 A 
HETATM    5  N4  UNL     1      -2.237   1.676   2.035  1.00  0.00    -0.385 N 
ATOM      6  H41 UNL     1      -3.190   2.031   1.957  1.00  0.00     0.157 HD
ATOM      7  H42 UNL     1      -1.708   1.884   2.882  1.00  0.00     0.157 HD
HETATM    8  C9  UNL     1      -2.443   0.705  -0.064  1.00  0.00     0.076 A 
HETATM    9  C12 UNL     1      -1.847  -0.029  -1.034  1.00  0.00     0.125 A 
HETATM   10  O7  UNL     1      -0.625  -0.455  -0.878  1.00  0.00    -0.278 OA
ENDROOT
BRANCH   1  11
HETATM   11  N2  UNL     1       1.394  -0.712   0.267  1.00  0.00    -0.330 N 
HETATM   12  C6  UNL     1       2.383  -0.528   1.302  1.00  0.00     0.189 C 
HETATM   13  C5  UNL     1       3.523   0.291   0.889  1.00  0.00     0.057 A 
HETATM   14  C17 UNL     1       2.954  -1.953   1.468  1.00  0.00     0.231 C 
HETATM   15  C3  UNL     1       3.944   1.510   0.456  1.00  0.00     0.186 A 
HETATM   16  C4  UNL     1       4.686  -0.482   0.963  1.00  0.00     0.135 A 
HETATM   17  O3  UNL     1       5.240   1.447   0.294  1.00  0.00    -0.229 OA
HETATM   18  N1  UNL     1       5.687   0.299   0.583  1.00  0.00    -0.244 N 
ATOM     19  H1  UNL     1       6.666   0.018   0.531  1.00  0.00     0.196 HD
HETATM   20  N9  UNL     1       4.384  -1.793   1.409  1.00  0.00    -0.336 N 
ATOM     21  H9  UNL     1       5.070  -2.509   1.650  1.00  0.00     0.164 HD
HETATM   22  C15 UNL     1       2.483  -2.705   0.267  1.00  0.00     0.215 C 
HETATM   23  C14 UNL     1       2.041  -1.593  -0.685  1.00  0.00     0.173 C 
BRANCH  15  24
HETATM   24  C2  UNL     1       3.207   2.739   0.183  1.00  0.00     0.319 C 
HETATM   25  O2  UNL     1       1.971   2.861   0.325  1.00  0.00    -0.257 OA
BRANCH  24  26
HETATM   26  O1  UNL     1       3.865   3.896  -0.270  1.00  0.00    -0.321 OA
HETATM   27  C1  UNL     1       3.177   5.087  -0.539  1.00  0.00     0.213 C 
ENDBRANCH  24  26
ENDBRANCH  15  24
BRANCH  14  28
HETATM   28  O9  UNL     1       2.520  -2.476   2.664  1.00  0.00    -0.204 OA
BRANCH  28  29
HETATM   29  O10 UNL     1       2.929  -1.726   3.650  1.00  0.00    -0.248 OA
ATOM     30  H10 UNL     1       2.629  -2.087   4.476  1.00  0.00     0.253 HD
ENDBRANCH  28  29
ENDBRANCH  14  28
BRANCH  22  31
HETATM   31  N8  UNL     1       1.322  -3.477   0.679  1.00  0.00    -0.062 N 
ATOM     32  H83 UNL     1       0.592  -2.890   1.083  1.00  0.00     0.275 HD
ATOM     33  H82 UNL     1       0.795  -3.837  -0.117  1.00  0.00     0.275 HD
ATOM     34  H81 UNL     1       1.617  -4.219   1.314  1.00  0.00     0.275 HD
ENDBRANCH  22  31
BRANCH  22  35
HETATM   35  C16 UNL     1       3.474  -3.632  -0.348  1.00  0.00     0.210 C 
BRANCH  35  36
HETATM   36  O8  UNL     1       4.633  -3.007  -0.789  1.00  0.00    -0.398 OA
ATOM     37  H8  UNL     1       5.265  -3.598  -1.181  1.00  0.00     0.209 HD
ENDBRANCH  35  36
ENDBRANCH  22  35
ENDBRANCH   1  11
BRANCH   9  38
HETATM   38  C13 UNL     1      -2.521  -0.389  -2.307  1.00  0.00     0.313 C 
BRANCH  38  39
HETATM   39  O5  UNL     1      -1.549  -0.147  -3.311  1.00  0.00    -0.365 OA
ATOM     40  H5  UNL     1      -1.980  -0.377  -4.126  1.00  0.00     0.213 HD
ENDBRANCH  38  39
BRANCH  38  41
HETATM   41  O6  UNL     1      -2.771  -1.759  -2.355  1.00  0.00    -0.365 OA
ATOM     42  H6  UNL     1      -3.202  -1.989  -3.170  1.00  0.00     0.213 HD
ENDBRANCH  38  41
ENDBRANCH   9  38
BRANCH   8  43
HETATM   43  C10 UNL     1      -3.808   1.218  -0.149  1.00  0.00     0.364 C 
BRANCH  43  44
HETATM   44  O4  UNL     1      -3.789   2.550   0.284  1.00  0.00    -0.366 OA
ATOM     45  H4  UNL     1      -4.677   2.884   0.229  1.00  0.00     0.212 HD
ENDBRANCH  43  44
BRANCH  43  46
HETATM   46  N5  UNL     1      -4.579   0.497   0.878  1.00  0.00     0.009 N 
HETATM   47  C11 UNL     1      -5.930   0.976   0.827  1.00  0.00     0.578 C 
HETATM   48  N6  UNL     1      -6.765   0.307   1.814  1.00  0.00    -0.026 N 
HETATM   49  N7  UNL     1      -6.505   0.851  -0.490  1.00  0.00    -0.026 N 
ATOM     50  H63 UNL     1      -6.723  -0.707   1.714  1.00  0.00     0.278 HD
ATOM     51  H62 UNL     1      -6.374   0.388   2.753  1.00  0.00     0.278 HD
ATOM     52  H61 UNL     1      -7.726   0.648   1.778  1.00  0.00     0.278 HD
ATOM     53  H73 UNL     1      -5.924   1.311  -1.191  1.00  0.00     0.278 HD
ATOM     54  H72 UNL     1      -6.441  -0.108  -0.830  1.00  0.00     0.278 HD
ATOM     55  H71 UNL     1      -7.466   1.192  -0.526  1.00  0.00     0.278 HD
ATOM     56  H52 UNL     1      -4.514  -0.517   0.783  1.00  0.00     0.285 HD
ATOM     57  H51 UNL     1      -4.167   0.572   1.808  1.00  0.00     0.285 HD
ENDBRANCH  43  46
ENDBRANCH   8  43
TORSDOF 14
