REMARK  13 active torsions:
REMARK  status: ('A' for Active; 'I' for Inactive)
REMARK    1  A    between atoms: N1_2  and  C3_4 
REMARK    2  A    between atoms: C4_7  and  N3_8 
REMARK    3  A    between atoms: N5_17  and  N6_18 
REMARK    4  A    between atoms: N7_21  and  C8_22 
REMARK    5  A    between atoms: N8_25  and  C11_26 
REMARK    6  A    between atoms: C11_26  and  C12_27 
REMARK    7  A    between atoms: C12_27  and  C13_28 
REMARK    8  A    between atoms: C13_28  and  N9_29 
REMARK    9  A    between atoms: N9_29  and  C14_31 
REMARK   10  A    between atoms: C14_31  and  C15_35 
REMARK   11  A    between atoms: C15_35  and  C16_36 
REMARK   12  A    between atoms: C18_39  and  N11_40 
REMARK   13  A    between atoms: C20_46  and  O2_47 
ROOT
HETATM    1  C8  UNL     1      -1.680   0.093   0.502  1.00  0.00     0.144 C 
HETATM    2  C9  UNL     1      -0.959  -0.619   1.611  1.00  0.00     0.049 C 
HETATM    3  C10 UNL     1       0.336   0.195   1.795  1.00  0.00     0.119 C 
HETATM    4  N8  UNL     1       1.171  -0.109   0.663  1.00  0.00    -0.410 N 
HETATM    5  C19 UNL     1       0.517  -0.627  -0.481  1.00  0.00     0.150 C 
HETATM    6  C20 UNL     1      -0.863  -0.067  -0.747  1.00  0.00     0.160 C 
ENDROOT
BRANCH   1   7
HETATM    7  N7  UNL     1      -3.063  -0.238   0.372  1.00  0.00    -0.243 N 
HETATM    8  C5  UNL     1      -3.952   0.590  -0.225  1.00  0.00     0.159 A 
HETATM    9  N4  UNL     1      -3.852   1.821  -0.812  1.00  0.00    -0.174 N 
HETATM   10  C6  UNL     1      -5.193   0.018  -0.204  1.00  0.00     0.126 A 
HETATM   11  C4  UNL     1      -4.906   2.449  -1.344  1.00  0.00     0.679 A 
ATOM     12  H4  UNL     1      -2.940   2.277  -0.845  1.00  0.00     0.186 HD
HETATM   13  N2  UNL     1      -6.122   1.896  -1.329  1.00  0.00    -0.176 N 
HETATM   14  C3  UNL     1      -6.257   0.672  -0.753  1.00  0.00     0.138 A 
ATOM     15  H2  UNL     1      -6.924   2.377  -1.737  1.00  0.00     0.186 HD
HETATM   16  C7  UNL     1      -5.058  -1.187   0.419  1.00  0.00     0.299 A 
HETATM   17  O1  UNL     1      -5.980  -2.022   0.636  1.00  0.00    -0.264 OA
HETATM   18  N5  UNL     1      -3.737  -1.293   0.751  1.00  0.00    -0.159 N 
BRANCH  11  19
HETATM   19  N3  UNL     1      -4.739   3.605  -1.880  1.00  0.00    -0.234 N 
ATOM     20  H32 UNL     1      -5.543   4.084  -2.286  1.00  0.00     0.174 HD
ATOM     21  H31 UNL     1      -3.811   4.027  -1.891  1.00  0.00     0.174 HD
ENDBRANCH  11  19
BRANCH  14  22
HETATM   22  N1  UNL     1      -7.553   0.095  -0.743  1.00  0.00    -0.375 N 
HETATM   23  C1  UNL     1      -8.409   0.391   0.388  1.00  0.00     0.150 C 
HETATM   24  C2  UNL     1      -8.049  -0.764  -1.798  1.00  0.00     0.150 C 
ENDBRANCH  14  22
BRANCH  18  25
HETATM   25  N6  UNL     1      -3.228  -2.391   1.401  1.00  0.00    -0.321 N 
ATOM     26  H62 UNL     1      -3.754  -3.214   1.697  1.00  0.00     0.179 HD
ATOM     27  H61 UNL     1      -2.242  -2.470   1.649  1.00  0.00     0.179 HD
ENDBRANCH  18  25
ENDBRANCH   1   7
BRANCH   6  28
HETATM   28  O2  UNL     1      -1.489  -0.891  -1.683  1.00  0.00    -0.392 OA
ATOM     29  H2  UNL     1      -0.972  -0.992  -2.473  1.00  0.00     0.210 HD
ENDBRANCH   6  28
BRANCH   4  30
HETATM   30  C11 UNL     1       2.259   0.779   0.440  1.00  0.00     0.118 C 
BRANCH  30  31
HETATM   31  C12 UNL     1       3.293   0.650   1.539  1.00  0.00     0.039 C 
BRANCH  31  32
HETATM   32  C13 UNL     1       3.828  -0.777   1.568  1.00  0.00     0.122 C 
BRANCH  32  33
HETATM   33  N9  UNL     1       4.454  -1.105   0.313  1.00  0.00    -0.380 N 
ATOM     34  H9  UNL     1       4.005  -1.796  -0.289  1.00  0.00     0.160 HD
BRANCH  33  35
HETATM   35  C14 UNL     1       5.668  -0.511  -0.126  1.00  0.00     0.076 C 
HETATM   36  N10 UNL     1       5.693   0.011  -1.280  1.00  0.00    -0.389 N 
ATOM     37 2H10 UNL     1       4.853  -0.010  -1.859  1.00  0.00     0.157 HD
ATOM     38 1H10 UNL     1       6.564   0.437  -1.595  1.00  0.00     0.157 HD
BRANCH  35  39
HETATM   39  C15 UNL     1       6.888  -0.481   0.715  1.00  0.00     0.133 C 
BRANCH  39  40
HETATM   40  C16 UNL     1       7.994   0.216  -0.059  1.00  0.00     0.025 A 
HETATM   41  C17 UNL     1       8.131   1.574   0.041  1.00  0.00     0.078 A 
HETATM   42  S1  UNL     1       9.472   1.871  -0.973  1.00  0.00    -0.064 SA
HETATM   43  C18 UNL     1       9.776   0.268  -1.458  1.00  0.00     0.142 A 
HETATM   44  N12 UNL     1       8.834  -0.427  -0.820  1.00  0.00    -0.340 N 
ATOM     45  H12 UNL     1       8.772  -1.440  -0.925  1.00  0.00     0.168 HD
BRANCH  43  46
HETATM   46  N11 UNL     1      10.706  -0.207  -2.265  1.00  0.00    -0.380 N 
ATOM     47 2H11 UNL     1      11.427   0.325  -2.753  1.00  0.00     0.158 HD
ATOM     48 1H11 UNL     1      10.888  -1.168  -2.556  1.00  0.00     0.158 HD
ENDBRANCH  43  46
ENDBRANCH  39  40
ENDBRANCH  35  39
ENDBRANCH  33  35
ENDBRANCH  32  33
ENDBRANCH  31  32
ENDBRANCH  30  31
ENDBRANCH   4  30
TORSDOF 13
