REMARK  14 active torsions:
REMARK  status: ('A' for Active; 'I' for Inactive)
REMARK    1  A    between atoms: N1_1  and  C1_4 
REMARK    2  A    between atoms: C2_7  and  C3_8 
REMARK    3  A    between atoms: C3_8  and  O1_9 
REMARK    4  A    between atoms: C3_8  and  C4_11 
REMARK    5  A    between atoms: C4_11  and  C5_12 
REMARK    6  A    between atoms: C4_11  and  C11_28 
REMARK    7  A    between atoms: C5_12  and  C8_19 
REMARK    8  A    between atoms: N3_13  and  O2_15 
REMARK    9  A    between atoms: O2_15  and  C6_16 
REMARK   10  A    between atoms: C6_16  and  C7_17 
REMARK   11  A    between atoms: C10_22  and  N4_23 
REMARK   12  A    between atoms: C16_35  and  N7_36 
REMARK   13  A    between atoms: N7_36  and  O4_37 
REMARK   14  A    between atoms: C19_45  and  N10_46 
ROOT
HETATM    1  C4  UNL     1      -0.709  -0.636  -0.138  1.00  0.00     0.020 C 
ENDROOT
BRANCH   1   2
HETATM    2  C3  UNL     1      -1.670   0.296   0.446  1.00  0.00     0.223 C 
BRANCH   2   3
HETATM    3  C2  UNL     1      -1.407   1.642   0.879  1.00  0.00     0.146 A 
HETATM    4  N2  UNL     1      -1.930   2.738   0.262  1.00  0.00    -0.177 N 
HETATM    5  C1  UNL     1      -1.727   3.983   0.691  1.00  0.00     0.691 A 
ATOM      6  H2  UNL     1      -2.505   2.599  -0.569  1.00  0.00     0.185 HD
HETATM    7  N11 UNL     1      -0.978   4.212   1.781  1.00  0.00    -0.023 N 
HETATM    8  C19 UNL     1      -0.430   3.160   2.438  1.00  0.00     0.691 A 
ATOM      9  H11 UNL     1      -0.823   5.165   2.111  1.00  0.00     0.203 HD
HETATM   10  N9  UNL     1      -0.648   1.909   1.985  1.00  0.00    -0.177 N 
ATOM     11  H9  UNL     1      -0.229   1.128   2.489  1.00  0.00     0.185 HD
BRANCH   5  12
HETATM   12  N1  UNL     1      -2.250   5.016   0.063  1.00  0.00    -0.234 N 
ATOM     13  H12 UNL     1      -2.819   4.842  -0.765  1.00  0.00     0.174 HD
ATOM     14  H11 UNL     1      -2.095   5.969   0.391  1.00  0.00     0.174 HD
ENDBRANCH   5  12
BRANCH   8  15
HETATM   15  N10 UNL     1       0.283   3.417   3.479  1.00  0.00    -0.234 N 
ATOM     16 2H10 UNL     1       0.695   2.626   3.973  1.00  0.00     0.174 HD
ATOM     17 1H10 UNL     1       0.448   4.363   3.822  1.00  0.00     0.174 HD
ENDBRANCH   8  15
ENDBRANCH   2   3
BRANCH   2  18
HETATM   18  O1  UNL     1      -2.694   0.468  -0.593  1.00  0.00    -0.383 OA
ATOM     19  H1  UNL     1      -2.868  -0.421  -0.879  1.00  0.00     0.211 HD
ENDBRANCH   2  18
ENDBRANCH   1   2
BRANCH   1  20
HETATM   20  C5  UNL     1      -0.987  -2.045   0.327  1.00  0.00     0.091 C 
HETATM   21  N3  UNL     1      -0.083  -2.927   0.172  1.00  0.00    -0.264 N 
ATOM     22  H3  UNL     1       0.792  -2.634  -0.263  1.00  0.00     0.194 HD
BRANCH  21  23
HETATM   23  O2  UNL     1      -0.194  -4.223   0.540  1.00  0.00    -0.273 OA
BRANCH  23  24
HETATM   24  C6  UNL     1       0.933  -5.077   0.357  1.00  0.00     0.270 C 
BRANCH  24  25
HETATM   25  C7  UNL     1       0.673  -6.442   0.833  1.00  0.00     0.259 C 
HETATM   26  O3  UNL     1       1.577  -7.277   0.739  1.00  0.00    -0.304 OA
ENDBRANCH  24  25
ENDBRANCH  23  24
ENDBRANCH  21  23
BRANCH  20  27
HETATM   27  C8  UNL     1      -2.213  -2.449   1.064  1.00  0.00     0.070 A 
HETATM   28  C9  UNL     1      -2.018  -3.266   2.191  1.00  0.00     0.085 A 
HETATM   29  S1  UNL     1      -3.613  -3.655   2.643  1.00  0.00    -0.064 SA
HETATM   30  C10 UNL     1      -4.440  -2.806   1.437  1.00  0.00     0.142 A 
HETATM   31  N5  UNL     1      -3.446  -2.248   0.724  1.00  0.00    -0.335 N 
ATOM     32  H5  UNL     1      -3.663  -1.666  -0.085  1.00  0.00     0.168 HD
BRANCH  30  33
HETATM   33  N4  UNL     1      -5.736  -2.711   1.247  1.00  0.00    -0.380 N 
ATOM     34  H42 UNL     1      -6.490  -3.134   1.788  1.00  0.00     0.158 HD
ATOM     35  H41 UNL     1      -6.235  -2.199   0.520  1.00  0.00     0.158 HD
ENDBRANCH  30  33
ENDBRANCH  20  27
ENDBRANCH   1  20
BRANCH   1  36
HETATM   36  C11 UNL     1       0.379  -0.417  -0.816  1.00  0.00    -0.008 A 
HETATM   37  C12 UNL     1       1.185  -1.394  -1.327  1.00  0.00     0.101 A 
HETATM   38  N6  UNL     1       2.381  -1.177  -1.971  1.00  0.00    -0.351 N 
HETATM   39  C13 UNL     1       2.851   0.065  -2.148  1.00  0.00     0.114 A 
ATOM     40  H6  UNL     1       2.917  -1.972  -2.318  1.00  0.00     0.166 HD
HETATM   41  C14 UNL     1       2.098   1.092  -1.667  1.00  0.00     0.048 A 
HETATM   42  N8  UNL     1       3.962   0.277  -2.749  1.00  0.00    -0.375 N 
HETATM   43  C15 UNL     1       0.875   0.872  -1.009  1.00  0.00     0.032 A 
HETATM   44  C16 UNL     1       2.624   2.471  -1.823  1.00  0.00     0.132 C 
HETATM   45  C17 UNL     1       4.131   2.605  -2.027  1.00  0.00     0.096 C 
HETATM   46  C18 UNL     1       4.584   1.535  -3.011  1.00  0.00     0.128 C 
ATOM     47  H8  UNL     1       4.461  -0.549  -3.079  1.00  0.00     0.161 HD
BRANCH  44  48
HETATM   48  N7  UNL     1       1.946   3.433  -1.787  1.00  0.00    -0.287 NA
BRANCH  48  49
HETATM   49  O4  UNL     1       0.984   4.229  -1.702  1.00  0.00    -0.218 OA
ATOM     50  H4  UNL     1       0.437   5.005  -1.673  1.00  0.00     0.261 HD
ENDBRANCH  48  49
ENDBRANCH  44  48
ENDBRANCH   1  36
TORSDOF 14
