REMARK  1 active torsions:
REMARK  status: ('A' for Active; 'I' for Inactive)
REMARK    1  A    between atoms: O1_2  and  C2_3 
ROOT
HETATM    1  C2  UNL     1       0.377  -2.606   0.258  1.00  0.00     0.107 A 
HETATM    2  C3  UNL     1       1.672  -2.256   0.016  1.00  0.00     0.078 A 
HETATM    3  C4  UNL     1       2.000  -0.919  -0.051  1.00  0.00     0.096 A 
HETATM    4  O2  UNL     1       3.283  -0.616  -0.295  1.00  0.00    -0.309 OA
HETATM    5  C5  UNL     1       3.731   0.612  -0.389  1.00  0.00     0.093 A 
HETATM    6  C6  UNL     1       5.126   0.888  -0.654  1.00  0.00     0.036 A 
HETATM    7  C7  UNL     1       5.595   2.161  -0.752  1.00  0.00     0.017 A 
HETATM    8  C8  UNL     1       6.952   2.370  -1.010  1.00  0.00     0.001 A 
HETATM    9  C9  UNL     1       7.848   1.349  -1.170  1.00  0.00     0.003 A 
HETATM   10  C10 UNL     1       7.383   0.060  -1.072  1.00  0.00     0.043 A 
HETATM   11  C11 UNL     1       6.046  -0.153  -0.819  1.00  0.00     0.129 A 
HETATM   12  F1  UNL     1       5.559  -1.405  -0.718  1.00  0.00    -0.205 F 
HETATM   13  C12 UNL     1       2.802   1.605  -0.223  1.00  0.00     0.094 A 
HETATM   14  C13 UNL     1       1.496   1.329   0.026  1.00  0.00     0.190 A 
HETATM   15  O3  UNL     1       0.624   2.242   0.181  1.00  0.00    -0.287 OA
HETATM   16  C14 UNL     1       1.027   0.033   0.126  1.00  0.00     0.084 A 
HETATM   17  C15 UNL     1      -0.316  -0.300   0.379  1.00  0.00     0.122 A 
HETATM   18  C16 UNL     1      -0.646  -1.664   0.443  1.00  0.00     0.139 A 
HETATM   19  O4  UNL     1      -1.894  -2.138   0.668  1.00  0.00    -0.320 OA
HETATM   20  C17 UNL     1      -3.127  -1.998  -0.001  1.00  0.00     0.355 C 
HETATM   21  O5  UNL     1      -3.041  -1.364  -1.233  1.00  0.00    -0.295 OA
HETATM   22  C18 UNL     1      -4.074  -0.826  -1.942  1.00  0.00     0.260 C 
HETATM   23  O6  UNL     1      -4.003  -0.854  -3.206  1.00  0.00    -0.265 OA
HETATM   24  C19 UNL     1      -5.279  -0.209  -1.347  1.00  0.00     0.111 C 
HETATM   25  C20 UNL     1      -5.154   1.270  -1.148  1.00  0.00     0.010 C 
HETATM   26  C21 UNL     1      -3.775   1.809  -1.311  1.00  0.00     0.001 C 
HETATM   27  C22 UNL     1      -3.243   2.490  -0.068  1.00  0.00     0.002 C 
HETATM   28  C23 UNL     1      -3.388   1.665   1.175  1.00  0.00     0.032 C 
HETATM   29  C24 UNL     1      -2.045   1.124   1.594  1.00  0.00     0.125 C 
HETATM   30  C25 UNL     1      -2.042   0.298   2.831  1.00  0.00     0.040 C 
HETATM   31  O7  UNL     1      -1.213   0.704   0.550  1.00  0.00    -0.342 OA
ENDROOT
BRANCH   1  32
HETATM   32  O1  UNL     1       0.151  -3.989   0.310  1.00  0.00    -0.353 OA
HETATM   33  C1  UNL     1       1.174  -4.893   0.127  1.00  0.00     0.210 C 
ENDBRANCH   1  32
TORSDOF 1
