REMARK  3 active torsions:
REMARK  status: ('A' for Active; 'I' for Inactive)
REMARK    1  A    between atoms: N1_3  and  C2_4 
REMARK    2  A    between atoms: N2_12  and  C9_13 
REMARK    3  A    between atoms: N3_21  and  C14_22 
ROOT
HETATM    1  S1  UNL     1       0.450  -2.539  -0.145  1.00  0.00    -0.039 SA
HETATM    2  C1  UNL     1       0.190  -0.943  -0.101  1.00  0.00     0.194 A 
HETATM    3  N1  UNL     1      -1.077  -0.502  -0.255  1.00  0.00    -0.263 N 
HETATM    4  C8  UNL     1      -1.291   0.826  -0.219  1.00  0.00     0.196 A 
HETATM    5  S2  UNL     1      -2.827   1.391  -0.405  1.00  0.00    -0.039 SA
HETATM    6  N2  UNL     1      -0.269   1.712  -0.032  1.00  0.00    -0.242 N 
HETATM    7  C13 UNL     1       0.966   1.209   0.115  1.00  0.00     0.196 A 
HETATM    8  S3  UNL     1       2.188   2.271   0.339  1.00  0.00    -0.039 SA
HETATM    9  N3  UNL     1       1.228  -0.117   0.085  1.00  0.00    -0.263 N 
ENDROOT
BRANCH   3  10
HETATM   10  C2  UNL     1      -2.143  -1.420  -0.450  1.00  0.00     0.044 A 
HETATM   11  C3  UNL     1      -2.341  -2.127  -1.596  1.00  0.00     0.030 A 
HETATM   12  C4  UNL     1      -3.415  -2.996  -1.676  1.00  0.00     0.002 A 
HETATM   13  C5  UNL     1      -4.302  -3.180  -0.637  1.00  0.00     0.000 A 
HETATM   14  C6  UNL     1      -4.098  -2.462   0.524  1.00  0.00     0.002 A 
HETATM   15  C7  UNL     1      -3.036  -1.601   0.607  1.00  0.00     0.030 A 
ENDBRANCH   3  10
BRANCH   9  16
HETATM   16  C14 UNL     1       2.541  -0.643   0.242  1.00  0.00     0.044 A 
HETATM   17  C15 UNL     1       2.801  -1.542   1.281  1.00  0.00     0.030 A 
HETATM   18  C16 UNL     1       4.070  -2.054   1.438  1.00  0.00     0.002 A 
HETATM   19  C17 UNL     1       5.095  -1.698   0.587  1.00  0.00     0.000 A 
HETATM   20  C18 UNL     1       4.838  -0.803  -0.450  1.00  0.00     0.002 A 
HETATM   21  C19 UNL     1       3.558  -0.278  -0.617  1.00  0.00     0.030 A 
ENDBRANCH   9  16
BRANCH   6  22
HETATM   22  C9  UNL     1      -0.525   3.112   0.003  1.00  0.00     0.159 A 
HETATM   23  C10 UNL     1      -0.581   3.894   1.151  1.00  0.00     0.060 A 
HETATM   24  C11 UNL     1      -0.851   5.169   0.705  1.00  0.00     0.049 A 
HETATM   25  C12 UNL     1      -0.943   5.088  -0.680  1.00  0.00     0.124 A 
HETATM   26 BR1  UNL     1      -1.306   6.586  -1.796  1.00  0.00    -0.023 Br
HETATM   27  O1  UNL     1      -0.741   3.837  -1.060  1.00  0.00    -0.286 OA
ENDBRANCH   6  22
TORSDOF 3
