REMARK  2 active torsions:
REMARK  status: ('A' for Active; 'I' for Inactive)
REMARK    1  A    between atoms: N1_7  and  C6_8 
REMARK    2  A    between atoms: C12_14  and  C13_15 
ROOT
HETATM    1  C6  UNL     1       2.285  -0.837   0.630  1.00  0.00     0.054 A 
HETATM    2  C7  UNL     1       2.695  -1.925   1.425  1.00  0.00     0.070 A 
HETATM    3  C8  UNL     1       1.755  -2.731   1.994  1.00  0.00     0.108 A 
HETATM    4  C9  UNL     1       0.414  -2.501   1.805  1.00  0.00     0.116 A 
HETATM    5  C10 UNL     1      -0.015  -1.429   1.021  1.00  0.00     0.017 A 
HETATM    6  C11 UNL     1      -1.356  -1.204   0.834  1.00  0.00     0.032 A 
HETATM    7  C12 UNL     1      -1.769  -0.160   0.068  1.00  0.00     0.035 A 
HETATM    8  C21 UNL     1      -0.862   0.676  -0.522  1.00  0.00     0.116 A 
HETATM    9  C22 UNL     1       0.476   0.448  -0.332  1.00  0.00     0.116 A 
HETATM   10  C23 UNL     1       0.947  -0.595   0.433  1.00  0.00     0.040 A 
HETATM   11  O3  UNL     1       1.351   1.311  -0.942  1.00  0.00    -0.345 OA
HETATM   12  C24 UNL     1       0.975   2.603  -1.321  1.00  0.00     0.202 C 
HETATM   13  C25 UNL     1      -0.406   2.654  -1.924  1.00  0.00     0.202 C 
HETATM   14  O4  UNL     1      -1.286   1.743  -1.305  1.00  0.00    -0.345 OA
HETATM   15  O5  UNL     1      -0.350  -3.444   2.475  1.00  0.00    -0.322 OA
HETATM   16  C26 UNL     1       0.568  -4.499   2.795  1.00  0.00     0.352 C 
HETATM   17  O6  UNL     1       1.845  -3.864   2.816  1.00  0.00    -0.323 OA
ENDROOT
BRANCH   7  18
HETATM   18  C13 UNL     1      -3.205   0.090  -0.139  1.00  0.00     0.090 A 
HETATM   19  C14 UNL     1      -4.246  -0.667   0.391  1.00  0.00     0.052 A 
HETATM   20  C15 UNL     1      -5.431  -0.109  -0.035  1.00  0.00     0.003 A 
HETATM   21  C16 UNL     1      -6.772  -0.390   0.145  1.00  0.00     0.056 A 
HETATM   22  C20 UNL     1      -5.063   0.972  -0.812  1.00  0.00     0.086 A 
HETATM   23  C17 UNL     1      -7.779   0.375  -0.428  1.00  0.00     0.117 A 
HETATM   24  F1  UNL     1      -9.065   0.032  -0.204  1.00  0.00    -0.206 F 
HETATM   25  C18 UNL     1      -7.386   1.440  -1.194  1.00  0.00     0.045 A 
HETATM   26  C19 UNL     1      -6.052   1.732  -1.381  1.00  0.00     0.041 A 
HETATM   27  O2  UNL     1      -3.756   1.030  -0.831  1.00  0.00    -0.309 OA
ENDBRANCH   7  18
BRANCH   1  28
HETATM   28  N1  UNL     1       3.275  -0.020   0.051  1.00  0.00    -0.317 N 
HETATM   29  C1  UNL     1       3.809  -0.291  -1.262  1.00  0.00     0.224 C 
HETATM   30  O1  UNL     1       3.347  -1.200  -1.995  1.00  0.00    -0.273 OA
HETATM   31  C2  UNL     1       4.945   0.600  -1.654  1.00  0.00     0.103 C 
HETATM   32  C3  UNL     1       5.994   0.565  -0.536  1.00  0.00     0.011 C 
HETATM   33  C4  UNL     1       5.393   0.760   0.824  1.00  0.00     0.021 C 
HETATM   34  C5  UNL     1       3.891   1.113   0.730  1.00  0.00     0.132 C 
ENDBRANCH   1  28
TORSDOF 2
