REMARK  3 active torsions:
REMARK  status: ('A' for Active; 'I' for Inactive)
REMARK    1  A    between atoms: C2_2  and  O1_3 
REMARK    2  A    between atoms: O1_3  and  C3_4 
REMARK    3  A    between atoms: C7_10  and  C8_11 
ROOT
HETATM    1  C8  UNL     1       1.398  -0.346  -0.026  1.00  0.00     0.180 C 
HETATM    2  N2  UNL     1       0.611  -0.682   0.960  1.00  0.00    -0.240 N 
ATOM      3  H2  UNL     1       0.917  -0.842   1.920  1.00  0.00     0.196 HD
HETATM    4  O2  UNL     1      -0.697  -0.791   0.519  1.00  0.00    -0.231 OA
HETATM    5  C9  UNL     1      -0.725  -0.144  -0.711  1.00  0.00     0.269 C 
HETATM    6  O3  UNL     1       0.609  -0.223  -1.162  1.00  0.00    -0.287 OA
HETATM    7  C10 UNL     1      -1.121   1.291  -0.668  1.00  0.00     0.158 C 
HETATM    8  C11 UNL     1      -1.784   1.613   0.652  1.00  0.00     0.047 C 
HETATM    9  C12 UNL     1      -1.105   2.761   1.374  1.00  0.00     0.003 C 
HETATM   10  C13 UNL     1      -0.953   3.982   0.506  1.00  0.00     0.000 C 
HETATM   11  C14 UNL     1      -0.556   3.646  -0.893  1.00  0.00     0.003 C 
HETATM   12  C15 UNL     1       0.058   2.239  -0.855  1.00  0.00     0.047 C 
HETATM   13  O4  UNL     1      -1.953   1.465  -1.743  1.00  0.00    -0.222 OA
HETATM   14  O5  UNL     1      -1.901   0.411  -2.511  1.00  0.00    -0.218 OA
HETATM   15  C16 UNL     1      -1.660  -0.712  -1.726  1.00  0.00     0.185 C 
HETATM   16  C17 UNL     1      -0.995  -1.749  -2.611  1.00  0.00     0.053 C 
HETATM   17  C18 UNL     1      -0.648  -3.007  -1.900  1.00  0.00     0.008 C 
HETATM   18  C19 UNL     1      -1.623  -3.480  -0.880  1.00  0.00     0.039 C 
HETATM   19  C20 UNL     1      -2.839  -2.633  -0.774  1.00  0.00    -0.046 A 
HETATM   20  C21 UNL     1      -3.992  -3.183  -0.255  1.00  0.00     0.050 A 
HETATM   21  C22 UNL     1      -5.159  -2.465  -0.127  1.00  0.00     0.117 A 
HETATM   22  F1  UNL     1      -6.271  -3.045   0.388  1.00  0.00    -0.206 F 
HETATM   23  C23 UNL     1      -5.199  -1.149  -0.523  1.00  0.00     0.043 A 
HETATM   24  C24 UNL     1      -4.026  -0.606  -1.045  1.00  0.00     0.014 A 
HETATM   25  C25 UNL     1      -2.867  -1.318  -1.174  1.00  0.00    -0.009 A 
ENDROOT
BRANCH   1  26
HETATM   26  C7  UNL     1       2.823  -0.128  -0.007  1.00  0.00     0.068 A 
HETATM   27  C3  UNL     1       3.539  -0.268   1.156  1.00  0.00     0.156 A 
HETATM   28  N1  UNL     1       4.881  -0.069   1.203  1.00  0.00    -0.346 N 
HETATM   29  C4  UNL     1       5.506   0.275   0.064  1.00  0.00     0.090 A 
ATOM     30  H1  UNL     1       5.399  -0.177   2.075  1.00  0.00     0.167 HD
HETATM   31  C5  UNL     1       4.873   0.438  -1.143  1.00  0.00     0.018 A 
HETATM   32  C6  UNL     1       3.495   0.224  -1.149  1.00  0.00     0.022 A 
BRANCH  27  33
HETATM   33  O1  UNL     1       2.844  -0.629   2.325  1.00  0.00    -0.335 OA
BRANCH  33  34
HETATM   34  C2  UNL     1       3.570  -0.773   3.513  1.00  0.00     0.173 C 
HETATM   35  C1  UNL     1       4.247   0.529   3.861  1.00  0.00     0.034 C 
ENDBRANCH  33  34
ENDBRANCH  27  33
ENDBRANCH   1  26
TORSDOF 3
