REMARK  3 active torsions:
REMARK  status: ('A' for Active; 'I' for Inactive)
REMARK    1  A    between atoms: C4_6  and  N1_7 
REMARK    2  A    between atoms: N2_11  and  C8_12 
REMARK    3  A    between atoms: C19_28  and  N5_29 
ROOT
HETATM    1  F1  UNL     1       6.443  -1.778  -2.391  1.00  0.00    -0.202 F 
HETATM    2  C1  UNL     1       5.354  -1.353  -1.732  1.00  0.00     0.161 A 
HETATM    3  C2  UNL     1       4.090  -1.831  -2.020  1.00  0.00     0.069 A 
HETATM    4  C3  UNL     1       2.986  -1.353  -1.295  1.00  0.00     0.055 A 
HETATM    5  S1  UNL     1       1.293  -1.650  -1.282  1.00  0.00    -0.050 SA
HETATM    6  C4  UNL     1       0.849  -0.580  -0.024  1.00  0.00     0.149 A 
HETATM    7  N3  UNL     1       2.013  -0.059   0.313  1.00  0.00    -0.322 N 
ATOM      8  H3  UNL     1       2.061   0.633   1.061  1.00  0.00     0.169 HD
HETATM    9  C18 UNL     1       3.095  -0.420  -0.299  1.00  0.00     0.126 A 
HETATM   10  N4  UNL     1       4.370   0.042  -0.030  1.00  0.00    -0.325 N 
ATOM     11  H4  UNL     1       4.514   0.738   0.701  1.00  0.00     0.169 HD
HETATM   12  C19 UNL     1       5.410  -0.419  -0.722  1.00  0.00     0.144 A 
ENDROOT
BRANCH   6  13
HETATM   13  N1  UNL     1      -0.452  -0.341   0.554  1.00  0.00    -0.360 N 
HETATM   14  C5  UNL     1      -0.722  -1.062   1.798  1.00  0.00     0.126 C 
HETATM   15  C6  UNL     1      -1.812  -0.279   2.504  1.00  0.00     0.040 C 
HETATM   16  C7  UNL     1      -3.172  -0.643   2.022  1.00  0.00     0.125 C 
HETATM   17  N2  UNL     1      -3.429  -0.341   0.627  1.00  0.00    -0.374 N 
HETATM   18  C16 UNL     1      -2.611  -0.146  -0.518  1.00  0.00     0.143 C 
HETATM   19  C17 UNL     1      -1.293   0.556  -0.160  1.00  0.00     0.145 C 
BRANCH  17  20
HETATM   20  C8  UNL     1      -4.855  -0.236   0.396  1.00  0.00     0.073 A 
HETATM   21  C9  UNL     1      -5.549   0.052  -0.735  1.00  0.00     0.050 A 
HETATM   22  C10 UNL     1      -6.897   0.080  -0.664  1.00  0.00    -0.016 A 
HETATM   23  C11 UNL     1      -7.798   0.356  -1.711  1.00  0.00     0.013 A 
HETATM   24  C15 UNL     1      -7.465  -0.185   0.547  1.00  0.00     0.017 A 
HETATM   25  C12 UNL     1      -9.149   0.362  -1.531  1.00  0.00     0.001 A 
HETATM   26  C13 UNL     1      -9.719   0.094  -0.306  1.00  0.00     0.001 A 
HETATM   27  C14 UNL     1      -8.859  -0.178   0.730  1.00  0.00     0.020 A 
HETATM   28  S2  UNL     1      -6.118  -0.464   1.555  1.00  0.00    -0.072 SA
ENDBRANCH  17  20
ENDBRANCH   6  13
BRANCH  12  29
HETATM   29  N5  UNL     1       6.730   0.065  -0.420  1.00  0.00    -0.365 N 
HETATM   30  C20 UNL     1       7.661   0.759  -1.287  1.00  0.00     0.124 C 
HETATM   31  C21 UNL     1       8.371   1.722  -0.351  1.00  0.00     0.021 C 
HETATM   32  C22 UNL     1       7.861   1.405   1.037  1.00  0.00     0.021 C 
HETATM   33  C23 UNL     1       7.413  -0.050   0.852  1.00  0.00     0.124 C 
ENDBRANCH  12  29
TORSDOF 3
