REMARK  6 active torsions:
REMARK  status: ('A' for Active; 'I' for Inactive)
REMARK       I    between atoms: C1_2  and  N1_3 
REMARK       I    between atoms: C1_2  and  N4_18 
REMARK    1  A    between atoms: N1_3  and  C2_5 
REMARK    2  A    between atoms: C2_5  and  C3_6 
REMARK    3  A    between atoms: C3_6  and  N2_7 
REMARK    4  A    between atoms: N3_13  and  C9_15 
REMARK    5  A    between atoms: C9_15  and  C10_16 
REMARK    6  A    between atoms: C13_21  and  C14_22 
REMARK       I    between atoms: C14_22  and  N5_24 
ROOT
HETATM    1  O1  UNL     1      -1.114   0.723   1.513  1.00  0.00    -0.247 OA
HETATM    2  C1  UNL     1      -0.689   0.993   0.370  1.00  0.00     0.323 C 
HETATM    3  N1  UNL     1      -1.611   1.264  -0.662  1.00  0.00    -0.297 N 
ATOM      4  H1  UNL     1      -1.216   1.480  -1.577  1.00  0.00     0.172 HD
HETATM    5  N4  UNL     1       0.712   1.017   0.149  1.00  0.00    -0.334 N 
HETATM    6  C11 UNL     1       1.592   0.722   1.241  1.00  0.00     0.128 C 
HETATM    7  C12 UNL     1       3.045   0.873   0.966  1.00  0.00     0.034 C 
HETATM    8  C13 UNL     1       3.359   0.444  -0.458  1.00  0.00     0.081 C 
HETATM    9  C19 UNL     1       2.659   1.441  -1.344  1.00  0.00     0.034 C 
HETATM   10  C20 UNL     1       1.192   1.338  -1.157  1.00  0.00     0.128 C 
ENDROOT
BRANCH   3  11
HETATM   11  C2  UNL     1      -3.012   1.270  -0.571  1.00  0.00     0.109 C 
HETATM   12  N3  UNL     1      -3.688   1.564  -1.649  1.00  0.00    -0.377 N 
ATOM     13  H3  UNL     1      -4.705   1.567  -1.574  1.00  0.00     0.160 HD
BRANCH  11  14
HETATM   14  C3  UNL     1      -3.797   0.956   0.610  1.00  0.00     0.348 C 
BRANCH  14  15
HETATM   15  N2  UNL     1      -3.822  -0.449   0.986  1.00  0.00     0.095 N 
HETATM   16  C4  UNL     1      -4.514  -1.250   0.016  1.00  0.00     0.273 C 
HETATM   17  C5  UNL     1      -5.448  -2.212   0.665  1.00  0.00     0.030 C 
HETATM   18  C6  UNL     1      -6.520  -1.338   1.332  1.00  0.00     0.003 C 
HETATM   19  C7  UNL     1      -5.811  -0.628   2.451  1.00  0.00     0.030 C 
HETATM   20  C8  UNL     1      -4.338  -0.563   2.320  1.00  0.00     0.273 C 
ENDBRANCH  14  15
ENDBRANCH  11  14
BRANCH  12  21
HETATM   21  C9  UNL     1      -3.130   1.880  -2.918  1.00  0.00     0.132 C 
BRANCH  21  22
HETATM   22  C10 UNL     1      -2.771   0.668  -3.743  1.00  0.00     0.104 C 
HETATM   23 BR1  UNL     1      -2.032   1.234  -5.425  1.00  0.00    -0.095 Br
ENDBRANCH  21  22
ENDBRANCH  12  21
ENDBRANCH   3  11
BRANCH   8  24
HETATM   24  C14 UNL     1       4.786   0.340  -0.705  1.00  0.00     0.224 C 
HETATM   25  O2  UNL     1       5.330   1.266  -1.398  1.00  0.00    -0.273 OA
HETATM   26  N5  UNL     1       5.623  -0.693  -0.243  1.00  0.00    -0.352 N 
HETATM   27  C15 UNL     1       5.249  -1.864   0.524  1.00  0.00     0.126 C 
HETATM   28  C18 UNL     1       7.066  -0.817  -0.419  1.00  0.00     0.126 C 
HETATM   29  C16 UNL     1       6.328  -1.811   1.611  1.00  0.00     0.021 C 
HETATM   30  C17 UNL     1       7.568  -1.575   0.781  1.00  0.00     0.021 C 
ENDBRANCH   8  24
TORSDOF 6
