REMARK  5 active torsions:
REMARK  status: ('A' for Active; 'I' for Inactive)
REMARK    1  A    between atoms: C1_2  and  C2_3 
REMARK    2  A    between atoms: C1_2  and  C3_5 
REMARK    3  A    between atoms: C6_10  and  C7_11 
REMARK       I    between atoms: C7_11  and  N2_13 
REMARK    4  A    between atoms: C11_17  and  C12_18 
REMARK       I    between atoms: C12_18  and  N3_20 
REMARK    5  A    between atoms: N3_20  and  C13_22 
ROOT
HETATM    1  C7  UNL     1      -0.739  -0.881   0.873  1.00  0.00     0.243 C 
HETATM    2  O3  UNL     1      -0.505   0.291   1.257  1.00  0.00    -0.271 OA
HETATM    3  N2  UNL     1       0.316  -1.834   0.799  1.00  0.00    -0.337 N 
HETATM    4  C8  UNL     1       0.225  -3.232   0.386  1.00  0.00     0.127 C 
HETATM    5  C9  UNL     1       1.281  -3.873   1.260  1.00  0.00     0.022 C 
HETATM    6  C10 UNL     1       2.406  -2.864   1.174  1.00  0.00     0.037 C 
HETATM    7  C11 UNL     1       1.694  -1.547   1.138  1.00  0.00     0.179 C 
ENDROOT
BRANCH   1   8
HETATM    8  C6  UNL     1      -2.143  -1.196   0.512  1.00  0.00     0.180 C 
HETATM    9  N1  UNL     1      -3.000  -0.112   0.837  1.00  0.00    -0.333 N 
HETATM   10  C5  UNL     1      -3.070   0.715   2.012  1.00  0.00     0.221 C 
HETATM   11  C21 UNL     1      -4.067   0.429   0.004  1.00  0.00     0.100 C 
HETATM   12  C4  UNL     1      -3.752   2.010   1.688  1.00  0.00     0.117 C 
HETATM   13  O2  UNL     1      -2.645   0.456   3.167  1.00  0.00    -0.273 OA
HETATM   14  C3  UNL     1      -3.792   1.913   0.159  1.00  0.00     0.087 C 
HETATM   15  C20 UNL     1      -4.072  -0.047  -1.396  1.00  0.00     0.026 C 
HETATM   16  C19 UNL     1      -2.736  -0.523  -1.854  1.00  0.00     0.004 C 
HETATM   17  C18 UNL     1      -2.131  -1.558  -0.949  1.00  0.00     0.035 C 
BRANCH  14  18
HETATM   18  C1  UNL     1      -4.877   2.744  -0.405  1.00  0.00     0.143 C 
HETATM   19  O1  UNL     1      -4.571   3.632  -1.178  1.00  0.00    -0.297 OA
BRANCH  18  20
HETATM   20  C2  UNL     1      -6.277   2.513  -0.049  1.00  0.00     0.164 C 
HETATM   21 BR1  UNL     1      -7.386   3.791  -0.980  1.00  0.00    -0.089 Br
ENDBRANCH  18  20
ENDBRANCH  14  18
ENDBRANCH   1   8
BRANCH   7  22
HETATM   22  C12 UNL     1       2.311  -0.586   0.200  1.00  0.00     0.241 C 
HETATM   23  O4  UNL     1       1.625  -0.136  -0.743  1.00  0.00    -0.271 OA
HETATM   24  N3  UNL     1       3.650  -0.166   0.344  1.00  0.00    -0.355 N 
ATOM     25  H3  UNL     1       4.207  -0.535   1.115  1.00  0.00     0.162 HD
BRANCH  24  26
HETATM   26  C13 UNL     1       4.251   0.771  -0.570  1.00  0.00     0.084 C 
HETATM   27  C14 UNL     1       4.736   2.018   0.111  1.00  0.00     0.025 C 
HETATM   28  C15 UNL     1       6.237   2.061  -0.183  1.00  0.00     0.002 C 
HETATM   29  C16 UNL     1       6.309   1.371  -1.546  1.00  0.00     0.002 C 
HETATM   30  C17 UNL     1       5.420   0.169  -1.303  1.00  0.00     0.025 C 
ENDBRANCH  24  26
ENDBRANCH   7  22
TORSDOF 5
