REMARK  13 active torsions:
REMARK  status: ('A' for Active; 'I' for Inactive)
REMARK    1  A    between atoms: O1_2  and  C2_3 
REMARK    2  A    between atoms: C3_4  and  O2_5 
REMARK    3  A    between atoms: O2_5  and  C4_6 
REMARK    4  A    between atoms: C4_6  and  N1_7 
REMARK    5  A    between atoms: C6_9  and  O3_10 
REMARK    6  A    between atoms: C7_14  and  N3_15 
REMARK    7  A    between atoms: C9_24  and  C10_25 
REMARK    8  A    between atoms: C10_25  and  C11_26 
REMARK    9  A    between atoms: C11_26  and  O4_27 
REMARK   10  A    between atoms: C11_26  and  C12_29 
REMARK   11  A    between atoms: C12_29  and  O5_30 
REMARK   12  A    between atoms: O5_30  and  S1_31 
REMARK   13  A    between atoms: C13_35  and  O9_36 
ROOT
HETATM    1  C2  UNL     1      -1.053  -1.030   0.859  1.00  0.00     0.154 A 
HETATM    2  C3  UNL     1      -1.361  -1.847  -0.193  1.00  0.00     0.187 A 
HETATM    3  N4  UNL     1      -0.387  -2.145  -1.110  1.00  0.00    -0.320 N 
ATOM      4  H4  UNL     1      -0.613  -2.755  -1.895  1.00  0.00     0.169 HD
HETATM    5  C8  UNL     1       0.860  -1.653  -1.000  1.00  0.00     0.110 A 
HETATM    6  N5  UNL     1       1.725  -1.987  -1.887  1.00  0.00    -0.385 N 
ATOM      7  H51 UNL     1       2.671  -1.614  -1.804  1.00  0.00     0.157 HD
ATOM      8  H52 UNL     1       1.465  -2.599  -2.660  1.00  0.00     0.157 HD
HETATM    9  C9  UNL     1       1.214  -0.820   0.052  1.00  0.00     0.024 A 
HETATM   10  C13 UNL     1       0.221  -0.534   0.962  1.00  0.00     0.116 A 
ENDROOT
BRANCH   2  11
HETATM   11  O2  UNL     1      -2.616  -2.374  -0.353  1.00  0.00    -0.285 OA
BRANCH  11  12
HETATM   12  C4  UNL     1      -3.635  -1.861  -1.157  1.00  0.00     0.260 C 
BRANCH  12  13
HETATM   13  N1  UNL     1      -4.081  -0.535  -0.825  1.00  0.00    -0.144 N 
HETATM   14  C5  UNL     1      -3.573   0.629  -1.292  1.00  0.00     0.172 A 
HETATM   15  C6  UNL     1      -4.273   1.675  -0.735  1.00  0.00     0.172 A 
HETATM   16  N2  UNL     1      -5.194   1.094   0.061  1.00  0.00    -0.169 N 
HETATM   17  C7  UNL     1      -5.077  -0.229   0.005  1.00  0.00     0.685 A 
ATOM     18  H2  UNL     1      -5.880   1.597   0.624  1.00  0.00     0.186 HD
BRANCH  15  19
HETATM   19  O3  UNL     1      -4.075   3.050  -0.947  1.00  0.00    -0.345 OA
ATOM     20  H3  UNL     1      -4.558   3.772  -0.563  1.00  0.00     0.219 HD
ENDBRANCH  15  19
BRANCH  17  21
HETATM   21  N3  UNL     1      -5.797  -1.072   0.640  1.00  0.00    -0.234 N 
ATOM     22  H32 UNL     1      -5.707  -2.087   0.597  1.00  0.00     0.174 HD
ATOM     23  H31 UNL     1      -6.560  -0.838   1.276  1.00  0.00     0.174 HD
ENDBRANCH  17  21
ENDBRANCH  12  13
ENDBRANCH  11  12
ENDBRANCH   2  11
BRANCH   1  24
HETATM   24  O1  UNL     1      -1.993  -0.705   1.803  1.00  0.00    -0.349 OA
HETATM   25  C1  UNL     1      -2.122  -1.537   2.941  1.00  0.00     0.210 C 
ENDBRANCH   1  24
BRANCH  10  26
HETATM   26  O9  UNL     1       0.516   0.285   2.028  1.00  0.00    -0.352 OA
HETATM   27  C14 UNL     1       0.302   1.673   1.878  1.00  0.00     0.210 C 
ENDBRANCH  10  26
BRANCH   9  28
HETATM   28  C10 UNL     1       2.543  -0.255   0.233  1.00  0.00     0.079 C 
BRANCH  28  29
HETATM   29  C11 UNL     1       2.929   0.900  -0.612  1.00  0.00     0.147 C 
BRANCH  29  30
HETATM   30  O4  UNL     1       2.920   0.686  -1.965  1.00  0.00    -0.393 OA
ATOM     31  H4  UNL     1       3.167   1.426  -2.507  1.00  0.00     0.210 HD
ENDBRANCH  29  30
BRANCH  29  32
HETATM   32  C12 UNL     1       4.391   1.228  -0.252  1.00  0.00     0.224 C 
BRANCH  32  33
HETATM   33  O5  UNL     1       5.218   0.169  -0.590  1.00  0.00    -0.254 OA
BRANCH  33  34
HETATM   34  S1  UNL     1       6.798   0.558  -0.184  1.00  0.00     0.251 S 
HETATM   35  O6  UNL     1       7.610   0.822  -1.419  1.00  0.00    -0.572 OA
HETATM   36  O7  UNL     1       7.349  -0.650   0.561  1.00  0.00    -0.572 OA
HETATM   37  O8  UNL     1       6.786   1.873   0.847  1.00  0.00    -0.572 OA
ENDBRANCH  33  34
ENDBRANCH  32  33
ENDBRANCH  29  32
ENDBRANCH  28  29
ENDBRANCH   9  28
TORSDOF 13
