REMARK  13 active torsions:
REMARK  status: ('A' for Active; 'I' for Inactive)
REMARK    1  A    between atoms: N1_2  and  C2_3 
REMARK    2  A    between atoms: N1_2  and  C4_6 
REMARK    3  A    between atoms: C5_9  and  N4_10 
REMARK    4  A    between atoms: C6_15  and  O1_16 
REMARK    5  A    between atoms: O1_16  and  C7_17 
REMARK    6  A    between atoms: C7_17  and  C8_18 
REMARK    7  A    between atoms: C8_18  and  C9_19 
REMARK    8  A    between atoms: C9_19  and  O2_20 
REMARK    9  A    between atoms: O2_20  and  C10_21 
REMARK   10  A    between atoms: C12_23  and  C13_24 
REMARK   11  A    between atoms: N6_25  and  N7_27 
REMARK       I    between atoms: N7_27  and  C14_29 
REMARK   12  A    between atoms: C17_36  and  N10_37 
REMARK   13  A    between atoms: N10_37  and  O3_39 
ROOT
HETATM    1  C2  UNL     1      -5.245   4.692  -1.724  1.00  0.00     0.264 C 
HETATM    2  C3  UNL     1      -6.692   4.564  -1.772  1.00  0.00     0.079 C 
HETATM    3  N2  UNL     1      -7.839   4.463  -1.824  1.00  0.00    -0.196 NA
ENDROOT
BRANCH   1   4
HETATM    4  N1  UNL     1      -4.567   3.471  -2.112  1.00  0.00    -0.209 N 
HETATM    5  C1  UNL     1      -4.683   3.065  -3.496  1.00  0.00     0.169 C 
BRANCH   4   6
HETATM    6  C4  UNL     1      -3.820   2.707  -1.158  1.00  0.00     0.698 A 
HETATM    7  N3  UNL     1      -3.735   3.157   0.094  1.00  0.00    -0.022 N 
HETATM    8  C5  UNL     1      -3.043   2.495   1.070  1.00  0.00     0.693 A 
ATOM      9  H3  UNL     1      -4.205   4.030   0.333  1.00  0.00     0.203 HD
HETATM   10  N5  UNL     1      -2.450   1.354   0.690  1.00  0.00    -0.154 N 
HETATM   11  C6  UNL     1      -2.517   0.875  -0.560  1.00  0.00     0.252 A 
ATOM     12  H5  UNL     1      -1.923   0.826   1.385  1.00  0.00     0.188 HD
HETATM   13  N11 UNL     1      -3.223   1.576  -1.505  1.00  0.00    -0.154 N 
ATOM     14  H11 UNL     1      -3.287   1.231  -2.463  1.00  0.00     0.188 HD
BRANCH   8  15
HETATM   15  N4  UNL     1      -2.960   2.942   2.288  1.00  0.00    -0.234 N 
ATOM     16  H42 UNL     1      -3.411   3.810   2.577  1.00  0.00     0.174 HD
ATOM     17  H41 UNL     1      -2.444   2.448   3.016  1.00  0.00     0.174 HD
ENDBRANCH   8  15
BRANCH  11  18
HETATM   18  O1  UNL     1      -1.911  -0.295  -0.953  1.00  0.00    -0.321 OA
BRANCH  18  19
HETATM   19  C7  UNL     1      -1.167  -1.097  -0.120  1.00  0.00     0.181 C 
BRANCH  19  20
HETATM   20  C8  UNL     1       0.086  -0.472   0.465  1.00  0.00     0.053 C 
BRANCH  20  21
HETATM   21  C9  UNL     1       1.040  -0.051  -0.620  1.00  0.00     0.178 C 
BRANCH  21  22
HETATM   22  O2  UNL     1       1.529  -1.079  -1.423  1.00  0.00    -0.349 OA
BRANCH  22  23
HETATM   23  C10 UNL     1       2.348  -2.124  -1.092  1.00  0.00     0.098 A 
HETATM   24  C11 UNL     1       2.889  -2.351   0.148  1.00  0.00     0.052 A 
HETATM   25  C12 UNL     1       3.714  -3.401   0.472  1.00  0.00    -0.017 A 
HETATM   26  C15 UNL     1       4.003  -4.291  -0.577  1.00  0.00     0.015 A 
HETATM   27  C16 UNL     1       3.481  -4.098  -1.833  1.00  0.00     0.035 A 
HETATM   28  C17 UNL     1       2.661  -3.035  -2.113  1.00  0.00     0.087 A 
BRANCH  25  29
HETATM   29  C13 UNL     1       4.288  -3.654   1.776  1.00  0.00     0.118 C 
HETATM   30  N6  UNL     1       4.154  -3.030   2.858  1.00  0.00    -0.309 N 
ATOM     31  H6  UNL     1       4.691  -3.449   3.617  1.00  0.00     0.186 HD
BRANCH  30  32
HETATM   32  N7  UNL     1       3.474  -1.945   3.253  1.00  0.00    -0.274 N 
HETATM   33  C14 UNL     1       4.065  -0.661   3.551  1.00  0.00     0.200 C 
HETATM   34  N8  UNL     1       3.348   0.342   3.641  1.00  0.00    -0.372 N 
HETATM   35  N9  UNL     1       5.461  -0.609   3.727  1.00  0.00    -0.062 NA
ATOM     36  H82 UNL     1       2.337   0.304   3.514  1.00  0.00     0.158 HD
ATOM     37  H81 UNL     1       3.765   1.249   3.851  1.00  0.00     0.158 HD
ATOM     38  H7  UNL     1       2.462  -2.032   3.351  1.00  0.00     0.189 HD
ENDBRANCH  30  32
ENDBRANCH  25  29
BRANCH  28  39
HETATM   39  N10 UNL     1       2.135  -2.860  -3.420  1.00  0.00    -0.267 N 
ATOM     40  H10 UNL     1       1.847  -1.933  -3.733  1.00  0.00     0.194 HD
BRANCH  39  41
HETATM   41  O3  UNL     1       2.023  -3.843  -4.191  1.00  0.00    -0.289 OA
ATOM     42  H3  UNL     1       1.671  -3.726  -5.066  1.00  0.00     0.244 HD
ENDBRANCH  39  41
ENDBRANCH  28  39
ENDBRANCH  22  23
ENDBRANCH  21  22
ENDBRANCH  20  21
ENDBRANCH  19  20
ENDBRANCH  18  19
ENDBRANCH  11  18
ENDBRANCH   4   6
ENDBRANCH   1   4
TORSDOF 13
