REMARK  2 active torsions:
REMARK  status: ('A' for Active; 'I' for Inactive)
REMARK    1  A    between atoms: N1_1  and  N2_4 
REMARK    2  A    between atoms: N2_4  and  C1_6 
ROOT
HETATM    1  C1  UNL     1      -0.444   0.103  -0.288  1.00  0.00     0.131 A 
HETATM    2  C2  UNL     1       0.244   1.209   0.119  1.00  0.00     0.189 A 
HETATM    3  F1  UNL     1      -0.445   2.355   0.311  1.00  0.00    -0.200 F 
HETATM    4  C3  UNL     1       1.619   1.135   0.333  1.00  0.00     0.199 A 
HETATM    5  F2  UNL     1       2.275   2.240   0.727  1.00  0.00    -0.199 F 
HETATM    6  C4  UNL     1       2.277  -0.057   0.134  1.00  0.00     0.199 A 
HETATM    7  F3  UNL     1       3.608  -0.086   0.363  1.00  0.00    -0.199 F 
HETATM    8  C5  UNL     1       1.553  -1.161  -0.279  1.00  0.00     0.199 A 
HETATM    9  F4  UNL     1       2.197  -2.312  -0.469  1.00  0.00    -0.199 F 
HETATM   10  C6  UNL     1       0.199  -1.085  -0.489  1.00  0.00     0.189 A 
HETATM   11  F5  UNL     1      -0.463  -2.214  -0.903  1.00  0.00    -0.200 F 
ENDROOT
BRANCH   1  12
HETATM   12  N2  UNL     1      -1.835   0.174  -0.514  1.00  0.00    -0.301 N 
ATOM     13  H2  UNL     1      -2.225   0.329  -1.444  1.00  0.00     0.186 HD
BRANCH  12  14
HETATM   14  N1  UNL     1      -2.648   0.019   0.616  1.00  0.00    -0.344 N 
ATOM     15  H12 UNL     1      -2.243  -0.135   1.540  1.00  0.00     0.176 HD
ATOM     16  H11 UNL     1      -3.654   0.070   0.453  1.00  0.00     0.176 HD
ENDBRANCH  12  14
ENDBRANCH   1  12
TORSDOF 2
