REMARK  2 active torsions:
REMARK  status: ('A' for Active; 'I' for Inactive)
REMARK    1  A    between atoms: O1_1  and  N1_3 
REMARK    2  A    between atoms: N1_3  and  N2_4 
ROOT
HETATM    1  N2  UNL     1       0.751   0.304   0.178  1.00  0.00    -0.131 NA
HETATM    2  C1  UNL     1      -0.175   0.973  -0.688  1.00  0.00     0.204 C 
HETATM    3  C2  UNL     1      -1.337  -0.004  -0.763  1.00  0.00     0.328 C 
HETATM    4  F1  UNL     1      -2.459   0.527  -1.299  1.00  0.00    -0.198 F 
HETATM    5  F2  UNL     1      -0.906  -1.156  -1.366  1.00  0.00    -0.198 F 
HETATM    6  C3  UNL     1      -1.479  -0.292   0.740  1.00  0.00     0.389 C 
HETATM    7  F3  UNL     1      -1.846   0.828   1.433  1.00  0.00    -0.191 F 
HETATM    8  F4  UNL     1      -2.304  -1.334   0.993  1.00  0.00    -0.191 F 
HETATM    9  C4  UNL     1      -0.018  -0.585   1.033  1.00  0.00     0.389 C 
HETATM   10  F5  UNL     1       0.335  -0.322   2.319  1.00  0.00    -0.179 F 
HETATM   11  F6  UNL     1       0.215  -1.916   0.709  1.00  0.00    -0.179 F 
ENDROOT
BRANCH   1  12
HETATM   12  N1  UNL     1       1.723  -0.372  -0.559  1.00  0.00    -0.003 NA
BRANCH  12  13
HETATM   13  O1  UNL     1       2.823   0.386  -0.788  1.00  0.00    -0.281 OA
ATOM     14  H1  UNL     1       3.485  -0.074  -1.290  1.00  0.00     0.240 HD
ENDBRANCH  12  13
ENDBRANCH   1  12
TORSDOF 2
