REMARK  3 active torsions:
REMARK  status: ('A' for Active; 'I' for Inactive)
REMARK    1  A    between atoms: C3_4  and  N2_5 
REMARK       I    between atoms: N2_5  and  C4_7 
REMARK       I    between atoms: C4_7  and  N3_9 
REMARK    2  A    between atoms: C8_13  and  N4_14 
REMARK       I    between atoms: N4_14  and  C9_16 
REMARK    3  A    between atoms: C9_16  and  C10_18 
ROOT
HETATM    1  N2  UNL     1       3.489   0.912   1.258  1.00  0.00    -0.306 N 
ATOM      2  H2  UNL     1       3.569   0.353   2.107  1.00  0.00     0.171 HD
HETATM    3  C4  UNL     1       2.270   0.909   0.547  1.00  0.00     0.323 C 
HETATM    4  O1  UNL     1       2.093   1.582  -0.522  1.00  0.00    -0.247 OA
HETATM    5  N3  UNL     1       1.184   0.114   1.049  1.00  0.00    -0.332 N 
HETATM    6  C5  UNL     1       1.364  -0.643   2.239  1.00  0.00     0.127 C 
HETATM    7  C6  UNL     1       0.134  -1.417   2.619  1.00  0.00     0.022 C 
HETATM    8  C7  UNL     1      -0.558  -2.074   1.490  1.00  0.00     0.028 C 
HETATM    9  C8  UNL     1      -0.664  -1.276   0.237  1.00  0.00     0.102 C 
HETATM   10  C15 UNL     1      -0.046   0.100   0.349  1.00  0.00     0.152 C 
ENDROOT
BRANCH   1  11
HETATM   11  C3  UNL     1       4.601   1.668   0.826  1.00  0.00     0.070 A 
HETATM   12  C2  UNL     1       4.777   2.491  -0.245  1.00  0.00     0.140 A 
HETATM   13  N1  UNL     1       6.044   3.011  -0.250  1.00  0.00    -0.306 N 
HETATM   14  C1  UNL     1       6.566   3.934  -1.263  1.00  0.00     0.177 C 
HETATM   15  N5  UNL     1       6.660   2.522   0.805  1.00  0.00    -0.308 N 
HETATM   16  C16 UNL     1       5.844   1.710   1.489  1.00  0.00     0.138 A 
ATOM     17  H5  UNL     1       7.624   2.732   1.065  1.00  0.00     0.186 HD
ENDBRANCH   1  11
BRANCH   9  18
HETATM   18  N4  UNL     1      -2.035  -1.193  -0.252  1.00  0.00    -0.355 N 
HETATM   19  C9  UNL     1      -2.419  -1.723  -1.513  1.00  0.00     0.222 C 
HETATM   20  O2  UNL     1      -1.539  -2.291  -2.246  1.00  0.00    -0.273 OA
ATOM     21  H4  UNL     1      -2.740  -0.740   0.329  1.00  0.00     0.162 HD
BRANCH  19  22
HETATM   22  C10 UNL     1      -3.818  -1.608  -1.950  1.00  0.00     0.078 C 
HETATM   23  C11 UNL     1      -4.168  -0.146  -2.018  1.00  0.00     0.014 C 
HETATM   24  C12 UNL     1      -5.499   0.013  -1.288  1.00  0.00     0.001 C 
HETATM   25  C13 UNL     1      -6.057  -1.414  -1.295  1.00  0.00     0.001 C 
HETATM   26  C14 UNL     1      -4.783  -2.192  -0.942  1.00  0.00     0.014 C 
ENDBRANCH  19  22
ENDBRANCH   9  18
TORSDOF 3
