REMARK  4 active torsions:
REMARK  status: ('A' for Active; 'I' for Inactive)
REMARK    1  A    between atoms: N3_7  and  C4_8 
REMARK    2  A    between atoms: N4_11  and  C7_12 
REMARK    3  A    between atoms: C13_18  and  N5_19 
REMARK       I    between atoms: N5_19  and  C14_21 
REMARK    4  A    between atoms: C14_21  and  C15_23 
ROOT
HETATM    1  N1  UNL     1       6.541  -0.586  -0.598  1.00  0.00    -0.191 NA
HETATM    2  C1  UNL     1       5.412  -0.870  -0.502  1.00  0.00     0.105 C 
HETATM    3  C2  UNL     1       4.027  -1.246  -0.388  1.00  0.00     0.107 A 
HETATM    4  C3  UNL     1       3.501  -2.494  -0.668  1.00  0.00     0.134 A 
HETATM    5  N2  UNL     1       2.200  -2.418  -0.436  1.00  0.00    -0.306 N 
ATOM      6  H2  UNL     1       1.559  -3.201  -0.562  1.00  0.00     0.186 HD
HETATM    7  N3  UNL     1       1.821  -1.230  -0.027  1.00  0.00    -0.266 N 
HETATM    8  C13 UNL     1       2.963  -0.474   0.010  1.00  0.00     0.148 A 
ENDROOT
BRANCH   8   9
HETATM    9  N5  UNL     1       2.999   0.751   0.360  1.00  0.00    -0.310 N 
HETATM   10  C14 UNL     1       4.070   1.627   0.440  1.00  0.00     0.233 C 
HETATM   11  O1  UNL     1       4.806   1.710   1.455  1.00  0.00    -0.272 OA
ATOM     12  H5  UNL     1       2.098   1.149   0.623  1.00  0.00     0.170 HD
BRANCH  10  13
HETATM   13  C15 UNL     1       4.373   2.511  -0.714  1.00  0.00     0.189 C 
HETATM   14  S1  UNL     1       3.517   4.080  -0.650  1.00  0.00    -0.088 SA
ENDBRANCH  10  13
ENDBRANCH   8   9
BRANCH   7  15
HETATM   15  C4  UNL     1       0.551  -0.723   0.326  1.00  0.00     0.149 C 
HETATM   16  C5  UNL     1      -0.133  -1.435   1.468  1.00  0.00     0.052 C 
HETATM   17  C6  UNL     1      -1.561  -0.869   1.280  1.00  0.00     0.125 C 
HETATM   18  N4  UNL     1      -1.663  -0.542  -0.074  1.00  0.00    -0.387 N 
HETATM   19  C12 UNL     1      -0.498  -0.873  -0.775  1.00  0.00     0.086 C 
BRANCH  18  20
HETATM   20  C7  UNL     1      -2.800  -0.038  -0.654  1.00  0.00     0.083 C 
HETATM   21  C8  UNL     1      -3.118   1.327  -0.020  1.00  0.00     0.025 C 
HETATM   22  C9  UNL     1      -4.525   1.589  -0.471  1.00  0.00     0.002 C 
HETATM   23  C10 UNL     1      -5.141   0.231  -0.718  1.00  0.00     0.002 C 
HETATM   24  C11 UNL     1      -4.095  -0.779  -0.291  1.00  0.00     0.025 C 
ENDBRANCH  18  20
ENDBRANCH   7  15
TORSDOF 4
