REMARK  8 active torsions:
REMARK  status: ('A' for Active; 'I' for Inactive)
REMARK    1  A    between atoms: C2_2  and  C3_3 
REMARK    2  A    between atoms: C5_5  and  O1_6 
REMARK    3  A    between atoms: C7_9  and  C8_10 
REMARK    4  A    between atoms: C8_10  and  N1_11 
REMARK    5  A    between atoms: N1_11  and  S1_13 
REMARK    6  A    between atoms: S1_13  and  C9_16 
REMARK    7  A    between atoms: C9_16  and  C10_17 
REMARK    8  A    between atoms: C10_17  and  O4_18 
ROOT
HETATM    1  C3  UNL     1       0.745  -0.975   0.069  1.00  0.00     0.009 C 
HETATM    2  C4  UNL     1       0.266  -2.299   0.599  1.00  0.00     0.074 C 
HETATM    3  C5  UNL     1      -1.074  -2.187   1.284  1.00  0.00     0.163 C 
HETATM    4  C6  UNL     1      -1.922  -1.180   0.557  1.00  0.00     0.079 C 
HETATM    5  C7  UNL     1      -1.827   0.225   0.993  1.00  0.00    -0.018 C 
HETATM    6  C11 UNL     1      -2.479   0.314   2.384  1.00  0.00     0.014 C 
HETATM    7  C12 UNL     1      -1.414   0.204   3.422  1.00  0.00     0.033 C 
HETATM    8  C13 UNL     1      -0.500  -0.968   3.189  1.00  0.00     0.125 C 
HETATM    9  C14 UNL     1       0.803  -0.547   2.559  1.00  0.00     0.037 C 
HETATM   10  C15 UNL     1       0.702   0.007   1.177  1.00  0.00    -0.006 C 
HETATM   11  C16 UNL     1      -0.500   0.885   0.972  1.00  0.00     0.016 C 
HETATM   12  O5  UNL     1      -1.066  -2.065   2.628  1.00  0.00    -0.350 OA
ENDROOT
BRANCH   1  13
HETATM   13  C2  UNL     1       2.057  -1.171  -0.626  1.00  0.00     0.007 A 
HETATM   14  C1  UNL     1       1.808  -2.184  -1.775  1.00  0.00     0.022 C 
HETATM   15  C17 UNL     1       3.260  -1.527   0.110  1.00  0.00     0.057 A 
HETATM   16  C18 UNL     1       3.858  -0.288  -0.408  1.00  0.00    -0.021 A 
HETATM   17  C19 UNL     1       2.739   0.022  -1.076  1.00  0.00     0.026 A 
HETATM   18  C25 UNL     1       4.807   0.718  -0.630  1.00  0.00     0.002 A 
HETATM   19  N2  UNL     1       2.957   1.211  -1.722  1.00  0.00    -0.358 N 
HETATM   20  C20 UNL     1       4.185   1.626  -1.459  1.00  0.00     0.043 A 
ATOM     21  H2  UNL     1       2.281   1.698  -2.311  1.00  0.00     0.166 HD
HETATM   22  C21 UNL     1       4.966   2.733  -1.816  1.00  0.00     0.033 A 
HETATM   23  C22 UNL     1       6.269   2.870  -1.347  1.00  0.00     0.044 A 
HETATM   24  C23 UNL     1       6.830   1.934  -0.528  1.00  0.00     0.117 A 
HETATM   25  F1  UNL     1       8.094   2.007  -0.036  1.00  0.00    -0.206 F 
HETATM   26  C24 UNL     1       6.076   0.832  -0.162  1.00  0.00     0.056 A 
ENDBRANCH   1  13
BRANCH   3  27
HETATM   27  O1  UNL     1      -1.714  -3.438   1.049  1.00  0.00    -0.365 OA
ATOM     28  H1  UNL     1      -2.558  -3.367   1.480  1.00  0.00     0.213 HD
ENDBRANCH   3  27
BRANCH   5  29
HETATM   29  C8  UNL     1      -2.740   1.053   0.107  1.00  0.00     0.141 C 
BRANCH  29  30
HETATM   30  N1  UNL     1      -4.118   0.686   0.151  1.00  0.00    -0.319 N 
ATOM     31  H1  UNL     1      -4.523  -0.065   0.710  1.00  0.00     0.172 HD
BRANCH  30  32
HETATM   32  S1  UNL     1      -4.986   1.750  -0.921  1.00  0.00     0.228 S 
HETATM   33  O2  UNL     1      -4.803   3.171  -0.469  1.00  0.00    -0.206 OA
HETATM   34  O3  UNL     1      -6.448   1.443  -0.905  1.00  0.00    -0.206 OA
BRANCH  32  35
HETATM   35  C9  UNL     1      -4.409   1.569  -2.592  1.00  0.00     0.189 C 
BRANCH  35  36
HETATM   36  C10 UNL     1      -4.627   0.133  -3.033  1.00  0.00     0.180 C 
BRANCH  36  37
HETATM   37  O4  UNL     1      -5.957  -0.236  -2.991  1.00  0.00    -0.400 OA
ATOM     38  H4  UNL     1      -6.093  -1.135  -3.267  1.00  0.00     0.209 HD
ENDBRANCH  36  37
ENDBRANCH  35  36
ENDBRANCH  32  35
ENDBRANCH  30  32
ENDBRANCH  29  30
ENDBRANCH   5  29
TORSDOF 8
