REMARK  9 active torsions:
REMARK  status: ('A' for Active; 'I' for Inactive)
REMARK    1  A    between atoms: C2_2  and  C3_3 
REMARK    2  A    between atoms: C3_3  and  C4_4 
REMARK    3  A    between atoms: C5_5  and  N1_6 
REMARK    4  A    between atoms: N1_6  and  C6_9 
REMARK    5  A    between atoms: C6_9  and  O1_10 
REMARK    6  A    between atoms: C6_9  and  C7_12 
REMARK    7  A    between atoms: C15_21  and  O3_22 
REMARK    8  A    between atoms: C18_26  and  O4_28 
REMARK    9  A    between atoms: C23_33  and  O5_34 
ROOT
HETATM    1  C4  UNL     1      -0.259   1.784  -0.065  1.00  0.00     0.052 C 
HETATM    2  C5  UNL     1       0.448   0.774   0.811  1.00  0.00     0.226 C 
HETATM    3  C13 UNL     1      -0.218  -0.490   0.527  1.00  0.00     0.170 C 
HETATM    4  O2  UNL     1      -0.593  -1.360   1.474  1.00  0.00    -0.379 OA
HETATM    5  C14 UNL     1      -1.558  -2.176   0.824  1.00  0.00     0.209 C 
HETATM    6  C15 UNL     1      -2.055  -1.398  -0.379  1.00  0.00     0.113 C 
HETATM    7  C17 UNL     1      -3.542  -1.534  -0.518  1.00  0.00     0.133 C 
HETATM    8 BR1  UNL     1      -4.035  -3.244   0.285  1.00  0.00    -0.084 Br
HETATM    9  C18 UNL     1      -4.356  -0.445   0.077  1.00  0.00     0.088 C 
HETATM   10  C19 UNL     1      -5.691  -0.947   0.613  1.00  0.00     0.051 C 
HETATM   11  C20 UNL     1      -3.719   0.336   1.150  1.00  0.00     0.008 C 
HETATM   12  C21 UNL     1      -2.410   0.531   1.133  1.00  0.00    -0.010 C 
HETATM   13  C22 UNL     1      -1.619  -0.032   0.049  1.00  0.00     0.066 C 
HETATM   14  C23 UNL     1      -1.192   0.949  -0.963  1.00  0.00     0.142 C 
ENDROOT
BRANCH   2  15
HETATM   15  N1  UNL     1       1.815   0.647   0.272  1.00  0.00    -0.037 N 
ATOM     16  H12 UNL     1       1.809   0.422  -0.723  1.00  0.00     0.281 HD
ATOM     17  H11 UNL     1       2.286   1.550   0.223  1.00  0.00     0.281 HD
BRANCH  15  18
HETATM   18  C6  UNL     1       2.582  -0.315   1.033  1.00  0.00     0.353 C 
BRANCH  18  19
HETATM   19  O1  UNL     1       2.634   0.141   2.349  1.00  0.00    -0.366 OA
ATOM     20  H1  UNL     1       3.138  -0.491   2.849  1.00  0.00     0.212 HD
ENDBRANCH  18  19
BRANCH  18  21
HETATM   21  C7  UNL     1       3.955  -0.397   0.476  1.00  0.00    -0.003 A 
HETATM   22  C8  UNL     1       4.531  -1.653   0.286  1.00  0.00     0.011 A 
HETATM   23  C9  UNL     1       5.795  -1.801  -0.225  1.00  0.00     0.001 A 
HETATM   24  C10 UNL     1       6.548  -0.708  -0.574  1.00  0.00     0.000 A 
HETATM   25  C11 UNL     1       5.996   0.549  -0.395  1.00  0.00     0.001 A 
HETATM   26  C12 UNL     1       4.716   0.690   0.124  1.00  0.00     0.011 A 
ENDBRANCH  18  21
ENDBRANCH  15  18
ENDBRANCH   2  15
BRANCH   1  27
HETATM   27  C3  UNL     1       0.580   2.747  -0.784  1.00  0.00     0.035 C 
BRANCH  27  28
HETATM   28  C2  UNL     1       1.367   3.577   0.181  1.00  0.00    -0.036 C 
HETATM   29  C1  UNL     1       1.235   4.896   0.228  1.00  0.00     0.007 C 
ENDBRANCH  27  28
ENDBRANCH   1  27
BRANCH  14  30
HETATM   30  O5  UNL     1      -0.409   0.424  -1.956  1.00  0.00    -0.394 OA
ATOM     31  H5  UNL     1      -0.984  -0.091  -2.510  1.00  0.00     0.210 HD
ENDBRANCH  14  30
BRANCH   6  32
HETATM   32  O3  UNL     1      -1.357  -1.741  -1.498  1.00  0.00    -0.380 OA
HETATM   33  C16 UNL     1      -1.412  -3.038  -1.917  1.00  0.00     0.202 C 
ENDBRANCH   6  32
BRANCH   9  34
HETATM   34  O4  UNL     1      -4.698   0.486  -0.933  1.00  0.00    -0.385 OA
ATOM     35  H4  UNL     1      -5.219   1.183  -0.552  1.00  0.00     0.211 HD
ENDBRANCH   9  34
TORSDOF 9
