REMARK  11 active torsions:
REMARK  status: ('A' for Active; 'I' for Inactive)
REMARK    1  A    between atoms: C2_2  and  O1_4 
REMARK    2  A    between atoms: C2_2  and  C4_6 
REMARK    3  A    between atoms: C4_6  and  N1_7 
REMARK    4  A    between atoms: N2_15  and  C12_16 
REMARK    5  A    between atoms: C14_18  and  C15_19 
REMARK    6  A    between atoms: C15_19  and  C16_20 
REMARK    7  A    between atoms: C16_20  and  C17_21 
REMARK    8  A    between atoms: C17_21  and  C18_22 
REMARK       I    between atoms: N4_28  and  C21_30 
REMARK       I    between atoms: C21_30  and  N5_32 
REMARK    9  A    between atoms: N5_32  and  C22_34 
REMARK   10  A    between atoms: C22_34  and  C23_35 
REMARK   11  A    between atoms: C23_35  and  O3_36 
ROOT
HETATM    1  C12 UNL     1       1.648  -0.532   0.583  1.00  0.00     0.076 A 
HETATM    2  C13 UNL     1       1.987  -1.867   0.549  1.00  0.00     0.055 A 
HETATM    3  C14 UNL     1       3.315  -2.230   0.463  1.00  0.00     0.035 A 
HETATM    4  C19 UNL     1       4.332  -1.306   0.410  1.00  0.00     0.110 A 
HETATM    5  N3  UNL     1       4.004  -0.018   0.443  1.00  0.00    -0.349 N 
ATOM      6  H3  UNL     1       4.740   0.688   0.404  1.00  0.00     0.167 HD
HETATM    7  C20 UNL     1       2.703   0.376   0.528  1.00  0.00     0.136 A 
HETATM    8  N4  UNL     1       2.477   1.626   0.562  1.00  0.00    -0.293 N 
ATOM      9  H4  UNL     1       1.525   1.986   0.633  1.00  0.00     0.172 HD
HETATM   10  C21 UNL     1       3.607   2.519   0.497  1.00  0.00     0.325 C 
HETATM   11  O2  UNL     1       4.255   2.762   1.573  1.00  0.00    -0.247 OA
HETATM   12  N5  UNL     1       4.020   3.129  -0.690  1.00  0.00    -0.320 N 
ATOM     13  H5  UNL     1       3.453   2.902  -1.507  1.00  0.00     0.169 HD
ENDROOT
BRANCH   1  14
HETATM   14  N2  UNL     1       0.318  -0.151   0.650  1.00  0.00    -0.378 N 
HETATM   15  C11 UNL     1      -0.781  -1.102   0.759  1.00  0.00     0.125 C 
HETATM   16  C10 UNL     1      -1.631  -0.791  -0.458  1.00  0.00     0.054 C 
HETATM   17  C4  UNL     1      -2.533   0.428  -0.132  1.00  0.00     0.068 C 
HETATM   18  C25 UNL     1      -1.685   1.308   0.718  1.00  0.00     0.054 C 
HETATM   19  C24 UNL     1      -0.206   1.213   0.611  1.00  0.00     0.125 C 
BRANCH  17  20
HETATM   20  C2  UNL     1      -2.846   0.955  -1.503  1.00  0.00     0.076 C 
HETATM   21  C1  UNL     1      -3.619   2.254  -1.489  1.00  0.00     0.048 C 
HETATM   22  C3  UNL     1      -3.581   0.013  -2.376  1.00  0.00     0.048 C 
BRANCH  20  23
HETATM   23  O1  UNL     1      -1.628   1.284  -2.159  1.00  0.00    -0.388 OA
ATOM     24  H1  UNL     1      -1.142   0.468  -2.168  1.00  0.00     0.210 HD
ENDBRANCH  20  23
ENDBRANCH  17  20
BRANCH  17  25
HETATM   25  N1  UNL     1      -3.662   0.047   0.620  1.00  0.00    -0.361 N 
HETATM   26  C5  UNL     1      -3.932  -1.252   1.005  1.00  0.00     0.064 C 
HETATM   27  C6  UNL     1      -5.400  -1.584   0.964  1.00  0.00     0.045 C 
HETATM   28  C7  UNL     1      -6.294  -0.404   0.798  1.00  0.00     0.010 C 
HETATM   29  C8  UNL     1      -5.784   0.838   1.441  1.00  0.00     0.045 C 
HETATM   30  C9  UNL     1      -4.285   0.979   1.465  1.00  0.00     0.064 C 
ENDBRANCH  17  25
ENDBRANCH   1  14
BRANCH   3  31
HETATM   31  C15 UNL     1       3.655  -3.643   0.420  1.00  0.00    -0.066 C 
BRANCH  31  32
HETATM   32  C16 UNL     1       3.947  -4.824   0.357  1.00  0.00    -0.100 C 
BRANCH  32  33
HETATM   33  C17 UNL     1       4.331  -6.241   0.284  1.00  0.00     0.109 C 
BRANCH  33  34
HETATM   34  C18 UNL     1       5.435  -6.429  -0.741  1.00  0.00     0.126 C 
HETATM   35 CL1  UNL     1       5.928  -8.118  -0.859  1.00  0.00    -0.130 Cl
ENDBRANCH  33  34
ENDBRANCH  32  33
ENDBRANCH  31  32
ENDBRANCH   3  31
BRANCH  12  36
HETATM   36  C22 UNL     1       5.092   4.006  -0.940  1.00  0.00     0.091 C 
BRANCH  36  37
HETATM   37  C23 UNL     1       5.084   5.287  -0.140  1.00  0.00     0.208 C 
BRANCH  37  38
HETATM   38  O3  UNL     1       6.235   6.032  -0.556  1.00  0.00    -0.396 OA
ATOM     39  H3  UNL     1       6.230   6.838  -0.053  1.00  0.00     0.209 HD
ENDBRANCH  37  38
ENDBRANCH  36  37
ENDBRANCH  12  36
TORSDOF 11
