REMARK  8 active torsions:
REMARK  status: ('A' for Active; 'I' for Inactive)
REMARK    1  A    between atoms: C4_4  and  C5_5 
REMARK    2  A    between atoms: C5_5  and  C6_6 
REMARK    3  A    between atoms: C6_6  and  C7_7 
REMARK    4  A    between atoms: C7_7  and  C8_8 
REMARK    5  A    between atoms: C13_15  and  O3_16 
REMARK    6  A    between atoms: C18_23  and  C19_24 
REMARK    7  A    between atoms: C19_24  and  O4_25 
REMARK    8  A    between atoms: C20_27  and  C21_28 
ROOT
HETATM    1  C7  UNL     1      -1.568  -0.082   0.136  1.00  0.00     0.081 C 
HETATM    2  C9  UNL     1      -0.719   1.159   0.169  1.00  0.00     0.024 C 
HETATM    3  C10 UNL     1       0.740   1.005   0.092  1.00  0.00     0.014 C 
HETATM    4  C11 UNL     1       1.332  -0.313   0.400  1.00  0.00    -0.006 C 
HETATM    5  C12 UNL     1       0.332  -1.238   1.044  1.00  0.00     0.053 C 
HETATM    6  C13 UNL     1      -0.675  -1.295  -0.089  1.00  0.00     0.089 C 
HETATM    7  C14 UNL     1       0.139  -1.061  -1.379  1.00  0.00     0.098 C 
HETATM    8 BR1  UNL     1      -0.372  -2.270  -2.767  1.00  0.00    -0.088 Br
HETATM    9  C15 UNL     1       1.485  -1.187  -0.873  1.00  0.00     0.014 C 
HETATM   10  C16 UNL     1       2.664  -0.613  -1.468  1.00  0.00     0.014 C 
HETATM   11  C17 UNL     1       3.601  -0.784  -0.255  1.00  0.00     0.025 C 
HETATM   12  C18 UNL     1       4.768   0.131  -0.299  1.00  0.00     0.055 C 
HETATM   13  C20 UNL     1       4.470   1.062   0.874  1.00  0.00     0.229 C 
HETATM   14  O7  UNL     1       3.127   0.982   1.112  1.00  0.00    -0.368 OA
HETATM   15  C22 UNL     1       2.712  -0.336   0.905  1.00  0.00     0.136 C 
ENDROOT
BRANCH   1  16
HETATM   16  C6  UNL     1      -2.573  -0.090  -0.954  1.00  0.00     0.027 C 
BRANCH  16  17
HETATM   17  C5  UNL     1      -3.659   0.904  -0.954  1.00  0.00     0.028 C 
BRANCH  17  18
HETATM   18  C4  UNL     1      -4.622   0.928   0.134  1.00  0.00    -0.025 C 
HETATM   19  C2  UNL     1      -5.929   0.669  -0.101  1.00  0.00    -0.091 C 
HETATM   20  C1  UNL     1      -6.886   0.698   1.008  1.00  0.00     0.042 C 
HETATM   21  C3  UNL     1      -6.394   0.355  -1.483  1.00  0.00     0.042 C 
ENDBRANCH  17  18
ENDBRANCH  16  17
ENDBRANCH   1  16
BRANCH   1  22
HETATM   22  C8  UNL     1      -2.218  -0.309   1.445  1.00  0.00     0.185 C 
HETATM   23  O1  UNL     1      -2.024   0.461   2.448  1.00  0.00    -0.647 OA
HETATM   24  O2  UNL     1      -3.075  -1.379   1.651  1.00  0.00    -0.647 OA
ENDBRANCH   1  22
BRANCH   6  25
HETATM   25  O3  UNL     1      -1.351  -2.475  -0.107  1.00  0.00    -0.387 OA
ATOM     26  H3  UNL     1      -0.794  -3.232  -0.247  1.00  0.00     0.210 HD
ENDBRANCH   6  25
BRANCH  12  27
HETATM   27  C19 UNL     1       6.000  -0.665   0.091  1.00  0.00     0.172 C 
BRANCH  27  28
HETATM   28  O4  UNL     1       6.224  -1.728  -0.771  1.00  0.00    -0.400 OA
ATOM     29  H4  UNL     1       6.995  -2.226  -0.527  1.00  0.00     0.209 HD
ENDBRANCH  27  28
ENDBRANCH  12  27
BRANCH  13  30
HETATM   30  C21 UNL     1       4.887   2.421   0.440  1.00  0.00     0.203 C 
HETATM   31  O5  UNL     1       4.083   3.380   0.311  1.00  0.00    -0.646 OA
HETATM   32  O6  UNL     1       6.222   2.672   0.156  1.00  0.00    -0.646 OA
ENDBRANCH  13  30
TORSDOF 8
