REMARK  5 active torsions:
REMARK  status: ('A' for Active; 'I' for Inactive)
REMARK    1  A    between atoms: C3_7  and  N3_8 
REMARK    2  A    between atoms: N3_8  and  C4_10 
REMARK    3  A    between atoms: C4_10  and  C5_11 
REMARK    4  A    between atoms: C5_11  and  N4_12 
REMARK    5  A    between atoms: C6_18  and  N6_19 
ROOT
HETATM    1  C1  UNL     1      -4.113   0.470   0.433  1.00  0.00     0.074 C 
HETATM    2  C2  UNL     1      -2.640   0.504   0.202  1.00  0.00     0.066 A 
HETATM    3  N1  UNL     1      -2.045   1.663  -0.082  1.00  0.00    -0.287 N 
ATOM      4  H1  UNL     1      -2.582   2.528  -0.144  1.00  0.00     0.187 HD
HETATM    5  N2  UNL     1      -0.728   1.658  -0.283  1.00  0.00    -0.132 N 
ATOM      6  H2  UNL     1      -0.255   2.535  -0.502  1.00  0.00     0.205 HD
HETATM    7  C3  UNL     1      -0.009   0.531  -0.205  1.00  0.00     0.694 A 
HETATM    8  N5  UNL     1      -0.613  -0.625   0.081  1.00  0.00    -0.174 N 
ATOM      9  H5  UNL     1      -0.057  -1.478   0.139  1.00  0.00     0.186 HD
HETATM   10  C6  UNL     1      -1.959  -0.688   0.297  1.00  0.00     0.138 A 
ENDROOT
BRANCH   7  11
HETATM   11  N3  UNL     1       1.251   0.568  -0.403  1.00  0.00    -0.223 N 
ATOM     12  H3  UNL     1       1.703   1.456  -0.620  1.00  0.00     0.177 HD
BRANCH  11  13
HETATM   13  C4  UNL     1       2.033  -0.622  -0.324  1.00  0.00     0.165 C 
BRANCH  13  14
HETATM   14  C5  UNL     1       3.503  -0.384  -0.573  1.00  0.00     0.249 C 
BRANCH  14  15
HETATM   15  N4  UNL     1       4.094   0.520   0.356  1.00  0.00    -0.078 N 
ATOM     16  H43 UNL     1       3.583   1.402   0.377  1.00  0.00     0.274 HD
ATOM     17  H42 UNL     1       3.935   0.210   1.314  1.00  0.00     0.274 HD
ATOM     18  H41 UNL     1       5.087   0.681   0.188  1.00  0.00     0.274 HD
ENDBRANCH  14  15
ENDBRANCH  13  14
ENDBRANCH  11  13
ENDBRANCH   7  11
BRANCH  10  19
HETATM   19  N6  UNL     1      -2.556  -1.786   0.572  1.00  0.00    -0.383 N 
ATOM     20  H62 UNL     1      -3.562  -1.833   0.733  1.00  0.00     0.157 HD
ATOM     21  H61 UNL     1      -2.051  -2.670   0.642  1.00  0.00     0.157 HD
ENDBRANCH  10  19
TORSDOF 5
