REMARK  6 active torsions:
REMARK  status: ('A' for Active; 'I' for Inactive)
REMARK    1  A    between atoms: N1_2  and  C2_4 
REMARK    2  A    between atoms: C3_7  and  N3_8 
REMARK    3  A    between atoms: N5_13  and  C4_14 
REMARK    4  A    between atoms: C4_14  and  C5_15 
REMARK    5  A    between atoms: C5_15  and  C6_16 
REMARK    6  A    between atoms: C6_16  and  N6_17 
ROOT
HETATM    1  C2  UNL     1      -1.375   0.280   0.208  1.00  0.00     0.709 A 
HETATM    2  N2  UNL     1      -2.550  -0.385   0.065  1.00  0.00    -0.020 N 
ATOM      3  H2  UNL     1      -3.466   0.041  -0.080  1.00  0.00     0.203 HD
HETATM    4  C3  UNL     1      -2.296  -1.701   0.148  1.00  0.00     0.705 A 
HETATM    5  N4  UNL     1      -0.971  -1.834   0.339  1.00  0.00    -0.115 N 
ATOM      6  H4  UNL     1      -0.478  -2.721   0.439  1.00  0.00     0.206 HD
HETATM    7  N5  UNL     1      -0.401  -0.633   0.378  1.00  0.00    -0.109 N 
ENDROOT
BRANCH   7   8
HETATM    8  C4  UNL     1       0.994  -0.374   0.565  1.00  0.00     0.170 C 
BRANCH   8   9
HETATM    9  C5  UNL     1       1.642  -0.343  -0.826  1.00  0.00     0.050 C 
BRANCH   9  10
HETATM   10  C6  UNL     1       3.129  -0.064  -0.569  1.00  0.00     0.231 C 
BRANCH  10  11
HETATM   11  N6  UNL     1       3.177   1.217   0.112  1.00  0.00    -0.079 N 
ATOM     12  H63 UNL     1       2.702   1.966  -0.392  1.00  0.00     0.274 HD
ATOM     13  H62 UNL     1       2.603   1.254   0.954  1.00  0.00     0.274 HD
ATOM     14  H61 UNL     1       4.165   1.402   0.283  1.00  0.00     0.274 HD
ENDBRANCH  10  11
ENDBRANCH   9  10
ENDBRANCH   8   9
ENDBRANCH   7   8
BRANCH   1  15
HETATM   15  N1  UNL     1      -1.186   1.552   0.189  1.00  0.00    -0.228 N 
HETATM   16  C1  UNL     1      -2.239   2.506   0.007  1.00  0.00     0.165 C 
ATOM     17  H1  UNL     1      -0.235   1.900   0.310  1.00  0.00     0.177 HD
ENDBRANCH   1  15
BRANCH   4  18
HETATM   18  N3  UNL     1      -3.194  -2.630   0.053  1.00  0.00    -0.233 N 
ATOM     19  H32 UNL     1      -4.199  -2.529  -0.092  1.00  0.00     0.174 HD
ATOM     20  H31 UNL     1      -3.001  -3.630   0.116  1.00  0.00     0.174 HD
ENDBRANCH   4  18
TORSDOF 6
