REMARK  5 active torsions:
REMARK  status: ('A' for Active; 'I' for Inactive)
REMARK    1  A    between atoms: N1_1  and  C1_5 
REMARK    2  A    between atoms: C1_5  and  C2_6 
REMARK    3  A    between atoms: C2_6  and  N2_7 
REMARK    4  A    between atoms: C2_6  and  C3_11 
REMARK    5  A    between atoms: C3_11  and  C4_12 
ROOT
HETATM    1  C2  UNL     1      -1.985  -0.400  -0.165  1.00  0.00     0.210 C 
ENDROOT
BRANCH   1   2
HETATM    2  C1  UNL     1      -2.187   1.067  -0.180  1.00  0.00     0.262 C 
BRANCH   2   3
HETATM    3  N1  UNL     1      -3.503   1.412  -0.771  1.00  0.00    -0.077 N 
ATOM      4  H13 UNL     1      -3.618   1.006  -1.700  1.00  0.00     0.274 HD
ATOM      5  H12 UNL     1      -4.267   0.931  -0.297  1.00  0.00     0.274 HD
ATOM      6  H11 UNL     1      -3.642   2.422  -0.781  1.00  0.00     0.274 HD
ENDBRANCH   2   3
ENDBRANCH   1   2
BRANCH   1   7
HETATM    7  N2  UNL     1      -3.113  -0.973   0.632  1.00  0.00    -0.073 N 
ATOM      8  H23 UNL     1      -3.197  -0.567   1.564  1.00  0.00     0.274 HD
ATOM      9  H22 UNL     1      -4.033  -0.695   0.289  1.00  0.00     0.274 HD
ATOM     10  H21 UNL     1      -2.974  -1.983   0.642  1.00  0.00     0.274 HD
ENDBRANCH   1   7
BRANCH   1  11
HETATM   11  C3  UNL     1      -0.748  -0.917   0.447  1.00  0.00     0.059 C 
BRANCH  11  12
HETATM   12  C4  UNL     1       0.580  -0.531  -0.093  1.00  0.00     0.080 C 
HETATM   13  C5  UNL     1       0.850   0.913  -0.002  1.00  0.00     0.051 C 
HETATM   14  C6  UNL     1       2.259   1.029   0.500  1.00  0.00     0.103 A 
HETATM   15  N3  UNL     1       3.413   1.402  -0.125  1.00  0.00    -0.407 N 
HETATM   16  C7  UNL     1       2.996   0.173  -0.536  1.00  0.00     0.116 A 
ATOM     17  H3  UNL     1       4.124   2.127  -0.221  1.00  0.00     0.154 HD
HETATM   18  C8  UNL     1       2.922  -1.163   0.088  1.00  0.00     0.141 C 
HETATM   19  N4  UNL     1       1.558  -1.417   0.447  1.00  0.00    -0.415 N 
ATOM     20  H4  UNL     1       1.300  -2.192   1.058  1.00  0.00     0.153 HD
ENDBRANCH  11  12
ENDBRANCH   1  11
TORSDOF 5
