REMARK  5 active torsions:
REMARK  status: ('A' for Active; 'I' for Inactive)
REMARK    1  A    between atoms: N1_1  and  C1_5 
REMARK    2  A    between atoms: C1_5  and  C2_6 
REMARK    3  A    between atoms: C2_6  and  C3_7 
REMARK    4  A    between atoms: C5_9  and  C6_10 
REMARK    5  A    between atoms: C8_12  and  N2_13 
ROOT
HETATM    1  C3  UNL     1       1.738  -0.631  -0.451  1.00  0.00     0.029 A 
HETATM    2  C4  UNL     1       0.541  -0.642   0.241  1.00  0.00     0.055 A 
HETATM    3  C5  UNL     1      -0.360   0.174  -0.391  1.00  0.00     0.058 A 
HETATM    4  N4  UNL     1       0.292   0.673  -1.459  1.00  0.00    -0.303 N 
ATOM      5  H4  UNL     1      -0.105   1.320  -2.140  1.00  0.00     0.186 HD
HETATM    6  N5  UNL     1       1.536   0.193  -1.490  1.00  0.00    -0.305 N 
ATOM      7  H5  UNL     1       2.232   0.419  -2.200  1.00  0.00     0.186 HD
ENDROOT
BRANCH   3   8
HETATM    8  C6  UNL     1      -1.741   0.451   0.003  1.00  0.00     0.243 C 
HETATM    9  C7  UNL     1      -2.503  -0.757   0.558  1.00  0.00     0.102 C 
HETATM   10  C8  UNL     1      -3.682  -0.036  -0.111  1.00  0.00     0.383 C 
HETATM   11  N3  UNL     1      -2.698   0.404  -1.114  1.00  0.00    -0.036 N 
ATOM     12  H32 UNL     1      -2.865   1.212  -1.714  1.00  0.00     0.280 HD
ATOM     13  H31 UNL     1      -2.513  -0.136  -1.959  1.00  0.00     0.280 HD
BRANCH  10  14
HETATM   14  N2  UNL     1      -4.173   1.077   0.665  1.00  0.00    -0.050 N 
ATOM     15  H23 UNL     1      -4.415   0.783   1.611  1.00  0.00     0.276 HD
ATOM     16  H22 UNL     1      -3.421   1.731   0.881  1.00  0.00     0.276 HD
ATOM     17  H21 UNL     1      -4.956   1.556   0.221  1.00  0.00     0.276 HD
ENDBRANCH  10  14
ENDBRANCH   3   8
BRANCH   1  18
HETATM   18  C2  UNL     1       2.984  -1.372  -0.120  1.00  0.00     0.085 C 
BRANCH  18  19
HETATM   19  C1  UNL     1       3.797  -0.439   0.790  1.00  0.00     0.235 C 
BRANCH  19  20
HETATM   20  N1  UNL     1       4.049   0.763   0.014  1.00  0.00    -0.079 N 
ATOM     21  H13 UNL     1       4.497   0.580  -0.884  1.00  0.00     0.274 HD
ATOM     22  H12 UNL     1       3.201   1.193  -0.355  1.00  0.00     0.274 HD
ATOM     23  H11 UNL     1       4.589   1.383   0.618  1.00  0.00     0.274 HD
ENDBRANCH  19  20
ENDBRANCH  18  19
ENDBRANCH   1  18
TORSDOF 5
