REMARK  7 active torsions:
REMARK  status: ('A' for Active; 'I' for Inactive)
REMARK    1  A    between atoms: C3_3  and  C4_4 
REMARK    2  A    between atoms: C5_8  and  N2_9 
REMARK    3  A    between atoms: N2_9  and  C6_11 
REMARK    4  A    between atoms: C11_25  and  N7_26 
REMARK    5  A    between atoms: N7_26  and  N8_27 
REMARK    6  A    between atoms: N8_27  and  C12_29 
REMARK    7  A    between atoms: N9_31  and  N10_32 
ROOT
HETATM    1  C6  UNL     1       0.409  -0.384  -0.240  1.00  0.00     0.250 C 
HETATM    2  N3  UNL     1       0.511   0.709  -1.198  1.00  0.00    -0.199 N 
ATOM      3  H3  UNL     1       0.591   0.548  -2.202  1.00  0.00     0.180 HD
HETATM    4  C7  UNL     1       0.491   2.030  -0.630  1.00  0.00     0.707 A 
HETATM    5  N4  UNL     1       1.008   3.047  -1.329  1.00  0.00    -0.175 N 
ATOM      6  H4  UNL     1       1.409   2.879  -2.252  1.00  0.00     0.186 HD
HETATM    7  C8  UNL     1       1.000   4.311  -0.808  1.00  0.00     0.116 A 
HETATM    8  N5  UNL     1       1.497   5.280  -1.483  1.00  0.00    -0.385 N 
ATOM      9  H51 UNL     1       1.491   6.223  -1.094  1.00  0.00     0.157 HD
ATOM     10  H52 UNL     1       1.905   5.148  -2.409  1.00  0.00     0.157 HD
HETATM   11  C9  UNL     1       0.445   4.490   0.451  1.00  0.00     0.069 A 
HETATM   12  C10 UNL     1      -0.078   3.454   1.155  1.00  0.00     0.146 A 
HETATM   13  N6  UNL     1      -0.042   2.216   0.585  1.00  0.00    -0.060 N 
HETATM   14  O3  UNL     1      -0.560   1.155   1.268  1.00  0.00    -0.232 OA
HETATM   15  C11 UNL     1      -0.849  -0.050   0.588  1.00  0.00     0.308 C 
ENDROOT
BRANCH  15  16
HETATM   16  N7  UNL     1      -1.923   0.214  -0.347  1.00  0.00    -0.101 NA
BRANCH  16  17
HETATM   17  N8  UNL     1      -3.116   0.530   0.298  1.00  0.00    -0.286 N 
ATOM     18  H8  UNL     1      -3.154   1.399   0.830  1.00  0.00     0.184 HD
BRANCH  17  19
HETATM   19  C12 UNL     1      -4.270  -0.270   0.264  1.00  0.00     0.136 A 
HETATM   20  C13 UNL     1      -5.466   0.008   0.887  1.00  0.00     0.167 A 
HETATM   21  N9  UNL     1      -6.368  -0.948   0.665  1.00  0.00    -0.258 N 
HETATM   22  C14 UNL     1      -5.743  -1.858  -0.116  1.00  0.00     0.100 A 
HETATM   23  C15 UNL     1      -6.346  -3.121  -0.636  1.00  0.00     0.091 C 
HETATM   24  N11 UNL     1      -4.482  -1.451  -0.357  1.00  0.00    -0.329 N 
ATOM     25  H11 UNL     1      -3.796  -1.955  -0.919  1.00  0.00     0.168 HD
BRANCH  21  26
HETATM   26  N10 UNL     1      -7.685  -1.010   1.132  1.00  0.00    -0.338 N 
ATOM     27 2H10 UNL     1      -8.156  -0.324   1.721  1.00  0.00     0.177 HD
ATOM     28 1H10 UNL     1      -8.375  -1.742   0.962  1.00  0.00     0.177 HD
ENDBRANCH  21  26
ENDBRANCH  17  19
ENDBRANCH  16  17
ENDBRANCH  15  16
BRANCH   1  29
HETATM   29  N2  UNL     1       1.524  -0.357   0.645  1.00  0.00    -0.344 N 
ATOM     30  H2  UNL     1       1.338  -0.068   1.605  1.00  0.00     0.163 HD
BRANCH  29  31
HETATM   31  C5  UNL     1       2.869  -0.691   0.330  1.00  0.00     0.171 A 
HETATM   32  O2  UNL     1       3.911  -0.598   1.147  1.00  0.00    -0.286 OA
HETATM   33  C3  UNL     1       5.013  -0.982   0.565  1.00  0.00     0.150 A 
HETATM   34  C2  UNL     1       4.733  -1.365  -0.729  1.00  0.00     0.006 A 
HETATM   35  C1  UNL     1       5.671  -1.873  -1.767  1.00  0.00     0.053 C 
HETATM   36  C16 UNL     1       3.352  -1.173  -0.865  1.00  0.00     0.106 A 
HETATM   37  N12 UNL     1       2.667  -1.469  -2.053  1.00  0.00    -0.097 NA
BRANCH  33  38
HETATM   38  C4  UNL     1       6.348  -1.013   1.158  1.00  0.00     0.289 C 
HETATM   39  N1  UNL     1       6.485  -0.587   2.505  1.00  0.00    -0.055 NA
HETATM   40  O1  UNL     1       7.346  -1.399   0.518  1.00  0.00    -0.269 OA
ENDBRANCH  33  38
ENDBRANCH  29  31
ENDBRANCH   1  29
TORSDOF 7
