REMARK  11 active torsions:
REMARK  status: ('A' for Active; 'I' for Inactive)
REMARK    1  A    between atoms: N2_5  and  N3_6 
REMARK    2  A    between atoms: C2_9  and  C3_10 
REMARK    3  A    between atoms: C3_10  and  S1_11 
REMARK    4  A    between atoms: S1_11  and  C4_12 
REMARK    5  A    between atoms: C6_18  and  N6_19 
REMARK    6  A    between atoms: N6_19  and  C7_21 
REMARK    7  A    between atoms: C11_25  and  N7_26 
REMARK    8  A    between atoms: C13_31  and  O1_32 
REMARK    9  A    between atoms: C14_37  and  N10_38 
REMARK   10  A    between atoms: N10_38  and  N11_40 
REMARK   11  A    between atoms: N12_43  and  N13_44 
ROOT
HETATM    1  C4  UNL     1      -1.202  -0.986   0.453  1.00  0.00     0.175 A 
HETATM    2  N4  UNL     1      -0.521   0.002  -0.134  1.00  0.00    -0.167 N 
ATOM      3  H4  UNL     1      -0.935   0.850  -0.520  1.00  0.00     0.186 HD
HETATM    4  C5  UNL     1       0.780  -0.287  -0.139  1.00  0.00     0.709 A 
HETATM    5  N5  UNL     1       1.844   0.415  -0.546  1.00  0.00    -0.175 N 
ATOM      6  H5  UNL     1       1.693   1.319  -0.994  1.00  0.00     0.186 HD
HETATM    7  C6  UNL     1       3.142  -0.039  -0.382  1.00  0.00     0.121 A 
HETATM    8  C12 UNL     1       3.296  -1.242   0.214  1.00  0.00     0.107 A 
HETATM    9  C13 UNL     1       2.170  -1.962   0.634  1.00  0.00     0.183 A 
HETATM   10  N8  UNL     1       0.937  -1.484   0.456  1.00  0.00    -0.061 N 
HETATM   11  N9  UNL     1      -0.228  -1.939   0.822  1.00  0.00    -0.256 N 
ATOM     12  H9  UNL     1      -0.405  -2.827   1.292  1.00  0.00     0.190 HD
ENDROOT
BRANCH   1  13
HETATM   13  S1  UNL     1      -2.834  -1.110   0.988  1.00  0.00    -0.086 SA
BRANCH  13  14
HETATM   14  C3  UNL     1      -4.173  -1.453  -0.112  1.00  0.00     0.146 C 
BRANCH  14  15
HETATM   15  C2  UNL     1      -5.065  -0.237  -0.218  1.00  0.00     0.109 A 
HETATM   16  N2  UNL     1      -5.027   0.888  -0.842  1.00  0.00    -0.091 N 
HETATM   17  C1  UNL     1      -6.163   1.604  -0.573  1.00  0.00     0.719 A 
HETATM   18  N1  UNL     1      -6.454   2.806  -1.028  1.00  0.00    -0.231 N 
HETATM   19  N12 UNL     1      -6.964   0.913   0.244  1.00  0.00    -0.071 N 
ATOM     20  H12 UNL     1      -5.843   3.333  -1.651  1.00  0.00     0.174 HD
ATOM     21  H11 UNL     1      -7.300   3.339  -0.828  1.00  0.00     0.174 HD
HETATM   22  C14 UNL     1      -6.304  -0.233   0.476  1.00  0.00     0.185 A 
BRANCH  16  23
HETATM   23  N3  UNL     1      -4.066   1.365  -1.753  1.00  0.00    -0.324 N 
ATOM     24  H32 UNL     1      -4.036   2.257  -2.248  1.00  0.00     0.178 HD
ATOM     25  H31 UNL     1      -3.220   0.832  -1.953  1.00  0.00     0.178 HD
ENDBRANCH  16  23
BRANCH  19  26
HETATM   26  N13 UNL     1      -8.206   1.270   0.816  1.00  0.00    -0.322 N 
ATOM     27 2H13 UNL     1      -8.707   2.141   0.640  1.00  0.00     0.178 HD
ATOM     28 1H13 UNL     1      -8.817   0.743   1.439  1.00  0.00     0.178 HD
ENDBRANCH  19  26
BRANCH  22  29
HETATM   29  N10 UNL     1      -6.660  -1.312   1.305  1.00  0.00    -0.288 N 
ATOM     30  H10 UNL     1      -6.412  -1.247   2.292  1.00  0.00     0.188 HD
BRANCH  29  31
HETATM   31  N11 UNL     1      -7.330  -2.471   0.882  1.00  0.00    -0.344 N 
ATOM     32 2H11 UNL     1      -7.570  -2.518  -0.108  1.00  0.00     0.176 HD
ATOM     33 1H11 UNL     1      -7.588  -3.254   1.483  1.00  0.00     0.176 HD
ENDBRANCH  29  31
ENDBRANCH  22  29
ENDBRANCH  14  15
ENDBRANCH  13  14
ENDBRANCH   1  13
BRANCH   9  34
HETATM   34  O1  UNL     1       2.302  -3.191   1.251  1.00  0.00    -0.344 OA
ATOM     35  H1  UNL     1       1.538  -3.679   1.536  1.00  0.00     0.219 HD
ENDBRANCH   9  34
BRANCH   7  36
HETATM   36  N6  UNL     1       4.142   0.790  -0.918  1.00  0.00    -0.369 N 
ATOM     37  H6  UNL     1       4.087   0.945  -1.925  1.00  0.00     0.161 HD
BRANCH  36  38
HETATM   38  C7  UNL     1       5.227   1.449  -0.257  1.00  0.00     0.113 C 
HETATM   39  C8  UNL     1       6.065   2.092  -1.399  1.00  0.00     0.027 C 
HETATM   40  C9  UNL     1       6.727   0.826  -1.914  1.00  0.00     0.004 C 
HETATM   41  C10 UNL     1       6.843  -0.118  -0.703  1.00  0.00     0.035 C 
HETATM   42  C11 UNL     1       6.302   0.698   0.421  1.00  0.00     0.206 C 
BRANCH  42  43
HETATM   43  N7  UNL     1       5.981   0.034   1.628  1.00  0.00    -0.073 N 
ATOM     44  H73 UNL     1       5.575   0.703   2.282  1.00  0.00     0.274 HD
ATOM     45  H72 UNL     1       5.187  -0.586   1.469  1.00  0.00     0.274 HD
ATOM     46  H71 UNL     1       6.724  -0.485   2.096  1.00  0.00     0.274 HD
ENDBRANCH  42  43
ENDBRANCH  36  38
ENDBRANCH   7  36
TORSDOF 11
