REMARK  10 active torsions:
REMARK  status: ('A' for Active; 'I' for Inactive)
REMARK    1  A    between atoms: C2_2  and  O1_4 
REMARK    2  A    between atoms: C2_2  and  C4_6 
REMARK    3  A    between atoms: C5_10  and  C6_11 
REMARK       I    between atoms: C6_11  and  N2_13 
REMARK    4  A    between atoms: N2_13  and  C7_15 
REMARK    5  A    between atoms: C9_18  and  N4_19 
REMARK    6  A    between atoms: N4_19  and  C10_21 
REMARK    7  A    between atoms: C10_21  and  C13_24 
REMARK    8  A    between atoms: C13_24  and  O4_25 
REMARK    9  A    between atoms: C13_24  and  O5_27 
REMARK   10  A    between atoms: C14_29  and  O6_30 
ROOT
HETATM    1  C7  UNL     1       0.129  -0.622  -0.228  1.00  0.00     0.136 A 
HETATM    2  C8  UNL     1      -0.196   0.748  -0.284  1.00  0.00     0.171 A 
HETATM    3  N3  UNL     1      -1.449   1.199  -0.230  1.00  0.00    -0.204 N 
HETATM    4  C9  UNL     1      -2.534   0.365  -0.113  1.00  0.00     0.162 A 
HETATM    5  C14 UNL     1      -2.250  -0.966  -0.056  1.00  0.00     0.164 A 
HETATM    6  C15 UNL     1      -0.922  -1.454  -0.113  1.00  0.00     0.239 A 
HETATM    7  O7  UNL     1      -0.736  -2.693  -0.052  1.00  0.00    -0.283 OA
HETATM    8  N5  UNL     1      -1.432   2.616  -0.316  1.00  0.00     0.002 NA
HETATM    9  N6  UNL     1      -0.144   3.028   0.029  1.00  0.00    -0.007 NA
HETATM   10  N7  UNL     1       0.628   1.924  -0.405  1.00  0.00    -0.268 N 
ATOM     11  H7  UNL     1       1.590   1.955  -0.741  1.00  0.00     0.185 HD
ENDROOT
BRANCH   1  12
HETATM   12  N2  UNL     1       1.486  -0.939  -0.270  1.00  0.00    -0.313 N 
HETATM   13  C6  UNL     1       2.176  -2.131  -0.437  1.00  0.00     0.299 C 
HETATM   14  O3  UNL     1       1.677  -3.237  -0.604  1.00  0.00    -0.263 OA
ATOM     15  H2  UNL     1       2.096  -0.130  -0.154  1.00  0.00     0.169 HD
BRANCH  13  16
HETATM   16  C5  UNL     1       3.660  -2.093  -0.415  1.00  0.00     0.240 A 
HETATM   17  O2  UNL     1       4.505  -3.066  -0.566  1.00  0.00    -0.212 OA
HETATM   18  N1  UNL     1       5.726  -2.638  -0.482  1.00  0.00    -0.243 N 
HETATM   19  C4  UNL     1       5.719  -1.313  -0.263  1.00  0.00     0.138 A 
ATOM     20  H1  UNL     1       6.561  -3.217  -0.569  1.00  0.00     0.196 HD
HETATM   21  N8  UNL     1       4.419  -0.977  -0.223  1.00  0.00    -0.316 N 
ATOM     22  H8  UNL     1       4.057  -0.035  -0.073  1.00  0.00     0.169 HD
BRANCH  19  23
HETATM   23  C2  UNL     1       6.881  -0.403  -0.098  1.00  0.00     0.110 C 
HETATM   24  C1  UNL     1       6.591   0.998  -0.596  1.00  0.00     0.054 C 
HETATM   25  C3  UNL     1       8.092  -0.956  -0.811  1.00  0.00     0.054 C 
BRANCH  23  26
HETATM   26  O1  UNL     1       7.214  -0.335   1.259  1.00  0.00    -0.383 OA
ATOM     27  H1  UNL     1       7.396  -1.214   1.571  1.00  0.00     0.211 HD
ENDBRANCH  23  26
ENDBRANCH  19  23
ENDBRANCH  13  16
ENDBRANCH   1  12
BRANCH   5  28
HETATM   28  O6  UNL     1      -3.196  -1.952   0.061  1.00  0.00    -0.354 OA
ATOM     29  H6  UNL     1      -2.998  -2.880   0.101  1.00  0.00     0.218 HD
ENDBRANCH   5  28
BRANCH   4  30
HETATM   30  N4  UNL     1      -3.821   0.884  -0.061  1.00  0.00    -0.359 N 
ATOM     31  H4  UNL     1      -3.832   1.902  -0.125  1.00  0.00     0.162 HD
BRANCH  30  32
HETATM   32  C10 UNL     1      -5.122   0.338   0.060  1.00  0.00     0.073 C 
HETATM   33  C11 UNL     1      -5.437  -0.460   1.273  1.00  0.00     0.043 C 
HETATM   34  C12 UNL     1      -5.507  -0.434  -1.177  1.00  0.00     0.043 C 
BRANCH  32  35
HETATM   35  C13 UNL     1      -6.150   1.515   0.075  1.00  0.00     0.281 C 
BRANCH  35  36
HETATM   36  O4  UNL     1      -7.396   0.905   0.196  1.00  0.00    -0.369 OA
ATOM     37  H4  UNL     1      -8.021   1.620   0.205  1.00  0.00     0.212 HD
ENDBRANCH  35  36
BRANCH  35  38
HETATM   38  O5  UNL     1      -5.958   2.331   1.160  1.00  0.00    -0.369 OA
ATOM     39  H5  UNL     1      -6.583   3.046   1.169  1.00  0.00     0.212 HD
ENDBRANCH  35  38
ENDBRANCH  32  35
ENDBRANCH  30  32
ENDBRANCH   4  30
TORSDOF 10
