REMARK  3 active torsions:
REMARK  status: ('A' for Active; 'I' for Inactive)
REMARK       I    between atoms: C2_2  and  N1_4 
REMARK    1  A    between atoms: N1_4  and  C3_6 
REMARK    2  A    between atoms: C3_6  and  C4_7 
REMARK       I    between atoms: C4_7  and  N2_9 
REMARK       I    between atoms: N3_19  and  C13_20 
REMARK       I    between atoms: C13_20  and  N4_22 
REMARK    3  A    between atoms: N4_22  and  C14_24 
ROOT
HETATM    1  C3  UNL     1      -1.359  -0.580   0.305  1.00  0.00     0.136 C 
HETATM    2  C7  UNL     1      -1.764  -2.005   0.835  1.00  0.00     0.065 C 
HETATM    3  C8  UNL     1      -0.762  -2.991   0.195  1.00  0.00     0.108 C 
HETATM    4 CL1  UNL     1      -1.014  -3.297  -1.491  1.00  0.00    -0.123 Cl
HETATM    5  C9  UNL     1       0.638  -2.572   0.486  1.00  0.00     0.108 C 
HETATM    6  C10 UNL     1       0.637  -2.418   2.033  1.00  0.00     0.029 C 
HETATM    7  C11 UNL     1       0.140  -1.032   2.225  1.00  0.00     0.030 C 
HETATM    8  C12 UNL     1      -0.011  -0.413   0.767  1.00  0.00     0.127 C 
HETATM    9  N3  UNL     1       1.011  -1.223   0.167  1.00  0.00    -0.320 N 
HETATM   10  C13 UNL     1       2.166  -0.745  -0.452  1.00  0.00     0.319 C 
HETATM   11  O3  UNL     1       3.045  -1.613  -0.818  1.00  0.00    -0.247 OA
HETATM   12  N4  UNL     1       2.515   0.601  -0.720  1.00  0.00    -0.339 N 
ATOM     13  H4  UNL     1       1.850   1.338  -0.486  1.00  0.00     0.164 HD
ENDROOT
BRANCH   1  14
HETATM   14  N1  UNL     1      -1.821  -0.650  -1.034  1.00  0.00    -0.342 N 
HETATM   15  C2  UNL     1      -3.192  -0.781  -1.354  1.00  0.00     0.214 C 
HETATM   16  C1  UNL     1      -3.659  -0.842  -2.806  1.00  0.00     0.117 C 
HETATM   17  O1  UNL     1      -4.167  -0.852  -0.573  1.00  0.00    -0.274 OA
ATOM     18  H1  UNL     1      -1.141  -0.604  -1.793  1.00  0.00     0.163 HD
ENDBRANCH   1  14
BRANCH   1  19
HETATM   19  C4  UNL     1      -2.198   0.442   1.064  1.00  0.00     0.249 C 
HETATM   20  O2  UNL     1      -3.182   0.031   1.681  1.00  0.00    -0.270 OA
HETATM   21  N2  UNL     1      -1.887   1.805   1.066  1.00  0.00    -0.359 N 
HETATM   22  C5  UNL     1      -0.920   2.515   0.280  1.00  0.00     0.152 C 
HETATM   23  C6  UNL     1      -2.642   2.702   1.963  1.00  0.00     0.152 C 
ENDBRANCH   1  19
BRANCH  12  24
HETATM   24  C14 UNL     1       3.798   0.971  -1.322  1.00  0.00     0.078 C 
HETATM   25  C15 UNL     1       4.705   1.538  -0.239  1.00  0.00     0.032 C 
HETATM   26  C16 UNL     1       3.627   2.051  -2.368  1.00  0.00     0.032 C 
ENDBRANCH  12  24
TORSDOF 3
