REMARK  4 active torsions:
REMARK  status: ('A' for Active; 'I' for Inactive)
REMARK    1  A    between atoms: N1_2  and  N2_3 
REMARK    2  A    between atoms: N1_2  and  C2_11 
REMARK    3  A    between atoms: N2_3  and  S1_5 
REMARK    4  A    between atoms: S1_5  and  N3_6 
ROOT
HETATM    1  C2  UNL     1       0.325  -0.125  -0.763  1.00  0.00     0.111 C 
HETATM    2  C3  UNL     1      -0.092  -1.487  -0.275  1.00  0.00     0.033 C 
HETATM    3  C4  UNL     1      -1.513  -1.360   0.201  1.00  0.00    -0.002 C 
HETATM    4  C5  UNL     1      -2.420  -1.469  -1.023  1.00  0.00     0.026 C 
HETATM    5  C6  UNL     1      -2.941  -0.068  -1.229  1.00  0.00     0.020 C 
HETATM    6 BR1  UNL     1      -4.520   0.077  -2.239  1.00  0.00    -0.085 Br
HETATM    7  C7  UNL     1      -3.072   0.377   0.227  1.00  0.00     0.031 C 
HETATM    8  C8  UNL     1      -1.623   0.081   0.606  1.00  0.00    -0.029 C 
HETATM    9  C9  UNL     1      -1.277   0.395   1.997  1.00  0.00     0.016 C 
HETATM   10  C10 UNL     1      -0.865   0.780  -0.468  1.00  0.00    -0.013 C 
HETATM   11  C11 UNL     1      -0.375   2.149  -0.108  1.00  0.00     0.018 C 
HETATM   12  C12 UNL     1      -1.809   0.839  -1.665  1.00  0.00     0.033 C 
ENDROOT
BRANCH   1  13
HETATM   13  N1  UNL     1       1.522   0.370  -0.148  1.00  0.00    -0.316 N 
HETATM   14  C1  UNL     1       2.522   0.819  -1.061  1.00  0.00     0.172 C 
BRANCH  13  15
HETATM   15  N2  UNL     1       1.969  -0.343   0.935  1.00  0.00    -0.212 N 
ATOM     16  H2  UNL     1       1.522  -0.279   1.849  1.00  0.00     0.201 HD
BRANCH  15  17
HETATM   17  S1  UNL     1       3.319  -1.342   0.654  1.00  0.00     0.330 S 
HETATM   18  O1  UNL     1       3.207  -2.631   1.441  1.00  0.00    -0.181 OA
HETATM   19  O2  UNL     1       3.363  -1.728  -0.785  1.00  0.00    -0.181 OA
BRANCH  17  20
HETATM   20  N3  UNL     1       4.755  -0.564   1.189  1.00  0.00    -0.310 N 
ATOM     21  H32 UNL     1       4.779   0.364   1.612  1.00  0.00     0.170 HD
ATOM     22  H31 UNL     1       5.564  -1.162   1.021  1.00  0.00     0.170 HD
ENDBRANCH  17  20
ENDBRANCH  15  17
ENDBRANCH  13  15
ENDBRANCH   1  13
TORSDOF 4
