REMARK  9 active torsions:
REMARK  status: ('A' for Active; 'I' for Inactive)
REMARK    1  A    between atoms: C1_4  and  N2_5 
REMARK    2  A    between atoms: C1_4  and  O1_11 
REMARK    3  A    between atoms: N2_5  and  N3_7 
REMARK    4  A    between atoms: N3_7  and  N4_8 
REMARK    5  A    between atoms: O1_11  and  C2_12 
REMARK    6  A    between atoms: C2_12  and  C3_13 
REMARK    7  A    between atoms: C3_13  and  C4_15 
REMARK    8  A    between atoms: N6_21  and  O3_22 
REMARK    9  A    between atoms: C9_24  and  C10_25 
ROOT
HETATM    1  C4  UNL     1       0.244  -0.310   0.878  1.00  0.00     0.014 C 
HETATM    2  C5  UNL     1      -0.141  -1.327   1.727  1.00  0.00     0.017 C 
HETATM    3  C6  UNL     1      -1.382  -1.900   1.908  1.00  0.00     0.030 C 
HETATM    4  C7  UNL     1      -2.625  -1.536   1.376  1.00  0.00     0.077 C 
HETATM    5  N5  UNL     1      -3.756  -2.278   1.785  1.00  0.00    -0.100 NA
HETATM    6  C8  UNL     1      -2.923  -0.530   0.485  1.00  0.00     0.115 A 
HETATM    7  N6  UNL     1      -4.113  -0.244  -0.066  1.00  0.00    -0.201 N 
HETATM    8  C9  UNL     1      -3.963   0.829  -0.891  1.00  0.00     0.169 A 
HETATM    9  N8  UNL     1      -2.673   1.225  -0.863  1.00  0.00    -0.336 N 
ATOM     10  H8  UNL     1      -2.290   2.009  -1.392  1.00  0.00     0.168 HD
HETATM   11  C11 UNL     1      -1.973   0.442  -0.043  1.00  0.00     0.066 A 
HETATM   12  C12 UNL     1      -0.607   0.556   0.233  1.00  0.00     0.047 C 
ENDROOT
BRANCH   1  13
HETATM   13  C3  UNL     1       1.639  -0.097   0.614  1.00  0.00     0.183 C 
HETATM   14  O2  UNL     1       2.498  -0.822   1.145  1.00  0.00    -0.290 OA
BRANCH  13  15
HETATM   15  C2  UNL     1       2.055   0.983  -0.287  1.00  0.00     0.262 C 
BRANCH  15  16
HETATM   16  O1  UNL     1       3.459   1.062  -0.442  1.00  0.00    -0.314 OA
BRANCH  16  17
HETATM   17  C1  UNL     1       4.205   0.028  -0.940  1.00  0.00     0.230 C 
HETATM   18  N1  UNL     1       3.627  -0.822  -1.727  1.00  0.00    -0.364 N 
ATOM     19  H12 UNL     1       4.183  -1.593  -2.098  1.00  0.00     0.159 HD
ATOM     20  H11 UNL     1       2.644  -0.757  -1.991  1.00  0.00     0.159 HD
BRANCH  17  21
HETATM   21  N2  UNL     1       5.571  -0.063  -0.573  1.00  0.00    -0.250 N 
ATOM     22  H2  UNL     1       6.272  -0.209  -1.299  1.00  0.00     0.188 HD
BRANCH  21  23
HETATM   23  N3  UNL     1       5.983   0.042   0.763  1.00  0.00    -0.027 NA
BRANCH  23  24
HETATM   24  N4  UNL     1       6.492   1.336   0.935  1.00  0.00    -0.329 N 
ATOM     25  H42 UNL     1       6.546   2.055   0.214  1.00  0.00     0.174 HD
ATOM     26  H41 UNL     1       6.792   1.412   1.907  1.00  0.00     0.174 HD
ENDBRANCH  23  24
ENDBRANCH  21  23
ENDBRANCH  17  21
ENDBRANCH  16  17
ENDBRANCH  15  16
ENDBRANCH  13  15
ENDBRANCH   1  13
BRANCH   7  27
HETATM   27  O3  UNL     1      -5.264  -0.940   0.186  1.00  0.00    -0.281 OA
ATOM     28  H3  UNL     1      -6.106  -0.738  -0.204  1.00  0.00     0.245 HD
ENDBRANCH   7  27
BRANCH   8  29
HETATM   29  C10 UNL     1      -5.080   1.392  -1.645  1.00  0.00     0.159 C 
HETATM   30  N7  UNL     1      -6.315   1.712  -1.021  1.00  0.00    -0.086 NA
HETATM   31  S1  UNL     1      -4.903   1.660  -3.245  1.00  0.00    -0.060 SA
ENDBRANCH   8  29
TORSDOF 9
