REMARK  9 active torsions:
REMARK  status: ('A' for Active; 'I' for Inactive)
REMARK    1  A    between atoms: C2_2  and  C3_3 
REMARK    2  A    between atoms: C3_3  and  N2_6 
REMARK    3  A    between atoms: C3_3  and  C13_27 
REMARK    4  A    between atoms: N2_6  and  C5_8 
REMARK    5  A    between atoms: C6_11  and  N4_12 
REMARK    6  A    between atoms: C11_21  and  N7_22 
REMARK    7  A    between atoms: C13_27  and  O1_28 
REMARK    8  A    between atoms: C13_27  and  N9_30 
REMARK    9  A    between atoms: N9_30  and  N10_31 
ROOT
HETATM    1  C3  UNL     1       2.366   0.354  -0.315  1.00  0.00     0.163 C 
HETATM    2  C4  UNL     1       2.681   1.012  -1.623  1.00  0.00     0.095 C 
HETATM    3  N1  UNL     1       2.908   1.533  -2.630  1.00  0.00    -0.194 NA
ENDROOT
BRANCH   1   4
HETATM    4  C2  UNL     1       2.701   1.323   0.811  1.00  0.00     0.046 C 
HETATM    5  C1  UNL     1       4.134   1.745   0.836  1.00  0.00     0.009 C 
ENDBRANCH   1   4
BRANCH   1   6
HETATM    6  N2  UNL     1       1.092  -0.114  -0.222  1.00  0.00    -0.349 N 
ATOM      7  H2  UNL     1       1.257  -1.105  -0.043  1.00  0.00     0.163 HD
BRANCH   6   8
HETATM    8  C5  UNL     1      -0.103  -0.073  -0.222  1.00  0.00     0.149 A 
HETATM    9  N3  UNL     1      -0.805  -1.236  -0.006  1.00  0.00    -0.174 N 
HETATM   10  C6  UNL     1      -2.119  -1.330   0.019  1.00  0.00     0.682 A 
ATOM     11  H3  UNL     1      -0.268  -2.090   0.146  1.00  0.00     0.186 HD
HETATM   12  N5  UNL     1      -2.837  -0.211  -0.182  1.00  0.00    -0.173 N 
HETATM   13  C9  UNL     1      -2.269   0.985  -0.403  1.00  0.00     0.169 A 
ATOM     14  H5  UNL     1      -3.855  -0.274  -0.166  1.00  0.00     0.186 HD
HETATM   15  C10 UNL     1      -0.890   1.044  -0.422  1.00  0.00     0.138 A 
HETATM   16  N8  UNL     1      -2.774   2.219  -0.626  1.00  0.00    -0.170 N 
HETATM   17  N6  UNL     1      -0.622   2.348  -0.661  1.00  0.00    -0.184 N 
HETATM   18  C11 UNL     1      -1.757   3.052  -0.783  1.00  0.00     0.680 A 
ATOM     19  H6  UNL     1       0.316   2.742  -0.738  1.00  0.00     0.184 HD
HETATM   20  C12 UNL     1      -4.171   2.583  -0.684  1.00  0.00     0.177 C 
BRANCH  10  21
HETATM   21  N4  UNL     1      -2.814  -2.563   0.248  1.00  0.00    -0.226 N 
HETATM   22  C7  UNL     1      -4.259  -2.580   0.262  1.00  0.00     0.168 C 
HETATM   23  C8  UNL     1      -2.119  -3.800   0.467  1.00  0.00     0.168 C 
ENDBRANCH  10  21
BRANCH  18  24
HETATM   24  N7  UNL     1      -1.836   4.323  -1.015  1.00  0.00    -0.234 N 
ATOM     25  H72 UNL     1      -1.052   4.965  -1.136  1.00  0.00     0.174 HD
ATOM     26  H71 UNL     1      -2.699   4.858  -1.108  1.00  0.00     0.174 HD
ENDBRANCH  18  24
ENDBRANCH   6   8
ENDBRANCH   1   6
BRANCH   1  27
HETATM   27  C13 UNL     1       3.438  -0.761  -0.232  1.00  0.00     0.273 C 
BRANCH  27  28
HETATM   28  O1  UNL     1       3.209  -1.625  -1.340  1.00  0.00    -0.374 OA
ATOM     29  H1  UNL     1       3.866  -2.309  -1.289  1.00  0.00     0.212 HD
ENDBRANCH  27  28
BRANCH  27  30
HETATM   30  N9  UNL     1       3.359  -1.500   0.990  1.00  0.00    -0.113 NA
BRANCH  30  31
HETATM   31  N10 UNL     1       4.346  -2.485   1.001  1.00  0.00    -0.346 N 
ATOM     32 2H10 UNL     1       5.014  -2.642   0.246  1.00  0.00     0.172 HD
ATOM     33 1H10 UNL     1       4.290  -3.012   1.872  1.00  0.00     0.172 HD
ENDBRANCH  30  31
ENDBRANCH  27  30
ENDBRANCH   1  27
TORSDOF 9
