REMARK  9 active torsions:
REMARK  status: ('A' for Active; 'I' for Inactive)
REMARK    1  A    between atoms: N1_1  and  C1_4 
REMARK    2  A    between atoms: C4_9  and  N3_10 
REMARK    3  A    between atoms: N3_10  and  N4_12 
REMARK    4  A    between atoms: C5_14  and  C6_15 
REMARK    5  A    between atoms: C6_15  and  O1_16 
REMARK    6  A    between atoms: C6_15  and  C7_18 
REMARK    7  A    between atoms: C7_18  and  O2_19 
REMARK    8  A    between atoms: C7_18  and  C8_21 
REMARK    9  A    between atoms: C8_21  and  O3_22 
ROOT
HETATM    1  C1  UNL     1      -2.606  -2.588   1.005  1.00  0.00     0.679 A 
HETATM    2  N2  UNL     1      -3.616  -1.714   1.027  1.00  0.00    -0.169 N 
ATOM      3  H2  UNL     1      -4.505  -2.004   1.434  1.00  0.00     0.186 HD
HETATM    4  C2  UNL     1      -3.508  -0.448   0.527  1.00  0.00     0.190 A 
HETATM    5  C3  UNL     1      -2.334  -0.027  -0.023  1.00  0.00     0.065 A 
HETATM    6  C4  UNL     1      -1.284  -0.954  -0.039  1.00  0.00     0.148 A 
HETATM    7  N5  UNL     1      -1.441  -2.189   0.465  1.00  0.00    -0.175 N 
ATOM      8  H5  UNL     1      -0.657  -2.841   0.437  1.00  0.00     0.186 HD
HETATM    9  C9  UNL     1      -2.043   1.285  -0.602  1.00  0.00     0.239 C 
HETATM   10  O4  UNL     1      -2.831   2.322  -0.194  1.00  0.00    -0.249 OA
HETATM   11  S1  UNL     1      -4.459   1.850  -0.336  1.00  0.00     0.408 S 
HETATM   12  O5  UNL     1      -5.376   2.887   0.201  1.00  0.00    -0.168 OA
HETATM   13  O6  UNL     1      -4.694   1.555  -1.793  1.00  0.00    -0.168 OA
HETATM   14  O7  UNL     1      -4.591   0.418   0.577  1.00  0.00    -0.191 OA
ENDROOT
BRANCH   6  15
HETATM   15  N3  UNL     1      -0.130  -0.618  -0.552  1.00  0.00    -0.285 N 
ATOM     16  H3  UNL     1       0.000   0.317  -0.938  1.00  0.00     0.188 HD
BRANCH  15  17
HETATM   17  N4  UNL     1       0.911  -1.519  -0.574  1.00  0.00    -0.312 N 
HETATM   18  C5  UNL     1       2.122  -1.121  -0.515  1.00  0.00     0.114 C 
ATOM     19  H4  UNL     1       0.712  -2.517  -0.638  1.00  0.00     0.185 HD
BRANCH  18  20
HETATM   20  C6  UNL     1       2.410   0.322  -0.420  1.00  0.00     0.188 C 
BRANCH  20  21
HETATM   21  O1  UNL     1       1.736   0.937  -1.494  1.00  0.00    -0.388 OA
ATOM     22  H1  UNL     1       1.922   1.867  -1.433  1.00  0.00     0.210 HD
ENDBRANCH  20  21
BRANCH  20  23
HETATM   23  C7  UNL     1       3.887   0.618  -0.459  1.00  0.00     0.175 C 
BRANCH  23  24
HETATM   24  O2  UNL     1       4.424   0.147  -1.638  1.00  0.00    -0.391 OA
ATOM     25  H2  UNL     1       5.355   0.334  -1.663  1.00  0.00     0.210 HD
ENDBRANCH  23  24
BRANCH  23  26
HETATM   26  C8  UNL     1       4.520  -0.054   0.734  1.00  0.00     0.198 C 
BRANCH  26  27
HETATM   27  O3  UNL     1       3.971   0.428   1.914  1.00  0.00    -0.398 OA
ATOM     28  H3  UNL     1       4.370   0.005   2.665  1.00  0.00     0.209 HD
ENDBRANCH  26  27
ENDBRANCH  23  26
ENDBRANCH  20  23
ENDBRANCH  18  20
ENDBRANCH  15  17
ENDBRANCH   6  15
BRANCH   1  29
HETATM   29  N1  UNL     1      -2.722  -3.785   1.481  1.00  0.00    -0.234 N 
ATOM     30  H12 UNL     1      -3.606  -4.088   1.891  1.00  0.00     0.174 HD
ATOM     31  H11 UNL     1      -1.951  -4.452   1.464  1.00  0.00     0.174 HD
ENDBRANCH   1  29
TORSDOF 9
