REMARK  6 active torsions:
REMARK  status: ('A' for Active; 'I' for Inactive)
REMARK    1  A    between atoms: N1_1  and  N2_4 
REMARK    2  A    between atoms: N2_4  and  C1_6 
REMARK    3  A    between atoms: C3_11  and  N5_12 
REMARK    4  A    between atoms: N6_14  and  N7_16 
REMARK       I    between atoms: N7_16  and  C4_18 
REMARK       I    between atoms: C4_18  and  N10_28 
REMARK    5  A    between atoms: N8_19  and  N9_21 
REMARK    6  A    between atoms: N10_28  and  N11_30 
ROOT
HETATM    1  N5  UNL     1      -1.120  -0.926  -1.306  1.00  0.00    -0.278 N 
ATOM      2  H5  UNL     1      -1.182  -1.275  -2.262  1.00  0.00     0.189 HD
HETATM    3  N6  UNL     1      -0.065  -1.146  -0.630  1.00  0.00    -0.228 N 
ATOM      4  H6  UNL     1       0.016  -0.805   0.328  1.00  0.00     0.209 HD
ENDROOT
BRANCH   3   5
HETATM    5  N7  UNL     1       0.976  -1.858  -1.217  1.00  0.00    -0.115 N 
HETATM    6  C4  UNL     1       2.328  -1.755  -0.782  1.00  0.00     0.732 C 
HETATM    7  N8  UNL     1       2.964  -0.660  -1.008  1.00  0.00    -0.126 N 
HETATM    8  N10 UNL     1       2.917  -2.864  -0.120  1.00  0.00    -0.069 N 
ATOM      9  H8  UNL     1       2.475   0.094  -1.491  1.00  0.00     0.206 HD
ATOM     10  H10 UNL     1       3.929  -2.989  -0.159  1.00  0.00     0.212 HD
ATOM     11  H7  UNL     1       0.761  -2.482  -1.994  1.00  0.00     0.207 HD
BRANCH   7  12
HETATM   12  N9  UNL     1       4.283  -0.453  -0.627  1.00  0.00    -0.244 N 
HETATM   13  C5  UNL     1       4.692   0.757  -0.457  1.00  0.00     0.289 A 
HETATM   14  O1  UNL     1       5.912   1.068  -0.100  1.00  0.00    -0.283 OA
HETATM   15  O2  UNL     1       4.028   1.878  -0.593  1.00  0.00    -0.283 OA
HETATM   16  C6  UNL     1       6.036   2.370  -0.006  1.00  0.00     0.171 A 
HETATM   17  C7  UNL     1       4.815   2.905  -0.325  1.00  0.00     0.171 A 
ATOM     18  H9  UNL     1       4.914  -1.241  -0.485  1.00  0.00     0.191 HD
ENDBRANCH   7  12
BRANCH   8  19
HETATM   19  N11 UNL     1       2.144  -3.785   0.582  1.00  0.00    -0.024 N 
HETATM   20  O3  UNL     1       1.200  -3.388   1.313  1.00  0.00    -0.516 OA
HETATM   21  O4  UNL     1       2.347  -5.139   0.530  1.00  0.00    -0.516 OA
ENDBRANCH   8  19
ENDBRANCH   3   5
BRANCH   1  22
HETATM   22  C3  UNL     1      -2.216  -0.203  -0.756  1.00  0.00     0.160 A 
HETATM   23  C2  UNL     1      -2.920  -0.727   0.335  1.00  0.00     0.165 A 
HETATM   24  N3  UNL     1      -3.954  -0.010   0.830  1.00  0.00    -0.175 N 
HETATM   25  N4  UNL     1      -2.535  -1.977   0.883  1.00  0.00    -0.079 NA
HETATM   26  C1  UNL     1      -4.274   1.161   0.275  1.00  0.00     0.700 A 
ATOM     27  H3  UNL     1      -4.488  -0.363   1.625  1.00  0.00     0.185 HD
HETATM   28  N12 UNL     1      -3.613   1.684  -0.772  1.00  0.00    -0.153 N 
HETATM   29  C8  UNL     1      -2.577   1.010  -1.300  1.00  0.00     0.291 A 
ATOM     30  H12 UNL     1      -3.895   2.583  -1.162  1.00  0.00     0.187 HD
HETATM   31  O5  UNL     1      -1.945   1.488  -2.284  1.00  0.00    -0.265 OA
BRANCH  26  32
HETATM   32  N2  UNL     1      -5.281   1.834   0.775  1.00  0.00    -0.138 N 
ATOM     33  H2  UNL     1      -5.796   1.455   1.570  1.00  0.00     0.205 HD
BRANCH  32  34
HETATM   34  N1  UNL     1      -5.655   3.061   0.233  1.00  0.00    -0.331 N 
ATOM     35  H12 UNL     1      -5.129   3.426  -0.561  1.00  0.00     0.177 HD
ATOM     36  H11 UNL     1      -6.439   3.585   0.622  1.00  0.00     0.177 HD
ENDBRANCH  32  34
ENDBRANCH  26  32
ENDBRANCH   1  22
TORSDOF 6
