REMARK  10 active torsions:
REMARK  status: ('A' for Active; 'I' for Inactive)
REMARK    1  A    between atoms: C3_5  and  N2_6 
REMARK    2  A    between atoms: C5_13  and  C6_14 
REMARK    3  A    between atoms: C6_14  and  O2_15 
REMARK    4  A    between atoms: O2_15  and  C7_16 
REMARK    5  A    between atoms: C7_16  and  N4_17 
REMARK    6  A    between atoms: N5_19  and  N6_21 
REMARK    7  A    between atoms: N8_23  and  N9_24 
REMARK    8  A    between atoms: N10_27  and  O3_28 
REMARK    9  A    between atoms: N11_32  and  N12_34 
REMARK   10  A    between atoms: N12_34  and  O5_36 
ROOT
HETATM    1  C7  UNL     1       0.903  -1.005   1.397  1.00  0.00     0.256 C 
HETATM    2  N11 UNL     1       1.266  -0.145   2.225  1.00  0.00    -0.244 N 
ATOM      3  H11 UNL     1       2.092  -0.413   2.760  1.00  0.00     0.192 HD
ENDROOT
BRANCH   1   4
HETATM    4  O2  UNL     1      -0.194  -0.777   0.612  1.00  0.00    -0.315 OA
BRANCH   4   5
HETATM    5  C6  UNL     1      -1.469  -0.431   1.092  1.00  0.00     0.225 C 
BRANCH   5   6
HETATM    6  C5  UNL     1      -2.419  -0.258  -0.066  1.00  0.00     0.057 A 
HETATM    7  C2  UNL     1      -3.725   0.088   0.168  1.00  0.00     0.036 A 
HETATM    8  C1  UNL     1      -4.208   0.292   1.548  1.00  0.00     0.069 C 
HETATM    9  N1  UNL     1      -4.549   0.236  -0.904  1.00  0.00    -0.195 N 
HETATM   10  C3  UNL     1      -4.148   0.060  -2.171  1.00  0.00     0.678 A 
ATOM     11  H1  UNL     1      -5.521   0.494  -0.735  1.00  0.00     0.184 HD
HETATM   12  N3  UNL     1      -2.872  -0.279  -2.403  1.00  0.00    -0.156 N 
HETATM   13  C4  UNL     1      -2.016  -0.436  -1.367  1.00  0.00     0.270 A 
ATOM     14  H3  UNL     1      -2.547  -0.418  -3.360  1.00  0.00     0.187 HD
HETATM   15  O1  UNL     1      -0.829  -0.751  -1.587  1.00  0.00    -0.267 OA
BRANCH  10  16
HETATM   16  N2  UNL     1      -4.983   0.215  -3.161  1.00  0.00    -0.234 N 
ATOM     17  H22 UNL     1      -5.954   0.473  -2.984  1.00  0.00     0.174 HD
ATOM     18  H21 UNL     1      -4.678   0.081  -4.125  1.00  0.00     0.174 HD
ENDBRANCH  10  16
ENDBRANCH   5   6
ENDBRANCH   4   5
ENDBRANCH   1   4
BRANCH   1  19
HETATM   19  N4  UNL     1       1.672  -2.218   1.307  1.00  0.00    -0.248 N 
HETATM   20  N5  UNL     1       2.806  -2.281   0.786  1.00  0.00    -0.216 N 
ATOM     21  H5  UNL     1       3.276  -3.186   0.768  1.00  0.00     0.210 HD
ATOM     22  H4  UNL     1       1.269  -3.073   1.690  1.00  0.00     0.192 HD
BRANCH  20  23
HETATM   23  N6  UNL     1       3.469  -1.186   0.227  1.00  0.00    -0.110 N 
HETATM   24  N7  UNL     1       4.160  -0.245   0.965  1.00  0.00     0.024 NA
HETATM   25  N8  UNL     1       4.863   0.560   0.098  1.00  0.00     0.002 NA
HETATM   26  N10 UNL     1       4.637   0.131  -1.191  1.00  0.00    -0.089 N 
HETATM   27  C8  UNL     1       3.578  -0.812  -1.135  1.00  0.00     0.400 C 
HETATM   28  O4  UNL     1       2.886  -1.231  -2.072  1.00  0.00    -0.240 OA
BRANCH  25  29
HETATM   29  N9  UNL     1       4.497   1.893   0.310  1.00  0.00    -0.327 NA
ATOM     30  H92 UNL     1       4.664   2.211   1.265  1.00  0.00     0.174 HD
ATOM     31  H91 UNL     1       5.018   2.490  -0.333  1.00  0.00     0.174 HD
ENDBRANCH  25  29
BRANCH  26  32
HETATM   32  O3  UNL     1       5.313   0.551  -2.271  1.00  0.00    -0.265 OA
ATOM     33  H3  UNL     1       5.157   0.255  -3.160  1.00  0.00     0.246 HD
ENDBRANCH  26  32
ENDBRANCH  20  23
ENDBRANCH   1  19
BRANCH   2  34
HETATM   34  N12 UNL     1       0.781   1.063   2.548  1.00  0.00    -0.207 N 
ATOM     35  H12 UNL     1       0.578   1.696   1.775  1.00  0.00     0.215 HD
BRANCH  34  36
HETATM   36  O5  UNL     1       0.553   1.491   3.696  1.00  0.00    -0.274 OA
ATOM     37  H5  UNL     1       0.209   2.347   3.925  1.00  0.00     0.246 HD
ENDBRANCH  34  36
ENDBRANCH   2  34
TORSDOF 10
