REMARK  8 active torsions:
REMARK  status: ('A' for Active; 'I' for Inactive)
REMARK    1  A    between atoms: N3_7  and  N4_8 
REMARK    2  A    between atoms: C3_11  and  N5_12 
REMARK    3  A    between atoms: N5_12  and  N6_14 
REMARK    4  A    between atoms: N6_14  and  O2_16 
REMARK    5  A    between atoms: C4_18  and  N7_19 
REMARK    6  A    between atoms: N7_19  and  C5_21 
REMARK    7  A    between atoms: C6_23  and  C7_24 
REMARK    8  A    between atoms: N9_29  and  O5_30 
ROOT
HETATM    1  N1  UNL     1      -0.911   0.442   2.955  1.00  0.00    -0.080 NA
HETATM    2  C1  UNL     1      -1.697   0.054   1.861  1.00  0.00     0.151 A 
HETATM    3  N2  UNL     1      -2.725  -0.803   2.091  1.00  0.00    -0.293 N 
ATOM      4  H2  UNL     1      -2.911  -1.148   3.033  1.00  0.00     0.172 HD
HETATM    5  C2  UNL     1      -3.491  -1.189   1.061  1.00  0.00     0.348 A 
HETATM    6  O1  UNL     1      -4.443  -1.994   1.334  1.00  0.00    -0.245 OA
HETATM    7  N3  UNL     1      -3.259  -0.745  -0.182  1.00  0.00    -0.192 N 
HETATM    8  C3  UNL     1      -2.230   0.114  -0.424  1.00  0.00     0.178 A 
HETATM    9  C4  UNL     1      -1.420   0.535   0.606  1.00  0.00     0.124 A 
ENDROOT
BRANCH   9  10
HETATM   10  N7  UNL     1      -0.367   1.408   0.390  1.00  0.00    -0.329 N 
ATOM     11  H7  UNL     1      -0.531   2.412   0.457  1.00  0.00     0.168 HD
BRANCH  10  12
HETATM   12  C5  UNL     1       0.962   0.929   0.071  1.00  0.00     0.179 A 
HETATM   13  S1  UNL     1       1.508  -0.677  -0.102  1.00  0.00    -0.041 SA
HETATM   14  C6  UNL     1       3.146  -0.347  -0.468  1.00  0.00     0.128 A 
HETATM   15  C8  UNL     1       3.176   1.017  -0.434  1.00  0.00     0.170 A 
HETATM   16  N8  UNL     1       4.432   1.707  -0.702  1.00  0.00    -0.078 NA
HETATM   17  N9  UNL     1       2.054   1.648  -0.158  1.00  0.00    -0.186 N 
BRANCH  14  18
HETATM   18  C7  UNL     1       4.244  -1.282  -0.747  1.00  0.00     0.220 C 
HETATM   19  O3  UNL     1       5.369  -0.815  -0.991  1.00  0.00    -0.643 OA
HETATM   20  O4  UNL     1       4.048  -2.645  -0.742  1.00  0.00    -0.643 OA
ENDBRANCH  14  18
BRANCH  17  21
HETATM   21  O5  UNL     1       1.985   3.066  -0.100  1.00  0.00    -0.279 OA
ATOM     22  H5  UNL     1       2.767   3.581  -0.264  1.00  0.00     0.245 HD
ENDBRANCH  17  21
ENDBRANCH  10  12
ENDBRANCH   9  10
BRANCH   8  23
HETATM   23  N5  UNL     1      -2.007   0.538  -1.606  1.00  0.00    -0.262 N 
ATOM     24  H5  UNL     1      -1.235   1.182  -1.776  1.00  0.00     0.190 HD
BRANCH  23  25
HETATM   25  N6  UNL     1      -2.812   0.127  -2.667  1.00  0.00    -0.208 N 
ATOM     26  H6  UNL     1      -3.824   0.157  -2.544  1.00  0.00     0.215 HD
BRANCH  25  27
HETATM   27  O2  UNL     1      -2.367  -0.272  -3.750  1.00  0.00    -0.274 OA
ATOM     28  H2  UNL     1      -2.916  -0.552  -4.473  1.00  0.00     0.246 HD
ENDBRANCH  25  27
ENDBRANCH  23  25
ENDBRANCH   8  23
BRANCH   7  29
HETATM   29  N4  UNL     1      -4.092  -1.185  -1.208  1.00  0.00    -0.333 N 
ATOM     30  H42 UNL     1      -4.863  -1.828  -1.027  1.00  0.00     0.177 HD
ATOM     31  H41 UNL     1      -3.915  -0.847  -2.154  1.00  0.00     0.177 HD
ENDBRANCH   7  29
TORSDOF 8
