REMARK  4 active torsions:
REMARK  status: ('A' for Active; 'I' for Inactive)
REMARK    1  A    between atoms: C3_7  and  N3_8 
REMARK    2  A    between atoms: N3_8  and  N4_10 
REMARK    3  A    between atoms: N4_10  and  C4_12 
REMARK    4  A    between atoms: C5_15  and  C6_16 
ROOT
HETATM    1  N3  UNL     1       0.222   0.898  -1.070  1.00  0.00    -0.266 N 
ATOM      2  H3  UNL     1       0.581   1.000  -2.019  1.00  0.00     0.189 HD
ENDROOT
BRANCH   1   3
HETATM    3  C3  UNL     1      -1.149   0.555  -0.830  1.00  0.00     0.194 C 
HETATM    4  N2  UNL     1      -1.950   1.651  -0.710  1.00  0.00    -0.289 N 
HETATM    5  C2  UNL     1      -3.117   1.666  -0.045  1.00  0.00     0.331 C 
ATOM      6  H2  UNL     1      -1.643   2.516  -1.154  1.00  0.00     0.172 HD
HETATM    7  N1  UNL     1      -3.821   0.628   0.475  1.00  0.00    -0.256 N 
HETATM    8  O1  UNL     1      -3.610   2.817   0.107  1.00  0.00    -0.246 OA
HETATM    9  C1  UNL     1      -5.018   1.026   1.187  1.00  0.00     0.166 C 
HETATM   10  C10 UNL     1      -3.560  -0.689   0.416  1.00  0.00     0.334 C 
HETATM   11  N7  UNL     1      -2.585  -1.351  -0.270  1.00  0.00    -0.267 N 
HETATM   12  O5  UNL     1      -4.301  -1.456   1.079  1.00  0.00    -0.246 OA
HETATM   13  C8  UNL     1      -1.474  -0.785  -0.754  1.00  0.00     0.296 C 
HETATM   14  C9  UNL     1      -2.788  -2.774  -0.481  1.00  0.00     0.165 C 
HETATM   15  O4  UNL     1      -0.616  -1.570  -1.196  1.00  0.00    -0.264 OA
ENDBRANCH   1   3
BRANCH   1  16
HETATM   16  N4  UNL     1       1.045   1.086   0.030  1.00  0.00    -0.130 N 
ATOM     17  H4  UNL     1       0.663   1.454   0.901  1.00  0.00     0.205 HD
BRANCH  16  18
HETATM   18  C4  UNL     1       2.425   0.761  -0.068  1.00  0.00     0.698 A 
HETATM   19  N5  UNL     1       3.366   0.888   0.910  1.00  0.00    -0.181 N 
HETATM   20  C5  UNL     1       4.560   0.479   0.444  1.00  0.00     0.160 A 
ATOM     21  H5  UNL     1       3.192   1.239   1.851  1.00  0.00     0.184 HD
HETATM   22  C7  UNL     1       4.332   0.086  -0.879  1.00  0.00     0.131 A 
HETATM   23  S1  UNL     1       5.619  -0.544  -1.950  1.00  0.00    -0.030 SA
HETATM   24  N6  UNL     1       3.031   0.268  -1.161  1.00  0.00    -0.181 N 
ATOM     25  H6  UNL     1       2.580   0.066  -2.053  1.00  0.00     0.185 HD
BRANCH  20  26
HETATM   26  C6  UNL     1       5.837   0.438   1.131  1.00  0.00     0.230 C 
HETATM   27  O2  UNL     1       6.856   0.025   0.542  1.00  0.00    -0.643 OA
HETATM   28  O3  UNL     1       5.913   0.858   2.435  1.00  0.00    -0.643 OA
ENDBRANCH  20  26
ENDBRANCH  16  18
ENDBRANCH   1  16
TORSDOF 4
