REMARK  7 active torsions:
REMARK  status: ('A' for Active; 'I' for Inactive)
REMARK    1  A    between atoms: N1_1  and  C1_4 
REMARK    2  A    between atoms: C2_7  and  N3_8 
REMARK    3  A    between atoms: N3_8  and  C3_10 
REMARK    4  A    between atoms: N5_19  and  C10_21 
REMARK    5  A    between atoms: C10_21  and  C11_22 
REMARK    6  A    between atoms: C11_22  and  O1_23 
REMARK    7  A    between atoms: C12_27  and  N7_28 
ROOT
HETATM    1  C1  UNL     1       1.405  -1.525  -1.231  1.00  0.00     0.161 C 
HETATM    2  N2  UNL     1       0.169  -1.433  -1.796  1.00  0.00    -0.173 N 
ATOM      3  H2  UNL     1       0.071  -1.818  -2.735  1.00  0.00     0.186 HD
HETATM    4  C2  UNL     1      -0.942  -0.888  -1.251  1.00  0.00     0.699 C 
HETATM    5  N4  UNL     1      -0.996  -0.049  -0.175  1.00  0.00    -0.022 N 
ATOM      6  H4  UNL     1      -1.911   0.032   0.268  1.00  0.00     0.203 HD
HETATM    7  C9  UNL     1      -0.025   0.682   0.383  1.00  0.00     0.694 C 
HETATM    8  N5  UNL     1      -0.218   1.793   0.942  1.00  0.00    -0.223 N 
ATOM      9  H5  UNL     1       0.581   2.285   1.342  1.00  0.00     0.177 HD
HETATM   10  N6  UNL     1       1.294   0.310   0.400  1.00  0.00    -0.171 N 
ATOM     11  H6  UNL     1       1.907   0.906   0.957  1.00  0.00     0.186 HD
HETATM   12  C12 UNL     1       1.908  -0.739  -0.218  1.00  0.00     0.191 C 
ENDROOT
BRANCH  12  13
HETATM   13  N7  UNL     1       3.212  -1.056   0.247  1.00  0.00    -0.192 N 
HETATM   14  N8  UNL     1       3.307  -1.838   1.390  1.00  0.00    -0.229 N 
HETATM   15  N9  UNL     1       4.579  -2.153   1.851  1.00  0.00    -0.258 N 
ATOM     16  H8  UNL     1       2.473  -2.169   1.874  1.00  0.00     0.209 HD
HETATM   17  C13 UNL     1       5.627  -1.728   1.231  1.00  0.00     0.210 A 
ATOM     18  H9  UNL     1       4.685  -2.726   2.688  1.00  0.00     0.191 HD
HETATM   19  N10 UNL     1       6.897  -2.082   1.749  1.00  0.00    -0.062 NA
HETATM   20  N11 UNL     1       5.534  -0.933   0.068  1.00  0.00    -0.302 N 
HETATM   21  C14 UNL     1       4.386  -0.614  -0.399  1.00  0.00     0.219 A 
ATOM     22  H11 UNL     1       6.382  -0.613  -0.400  1.00  0.00     0.171 HD
HETATM   23  N12 UNL     1       4.312   0.176  -1.569  1.00  0.00    -0.061 NA
ENDBRANCH  12  13
BRANCH   1  24
HETATM   24  N1  UNL     1       2.189  -2.443  -1.692  1.00  0.00    -0.382 N 
ATOM     25  H12 UNL     1       1.816  -3.025  -2.442  1.00  0.00     0.157 HD
ATOM     26  H11 UNL     1       3.115  -2.512  -1.269  1.00  0.00     0.157 HD
ENDBRANCH   1  24
BRANCH   4  27
HETATM   27  N3  UNL     1      -2.072  -1.174  -1.800  1.00  0.00    -0.191 N 
ATOM     28  H3  UNL     1      -2.101  -1.787  -2.615  1.00  0.00     0.184 HD
BRANCH  27  29
HETATM   29  C3  UNL     1      -3.277  -0.637  -1.273  1.00  0.00     0.049 A 
HETATM   30  C4  UNL     1      -4.040  -1.416  -0.391  1.00  0.00     0.030 A 
HETATM   31  C5  UNL     1      -5.210  -0.913   0.130  1.00  0.00     0.002 A 
HETATM   32  C6  UNL     1      -5.683   0.345  -0.176  1.00  0.00     0.000 A 
HETATM   33  C7  UNL     1      -4.937   1.125  -1.048  1.00  0.00     0.002 A 
HETATM   34  C8  UNL     1      -3.764   0.623  -1.571  1.00  0.00     0.030 A 
ENDBRANCH  27  29
ENDBRANCH   4  27
BRANCH   8  35
HETATM   35  C10 UNL     1      -1.514   2.393   1.038  1.00  0.00     0.164 C 
BRANCH  35  36
HETATM   36  C11 UNL     1      -1.516   3.600   1.962  1.00  0.00     0.184 C 
BRANCH  36  37
HETATM   37  O1  UNL     1      -2.818   4.095   1.975  1.00  0.00    -0.399 OA
ATOM     38  H1  UNL     1      -2.819   4.849   2.552  1.00  0.00     0.209 HD
ENDBRANCH  36  37
ENDBRANCH  35  36
ENDBRANCH   8  35
TORSDOF 7
