REMARK  9 active torsions:
REMARK  status: ('A' for Active; 'I' for Inactive)
REMARK    1  A    between atoms: C2_5  and  O1_6 
REMARK    2  A    between atoms: O1_6  and  C3_7 
REMARK    3  A    between atoms: C4_8  and  N3_9 
REMARK    4  A    between atoms: C6_14  and  N4_15 
REMARK    5  A    between atoms: C7_19  and  O2_20 
REMARK    6  A    between atoms: O2_20  and  C8_21 
REMARK    7  A    between atoms: C11_24  and  N5_25 
REMARK    8  A    between atoms: C13_31  and  O4_32 
REMARK    9  A    between atoms: C14_35  and  N6_36 
ROOT
HETATM    1  C3  UNL     1      -1.303  -0.074   0.668  1.00  0.00     0.188 C 
HETATM    2  C4  UNL     1      -0.873   0.911   1.726  1.00  0.00     0.217 C 
HETATM    3  C5  UNL     1      -0.428   0.042   2.906  1.00  0.00     0.071 C 
HETATM    4  C6  UNL     1       0.909  -0.532   2.524  1.00  0.00     0.217 C 
HETATM    5  C7  UNL     1       1.132  -0.647   1.057  1.00  0.00     0.186 C 
HETATM    6  C13 UNL     1      -0.117  -0.874   0.251  1.00  0.00     0.180 C 
ENDROOT
BRANCH   1   7
HETATM    7  O1  UNL     1      -1.887   0.520  -0.422  1.00  0.00    -0.334 OA
BRANCH   7   8
HETATM    8  C2  UNL     1      -3.183   0.153  -0.672  1.00  0.00     0.374 C 
HETATM    9  N2  UNL     1      -3.410  -0.313  -2.021  1.00  0.00    -0.334 N 
HETATM   10  C1  UNL     1      -4.632  -0.354  -2.434  1.00  0.00     0.096 C 
ATOM     11  H2  UNL     1      -2.636  -0.598  -2.622  1.00  0.00     0.165 HD
HETATM   12  N1  UNL     1      -4.980  -0.797  -3.747  1.00  0.00    -0.088 NA
HETATM   13  C15 UNL     1      -5.767   0.064  -1.552  1.00  0.00     0.134 C 
HETATM   14  C14 UNL     1      -5.299   0.900  -0.398  1.00  0.00     0.329 C 
HETATM   15  O5  UNL     1      -3.985   1.286  -0.495  1.00  0.00    -0.310 OA
BRANCH  14  16
HETATM   16  N6  UNL     1      -5.508   0.281   0.887  1.00  0.00    -0.052 N 
ATOM     17  H63 UNL     1      -4.862  -0.490   1.058  1.00  0.00     0.277 HD
ATOM     18  H62 UNL     1      -5.220   0.881   1.660  1.00  0.00     0.277 HD
ATOM     19  H61 UNL     1      -6.484  -0.006   0.959  1.00  0.00     0.277 HD
ENDBRANCH  14  16
ENDBRANCH   7   8
ENDBRANCH   1   7
BRANCH   2  20
HETATM   20  N3  UNL     1      -1.975   1.714   2.212  1.00  0.00    -0.072 N 
ATOM     21  H33 UNL     1      -2.454   2.185   1.444  1.00  0.00     0.274 HD
ATOM     22  H32 UNL     1      -2.739   1.126   2.545  1.00  0.00     0.274 HD
ATOM     23  H31 UNL     1      -1.684   2.380   2.928  1.00  0.00     0.274 HD
ENDBRANCH   2  20
BRANCH   6  24
HETATM   24  O4  UNL     1       0.178  -0.576  -1.083  1.00  0.00    -0.390 OA
ATOM     25  H4  UNL     1       0.934  -1.086  -1.349  1.00  0.00     0.210 HD
ENDBRANCH   6  24
BRANCH   5  26
HETATM   26  O2  UNL     1       1.847   0.374   0.487  1.00  0.00    -0.351 OA
BRANCH  26  27
HETATM   27  C8  UNL     1       3.049   0.031  -0.069  1.00  0.00     0.260 C 
HETATM   28  C9  UNL     1       4.236   0.695   0.563  1.00  0.00     0.063 C 
HETATM   29  C10 UNL     1       5.449   0.731  -0.291  1.00  0.00     0.040 C 
HETATM   30  C11 UNL     1       5.470  -0.238  -1.420  1.00  0.00     0.207 C 
HETATM   31  C12 UNL     1       4.099  -0.593  -1.943  1.00  0.00     0.203 C 
HETATM   32  O3  UNL     1       3.118   0.255  -1.441  1.00  0.00    -0.359 OA
BRANCH  30  33
HETATM   33  N5  UNL     1       6.193  -1.460  -1.115  1.00  0.00    -0.073 N 
ATOM     34  H53 UNL     1       7.140  -1.251  -0.799  1.00  0.00     0.274 HD
ATOM     35  H52 UNL     1       5.826  -1.897  -0.270  1.00  0.00     0.274 HD
ATOM     36  H51 UNL     1       6.207  -2.124  -1.889  1.00  0.00     0.274 HD
ENDBRANCH  30  33
ENDBRANCH  26  27
ENDBRANCH   5  26
BRANCH   4  37
HETATM   37  N4  UNL     1       1.908   0.360   3.138  1.00  0.00    -0.072 N 
ATOM     38  H43 UNL     1       1.794   1.341   2.883  1.00  0.00     0.274 HD
ATOM     39  H42 UNL     1       1.786   0.483   4.143  1.00  0.00     0.274 HD
ATOM     40  H41 UNL     1       2.815  -0.029   2.879  1.00  0.00     0.274 HD
ENDBRANCH   4  37
TORSDOF 9
