REMARK  13 active torsions:
REMARK  status: ('A' for Active; 'I' for Inactive)
REMARK    1  A    between atoms: C2_5  and  C3_6 
REMARK    2  A    between atoms: C3_6  and  C4_7 
REMARK    3  A    between atoms: C3_6  and  C6_15 
REMARK    4  A    between atoms: C4_7  and  C5_8 
REMARK    5  A    between atoms: C5_8  and  O1_9 
REMARK    6  A    between atoms: C5_8  and  N3_11 
REMARK    7  A    between atoms: N3_11  and  O2_13 
REMARK    8  A    between atoms: C6_15  and  O3_16 
REMARK    9  A    between atoms: C6_15  and  N4_18 
REMARK   10  A    between atoms: C8_20  and  N5_21 
REMARK   11  A    between atoms: C10_26  and  N6_27 
REMARK   12  A    between atoms: N9_36  and  N10_37 
REMARK   13  A    between atoms: N10_37  and  O4_39 
ROOT
HETATM    1  C3  UNL     1       0.810   0.112   0.219  1.00  0.00     0.041 C 
ENDROOT
BRANCH   1   2
HETATM    2  C2  UNL     1       2.015  -0.393  -0.033  1.00  0.00     0.120 A 
HETATM    3  N2  UNL     1       2.177  -1.768  -0.352  1.00  0.00    -0.314 N 
HETATM    4  C1  UNL     1       3.290  -2.315  -0.635  1.00  0.00     0.219 A 
ATOM      5  H2  UNL     1       1.344  -2.357  -0.354  1.00  0.00     0.170 HD
HETATM    6  N1  UNL     1       3.386  -3.699  -0.946  1.00  0.00    -0.061 NA
HETATM    7  N9  UNL     1       4.453  -1.497  -0.632  1.00  0.00    -0.178 N 
HETATM    8  C12 UNL     1       4.367  -0.092  -0.318  1.00  0.00     0.219 A 
HETATM    9  N7  UNL     1       3.188   0.373  -0.043  1.00  0.00    -0.314 N 
HETATM   10  N8  UNL     1       5.539   0.714  -0.319  1.00  0.00    -0.061 NA
ATOM     11  H7  UNL     1       3.109   1.365   0.182  1.00  0.00     0.170 HD
BRANCH   7  12
HETATM   12  N10 UNL     1       5.703  -2.022  -0.931  1.00  0.00    -0.198 N 
ATOM     13  H10 UNL     1       6.260  -2.491  -0.217  1.00  0.00     0.216 HD
BRANCH  12  14
HETATM   14  O4  UNL     1       6.124  -1.902  -2.100  1.00  0.00    -0.274 OA
ATOM     15  H4  UNL     1       6.979  -2.261  -2.305  1.00  0.00     0.246 HD
ENDBRANCH  12  14
ENDBRANCH   7  12
ENDBRANCH   1   2
BRANCH   1  16
HETATM   16  C4  UNL     1       0.559   1.504   0.556  1.00  0.00     0.102 C 
BRANCH  16  17
HETATM   17  C5  UNL     1       1.677   2.435   0.872  1.00  0.00     0.243 C 
BRANCH  17  18
HETATM   18  O1  UNL     1       2.437   2.089   1.976  1.00  0.00    -0.375 OA
ATOM     19  H1  UNL     1       3.150   2.683   2.178  1.00  0.00     0.212 HD
ENDBRANCH  17  18
BRANCH  17  20
HETATM   20  N3  UNL     1       1.050   3.701   1.207  1.00  0.00    -0.276 N 
ATOM     21  H3  UNL     1       1.233   4.557   0.684  1.00  0.00     0.190 HD
BRANCH  20  22
HETATM   22  O2  UNL     1       0.232   3.663   2.230  1.00  0.00    -0.292 OA
ATOM     23  H2  UNL     1      -0.178   4.491   2.449  1.00  0.00     0.244 HD
ENDBRANCH  20  22
ENDBRANCH  17  20
ENDBRANCH  16  17
ENDBRANCH   1  16
BRANCH   1  24
HETATM   24  C6  UNL     1      -0.307  -0.797   0.141  1.00  0.00     0.148 C 
BRANCH  24  25
HETATM   25  O3  UNL     1       0.003  -2.039  -0.174  1.00  0.00    -0.346 OA
ATOM     26  H3  UNL     1      -0.733  -2.638  -0.225  1.00  0.00     0.219 HD
ENDBRANCH  24  25
BRANCH  24  27
HETATM   27  N4  UNL     1      -1.654  -0.549   0.349  1.00  0.00    -0.358 N 
HETATM   28  C7  UNL     1      -2.560  -1.736   0.188  1.00  0.00     0.157 C 
HETATM   29  C8  UNL     1      -3.377  -1.486  -1.034  1.00  0.00     0.203 C 
HETATM   30  C9  UNL     1      -4.133  -0.211  -0.838  1.00  0.00     0.068 C 
HETATM   31  C10 UNL     1      -3.858   0.446   0.472  1.00  0.00     0.203 C 
HETATM   32  C11 UNL     1      -2.336   0.641   0.694  1.00  0.00     0.157 C 
BRANCH  29  33
HETATM   33  N5  UNL     1      -4.282  -2.584  -1.273  1.00  0.00    -0.073 N 
ATOM     34  H53 UNL     1      -3.790  -3.476  -1.322  1.00  0.00     0.274 HD
ATOM     35  H52 UNL     1      -4.867  -2.777  -0.460  1.00  0.00     0.274 HD
ATOM     36  H51 UNL     1      -4.841  -2.413  -2.109  1.00  0.00     0.274 HD
ENDBRANCH  29  33
BRANCH  31  37
HETATM   37  N6  UNL     1      -4.415   1.802   0.489  1.00  0.00    -0.073 N 
ATOM     38  H63 UNL     1      -4.078   2.361  -0.295  1.00  0.00     0.274 HD
ATOM     39  H62 UNL     1      -5.409   1.807   0.262  1.00  0.00     0.274 HD
ATOM     40  H61 UNL     1      -4.227   2.251   1.385  1.00  0.00     0.274 HD
ENDBRANCH  31  37
ENDBRANCH  24  27
ENDBRANCH   1  24
TORSDOF 13
