REMARK  4 active torsions:
REMARK  status: ('A' for Active; 'I' for Inactive)
REMARK    1  A    between atoms: C2_2  and  N1_5 
REMARK    2  A    between atoms: N1_5  and  O1_6 
REMARK    3  A    between atoms: N1_5  and  C5_8 
REMARK    4  A    between atoms: C5_8  and  C6_9 
ROOT
HETATM    1  N1  UNL     1      -0.022  -0.029   0.442  1.00  0.00    -0.261 N 
ENDROOT
BRANCH   1   2
HETATM    2  C2  UNL     1      -1.011   0.151  -0.581  1.00  0.00     0.048 C 
HETATM    3  C1  UNL     1      -2.044  -0.963  -0.563  1.00  0.00     0.040 C 
HETATM    4  C3  UNL     1      -0.399   0.172  -1.950  1.00  0.00     0.040 C 
HETATM    5  C4  UNL     1      -1.744   1.446  -0.269  1.00  0.00     0.040 C 
ENDBRANCH   1   2
BRANCH   1   6
HETATM    6  O1  UNL     1      -0.415  -0.064   1.747  1.00  0.00    -0.287 OA
ATOM      7  H1  UNL     1       0.240  -0.183   2.425  1.00  0.00     0.244 HD
ENDBRANCH   1   6
BRANCH   1   8
HETATM    8  C5  UNL     1       1.211  -0.157   0.145  1.00  0.00     0.157 C 
BRANCH   8   9
HETATM    9  C6  UNL     1       2.218  -0.345   1.259  1.00  0.00     0.124 A 
HETATM   10  N2  UNL     1       3.484  -0.495   1.267  1.00  0.00    -0.285 N 
HETATM   11  N3  UNL     1       3.736  -0.600   2.495  1.00  0.00    -0.267 N 
ATOM     12  H2  UNL     1       4.129  -0.523   0.478  1.00  0.00     0.188 HD
HETATM   13  S1  UNL     1       2.159  -0.440   2.910  1.00  0.00     0.022 SA
ATOM     14  H3  UNL     1       4.595  -0.734   3.029  1.00  0.00     0.195 HD
ENDBRANCH   8   9
ENDBRANCH   1   8
TORSDOF 4
