REMARK  1 active torsions:
REMARK  status: ('A' for Active; 'I' for Inactive)
REMARK    1  A    between atoms: C3_3  and  N1_4 
ROOT
HETATM    1  C1  UNL     1       3.706   0.350   1.750  1.00  0.00     0.014 C 
HETATM    2  C2  UNL     1       2.995   0.476   0.773  1.00  0.00    -0.098 C 
HETATM    3  C3  UNL     1       2.146   0.592  -0.418  1.00  0.00     0.219 C 
ENDROOT
BRANCH   3   4
HETATM    4  N1  UNL     1       0.747   0.572  -0.063  1.00  0.00    -0.334 N 
HETATM    5  C4  UNL     1       0.002   1.547   0.595  1.00  0.00     0.188 C 
HETATM    6  N2  UNL     1       0.487   2.747   1.200  1.00  0.00    -0.064 NA
HETATM    7  N3  UNL     1      -1.263   1.239   0.603  1.00  0.00    -0.354 N 
HETATM    8  C5  UNL     1      -1.499  -0.021  -0.079  1.00  0.00     0.050 C 
ATOM      9  H3  UNL     1      -1.993   1.808   1.032  1.00  0.00     0.163 HD
HETATM   10  C6  UNL     1      -2.250   0.304  -1.351  1.00  0.00     0.041 C 
HETATM   11  C7  UNL     1      -2.361  -0.870   0.803  1.00  0.00     0.041 C 
HETATM   12  C8  UNL     1      -0.137  -0.560  -0.348  1.00  0.00     0.053 C 
HETATM   13  C9  UNL     1       0.110  -1.049  -1.735  1.00  0.00     0.041 C 
HETATM   14  C10 UNL     1       0.227  -1.711   0.602  1.00  0.00     0.041 C 
ENDBRANCH   3   4
TORSDOF 1
