REMARK  1 active torsions:
REMARK  status: ('A' for Active; 'I' for Inactive)
REMARK    1  A    between atoms: N2_6  and  C4_8 
ROOT
HETATM    1  C1  UNL     1      -2.161  -2.695   0.915  1.00  0.00     0.089 C 
HETATM    2  C2  UNL     1      -1.683  -1.369   0.453  1.00  0.00     0.078 A 
HETATM    3  N1  UNL     1      -0.365  -1.103   0.499  1.00  0.00    -0.332 N 
ATOM      4  H1  UNL     1       0.269  -1.821   0.851  1.00  0.00     0.168 HD
HETATM    5  C3  UNL     1       0.147   0.073   0.099  1.00  0.00     0.110 A 
HETATM    6  N2  UNL     1       1.400   0.363   0.128  1.00  0.00    -0.372 N 
ATOM      7  H2  UNL     1       1.672   1.289  -0.202  1.00  0.00     0.161 HD
HETATM    8  C7  UNL     1      -0.735   1.018  -0.369  1.00  0.00     0.004 A 
HETATM    9  C8  UNL     1      -0.232   2.319  -0.819  1.00  0.00     0.054 C 
HETATM   10  C9  UNL     1      -2.109   0.782  -0.433  1.00  0.00     0.016 A 
HETATM   11  C10 UNL     1      -3.034   1.828  -0.945  1.00  0.00     0.069 C 
HETATM   12  N3  UNL     1      -2.521  -0.425  -0.010  1.00  0.00    -0.349 N 
ATOM     13  H3  UNL     1      -3.519  -0.635  -0.042  1.00  0.00     0.167 HD
ENDROOT
BRANCH   6  14
HETATM   14  C4  UNL     1       2.443  -0.499   0.582  1.00  0.00     0.075 C 
HETATM   15  C5  UNL     1       3.578   0.401   1.087  1.00  0.00     0.031 C 
HETATM   16  C6  UNL     1       2.933  -1.320  -0.598  1.00  0.00     0.031 C 
ENDBRANCH   6  14
TORSDOF 1
