REMARK  3 active torsions:
REMARK  status: ('A' for Active; 'I' for Inactive)
REMARK    1  A    between atoms: O1_3  and  N2_4 
REMARK    2  A    between atoms: N2_4  and  C2_6 
REMARK    3  A    between atoms: C2_6  and  N3_8 
ROOT
HETATM    1  N1  UNL     1       5.099   0.909   0.249  1.00  0.00    -0.162 NA
HETATM    2  C1  UNL     1       4.064   0.611  -0.201  1.00  0.00     0.253 C 
HETATM    3  O1  UNL     1       2.838   0.281  -0.723  1.00  0.00    -0.157 OA
ENDROOT
BRANCH   3   4
HETATM    4  N2  UNL     1       2.444  -1.031  -0.655  1.00  0.00    -0.224 N 
ATOM      5  H2  UNL     1       3.157  -1.737  -0.840  1.00  0.00     0.198 HD
BRANCH   4   6
HETATM    6  C2  UNL     1       1.154  -1.495  -0.355  1.00  0.00     0.195 C 
HETATM    7  S1  UNL     1       0.900  -3.119  -0.327  1.00  0.00    -0.039 SA
BRANCH   6   8
HETATM    8  N3  UNL     1       0.089  -0.594  -0.081  1.00  0.00    -0.357 N 
HETATM    9  C3  UNL     1       0.330   0.810  -0.108  1.00  0.00     0.125 C 
HETATM   10  C4  UNL     1      -0.920   1.532   0.353  1.00  0.00     0.020 C 
HETATM   11  C5  UNL     1      -2.166   1.071  -0.333  1.00  0.00     0.003 C 
HETATM   12  C6  UNL     1      -2.350  -0.409  -0.363  1.00  0.00     0.020 C 
HETATM   13  C7  UNL     1      -1.206  -1.185   0.213  1.00  0.00     0.125 C 
ENDBRANCH   6   8
ENDBRANCH   4   6
ENDBRANCH   3   4
TORSDOF 3
