REMARK  11 active torsions:
REMARK  status: ('A' for Active; 'I' for Inactive)
REMARK    1  A    between atoms: N1_1  and  C1_4 
REMARK    2  A    between atoms: N3_8  and  C3_9 
REMARK    3  A    between atoms: C4_10  and  O1_11 
REMARK    4  A    between atoms: C5_13  and  C6_14 
REMARK    5  A    between atoms: C6_14  and  O2_15 
REMARK    6  A    between atoms: C6_14  and  C7_17 
REMARK    7  A    between atoms: C7_17  and  O3_18 
REMARK    8  A    between atoms: C7_17  and  C8_20 
REMARK    9  A    between atoms: C8_20  and  O4_21 
REMARK   10  A    between atoms: C9_24  and  N4_25 
REMARK   11  A    between atoms: C10_26  and  N5_27 
ROOT
HETATM    1  C3  UNL     1      -0.558  -0.357  -0.596  1.00  0.00     0.194 C 
HETATM    2  C4  UNL     1       0.718  -1.036  -0.024  1.00  0.00     0.179 C 
HETATM    3  C5  UNL     1       1.536   0.192   0.323  1.00  0.00     0.186 C 
HETATM    4  O5  UNL     1       0.902   1.251  -0.385  1.00  0.00    -0.353 OA
HETATM    5  C9  UNL     1      -0.442   0.933  -0.006  1.00  0.00     0.279 C 
ENDROOT
BRANCH   5   6
HETATM    6  N4  UNL     1      -1.219   2.052  -0.263  1.00  0.00    -0.103 N 
HETATM    7  C10 UNL     1      -2.039   2.266  -1.298  1.00  0.00     0.688 A 
HETATM    8  N6  UNL     1      -2.752   3.403  -1.446  1.00  0.00    -0.141 N 
HETATM    9  C11 UNL     1      -2.666   4.390  -0.541  1.00  0.00     0.342 A 
ATOM     10  H6  UNL     1      -3.363   3.513  -2.255  1.00  0.00     0.189 HD
HETATM   11  O6  UNL     1      -3.338   5.461  -0.680  1.00  0.00    -0.246 OA
HETATM   12  N7  UNL     1      -1.850   4.201   0.509  1.00  0.00    -0.259 N 
HETATM   13  C12 UNL     1      -1.159   3.083   0.640  1.00  0.00     0.347 A 
ATOM     14  H7  UNL     1      -1.763   4.931   1.216  1.00  0.00     0.175 HD
HETATM   15  O7  UNL     1      -0.408   2.970   1.654  1.00  0.00    -0.246 OA
BRANCH   7  16
HETATM   16  N5  UNL     1      -2.137   1.350  -2.169  1.00  0.00    -0.234 N 
ATOM     17  H52 UNL     1      -1.598   0.491  -2.057  1.00  0.00     0.174 HD
ATOM     18  H51 UNL     1      -2.762   1.513  -2.958  1.00  0.00     0.174 HD
ENDBRANCH   7  16
ENDBRANCH   5   6
BRANCH   1  19
HETATM   19  N3  UNL     1      -1.617  -1.249  -0.341  1.00  0.00    -0.231 N 
HETATM   20  N2  UNL     1      -1.729  -2.307  -1.155  1.00  0.00    -0.302 N 
HETATM   21  C2  UNL     1      -2.665  -3.233  -1.047  1.00  0.00     0.155 A 
ATOM     22  H2  UNL     1      -1.047  -2.404  -1.907  1.00  0.00     0.186 HD
HETATM   23  C1  UNL     1      -3.601  -3.132  -0.042  1.00  0.00     0.119 A 
HETATM   24  N8  UNL     1      -3.504  -2.080   0.780  1.00  0.00    -0.292 N 
HETATM   25  C13 UNL     1      -2.532  -1.168   0.625  1.00  0.00     0.343 A 
ATOM     26  H8  UNL     1      -4.180  -1.970   1.536  1.00  0.00     0.172 HD
HETATM   27  O8  UNL     1      -2.492  -0.222   1.410  1.00  0.00    -0.245 OA
BRANCH  23  28
HETATM   28  N1  UNL     1      -4.542  -4.008   0.115  1.00  0.00    -0.384 N 
ATOM     29  H12 UNL     1      -4.616  -4.810  -0.511  1.00  0.00     0.157 HD
ATOM     30  H11 UNL     1      -5.235  -3.933   0.859  1.00  0.00     0.157 HD
ENDBRANCH  23  28
ENDBRANCH   1  19
BRANCH   2  31
HETATM   31  O1  UNL     1       0.378  -1.786   1.099  1.00  0.00    -0.391 OA
ATOM     32  H1  UNL     1       1.158  -2.201   1.449  1.00  0.00     0.210 HD
ENDBRANCH   2  31
BRANCH   3  33
HETATM   33  C6  UNL     1       2.981   0.092  -0.098  1.00  0.00     0.180 C 
BRANCH  33  34
HETATM   34  O2  UNL     1       3.542   1.350   0.193  1.00  0.00    -0.390 OA
ATOM     35  H2  UNL     1       4.452   1.287  -0.072  1.00  0.00     0.210 HD
ENDBRANCH  33  34
BRANCH  33  36
HETATM   36  C7  UNL     1       3.685  -0.902   0.788  1.00  0.00     0.173 C 
BRANCH  36  37
HETATM   37  O3  UNL     1       3.174  -2.164   0.530  1.00  0.00    -0.391 OA
ATOM     38  H3  UNL     1       3.618  -2.791   1.089  1.00  0.00     0.210 HD
ENDBRANCH  36  37
BRANCH  36  39
HETATM   39  C8  UNL     1       5.188  -0.868   0.584  1.00  0.00     0.198 C 
BRANCH  39  40
HETATM   40  O4  UNL     1       5.430  -1.214  -0.754  1.00  0.00    -0.398 OA
ATOM     41  H4  UNL     1       6.371  -1.193  -0.882  1.00  0.00     0.209 HD
ENDBRANCH  39  40
ENDBRANCH  36  39
ENDBRANCH  33  36
ENDBRANCH   3  33
TORSDOF 11
