REMARK  11 active torsions:
REMARK  status: ('A' for Active; 'I' for Inactive)
REMARK    1  A    between atoms: C1_2  and  C2_4 
REMARK    2  A    between atoms: C2_4  and  O2_5 
REMARK    3  A    between atoms: C6_12  and  C7_13 
REMARK    4  A    between atoms: C7_13  and  C8_14 
REMARK    5  A    between atoms: C8_14  and  N2_15 
REMARK    6  A    between atoms: C8_14  and  O4_19 
REMARK    7  A    between atoms: C9_21  and  O5_22 
REMARK    8  A    between atoms: C10_24  and  O6_25 
REMARK    9  A    between atoms: C12_29  and  O8_30 
REMARK   10  A    between atoms: C12_29  and  O9_32 
REMARK   11  A    between atoms: C13_34  and  O10_35 
ROOT
HETATM    1  C2  UNL     1       3.663   0.631   0.542  1.00  0.00     0.146 C 
HETATM    2  C3  UNL     1       2.873  -0.265  -0.051  1.00  0.00     0.053 A 
HETATM    3  S1  UNL     1       2.703  -1.691  -1.115  1.00  0.00    -0.097 SA
HETATM    4  C4  UNL     1       1.486  -0.788  -0.298  1.00  0.00     0.173 A 
HETATM    5  C5  UNL     1       0.550   0.067  -1.054  1.00  0.00     0.166 C 
HETATM    6  O3  UNL     1       0.701   0.179  -2.248  1.00  0.00    -0.295 OA
HETATM    7  C6  UNL     1      -0.538   0.759  -0.338  1.00  0.00     0.103 C 
HETATM    8  C9  UNL     1      -1.416  -0.175   0.442  1.00  0.00     0.145 C 
HETATM    9  C10 UNL     1      -2.535  -0.777  -0.366  1.00  0.00     0.232 C 
HETATM   10  C11 UNL     1      -2.106  -2.188  -0.655  1.00  0.00     0.223 C 
HETATM   11  O7  UNL     1      -2.458  -2.831  -1.627  1.00  0.00    -0.289 OA
HETATM   12  C12 UNL     1      -1.205  -2.605   0.446  1.00  0.00     0.268 C 
HETATM   13  C13 UNL     1      -0.682  -1.320   1.055  1.00  0.00     0.219 C 
HETATM   14  C14 UNL     1       0.772  -1.318   0.897  1.00  0.00     0.202 C 
HETATM   15  O11 UNL     1       1.467  -1.774   1.786  1.00  0.00    -0.292 OA
ENDROOT
BRANCH   1  16
HETATM   16  C1  UNL     1       5.096   0.583   0.351  1.00  0.00     0.288 C 
HETATM   17  N1  UNL     1       5.701  -0.400  -0.461  1.00  0.00    -0.055 NA
HETATM   18  O1  UNL     1       5.849   1.422   0.905  1.00  0.00    -0.269 OA
ENDBRANCH   1  16
BRANCH   1  19
HETATM   19  O2  UNL     1       3.123   1.613   1.346  1.00  0.00    -0.355 OA
ATOM     20  H2  UNL     1       2.182   1.645   1.471  1.00  0.00     0.218 HD
ENDBRANCH   1  19
BRANCH   7  21
HETATM   21  C7  UNL     1      -1.245   1.638  -1.297  1.00  0.00     0.076 C 
BRANCH  21  22
HETATM   22  C8  UNL     1      -2.383   2.436  -0.758  1.00  0.00     0.316 C 
BRANCH  22  23
HETATM   23  N2  UNL     1      -1.880   3.303   0.290  1.00  0.00    -0.053 N 
ATOM     24  H23 UNL     1      -1.382   2.790   1.017  1.00  0.00     0.277 HD
ATOM     25  H22 UNL     1      -1.105   3.888  -0.023  1.00  0.00     0.277 HD
ATOM     26  H21 UNL     1      -2.659   3.849   0.659  1.00  0.00     0.277 HD
ENDBRANCH  22  23
BRANCH  22  27
HETATM   27  O4  UNL     1      -2.795   3.304  -1.797  1.00  0.00    -0.370 OA
ATOM     28  H4  UNL     1      -3.520   3.813  -1.454  1.00  0.00     0.212 HD
ENDBRANCH  22  27
ENDBRANCH  21  22
ENDBRANCH   7  21
BRANCH  13  29
HETATM   29  O10 UNL     1      -0.960  -1.427   2.440  1.00  0.00    -0.374 OA
ATOM     30  H10 UNL     1      -0.493  -2.156   2.830  1.00  0.00     0.211 HD
ENDBRANCH  13  29
BRANCH   8  31
HETATM   31  O5  UNL     1      -1.998   0.556   1.477  1.00  0.00    -0.382 OA
ATOM     32  H5  UNL     1      -2.554  -0.035   1.971  1.00  0.00     0.210 HD
ENDBRANCH   8  31
BRANCH  12  33
HETATM   33  O8  UNL     1      -1.969  -3.353   1.337  1.00  0.00    -0.357 OA
ATOM     34  H8  UNL     1      -1.392  -3.620   2.043  1.00  0.00     0.213 HD
ENDBRANCH  12  33
BRANCH  12  35
HETATM   35  O9  UNL     1      -0.174  -3.424   0.008  1.00  0.00    -0.357 OA
ATOM     36  H9  UNL     1       0.403  -3.691   0.714  1.00  0.00     0.213 HD
ENDBRANCH  12  35
BRANCH   9  37
HETATM   37  O6  UNL     1      -3.733  -0.865   0.368  1.00  0.00    -0.385 OA
ATOM     38  H6  UNL     1      -4.439  -1.245  -0.142  1.00  0.00     0.210 HD
ENDBRANCH   9  37
TORSDOF 11
