REMARK  8 active torsions:
REMARK  status: ('A' for Active; 'I' for Inactive)
REMARK    1  A    between atoms: C6_13  and  C7_14 
REMARK    2  A    between atoms: N6_17  and  C8_18 
REMARK    3  A    between atoms: C9_19  and  O3_20 
REMARK    4  A    between atoms: N7_23  and  C11_25 
REMARK    5  A    between atoms: C12_27  and  O5_28 
REMARK    6  A    between atoms: C13_30  and  C14_31 
REMARK    7  A    between atoms: C14_31  and  O6_32 
REMARK    8  A    between atoms: N8_34  and  O7_35 
ROOT
HETATM    1  C8  UNL     1      -0.438   0.101  -0.097  1.00  0.00     0.227 C 
HETATM    2  C9  UNL     1      -0.894   0.560   1.302  1.00  0.00     0.206 C 
HETATM    3  C10 UNL     1      -2.401   0.710   1.302  1.00  0.00     0.051 C 
HETATM    4  N7  UNL     1      -2.943   1.436   2.228  1.00  0.00    -0.337 N 
ATOM      5  H7  UNL     1      -2.340   1.880   2.921  1.00  0.00     0.168 HD
HETATM    6  C12 UNL     1      -3.167   0.022   0.254  1.00  0.00     0.188 C 
HETATM    7  C13 UNL     1      -2.582   0.344  -1.094  1.00  0.00     0.146 C 
HETATM    8  N8  UNL     1      -1.240   0.914  -0.925  1.00  0.00    -0.163 NA
ENDROOT
BRANCH   1   9
HETATM    9  N6  UNL     1       0.944  -0.051  -0.157  1.00  0.00    -0.300 N 
HETATM   10  C4  UNL     1       1.870   0.660  -0.879  1.00  0.00     0.151 A 
HETATM   11  C3  UNL     1       1.837   1.694  -1.784  1.00  0.00     0.280 A 
HETATM   12  C5  UNL     1       3.113   0.102  -0.552  1.00  0.00     0.146 A 
HETATM   13  N2  UNL     1       3.004   2.136  -2.323  1.00  0.00    -0.273 N 
HETATM   14  O2  UNL     1       0.775   2.222  -2.119  1.00  0.00    -0.265 OA
HETATM   15  C2  UNL     1       4.178   1.591  -1.997  1.00  0.00     0.330 A 
ATOM     16  H2  UNL     1       2.982   2.904  -2.994  1.00  0.00     0.173 HD
HETATM   17  N1  UNL     1       4.246   0.584  -1.122  1.00  0.00    -0.287 N 
HETATM   18  O1  UNL     1       5.258   2.021  -2.514  1.00  0.00    -0.246 OA
HETATM   19  C1  UNL     1       5.491  -0.046  -0.731  1.00  0.00     0.163 C 
HETATM   20  N3  UNL     1       2.903  -0.881   0.307  1.00  0.00    -0.324 N 
HETATM   21  C6  UNL     1       1.594  -1.025   0.586  1.00  0.00     0.150 A 
ATOM     22  H3  UNL     1       3.641  -1.459   0.709  1.00  0.00     0.169 HD
BRANCH  21  23
HETATM   23  C7  UNL     1       1.108  -2.078   1.459  1.00  0.00     0.172 C 
HETATM   24  N4  UNL     1      -0.076  -2.787   1.158  1.00  0.00    -0.082 NA
HETATM   25  N5  UNL     1       1.350  -1.862   2.884  1.00  0.00    -0.082 NA
ENDBRANCH  21  23
ENDBRANCH   1   9
BRANCH   2  26
HETATM   26  O3  UNL     1      -0.383   1.809   1.636  1.00  0.00    -0.386 OA
ATOM     27  H3  UNL     1      -0.664   2.092   2.498  1.00  0.00     0.210 HD
ENDBRANCH   2  26
BRANCH   8  28
HETATM   28  O7  UNL     1      -1.518   2.157  -0.336  1.00  0.00    -0.310 OA
ATOM     29  H7  UNL     1      -2.058   2.705  -0.894  1.00  0.00     0.237 HD
ENDBRANCH   8  28
BRANCH   7  30
HETATM   30  C14 UNL     1      -2.735  -0.673  -2.143  1.00  0.00     0.189 C 
BRANCH  30  31
HETATM   31  O6  UNL     1      -2.012  -1.819  -2.088  1.00  0.00    -0.399 OA
ATOM     32  H6  UNL     1      -2.111  -2.477  -2.766  1.00  0.00     0.209 HD
ENDBRANCH  30  31
ENDBRANCH   7  30
BRANCH   4  33
HETATM   33  C11 UNL     1      -4.347   1.636   2.312  1.00  0.00     0.353 C 
HETATM   34  O4  UNL     1      -4.827   2.784   2.506  1.00  0.00    -0.283 OA
ENDBRANCH   4  33
BRANCH   6  35
HETATM   35  O5  UNL     1      -3.221  -1.351   0.487  1.00  0.00    -0.388 OA
ATOM     36  H5  UNL     1      -3.716  -1.796  -0.191  1.00  0.00     0.210 HD
ENDBRANCH   6  35
TORSDOF 8
