REMARK  10 active torsions:
REMARK  status: ('A' for Active; 'I' for Inactive)
REMARK    1  A    between atoms: N1_2  and  C3_4 
REMARK    2  A    between atoms: N5_17  and  C9_18 
REMARK    3  A    between atoms: C10_20  and  C11_21 
REMARK    4  A    between atoms: C11_21  and  O4_22 
REMARK    5  A    between atoms: C12_24  and  O5_25 
REMARK    6  A    between atoms: C12_24  and  C13_27 
REMARK    7  A    between atoms: C13_27  and  O6_28 
REMARK    8  A    between atoms: C14_30  and  O7_31 
REMARK    9  A    between atoms: C14_30  and  O8_33 
REMARK   10  A    between atoms: C15_35  and  O9_36 
ROOT
HETATM    1  C9  UNL     1      -0.159  -0.203   0.047  1.00  0.00     0.177 C 
HETATM    2  O3  UNL     1      -0.913   0.039  -1.086  1.00  0.00    -0.325 OA
HETATM    3  C10 UNL     1      -2.096  -0.740  -1.023  1.00  0.00     0.196 C 
HETATM    4  C12 UNL     1      -2.896  -0.310   0.127  1.00  0.00     0.166 C 
HETATM    5  C14 UNL     1      -2.208   0.722   1.031  1.00  0.00     0.230 C 
HETATM    6  C15 UNL     1      -0.770   0.343   1.296  1.00  0.00     0.259 C 
ENDROOT
BRANCH   1   7
HETATM    7  N5  UNL     1       1.259  -0.078  -0.077  1.00  0.00    -0.118 N 
HETATM    8  C3  UNL     1       2.185  -1.010   0.336  1.00  0.00     0.690 A 
HETATM    9  N2  UNL     1       3.427  -0.578   0.070  1.00  0.00    -0.173 N 
HETATM   10  C4  UNL     1       3.294   0.627  -0.510  1.00  0.00     0.160 A 
ATOM     11  H2  UNL     1       4.300  -1.067   0.269  1.00  0.00     0.186 HD
HETATM   12  C5  UNL     1       1.935   0.956  -0.609  1.00  0.00     0.171 A 
HETATM   13  N4  UNL     1       4.200   1.505  -0.977  1.00  0.00    -0.287 N 
HETATM   14  C6  UNL     1       1.602   2.164  -1.182  1.00  0.00     0.281 A 
HETATM   15  O1  UNL     1       0.391   2.482  -1.282  1.00  0.00    -0.265 OA
HETATM   16  N3  UNL     1       2.557   3.032  -1.646  1.00  0.00    -0.273 N 
HETATM   17  C7  UNL     1       3.850   2.681  -1.533  1.00  0.00     0.330 A 
ATOM     18  H3  UNL     1       2.293   3.923  -2.067  1.00  0.00     0.173 HD
HETATM   19  O2  UNL     1       4.702   3.508  -1.973  1.00  0.00    -0.246 OA
HETATM   20  C8  UNL     1       5.633   1.220  -0.902  1.00  0.00     0.163 C 
BRANCH   8  21
HETATM   21  N1  UNL     1       1.812  -2.251   0.953  1.00  0.00    -0.226 N 
HETATM   22  C1  UNL     1       1.690  -2.426   2.365  1.00  0.00     0.168 C 
HETATM   23  C2  UNL     1       1.534  -3.421   0.105  1.00  0.00     0.168 C 
ENDBRANCH   8  21
ENDBRANCH   1   7
BRANCH   6  24
HETATM   24  O9  UNL     1      -0.095   1.404   1.874  1.00  0.00    -0.382 OA
ATOM     25  H9  UNL     1      -0.484   1.751   2.668  1.00  0.00     0.210 HD
ENDBRANCH   6  24
BRANCH   3  26
HETATM   26  C11 UNL     1      -2.704  -0.851  -2.364  1.00  0.00     0.200 C 
BRANCH  26  27
HETATM   27  O4  UNL     1      -3.042   0.299  -3.016  1.00  0.00    -0.398 OA
ATOM     28  H4  UNL     1      -3.433   0.228  -3.879  1.00  0.00     0.209 HD
ENDBRANCH  26  27
ENDBRANCH   3  26
BRANCH   5  29
HETATM   29  O7  UNL     1      -2.388   2.004   0.577  1.00  0.00    -0.361 OA
ATOM     30  H7  UNL     1      -1.962   2.643   1.137  1.00  0.00     0.213 HD
ENDBRANCH   5  29
BRANCH   5  31
HETATM   31  O8  UNL     1      -2.923   0.635   2.251  1.00  0.00    -0.361 OA
ATOM     32  H8  UNL     1      -2.497   1.274   2.811  1.00  0.00     0.213 HD
ENDBRANCH   5  31
BRANCH   4  33
HETATM   33  O5  UNL     1      -3.005  -1.462   0.978  1.00  0.00    -0.379 OA
ATOM     34  H5  UNL     1      -3.524  -1.183   1.724  1.00  0.00     0.211 HD
ENDBRANCH   4  33
BRANCH   4  35
HETATM   35  C13 UNL     1      -4.302   0.116  -0.092  1.00  0.00     0.210 C 
BRANCH  35  36
HETATM   36  O6  UNL     1      -4.498   1.250  -0.845  1.00  0.00    -0.398 OA
ATOM     37  H6  UNL     1      -5.397   1.522  -0.985  1.00  0.00     0.209 HD
ENDBRANCH  35  36
ENDBRANCH   4  35
TORSDOF 10
