REMARK  4 active torsions:
REMARK  status: ('A' for Active; 'I' for Inactive)
REMARK    1  A    between atoms: N2_5  and  C4_6 
REMARK    2  A    between atoms: C4_6  and  C5_7 
REMARK    3  A    between atoms: C5_7  and  C6_8 
REMARK    4  A    between atoms: C7_14  and  N5_15 
ROOT
HETATM    1  C1  UNL     1      -3.759   0.193  -0.005  1.00  0.00     0.175 C 
HETATM    2  N1  UNL     1      -2.301   0.252  -0.081  1.00  0.00    -0.196 N 
HETATM    3  C2  UNL     1      -1.695   0.413  -1.253  1.00  0.00     0.127 A 
HETATM    4  C3  UNL     1      -0.315   0.459  -1.242  1.00  0.00     0.128 A 
HETATM    5  N2  UNL     1       0.390   0.347  -0.097  1.00  0.00    -0.288 N 
HETATM    6  N4  UNL     1      -0.273   0.189   1.034  1.00  0.00    -0.130 N 
ATOM      7  H4  UNL     1       0.254   0.104   1.903  1.00  0.00     0.206 HD
HETATM    8  C7  UNL     1      -1.616   0.136   1.086  1.00  0.00     0.692 A 
ENDROOT
BRANCH   5   9
HETATM    9  C4  UNL     1       1.859   0.400  -0.119  1.00  0.00     0.154 C 
BRANCH   9  10
HETATM   10  C5  UNL     1       2.329  -1.025  -0.297  1.00  0.00     0.065 C 
BRANCH  10  11
HETATM   11  C6  UNL     1       3.813  -1.112  -0.335  1.00  0.00     0.054 C 
HETATM   12  N3  UNL     1       4.582  -0.305   0.266  1.00  0.00    -0.411 N 
ATOM     13  H32 UNL     1       4.142   0.442   0.803  1.00  0.00     0.155 HD
ATOM     14  H31 UNL     1       5.600  -0.365   0.240  1.00  0.00     0.155 HD
ENDBRANCH  10  11
ENDBRANCH   9  10
ENDBRANCH   5   9
BRANCH   8  15
HETATM   15  N5  UNL     1      -2.253  -0.021   2.214  1.00  0.00    -0.233 N 
ATOM     16  H52 UNL     1      -3.271  -0.061   2.253  1.00  0.00     0.174 HD
ATOM     17  H51 UNL     1      -1.739  -0.108   3.090  1.00  0.00     0.174 HD
ENDBRANCH   8  15
TORSDOF 4
