REMARK  5 active torsions:
REMARK  status: ('A' for Active; 'I' for Inactive)
REMARK    1  A    between atoms: N1_2  and  C4_5 
REMARK    2  A    between atoms: C4_5  and  C5_6 
REMARK    3  A    between atoms: C5_6  and  N2_7 
REMARK    4  A    between atoms: N2_7  and  C6_9 
REMARK    5  A    between atoms: C7_14  and  N5_15 
ROOT
HETATM    1  C6  UNL     1       2.393  -0.246   0.376  1.00  0.00     0.707 A 
HETATM    2  N3  UNL     1       2.766   0.564  -0.636  1.00  0.00    -0.117 N 
ATOM      3  H3  UNL     1       2.136   0.945  -1.342  1.00  0.00     0.206 HD
HETATM    4  N4  UNL     1       4.069   0.793  -0.581  1.00  0.00    -0.118 N 
ATOM      5  H4  UNL     1       4.618   1.369  -1.220  1.00  0.00     0.206 HD
HETATM    6  C7  UNL     1       4.525   0.111   0.491  1.00  0.00     0.705 A 
HETATM    7  N6  UNL     1       3.490  -0.524   1.072  1.00  0.00    -0.020 N 
ATOM      8  H6  UNL     1       3.539  -1.115   1.902  1.00  0.00     0.203 HD
ENDROOT
BRANCH   1   9
HETATM    9  N2  UNL     1       1.214  -0.682   0.641  1.00  0.00    -0.223 N 
ATOM     10  H2  UNL     1       1.077  -1.293   1.446  1.00  0.00     0.177 HD
BRANCH   9  11
HETATM   11  C5  UNL     1       0.063  -0.319  -0.189  1.00  0.00     0.166 C 
BRANCH  11  12
HETATM   12  C4  UNL     1      -1.166  -0.422   0.683  1.00  0.00     0.256 C 
BRANCH  12  13
HETATM   13  N1  UNL     1      -2.377  -0.094   0.002  1.00  0.00    -0.077 N 
HETATM   14  C1  UNL     1      -2.608  -0.877  -1.185  1.00  0.00     0.271 C 
HETATM   15  C2  UNL     1      -2.465   1.302  -0.372  1.00  0.00     0.271 C 
HETATM   16  C3  UNL     1      -3.483  -0.358   0.908  1.00  0.00     0.271 C 
ENDBRANCH  12  13
ENDBRANCH  11  12
ENDBRANCH   9  11
ENDBRANCH   1   9
BRANCH   6  17
HETATM   17  N5  UNL     1       5.735   0.029   0.949  1.00  0.00    -0.233 N 
ATOM     18  H52 UNL     1       6.519   0.510   0.509  1.00  0.00     0.174 HD
ATOM     19  H51 UNL     1       6.080  -0.486   1.759  1.00  0.00     0.174 HD
ENDBRANCH   6  17
TORSDOF 5
