REMARK  5 active torsions:
REMARK  status: ('A' for Active; 'I' for Inactive)
REMARK    1  A    between atoms: C4_5  and  N2_6 
REMARK    2  A    between atoms: N2_6  and  C5_8 
REMARK    3  A    between atoms: C5_8  and  C6_9 
REMARK    4  A    between atoms: C6_9  and  C7_10 
REMARK    5  A    between atoms: C7_10  and  N3_11 
ROOT
HETATM    1  N2  UNL     1       0.138   0.084   1.635  1.00  0.00    -0.376 N 
ATOM      2  H2  UNL     1      -0.039  -0.185   2.603  1.00  0.00     0.161 HD
ENDROOT
BRANCH   1   3
HETATM    3  C4  UNL     1      -0.835   0.024   0.792  1.00  0.00     0.102 A 
HETATM    4  C3  UNL     1      -0.699   0.366  -0.536  1.00  0.00     0.065 A 
HETATM    5  C2  UNL     1      -1.779   0.280  -1.384  1.00  0.00     0.095 A 
HETATM    6  N1  UNL     1      -2.985  -0.132  -0.961  1.00  0.00    -0.357 N 
HETATM    7  C1  UNL     1      -4.111  -0.217  -1.869  1.00  0.00     0.156 C 
HETATM    8  C8  UNL     1      -3.097  -0.461   0.341  1.00  0.00     0.183 A 
HETATM    9  N4  UNL     1      -2.069  -0.392   1.203  1.00  0.00    -0.339 N 
ATOM     10  H4  UNL     1      -2.212  -0.654   2.178  1.00  0.00     0.168 HD
ENDBRANCH   1   3
BRANCH   1  11
HETATM   11  C5  UNL     1       1.448   0.508   1.276  1.00  0.00     0.123 C 
BRANCH  11  12
HETATM   12  C6  UNL     1       2.276  -0.621   0.667  1.00  0.00     0.047 C 
BRANCH  12  13
HETATM   13  C7  UNL     1       3.643  -0.057   0.325  1.00  0.00     0.231 C 
BRANCH  13  14
HETATM   14  N3  UNL     1       4.226   0.422   1.559  1.00  0.00    -0.079 N 
ATOM     15  H33 UNL     1       3.630   1.088   2.051  1.00  0.00     0.274 HD
ATOM     16  H32 UNL     1       4.258  -0.289   2.289  1.00  0.00     0.274 HD
ATOM     17  H31 UNL     1       5.145   0.801   1.329  1.00  0.00     0.274 HD
ENDBRANCH  13  14
ENDBRANCH  12  13
ENDBRANCH  11  12
ENDBRANCH   1  11
TORSDOF 5
