REMARK  4 active torsions:
REMARK  status: ('A' for Active; 'I' for Inactive)
REMARK    1  A    between atoms: C2_2  and  C3_3 
REMARK    2  A    between atoms: C3_3  and  C4_4 
REMARK    3  A    between atoms: C4_4  and  N1_5 
REMARK    4  A    between atoms: C7_11  and  N4_12 
ROOT
HETATM    1  N1  UNL     1      -0.664   0.138  -0.452  1.00  0.00    -0.360 N 
HETATM    2  C5  UNL     1      -1.357  -1.010  -0.333  1.00  0.00     0.135 A 
HETATM    3  C6  UNL     1      -2.673  -1.059   0.083  1.00  0.00     0.133 A 
HETATM    4  N2  UNL     1      -3.380  -2.299   0.197  1.00  0.00    -0.081 NA
HETATM    5  N3  UNL     1      -3.256   0.119   0.374  1.00  0.00    -0.329 N 
ATOM      6  H3  UNL     1      -4.227   0.136   0.685  1.00  0.00     0.168 HD
HETATM    7  C7  UNL     1      -2.576   1.274   0.260  1.00  0.00     0.115 A 
HETATM    8  C8  UNL     1      -1.261   1.309  -0.156  1.00  0.00     0.138 A 
ENDROOT
BRANCH   1   9
HETATM    9  C4  UNL     1       0.721   0.162  -0.892  1.00  0.00     0.128 C 
BRANCH   9  10
HETATM   10  C3  UNL     1       1.681   0.051   0.290  1.00  0.00     0.020 C 
BRANCH  10  11
HETATM   11  C2  UNL     1       3.084   0.089  -0.305  1.00  0.00    -0.003 C 
HETATM   12  C1  UNL     1       4.149  -0.012   0.745  1.00  0.00     0.005 C 
ENDBRANCH  10  11
ENDBRANCH   9  10
ENDBRANCH   1   9
BRANCH   7  13
HETATM   13  N4  UNL     1      -3.175   2.387   0.551  1.00  0.00    -0.384 N 
ATOM     14  H42 UNL     1      -4.147   2.361   0.859  1.00  0.00     0.157 HD
ATOM     15  H41 UNL     1      -2.659   3.263   0.465  1.00  0.00     0.157 HD
ENDBRANCH   7  13
TORSDOF 4
