REMARK  5 active torsions:
REMARK  status: ('A' for Active; 'I' for Inactive)
REMARK    1  A    between atoms: N1_2  and  C3_4 
REMARK    2  A    between atoms: C3_4  and  C4_5 
REMARK    3  A    between atoms: C4_5  and  N2_6 
REMARK    4  A    between atoms: N2_6  and  C5_8 
REMARK    5  A    between atoms: C8_13  and  N4_14 
ROOT
HETATM    1  C5  UNL     1       1.403   0.925  -0.122  1.00  0.00     0.118 A 
HETATM    2  C6  UNL     1       2.410   1.848   0.183  1.00  0.00     0.066 A 
HETATM    3  C7  UNL     1       3.687   1.411   0.373  1.00  0.00     0.110 A 
HETATM    4  N3  UNL     1       3.970   0.099   0.267  1.00  0.00    -0.202 N 
ATOM      5  H3  UNL     1       4.930  -0.214   0.412  1.00  0.00     0.183 HD
HETATM    6  C8  UNL     1       3.023  -0.811  -0.025  1.00  0.00     0.677 A 
HETATM    7  N5  UNL     1       1.759  -0.365  -0.211  1.00  0.00    -0.177 N 
ATOM      8  H5  UNL     1       1.035  -1.049  -0.432  1.00  0.00     0.185 HD
ENDROOT
BRANCH   1   9
HETATM    9  N2  UNL     1       0.242   1.402  -0.285  1.00  0.00    -0.374 N 
ATOM     10  H2  UNL     1       0.166   2.413  -0.176  1.00  0.00     0.161 HD
BRANCH   9  11
HETATM   11  C4  UNL     1      -0.972   0.729  -0.599  1.00  0.00     0.141 C 
BRANCH  11  12
HETATM   12  C3  UNL     1      -1.507   0.084   0.672  1.00  0.00     0.140 C 
BRANCH  12  13
HETATM   13  N1  UNL     1      -2.736  -0.603   0.433  1.00  0.00    -0.402 N 
HETATM   14  C1  UNL     1      -2.770  -1.870   0.505  1.00  0.00     0.114 C 
HETATM   15  C2  UNL     1      -3.898   0.161   0.117  1.00  0.00     0.148 C 
ENDBRANCH  12  13
ENDBRANCH  11  12
ENDBRANCH   9  11
ENDBRANCH   1   9
BRANCH   6  16
HETATM   16  N4  UNL     1       3.375  -2.030  -0.107  1.00  0.00    -0.234 N 
ATOM     17  H42 UNL     1       4.328  -2.366   0.033  1.00  0.00     0.174 HD
ATOM     18  H41 UNL     1       2.657  -2.720  -0.328  1.00  0.00     0.174 HD
ENDBRANCH   6  16
TORSDOF 5
