REMARK  6 active torsions:
REMARK  status: ('A' for Active; 'I' for Inactive)
REMARK    1  A    between atoms: N1_2  and  C2_4 
REMARK    2  A    between atoms: C3_7  and  N3_8 
REMARK       I    between atoms: N3_8  and  C5_10 
REMARK    3  A    between atoms: C6_15  and  N6_16 
REMARK    4  A    between atoms: C7_19  and  O3_20 
REMARK    5  A    between atoms: O3_20  and  N7_21 
REMARK    6  A    between atoms: N7_21  and  C8_23 
ROOT
HETATM    1  C2  UNL     1      -1.573   1.385   1.543  1.00  0.00     0.681 A 
HETATM    2  N2  UNL     1      -2.147   0.605   0.628  1.00  0.00    -0.174 N 
ATOM      3  H2  UNL     1      -3.164   0.636   0.555  1.00  0.00     0.186 HD
HETATM    4  C3  UNL     1      -1.481  -0.232  -0.219  1.00  0.00     0.163 A 
HETATM    5  C6  UNL     1      -0.119  -0.256  -0.106  1.00  0.00     0.201 A 
HETATM    6  C7  UNL     1       0.501   0.561   0.857  1.00  0.00     0.222 A 
HETATM    7  N12 UNL     1      -0.242   1.365   1.662  1.00  0.00    -0.166 N 
ATOM      8  H12 UNL     1       0.216   1.954   2.358  1.00  0.00     0.186 HD
ENDROOT
BRANCH   6   9
HETATM    9  O3  UNL     1       1.870   0.539   0.975  1.00  0.00    -0.202 OA
BRANCH   9  10
HETATM   10  N7  UNL     1       2.696   1.427   0.353  1.00  0.00    -0.086 N 
ATOM     11  H7  UNL     1       2.377   2.386   0.217  1.00  0.00     0.214 HD
BRANCH  10  12
HETATM   12  C8  UNL     1       3.877   1.090  -0.073  1.00  0.00     0.734 A 
HETATM   13  N8  UNL     1       4.785   1.838  -0.691  1.00  0.00    -0.113 N 
HETATM   14  N9  UNL     1       5.844   1.071  -0.939  1.00  0.00    -0.213 N 
ATOM     15  H8  UNL     1       4.688   2.824  -0.932  1.00  0.00     0.207 HD
HETATM   16  N10 UNL     1       5.634  -0.146  -0.494  1.00  0.00    -0.213 N 
ATOM     17  H9  UNL     1       6.695   1.383  -1.407  1.00  0.00     0.210 HD
HETATM   18  N11 UNL     1       4.405  -0.128   0.045  1.00  0.00    -0.113 N 
ATOM     19  H10 UNL     1       6.272  -0.940  -0.547  1.00  0.00     0.210 HD
ATOM     20  H11 UNL     1       3.944  -0.927   0.480  1.00  0.00     0.207 HD
ENDBRANCH  10  12
ENDBRANCH   9  10
ENDBRANCH   6   9
BRANCH   5  21
HETATM   21  N6  UNL     1       0.738  -1.049  -0.936  1.00  0.00    -0.107 N 
HETATM   22  O1  UNL     1       1.038  -0.680  -2.101  1.00  0.00    -0.531 OA
HETATM   23  O2  UNL     1       1.304  -2.218  -0.502  1.00  0.00    -0.531 OA
ENDBRANCH   5  21
BRANCH   4  24
HETATM   24  N3  UNL     1      -2.234  -1.055  -1.096  1.00  0.00    -0.309 N 
HETATM   25  C4  UNL     1      -3.485  -0.504  -1.639  1.00  0.00     0.160 C 
HETATM   26  C5  UNL     1      -1.930  -2.373  -1.445  1.00  0.00     0.189 C 
HETATM   27  N4  UNL     1      -2.006  -3.325  -0.543  1.00  0.00    -0.373 N 
HETATM   28  N5  UNL     1      -1.560  -2.795  -2.735  1.00  0.00    -0.064 NA
ATOM     29  H42 UNL     1      -2.274  -3.019   0.392  1.00  0.00     0.158 HD
ATOM     30  H41 UNL     1      -1.784  -4.287  -0.798  1.00  0.00     0.158 HD
ENDBRANCH   4  24
BRANCH   1  31
HETATM   31  N1  UNL     1      -2.309   2.114   2.273  1.00  0.00    -0.230 N 
HETATM   32  C1  UNL     1      -1.964   3.022   3.306  1.00  0.00     0.165 C 
ATOM     33  H1  UNL     1      -3.309   2.035   2.088  1.00  0.00     0.177 HD
ENDBRANCH   1  31
TORSDOF 6
