REMARK  7 active torsions:
REMARK  status: ('A' for Active; 'I' for Inactive)
REMARK    1  A    between atoms: N1_2  and  C2_4 
REMARK    2  A    between atoms: C2_4  and  O1_5 
REMARK    3  A    between atoms: C3_7  and  S1_8 
REMARK    4  A    between atoms: S1_8  and  C4_9 
REMARK    5  A    between atoms: C7_16  and  C8_17 
REMARK    6  A    between atoms: C10_22  and  N6_23 
REMARK    7  A    between atoms: C11_26  and  N7_27 
ROOT
HETATM    1  C4  UNL     1       0.610   1.253  -0.336  1.00  0.00     0.151 C 
HETATM    2  N2  UNL     1      -0.734   1.541  -0.686  1.00  0.00    -0.321 N 
ATOM      3  H2  UNL     1      -0.902   2.249  -1.401  1.00  0.00     0.169 HD
HETATM    4  C5  UNL     1      -1.814   0.928  -0.124  1.00  0.00     0.140 A 
HETATM    5  C6  UNL     1      -1.925   0.514   1.207  1.00  0.00     0.109 A 
HETATM    6  N3  UNL     1      -3.034  -0.142   1.337  1.00  0.00    -0.333 N 
ATOM      7  H3  UNL     1      -3.381  -0.574   2.194  1.00  0.00     0.168 HD
HETATM    8  C7  UNL     1      -3.656  -0.152   0.119  1.00  0.00     0.175 A 
HETATM    9  N5  UNL     1      -2.901   0.515  -0.773  1.00  0.00    -0.318 N 
HETATM   10  C9  UNL     1      -3.268   0.813  -2.168  1.00  0.00     0.159 C 
HETATM   11  C10 UNL     1      -1.038   0.892   2.195  1.00  0.00     0.101 C 
HETATM   12  C11 UNL     1       0.306   1.263   2.123  1.00  0.00     0.130 C 
HETATM   13  N8  UNL     1       0.988   1.376   0.947  1.00  0.00    -0.321 N 
ATOM     14  H8  UNL     1       1.977   1.597   1.065  1.00  0.00     0.169 HD
ENDROOT
BRANCH   1  15
HETATM   15  S1  UNL     1       1.679   0.826  -1.645  1.00  0.00    -0.061 SA
BRANCH  15  16
HETATM   16  C3  UNL     1       2.572  -0.691  -1.472  1.00  0.00     0.108 C 
HETATM   17  C2  UNL     1       3.861  -0.649  -0.829  1.00  0.00     0.141 C 
BRANCH  17  18
HETATM   18  N1  UNL     1       5.046  -1.301  -0.993  1.00  0.00    -0.375 N 
HETATM   19  C1  UNL     1       6.171  -0.943  -0.082  1.00  0.00     0.148 C 
ATOM     20  H1  UNL     1       5.160  -2.011  -1.716  1.00  0.00     0.161 HD
ENDBRANCH  17  18
BRANCH  17  21
HETATM   21  O1  UNL     1       3.955   0.229   0.209  1.00  0.00    -0.346 OA
ATOM     22  H1  UNL     1       3.129   0.684   0.323  1.00  0.00     0.219 HD
ENDBRANCH  17  21
ENDBRANCH  15  16
ENDBRANCH   1  15
BRANCH  12  23
HETATM   23  N7  UNL     1       0.874   1.553   3.169  1.00  0.00    -0.384 N 
ATOM     24  H72 UNL     1       0.364   1.469   4.048  1.00  0.00     0.157 HD
ATOM     25  H71 UNL     1       1.856   1.824   3.116  1.00  0.00     0.157 HD
ENDBRANCH  12  23
BRANCH  11  26
HETATM   26  N6  UNL     1      -1.547   0.991   3.396  1.00  0.00    -0.394 N 
ATOM     27  H62 UNL     1      -2.529   0.720   3.449  1.00  0.00     0.156 HD
ATOM     28  H61 UNL     1      -0.892   1.270   4.126  1.00  0.00     0.156 HD
ENDBRANCH  11  26
BRANCH   8  29
HETATM   29  C8  UNL     1      -4.866  -0.899  -0.270  1.00  0.00     0.299 C 
HETATM   30  N4  UNL     1      -5.032  -2.241   0.135  1.00  0.00    -0.054 NA
HETATM   31  O2  UNL     1      -5.754  -0.301  -0.958  1.00  0.00    -0.268 OA
ENDBRANCH   8  29
TORSDOF 7
