REMARK  7 active torsions:
REMARK  status: ('A' for Active; 'I' for Inactive)
REMARK    1  A    between atoms: O1_2  and  C2_3 
REMARK    2  A    between atoms: C4_5  and  O2_6 
REMARK    3  A    between atoms: C5_8  and  O3_9 
REMARK    4  A    between atoms: O3_9  and  C6_10 
REMARK       I    between atoms: C6_10  and  N1_12 
REMARK    5  A    between atoms: N1_12  and  N2_14 
REMARK    6  A    between atoms: C7_17  and  S1_18 
REMARK    7  A    between atoms: C8_22  and  C9_23 
ROOT
HETATM    1  C2  UNL     1      -1.979   0.761  -0.214  1.00  0.00     0.087 A 
HETATM    2  C3  UNL     1      -1.071   1.570  -0.837  1.00  0.00     0.077 A 
HETATM    3  C4  UNL     1       0.244   1.192  -0.955  1.00  0.00     0.104 A 
HETATM    4  C5  UNL     1       0.690  -0.008  -0.451  1.00  0.00     0.139 A 
HETATM    5  C7  UNL     1      -0.226  -0.843   0.187  1.00  0.00     0.135 A 
HETATM    6  C8  UNL     1      -1.547  -0.474   0.308  1.00  0.00     0.089 A 
ENDROOT
BRANCH   4   7
HETATM    7  O3  UNL     1       2.038  -0.347  -0.596  1.00  0.00    -0.256 OA
BRANCH   7   8
HETATM    8  C6  UNL     1       3.001   0.400   0.118  1.00  0.00     0.384 C 
HETATM    9  O4  UNL     1       2.573   1.330   0.845  1.00  0.00    -0.236 OA
HETATM   10  N1  UNL     1       4.392   0.091   0.002  1.00  0.00    -0.252 N 
ATOM     11  H1  UNL     1       4.721  -0.669  -0.593  1.00  0.00     0.191 HD
BRANCH  10  12
HETATM   12  N2  UNL     1       5.283   0.877   0.741  1.00  0.00    -0.341 N 
ATOM     13  H22 UNL     1       4.939   1.634   1.332  1.00  0.00     0.177 HD
ATOM     14  H21 UNL     1       6.275   0.657   0.658  1.00  0.00     0.177 HD
ENDBRANCH  10  12
ENDBRANCH   7   8
ENDBRANCH   4   7
BRANCH   3  15
HETATM   15  O2  UNL     1       1.186   2.010  -1.592  1.00  0.00    -0.358 OA
ATOM     16  H2  UNL     1       2.096   1.749  -1.674  1.00  0.00     0.217 HD
ENDBRANCH   3  15
BRANCH   5  17
HETATM   17  S1  UNL     1       0.363  -2.351   0.852  1.00  0.00     0.141 S 
HETATM   18  O5  UNL     1       1.893  -2.220   1.020  1.00  0.00    -0.591 OA
HETATM   19  O6  UNL     1      -0.142  -2.598   2.218  1.00  0.00    -0.591 OA
HETATM   20  O7  UNL     1       0.085  -3.660  -0.150  1.00  0.00    -0.591 OA
ENDBRANCH   5  17
BRANCH   6  21
HETATM   21  C9  UNL     1      -2.597  -1.237   0.924  1.00  0.00     0.269 C 
HETATM   22  N3  UNL     1      -2.707  -2.627   1.006  1.00  0.00    -0.057 NA
HETATM   23  O8  UNL     1      -3.570  -0.579   1.465  1.00  0.00    -0.271 OA
ENDBRANCH   6  21
BRANCH   1  24
HETATM   24  O1  UNL     1      -3.307   1.156  -0.102  1.00  0.00    -0.355 OA
HETATM   25  C1  UNL     1      -3.698   2.403  -0.640  1.00  0.00     0.210 C 
ENDBRANCH   1  24
TORSDOF 7
