REMARK  6 active torsions:
REMARK  status: ('A' for Active; 'I' for Inactive)
REMARK    1  A    between atoms: O1_2  and  C2_3 
REMARK    2  A    between atoms: C6_10  and  N2_11 
REMARK    3  A    between atoms: C10_17  and  N4_18 
REMARK       I    between atoms: N4_18  and  C11_20 
REMARK       I    between atoms: C11_20  and  N5_21 
REMARK       I    between atoms: C11_20  and  N6_25 
REMARK    4  A    between atoms: C12_31  and  N8_32 
REMARK    5  A    between atoms: N8_32  and  N9_34 
REMARK    6  A    between atoms: N9_34  and  O3_36 
ROOT
HETATM    1  C2  UNL     1       2.563  -1.532   0.524  1.00  0.00     0.114 C 
HETATM    2  C3  UNL     1       1.360  -2.197   0.409  1.00  0.00     0.060 C 
HETATM    3  C4  UNL     1       0.118  -1.659   0.122  1.00  0.00     0.066 A 
HETATM    4  C5  UNL     1      -0.838  -2.632  -0.034  1.00  0.00     0.272 A 
HETATM    5  O2  UNL     1      -0.509  -3.853   0.091  1.00  0.00    -0.267 OA
HETATM    6  N1  UNL     1      -2.074  -2.247  -0.312  1.00  0.00    -0.155 N 
ATOM      7  H1  UNL     1      -2.790  -2.964  -0.429  1.00  0.00     0.187 HD
HETATM    8  C6  UNL     1      -2.440  -0.938  -0.450  1.00  0.00     0.683 A 
HETATM    9  N3  UNL     1      -1.483  -0.014  -0.291  1.00  0.00    -0.187 N 
ATOM     10  H3  UNL     1      -1.744   0.967  -0.391  1.00  0.00     0.184 HD
HETATM   11  C9  UNL     1      -0.192  -0.301  -0.006  1.00  0.00     0.108 A 
HETATM   12  C10 UNL     1       0.615   0.805   0.114  1.00  0.00     0.134 C 
HETATM   13  N7  UNL     1       1.938   0.842   0.299  1.00  0.00    -0.324 N 
ATOM     14  H7  UNL     1       2.358   1.770   0.246  1.00  0.00     0.169 HD
HETATM   15  C12 UNL     1       2.811  -0.179   0.549  1.00  0.00     0.157 C 
ENDROOT
BRANCH  12  16
HETATM   16  N4  UNL     1       0.036   1.917   0.039  1.00  0.00    -0.325 N 
HETATM   17  C11 UNL     1       0.570   3.228   0.121  1.00  0.00     0.481 C 
HETATM   18  N5  UNL     1      -0.437   4.236   0.433  1.00  0.00    -0.033 N 
HETATM   19  N6  UNL     1       1.288   3.677  -1.029  1.00  0.00    -0.033 N 
ATOM     20  H53 UNL     1      -1.208   4.198  -0.233  1.00  0.00     0.278 HD
ATOM     21  H52 UNL     1      -0.941   3.995   1.286  1.00  0.00     0.278 HD
ATOM     22  H51 UNL     1      -0.053   5.179   0.492  1.00  0.00     0.278 HD
ATOM     23  H63 UNL     1       2.028   3.014  -1.258  1.00  0.00     0.278 HD
ATOM     24  H62 UNL     1       0.703   3.591  -1.860  1.00  0.00     0.278 HD
ATOM     25  H61 UNL     1       1.672   4.620  -0.970  1.00  0.00     0.278 HD
ATOM     26  H4  UNL     1      -0.973   1.870  -0.103  1.00  0.00     0.165 HD
ENDBRANCH  12  16
BRANCH  15  27
HETATM   27  N8  UNL     1       4.022   0.148   0.846  1.00  0.00    -0.264 N 
ATOM     28  H8  UNL     1       4.680  -0.608   1.034  1.00  0.00     0.190 HD
BRANCH  27  29
HETATM   29  N9  UNL     1       4.497   1.438   0.929  1.00  0.00    -0.208 N 
ATOM     30  H9  UNL     1       4.078   2.065   1.616  1.00  0.00     0.215 HD
BRANCH  29  31
HETATM   31  O3  UNL     1       5.421   1.883   0.201  1.00  0.00    -0.274 OA
ATOM     32  H3  UNL     1       5.749   2.773   0.258  1.00  0.00     0.246 HD
ENDBRANCH  29  31
ENDBRANCH  27  29
ENDBRANCH  15  27
BRANCH   8  33
HETATM   33  N2  UNL     1      -3.782  -0.588  -0.748  1.00  0.00    -0.226 N 
HETATM   34  C7  UNL     1      -4.184   0.782  -0.904  1.00  0.00     0.168 C 
HETATM   35  C8  UNL     1      -4.781  -1.618  -0.899  1.00  0.00     0.168 C 
ENDBRANCH   8  33
BRANCH   1  36
HETATM   36  O1  UNL     1       3.657  -2.367   0.629  1.00  0.00    -0.352 OA
HETATM   37  C1  UNL     1       3.555  -3.778   0.619  1.00  0.00     0.210 C 
ENDBRANCH   1  36
TORSDOF 6
