REMARK  7 active torsions:
REMARK  status: ('A' for Active; 'I' for Inactive)
REMARK    1  A    between atoms: O1_2  and  C2_3 
REMARK    2  A    between atoms: C2_3  and  O2_4 
REMARK    3  A    between atoms: C2_3  and  N1_6 
REMARK    4  A    between atoms: C4_9  and  C5_10 
REMARK       I    between atoms: C5_10  and  N2_12 
REMARK    5  A    between atoms: N2_12  and  N3_14 
REMARK       I    between atoms: N3_14  and  C6_16 
REMARK    6  A    between atoms: C11_26  and  O6_27 
REMARK    7  A    between atoms: O6_27  and  C12_28 
ROOT
HETATM    1  N1  UNL     1      -0.197   0.827  -0.637  1.00  0.00    -0.342 N 
ATOM      2  H1  UNL     1       0.725   1.179  -0.379  1.00  0.00     0.164 HD
HETATM    3  C3  UNL     1      -0.661  -0.167  -0.017  1.00  0.00     0.062 C 
HETATM    4  C4  UNL     1       0.288  -0.648   1.028  1.00  0.00     0.080 C 
HETATM    5  C8  UNL     1       0.007  -1.398   2.073  1.00  0.00     0.154 C 
HETATM    6  O5  UNL     1      -1.193  -1.951   2.518  1.00  0.00    -0.356 OA
HETATM    7  C9  UNL     1      -2.445  -2.135   1.906  1.00  0.00     0.229 C 
HETATM    8  C10 UNL     1      -2.709  -1.030   0.982  1.00  0.00     0.040 C 
HETATM    9  N4  UNL     1      -3.605  -0.210   1.265  1.00  0.00    -0.401 N 
ATOM     10  H41 UNL     1      -3.789   0.560   0.621  1.00  0.00     0.155 HD
ATOM     11  H42 UNL     1      -4.090  -0.392   2.144  1.00  0.00     0.155 HD
HETATM   12  C11 UNL     1      -1.989  -0.759  -0.324  1.00  0.00     0.231 C 
ENDROOT
BRANCH   4  13
HETATM   13  C5  UNL     1       1.640  -0.201   0.859  1.00  0.00     0.274 C 
HETATM   14  O3  UNL     1       1.901   0.530  -0.168  1.00  0.00    -0.266 OA
HETATM   15  N2  UNL     1       2.751  -0.451   1.676  1.00  0.00    -0.263 N 
ATOM     16  H2  UNL     1       2.627  -1.030   2.506  1.00  0.00     0.190 HD
BRANCH  15  17
HETATM   17  N3  UNL     1       4.043   0.070   1.394  1.00  0.00    -0.268 N 
HETATM   18  C6  UNL     1       4.293   1.451   1.391  1.00  0.00     0.232 C 
HETATM   19  C7  UNL     1       5.643   1.969   1.093  1.00  0.00     0.119 C 
HETATM   20  O4  UNL     1       3.390   2.312   1.639  1.00  0.00    -0.272 OA
ATOM     21  H3  UNL     1       4.806  -0.575   1.189  1.00  0.00     0.190 HD
ENDBRANCH  15  17
ENDBRANCH   4  13
BRANCH   1  22
HETATM   22  C2  UNL     1      -0.915   1.484  -1.692  1.00  0.00     0.367 C 
BRANCH  22  23
HETATM   23  O1  UNL     1      -0.298   2.686  -2.060  1.00  0.00    -0.349 OA
HETATM   24  C1  UNL     1      -1.183   3.730  -1.831  1.00  0.00     0.206 C 
ENDBRANCH  22  23
BRANCH  22  25
HETATM   25  O2  UNL     1      -1.102   0.689  -2.831  1.00  0.00    -0.355 OA
ATOM     26  H2  UNL     1      -1.521  -0.126  -2.581  1.00  0.00     0.214 HD
ENDBRANCH  22  25
ENDBRANCH   1  22
BRANCH  12  27
HETATM   27  O6  UNL     1      -1.778  -2.073  -0.866  1.00  0.00    -0.289 OA
BRANCH  27  28
HETATM   28  C12 UNL     1      -2.403  -2.576  -1.976  1.00  0.00     0.373 C 
HETATM   29  N5  UNL     1      -2.087  -3.913  -2.420  1.00  0.00    -0.032 NA
HETATM   30  O7  UNL     1      -3.237  -1.869  -2.584  1.00  0.00    -0.242 OA
ENDBRANCH  27  28
ENDBRANCH  12  27
TORSDOF 7
