REMARK  6 active torsions:
REMARK  status: ('A' for Active; 'I' for Inactive)
REMARK    1  A    between atoms: N1_2  and  C2_4 
REMARK    2  A    between atoms: C4_9  and  N4_10 
REMARK    3  A    between atoms: C10_24  and  N10_25 
REMARK    4  A    between atoms: N10_25  and  C11_27 
REMARK    5  A    between atoms: C11_27  and  C12_28 
REMARK    6  A    between atoms: C12_28  and  N11_29 
ROOT
HETATM    1  C2  UNL     1       0.977  -0.708  -1.613  1.00  0.00     0.147 A 
HETATM    2  N2  UNL     1       0.032   0.013  -2.239  1.00  0.00    -0.325 N 
ATOM      3  H2  UNL     1       0.143   0.195  -3.236  1.00  0.00     0.169 HD
HETATM    4  C3  UNL     1      -1.054   0.507  -1.616  1.00  0.00     0.162 A 
HETATM    5  N3  UNL     1      -2.032   1.276  -2.302  1.00  0.00    -0.079 NA
HETATM    6  C4  UNL     1      -1.140   0.220  -0.260  1.00  0.00     0.155 A 
HETATM    7  N9  UNL     1      -0.221  -0.489   0.383  1.00  0.00    -0.322 N 
ATOM      8  H9  UNL     1      -0.334  -0.670   1.380  1.00  0.00     0.169 HD
HETATM    9  C10 UNL     1       0.876  -0.982  -0.269  1.00  0.00     0.151 A 
ENDROOT
BRANCH   6  10
HETATM   10  N4  UNL     1      -2.307   0.729   0.423  1.00  0.00    -0.277 N 
HETATM   11  C5  UNL     1      -2.248   2.056   0.931  1.00  0.00     0.200 A 
HETATM   12  N5  UNL     1      -1.067   2.812   0.725  1.00  0.00    -0.063 NA
HETATM   13  N6  UNL     1      -3.229   2.589   1.566  1.00  0.00    -0.304 N 
HETATM   14  C6  UNL     1      -4.412   1.863   1.783  1.00  0.00     0.192 A 
ATOM     15  H6  UNL     1      -3.149   3.544   1.915  1.00  0.00     0.171 HD
HETATM   16  N7  UNL     1      -5.468   2.510   2.494  1.00  0.00    -0.063 NA
HETATM   17  N8  UNL     1      -4.510   0.672   1.348  1.00  0.00    -0.338 N 
HETATM   18  C7  UNL     1      -3.498  -0.061   0.621  1.00  0.00     0.109 A 
ATOM     19  H8  UNL     1      -5.388   0.187   1.530  1.00  0.00     0.164 HD
HETATM   20  C8  UNL     1      -4.132  -0.566  -0.643  1.00  0.00     0.063 C 
HETATM   21  C9  UNL     1      -3.206  -1.307   1.467  1.00  0.00     0.063 C 
ENDBRANCH   6  10
BRANCH   9  22
HETATM   22  N10 UNL     1       1.688  -1.636   0.426  1.00  0.00    -0.348 N 
ATOM     23  H10 UNL     1       1.366  -1.684   1.393  1.00  0.00     0.167 HD
BRANCH  22  24
HETATM   24  C11 UNL     1       2.889  -2.314   0.285  1.00  0.00     0.106 C 
BRANCH  24  25
HETATM   25  C12 UNL     1       4.010  -1.770   1.169  1.00  0.00     0.101 C 
BRANCH  25  26
HETATM   26  N11 UNL     1       4.354  -0.427   0.954  1.00  0.00    -0.397 N 
HETATM   27  C13 UNL     1       4.979  -0.044  -0.244  1.00  0.00     0.148 C 
HETATM   28  C14 UNL     1       4.414   0.449   2.062  1.00  0.00     0.148 C 
ENDBRANCH  25  26
ENDBRANCH  24  25
ENDBRANCH  22  24
ENDBRANCH   9  22
BRANCH   1  29
HETATM   29  N1  UNL     1       1.983  -1.144  -2.281  1.00  0.00    -0.378 N 
HETATM   30  C1  UNL     1       2.245  -0.956  -3.668  1.00  0.00     0.148 C 
ATOM     31  H1  UNL     1       2.672  -1.686  -1.760  1.00  0.00     0.160 HD
ENDBRANCH   1  29
TORSDOF 6
