REMARK  7 active torsions:
REMARK  status: ('A' for Active; 'I' for Inactive)
REMARK    1  A    between atoms: O1_2  and  C2_3 
REMARK    2  A    between atoms: C2_3  and  N1_4 
REMARK    3  A    between atoms: C2_3  and  C3_8 
REMARK       I    between atoms: C3_8  and  N2_10 
REMARK    4  A    between atoms: N2_10  and  C4_12 
REMARK    5  A    between atoms: C4_12  and  O3_13 
REMARK    6  A    between atoms: C4_12  and  C5_15 
REMARK    7  A    between atoms: C10_27  and  N7_28 
ROOT
HETATM    1  C5  UNL     1      -0.793   1.459  -0.877  1.00  0.00     0.084 A 
HETATM    2  C6  UNL     1      -1.304   2.540  -1.687  1.00  0.00     0.134 A 
HETATM    3  N3  UNL     1      -0.635   2.874  -2.890  1.00  0.00    -0.082 NA
HETATM    4  N4  UNL     1      -2.380   3.244  -1.357  1.00  0.00    -0.329 N 
ATOM      5  H4  UNL     1      -2.694   3.998  -1.969  1.00  0.00     0.168 HD
HETATM    6  C7  UNL     1      -3.058   2.981  -0.237  1.00  0.00     0.123 A 
HETATM    7  N5  UNL     1      -4.095   3.692   0.037  1.00  0.00    -0.384 N 
ATOM      8  H51 UNL     1      -4.613   3.491   0.892  1.00  0.00     0.157 HD
ATOM      9  H52 UNL     1      -4.421   4.448  -0.565  1.00  0.00     0.157 HD
HETATM   10  C8  UNL     1      -2.618   1.959   0.576  1.00  0.00     0.115 A 
HETATM   11  C9  UNL     1      -3.344   1.662   1.756  1.00  0.00     0.105 C 
HETATM   12  N6  UNL     1      -3.964   1.436   2.708  1.00  0.00    -0.191 NA
HETATM   13  C10 UNL     1      -1.470   1.186   0.256  1.00  0.00     0.073 A 
ENDROOT
BRANCH  13  14
HETATM   14  N7  UNL     1      -1.134   0.175   1.188  1.00  0.00    -0.375 N 
HETATM   15  C11 UNL     1      -1.735  -1.158   1.019  1.00  0.00     0.149 C 
HETATM   16  C12 UNL     1      -1.051  -2.092   1.979  1.00  0.00     0.187 C 
HETATM   17  O4  UNL     1      -1.165  -1.672   3.276  1.00  0.00    -0.388 OA
HETATM   18  C13 UNL     1      -0.806  -0.379   3.512  1.00  0.00     0.187 C 
HETATM   19  C14 UNL     1      -0.293   0.386   2.327  1.00  0.00     0.149 C 
ENDBRANCH  13  14
BRANCH   1  20
HETATM   20  C4  UNL     1       0.370   0.799  -1.361  1.00  0.00     0.158 C 
BRANCH  20  21
HETATM   21  N2  UNL     1       1.116  -0.257  -0.891  1.00  0.00    -0.303 N 
HETATM   22  C3  UNL     1       2.294  -0.726  -1.613  1.00  0.00     0.280 C 
HETATM   23  O2  UNL     1       2.625  -0.164  -2.662  1.00  0.00    -0.268 OA
ATOM     24  H2  UNL     1       0.841  -0.719  -0.024  1.00  0.00     0.171 HD
BRANCH  22  25
HETATM   25  C2  UNL     1       3.071  -1.856  -1.086  1.00  0.00     0.411 C 
BRANCH  25  26
HETATM   26  O1  UNL     1       4.145  -2.172  -1.879  1.00  0.00    -0.357 OA
HETATM   27  C1  UNL     1       4.057  -3.471  -2.358  1.00  0.00     0.204 C 
ENDBRANCH  25  26
BRANCH  25  28
HETATM   28  N1  UNL     1       3.458  -1.562   0.290  1.00  0.00    -0.044 N 
ATOM     29  H13 UNL     1       3.997  -2.329   0.691  1.00  0.00     0.278 HD
ATOM     30  H12 UNL     1       4.166  -0.829   0.323  1.00  0.00     0.278 HD
ATOM     31  H11 UNL     1       2.660  -1.327   0.880  1.00  0.00     0.278 HD
ENDBRANCH  25  28
ENDBRANCH  22  25
ENDBRANCH  20  21
BRANCH  20  32
HETATM   32  O3  UNL     1       0.852   1.278  -2.491  1.00  0.00    -0.345 OA
ATOM     33  H3  UNL     1       0.337   2.007  -2.816  1.00  0.00     0.219 HD
ENDBRANCH  20  32
ENDBRANCH   1  20
TORSDOF 7
