REMARK  7 active torsions:
REMARK  status: ('A' for Active; 'I' for Inactive)
REMARK    1  A    between atoms: C9_11  and  C10_12 
REMARK    2  A    between atoms: C10_12  and  C11_13 
REMARK    3  A    between atoms: C12_16  and  C13_17 
REMARK    4  A    between atoms: C13_17  and  C14_19 
REMARK    5  A    between atoms: C14_19  and  N5_25 
REMARK    6  A    between atoms: N3_20  and  N4_22 
REMARK    7  A    between atoms: N5_25  and  N6_27 
ROOT
HETATM    1  C11 UNL     1      -0.288   1.522   0.837  1.00  0.00     0.104 A 
HETATM    2  N2  UNL     1       0.831   0.866   1.087  1.00  0.00    -0.328 N 
ATOM      3  H2  UNL     1       0.869   0.250   1.899  1.00  0.00     0.169 HD
HETATM    4  C12 UNL     1       1.944   0.984   0.294  1.00  0.00     0.176 A 
HETATM    5  N7  UNL     1       1.858   1.794  -0.753  1.00  0.00    -0.173 N 
ATOM      6  H7  UNL     1       2.668   1.904  -1.364  1.00  0.00     0.186 HD
HETATM    7  C15 UNL     1       0.721   2.480  -1.033  1.00  0.00     0.678 A 
HETATM    8  N8  UNL     1       0.620   3.269  -2.043  1.00  0.00    -0.234 N 
ATOM      9  H81 UNL     1      -0.235   3.785  -2.253  1.00  0.00     0.174 HD
ATOM     10  H82 UNL     1       1.423   3.387  -2.660  1.00  0.00     0.174 HD
HETATM   11  N9  UNL     1      -0.337   2.325  -0.220  1.00  0.00    -0.180 N 
ATOM     12  H9  UNL     1      -1.197   2.835  -0.419  1.00  0.00     0.185 HD
ENDROOT
BRANCH   1  13
HETATM   13  C10 UNL     1      -1.465   1.364   1.732  1.00  0.00     0.136 C 
BRANCH  13  14
HETATM   14  C9  UNL     1      -2.276   0.192   1.330  1.00  0.00     0.044 A 
HETATM   15  C8  UNL     1      -3.143   0.280   0.256  1.00  0.00     0.065 A 
HETATM   16  C4  UNL     1      -3.887  -0.819  -0.130  1.00  0.00    -0.006 A 
HETATM   17  N1  UNL     1      -3.280   1.431  -0.421  1.00  0.00    -0.364 N 
HETATM   18  C3  UNL     1      -3.742  -1.990   0.576  1.00  0.00     0.038 A 
HETATM   19  C5  UNL     1      -4.777  -0.777  -1.202  1.00  0.00     0.015 A 
HETATM   20  C2  UNL     1      -2.877  -2.060   1.639  1.00  0.00     0.006 A 
HETATM   21  C1  UNL     1      -2.749  -3.362   2.382  1.00  0.00     0.068 C 
HETATM   22  N10 UNL     1      -2.177  -0.978   1.982  1.00  0.00    -0.361 N 
ATOM     23  H10 UNL     1      -1.538  -1.042   2.775  1.00  0.00     0.165 HD
HETATM   24  C6  UNL     1      -4.895   0.416  -1.874  1.00  0.00     0.018 A 
HETATM   25  C7  UNL     1      -4.132   1.480  -1.448  1.00  0.00     0.088 A 
ATOM     26  H1  UNL     1      -2.742   2.255  -0.155  1.00  0.00     0.165 HD
ENDBRANCH  13  14
ENDBRANCH   1  13
BRANCH   4  27
HETATM   27  C13 UNL     1       3.128   0.201   0.671  1.00  0.00     0.262 C 
HETATM   28  O1  UNL     1       3.029  -0.535   1.731  1.00  0.00    -0.280 OA
BRANCH  27  29
HETATM   29  C14 UNL     1       4.366   0.174  -0.014  1.00  0.00     0.189 C 
HETATM   30  N3  UNL     1       4.663   0.827  -1.074  1.00  0.00    -0.288 N 
ATOM     31  H3  UNL     1       3.950   1.433  -1.481  1.00  0.00     0.188 HD
BRANCH  30  32
HETATM   32  N4  UNL     1       5.903   0.758  -1.703  1.00  0.00    -0.343 N 
ATOM     33  H42 UNL     1       6.603   0.148  -1.282  1.00  0.00     0.176 HD
ATOM     34  H41 UNL     1       6.140   1.278  -2.548  1.00  0.00     0.176 HD
ENDBRANCH  30  32
BRANCH  29  35
HETATM   35  N5  UNL     1       5.410  -0.692   0.556  1.00  0.00    -0.288 N 
ATOM     36  H5  UNL     1       6.078  -0.356   1.250  1.00  0.00     0.188 HD
BRANCH  35  37
HETATM   37  N6  UNL     1       5.425  -2.001   0.084  1.00  0.00    -0.343 N 
ATOM     38  H62 UNL     1       4.751  -2.323  -0.610  1.00  0.00     0.176 HD
ATOM     39  H61 UNL     1       6.149  -2.601   0.479  1.00  0.00     0.176 HD
ENDBRANCH  35  37
ENDBRANCH  29  35
ENDBRANCH  27  29
ENDBRANCH   4  27
TORSDOF 7
