REMARK  6 active torsions:
REMARK  status: ('A' for Active; 'I' for Inactive)
REMARK    1  A    between atoms: N1_1  and  N2_4 
REMARK       I    between atoms: N2_4  and  C1_6 
REMARK       I    between atoms: C1_6  and  N3_8 
REMARK    2  A    between atoms: N3_8  and  C2_10 
REMARK    3  A    between atoms: C3_15  and  C4_16 
REMARK    4  A    between atoms: C4_16  and  C5_17 
REMARK       I    between atoms: C5_17  and  N6_19 
REMARK    5  A    between atoms: N6_19  and  N7_21 
REMARK    6  A    between atoms: C6_23  and  C7_24 
ROOT
HETATM    1  C4  UNL     1       0.415   1.008   2.149  1.00  0.00     0.170 C 
ENDROOT
BRANCH   1   2
HETATM    2  C3  UNL     1       1.723   0.607   1.528  1.00  0.00     0.078 A 
HETATM    3  N5  UNL     1       2.475   1.324   0.711  1.00  0.00    -0.295 N 
HETATM    4  N4  UNL     1       3.567   0.856   0.257  1.00  0.00    -0.279 N 
ATOM      5  H5  UNL     1       2.177   2.262   0.442  1.00  0.00     0.187 HD
HETATM    6  C2  UNL     1       3.929  -0.380   0.629  1.00  0.00     0.169 A 
ATOM      7  H4  UNL     1       4.151   1.406  -0.373  1.00  0.00     0.189 HD
HETATM    8  S1  UNL     1       2.641  -0.830   1.650  1.00  0.00    -0.037 SA
BRANCH   6   9
HETATM    9  N3  UNL     1       5.009  -1.038   0.274  1.00  0.00    -0.286 N 
HETATM   10  C1  UNL     1       5.962  -0.453  -0.603  1.00  0.00     0.340 C 
HETATM   11  N2  UNL     1       7.042   0.328  -0.184  1.00  0.00    -0.258 N 
HETATM   12  O1  UNL     1       5.786  -0.675  -1.826  1.00  0.00    -0.245 OA
ATOM     13  H2  UNL     1       7.186   0.510   0.809  1.00  0.00     0.191 HD
ATOM     14  H3  UNL     1       5.166  -1.980   0.632  1.00  0.00     0.172 HD
BRANCH  11  15
HETATM   15  N1  UNL     1       7.923   0.859  -1.127  1.00  0.00    -0.341 N 
ATOM     16  H12 UNL     1       7.765   0.668  -2.116  1.00  0.00     0.177 HD
ATOM     17  H11 UNL     1       8.711   1.429  -0.821  1.00  0.00     0.177 HD
ENDBRANCH  11  15
ENDBRANCH   6   9
ENDBRANCH   1   2
BRANCH   1  18
HETATM   18  C5  UNL     1      -0.659   0.597   1.238  1.00  0.00     0.242 C 
HETATM   19  O2  UNL     1      -0.373   0.016   0.155  1.00  0.00    -0.271 OA
HETATM   20  N6  UNL     1      -2.028   0.840   1.548  1.00  0.00    -0.270 N 
ATOM     21  H6  UNL     1      -2.265   1.309   2.422  1.00  0.00     0.190 HD
BRANCH  20  22
HETATM   22  N7  UNL     1      -3.047   0.454   0.690  1.00  0.00    -0.307 N 
HETATM   23  C6  UNL     1      -3.422  -0.758   0.653  1.00  0.00     0.140 C 
ATOM     24  H7  UNL     1      -3.495   1.145   0.088  1.00  0.00     0.186 HD
BRANCH  23  25
HETATM   25  C7  UNL     1      -4.500  -1.213  -0.242  1.00  0.00     0.089 A 
HETATM   26  N8  UNL     1      -4.887  -2.492  -0.272  1.00  0.00    -0.298 N 
HETATM   27  N9  UNL     1      -5.843  -2.955  -1.050  1.00  0.00    -0.311 N 
ATOM     28  H8  UNL     1      -4.412  -3.150   0.346  1.00  0.00     0.187 HD
HETATM   29  C8  UNL     1      -6.485  -2.116  -1.872  1.00  0.00     0.109 A 
ATOM     30  H9  UNL     1      -6.092  -3.944  -1.027  1.00  0.00     0.186 HD
HETATM   31  C9  UNL     1      -6.142  -0.772  -1.900  1.00  0.00     0.047 A 
HETATM   32  C10 UNL     1      -5.134  -0.310  -1.073  1.00  0.00     0.077 A 
HETATM   33  N10 UNL     1      -4.720   1.043  -1.036  1.00  0.00    -0.100 NA
ENDBRANCH  23  25
ENDBRANCH  20  22
ENDBRANCH   1  18
TORSDOF 6
