REMARK  6 active torsions:
REMARK  status: ('A' for Active; 'I' for Inactive)
REMARK    1  A    between atoms: C3_4  and  N2_5 
REMARK    2  A    between atoms: N2_5  and  C4_7 
REMARK    3  A    between atoms: N3_8  and  N4_10 
REMARK    4  A    between atoms: C5_17  and  N7_18 
REMARK    5  A    between atoms: C6_22  and  C7_23 
REMARK    6  A    between atoms: C8_30  and  N13_31 
ROOT
HETATM    1  N1  UNL     1      -4.605  -2.327  -1.149  1.00  0.00    -0.191 NA
HETATM    2  C1  UNL     1      -3.496  -2.058  -0.962  1.00  0.00     0.107 C 
HETATM    3  C2  UNL     1      -2.124  -1.727  -0.705  1.00  0.00     0.133 A 
HETATM    4  C3  UNL     1      -1.868  -0.646   0.099  1.00  0.00     0.146 A 
HETATM    5  N6  UNL     1      -0.586  -0.324   0.348  1.00  0.00    -0.172 N 
ATOM      6  H6  UNL     1      -0.399   0.480   0.947  1.00  0.00     0.186 HD
HETATM    7  C5  UNL     1       0.462  -1.002  -0.148  1.00  0.00     0.720 A 
HETATM    8  N12 UNL     1       0.190  -2.055  -0.933  1.00  0.00    -0.172 N 
ATOM      9  H12 UNL     1       0.966  -2.589  -1.324  1.00  0.00     0.186 HD
HETATM   10  C8  UNL     1      -1.072  -2.435  -1.225  1.00  0.00     0.139 A 
ENDROOT
BRANCH   4  11
HETATM   11  N2  UNL     1      -2.920   0.124   0.665  1.00  0.00    -0.336 N 
ATOM     12  H2  UNL     1      -3.892  -0.122   0.476  1.00  0.00     0.168 HD
BRANCH  11  13
HETATM   13  C4  UNL     1      -2.615   1.238   1.495  1.00  0.00     0.200 C 
HETATM   14  N3  UNL     1      -2.722   2.424   1.007  1.00  0.00    -0.282 N 
ATOM     15  H3  UNL     1      -2.506   3.232   1.591  1.00  0.00     0.189 HD
BRANCH  14  16
HETATM   16  N4  UNL     1      -3.130   2.615  -0.313  1.00  0.00    -0.248 N 
HETATM   17  N5  UNL     1      -4.295   3.019  -0.553  1.00  0.00    -0.331 N 
ATOM     18  H52 UNL     1      -4.928   3.202   0.226  1.00  0.00     0.178 HD
ATOM     19  H51 UNL     1      -4.593   3.159  -1.518  1.00  0.00     0.178 HD
ATOM     20  H4  UNL     1      -2.485   2.427  -1.080  1.00  0.00     0.207 HD
ENDBRANCH  14  16
ENDBRANCH  11  13
ENDBRANCH   4  11
BRANCH  10  21
HETATM   21  N13 UNL     1      -1.306  -3.454  -1.984  1.00  0.00    -0.384 N 
ATOM     22 2H13 UNL     1      -2.260  -3.741  -2.205  1.00  0.00     0.157 HD
ATOM     23 1H13 UNL     1      -0.523  -3.981  -2.371  1.00  0.00     0.157 HD
ENDBRANCH  10  21
BRANCH   7  24
HETATM   24  N7  UNL     1       1.816  -0.633   0.136  1.00  0.00    -0.003 N 
HETATM   25  N8  UNL     1       2.851  -1.451   0.035  1.00  0.00     0.018 NA
HETATM   26  N9  UNL     1       3.979  -0.843   0.358  1.00  0.00    -0.264 N 
HETATM   27  C6  UNL     1       3.636   0.416   0.677  1.00  0.00     0.171 A 
ATOM     28  H9  UNL     1       4.916  -1.246   0.364  1.00  0.00     0.186 HD
HETATM   29  N11 UNL     1       2.282   0.536   0.534  1.00  0.00    -0.247 N 
ATOM     30  H11 UNL     1       1.731   1.377   0.704  1.00  0.00     0.191 HD
BRANCH  27  31
HETATM   31  C7  UNL     1       4.567   1.442   1.095  1.00  0.00     0.159 C 
HETATM   32  N10 UNL     1       4.504   2.718   0.494  1.00  0.00    -0.086 NA
HETATM   33  S1  UNL     1       5.680   1.153   2.240  1.00  0.00    -0.060 SA
ENDBRANCH  27  31
ENDBRANCH   7  24
TORSDOF 6
