REMARK  6 active torsions:
REMARK  status: ('A' for Active; 'I' for Inactive)
REMARK    1  A    between atoms: C2_2  and  C3_3 
REMARK    2  A    between atoms: C3_3  and  C4_5 
REMARK    3  A    between atoms: C5_6  and  O2_7 
REMARK    4  A    between atoms: C8_11  and  O3_12 
REMARK    5  A    between atoms: C10_17  and  O5_18 
REMARK    6  A    between atoms: C13_22  and  C14_23 
ROOT
HETATM    1  C4  UNL     1       2.022  -0.331  -0.097  1.00  0.00     0.070 A 
HETATM    2  C5  UNL     1       0.969   0.516   0.275  1.00  0.00     0.117 A 
HETATM    3  C6  UNL     1      -0.352   0.124   0.245  1.00  0.00     0.140 A 
HETATM    4  C7  UNL     1      -0.650  -1.154  -0.168  1.00  0.00     0.143 A 
HETATM    5  C8  UNL     1       0.346  -2.021  -0.542  1.00  0.00     0.125 A 
HETATM    6  C9  UNL     1       1.675  -1.590  -0.499  1.00  0.00     0.086 A 
HETATM    7 CL1  UNL     1       2.938  -2.708  -0.979  1.00  0.00    -0.080 Cl
HETATM    8  O4  UNL     1      -1.856  -1.831  -0.304  1.00  0.00    -0.315 OA
HETATM    9  C10 UNL     1      -3.206  -1.528  -0.602  1.00  0.00     0.263 C 
HETATM   10  C11 UNL     1      -3.504  -0.057  -0.408  1.00  0.00     0.063 C 
HETATM   11  C12 UNL     1      -3.379   0.384   1.006  1.00  0.00     0.040 C 
HETATM   12  C13 UNL     1      -2.361   1.441   1.270  1.00  0.00     0.158 C 
HETATM   13  O6  UNL     1      -1.108   1.204   0.674  1.00  0.00    -0.338 OA
ENDROOT
BRANCH   1  14
HETATM   14  C3  UNL     1       3.356   0.201  -0.020  1.00  0.00     0.163 C 
HETATM   15  O1  UNL     1       3.500   1.412   0.383  1.00  0.00    -0.292 OA
BRANCH  14  16
HETATM   16  C2  UNL     1       4.607  -0.512  -0.362  1.00  0.00     0.079 C 
HETATM   17  C1  UNL     1       5.822   0.409  -0.136  1.00  0.00     0.013 C 
ENDBRANCH  14  16
ENDBRANCH   1  14
BRANCH   2  18
HETATM   18  O2  UNL     1       1.249   1.804   0.693  1.00  0.00    -0.357 OA
ATOM     19  H2  UNL     1       0.535   2.378   0.945  1.00  0.00     0.217 HD
ENDBRANCH   2  18
BRANCH   5  20
HETATM   20  O3  UNL     1       0.035  -3.296  -0.953  1.00  0.00    -0.356 OA
ATOM     21  H3  UNL     1       0.724  -3.896  -1.212  1.00  0.00     0.218 HD
ENDBRANCH   5  20
BRANCH  12  22
HETATM   22  C14 UNL     1      -2.805   2.824   0.849  1.00  0.00     0.254 C 
HETATM   23  F1  UNL     1      -3.078   2.887  -0.501  1.00  0.00    -0.253 F 
ENDBRANCH  12  22
BRANCH   9  24
HETATM   24  O5  UNL     1      -3.545  -1.888  -1.891  1.00  0.00    -0.371 OA
ATOM     25  H5  UNL     1      -4.451  -1.685  -2.091  1.00  0.00     0.212 HD
ENDBRANCH   9  24
TORSDOF 6
