REMARK  6 active torsions:
REMARK  status: ('A' for Active; 'I' for Inactive)
REMARK    1  A    between atoms: C4_4  and  N1_5 
REMARK    2  A    between atoms: C7_9  and  O2_10 
REMARK    3  A    between atoms: C8_12  and  N2_13 
REMARK    4  A    between atoms: N2_13  and  O3_15 
REMARK    5  A    between atoms: C9_17  and  C10_18 
REMARK    6  A    between atoms: C11_21  and  O4_22 
ROOT
HETATM    1  N1  UNL     1      -1.345  -0.191  -0.241  1.00  0.00    -0.297 N 
HETATM    2  C5  UNL     1      -0.436   0.844  -0.517  1.00  0.00     0.265 C 
HETATM    3  O1  UNL     1      -0.803   1.947  -0.913  1.00  0.00    -0.267 OA
HETATM    4  C6  UNL     1       1.029   0.672  -0.359  1.00  0.00     0.097 A 
HETATM    5  C7  UNL     1       1.902   1.709  -0.624  1.00  0.00     0.113 A 
HETATM    6  C8  UNL     1       3.240   1.458  -0.445  1.00  0.00     0.102 A 
HETATM    7  C9  UNL     1       3.752   0.251  -0.024  1.00  0.00     0.072 A 
HETATM    8  C11 UNL     1       2.831  -0.763   0.230  1.00  0.00     0.107 A 
HETATM    9  C12 UNL     1       1.474  -0.557   0.064  1.00  0.00     0.083 A 
HETATM   10  N3  UNL     1       0.516  -1.568   0.313  1.00  0.00    -0.361 N 
ATOM     11  H3  UNL     1       0.745  -2.319   0.964  1.00  0.00     0.162 HD
HETATM   12  C13 UNL     1      -0.788  -1.565  -0.336  1.00  0.00     0.105 C 
HETATM   13  C14 UNL     1      -0.583  -1.948  -1.777  1.00  0.00     0.063 C 
HETATM   14  C15 UNL     1      -1.661  -2.532   0.393  1.00  0.00     0.063 C 
ENDROOT
BRANCH   1  15
HETATM   15  C4  UNL     1      -2.657  -0.054   0.170  1.00  0.00     0.099 C 
HETATM   16  C2  UNL     1      -3.468   0.856   0.551  1.00  0.00    -0.072 C 
HETATM   17  C1  UNL     1      -3.238   2.283   0.706  1.00  0.00     0.044 C 
HETATM   18  C3  UNL     1      -4.901   0.413   0.900  1.00  0.00     0.044 C 
ENDBRANCH   1  15
BRANCH   5  19
HETATM   19  O2  UNL     1       1.388   2.911  -1.044  1.00  0.00    -0.357 OA
ATOM     20  H2  UNL     1       1.988   3.624  -1.226  1.00  0.00     0.217 HD
ENDBRANCH   5  19
BRANCH   6  21
HETATM   21  N2  UNL     1       4.171   2.501  -0.708  1.00  0.00    -0.266 N 
ATOM     22  H2  UNL     1       4.693   2.952   0.043  1.00  0.00     0.194 HD
BRANCH  21  23
HETATM   23  O3  UNL     1       4.319   2.838  -1.900  1.00  0.00    -0.289 OA
ATOM     24  H3  UNL     1       4.941   3.535  -2.076  1.00  0.00     0.244 HD
ENDBRANCH  21  23
ENDBRANCH   6  21
BRANCH   8  25
HETATM   25  O4  UNL     1       3.286  -1.992   0.654  1.00  0.00    -0.358 OA
ATOM     26  H4  UNL     1       2.658  -2.683   0.827  1.00  0.00     0.217 HD
ENDBRANCH   8  25
BRANCH   7  27
HETATM   27  C10 UNL     1       5.217   0.073   0.141  1.00  0.00     0.392 C 
HETATM   28  F1  UNL     1       5.628   1.063   1.037  1.00  0.00    -0.209 F 
HETATM   29  F2  UNL     1       5.832   0.300  -1.062  1.00  0.00    -0.209 F 
ENDBRANCH   7  27
TORSDOF 6
