REMARK  6 active torsions:
REMARK  status: ('A' for Active; 'I' for Inactive)
REMARK    1  A    between atoms: C2_2  and  O1_3 
REMARK    2  A    between atoms: O1_3  and  C3_4 
REMARK    3  A    between atoms: C3_4  and  C4_5 
REMARK    4  A    between atoms: C5_11  and  C6_12 
REMARK    5  A    between atoms: C6_12  and  O2_13 
REMARK    6  A    between atoms: N2_15  and  O3_17 
ROOT
HETATM    1  C3  UNL     1      -0.522   0.276  -0.294  1.00  0.00     0.262 C 
HETATM    2  N1  UNL     1       0.327  -0.274   0.607  1.00  0.00    -0.368 N 
ATOM      3  H1  UNL     1      -0.069  -1.154   0.939  1.00  0.00     0.157 HD
HETATM    4  C5  UNL     1       1.492  -0.073   1.211  1.00  0.00     0.166 C 
HETATM    5  C7  UNL     1       2.273   1.176   1.268  1.00  0.00     0.113 C 
HETATM    6  S1  UNL     1       1.167   2.486   1.818  1.00  0.00    -0.119 SA
HETATM    7  C8  UNL     1      -0.111   2.619   0.593  1.00  0.00     0.052 A 
HETATM    8  S2  UNL     1      -0.827   4.129   0.247  1.00  0.00    -0.094 SA
HETATM    9  C9  UNL     1      -1.959   3.632  -0.912  1.00  0.00     0.051 A 
HETATM   10  C10 UNL     1      -1.752   2.278  -1.006  1.00  0.00     0.021 A 
HETATM   11  C11 UNL     1      -0.775   1.760  -0.209  1.00  0.00     0.030 A 
ENDROOT
BRANCH   1  12
HETATM   12  O1  UNL     1      -1.790  -0.252  -0.092  1.00  0.00    -0.350 OA
BRANCH  12  13
HETATM   13  C2  UNL     1      -2.028  -1.557  -0.173  1.00  0.00     0.167 C 
HETATM   14  C1  UNL     1      -3.545  -1.706   0.140  1.00  0.00     0.033 C 
ENDBRANCH  12  13
ENDBRANCH   1  12
BRANCH   1  15
HETATM   15  C4  UNL     1      -0.041  -0.064  -1.680  1.00  0.00     0.442 C 
HETATM   16  F1  UNL     1      -0.803   0.355  -2.717  1.00  0.00    -0.166 F 
HETATM   17  F2  UNL     1       0.268  -1.392  -1.860  1.00  0.00    -0.166 F 
HETATM   18  F3  UNL     1       1.174   0.657  -1.843  1.00  0.00    -0.166 F 
ENDBRANCH   1  15
BRANCH   4  19
HETATM   19  C6  UNL     1       2.497  -1.147   0.820  1.00  0.00     0.159 C 
HETATM   20  N2  UNL     1       3.611  -0.855   0.265  1.00  0.00    -0.249 N 
ATOM     21  H2  UNL     1       3.846   0.119   0.073  1.00  0.00     0.196 HD
BRANCH  19  22
HETATM   22  O2  UNL     1       2.229  -2.485   1.059  1.00  0.00    -0.347 OA
ATOM     23  H2  UNL     1       2.856  -3.155   0.815  1.00  0.00     0.219 HD
ENDBRANCH  19  22
BRANCH  20  24
HETATM   24  O3  UNL     1       4.484  -1.845  -0.070  1.00  0.00    -0.288 OA
ATOM     25  H3  UNL     1       5.312  -1.628  -0.482  1.00  0.00     0.244 HD
ENDBRANCH  20  24
ENDBRANCH   4  19
TORSDOF 6
