REMARK  7 active torsions:
REMARK  status: ('A' for Active; 'I' for Inactive)
REMARK    1  A    between atoms: C2_2  and  C4_4 
REMARK    2  A    between atoms: C4_4  and  C5_6 
REMARK    3  A    between atoms: C4_4  and  N1_11 
REMARK    4  A    between atoms: C9_12  and  O1_13 
REMARK    5  A    between atoms: C10_15  and  O2_16 
REMARK    6  A    between atoms: C11_18  and  C12_19 
REMARK    7  A    between atoms: C14_23  and  O3_24 
ROOT
HETATM    1  N1  UNL     1       0.177   0.088  -0.612  1.00  0.00    -0.259 N 
HETATM    2  C9  UNL     1       0.976  -0.200  -1.662  1.00  0.00     0.182 A 
HETATM    3  C10 UNL     1       2.224  -0.560  -1.221  1.00  0.00     0.133 A 
HETATM    4  C11 UNL     1       2.206  -0.496   0.149  1.00  0.00     0.101 A 
HETATM    5  C14 UNL     1       0.929  -0.094   0.491  1.00  0.00     0.163 A 
ENDROOT
BRANCH   1   6
HETATM    6  C4  UNL     1      -1.204   0.503  -0.735  1.00  0.00     0.243 C 
HETATM    7  F1  UNL     1      -1.224   1.414  -1.806  1.00  0.00    -0.207 F 
BRANCH   6   8
HETATM    8  C2  UNL     1      -2.093  -0.614  -1.184  1.00  0.00    -0.028 C 
HETATM    9  C1  UNL     1      -1.708  -1.865  -1.238  1.00  0.00     0.019 C 
HETATM   10  C3  UNL     1      -3.505  -0.302  -1.589  1.00  0.00     0.048 C 
ENDBRANCH   6   8
BRANCH   6  11
HETATM   11  C5  UNL     1      -1.730   1.170   0.484  1.00  0.00     0.047 A 
HETATM   12  C6  UNL     1      -2.574   0.689   1.447  1.00  0.00     0.021 A 
HETATM   13  C7  UNL     1      -2.898   1.503   2.456  1.00  0.00     0.008 A 
HETATM   14  C8  UNL     1      -2.359   2.762   2.450  1.00  0.00     0.050 A 
HETATM   15  S1  UNL     1      -1.416   2.756   1.025  1.00  0.00    -0.101 SA
ENDBRANCH   6  11
ENDBRANCH   1   6
BRANCH   2  16
HETATM   16  O1  UNL     1       0.611  -0.145  -2.995  1.00  0.00    -0.344 OA
ATOM     17  H1  UNL     1       1.173  -0.348  -3.734  1.00  0.00     0.219 HD
ENDBRANCH   2  16
BRANCH   5  18
HETATM   18  O3  UNL     1       0.506   0.090   1.783  1.00  0.00    -0.345 OA
ATOM     19  H3  UNL     1       1.036  -0.038   2.561  1.00  0.00     0.219 HD
ENDBRANCH   5  18
BRANCH   3  20
HETATM   20  O2  UNL     1       3.295  -0.918  -2.003  1.00  0.00    -0.356 OA
ATOM     21  H2  UNL     1       4.159  -1.167  -1.698  1.00  0.00     0.218 HD
ENDBRANCH   3  20
BRANCH   4  22
HETATM   22  C12 UNL     1       3.319  -0.792   1.106  1.00  0.00     0.274 C 
HETATM   23  C13 UNL     1       4.443   0.161   0.782  1.00  0.00     0.096 C 
HETATM   24  F2  UNL     1       2.891  -0.624   2.399  1.00  0.00    -0.201 F 
HETATM   25  F3  UNL     1       3.694  -2.114   0.967  1.00  0.00    -0.201 F 
ENDBRANCH   4  22
TORSDOF 7
