REMARK  4 active torsions:
REMARK  status: ('A' for Active; 'I' for Inactive)
REMARK    1  A    between atoms: O1_2  and  C2_3 
REMARK    2  A    between atoms: C2_3  and  C3_4 
REMARK    3  A    between atoms: C5_8  and  S1_9 
REMARK    4  A    between atoms: S1_9  and  N2_10 
ROOT
HETATM    1  C3  UNL     1       2.073  -0.204  -1.126  1.00  0.00     0.076 A 
HETATM    2  N1  UNL     1       0.940  -0.816  -0.853  1.00  0.00    -0.350 N 
ATOM      3  H1  UNL     1       0.809  -1.788  -1.134  1.00  0.00     0.166 HD
HETATM    4  C4  UNL     1      -0.014  -0.190  -0.227  1.00  0.00     0.077 A 
HETATM    5  C5  UNL     1      -1.269  -0.728   0.125  1.00  0.00     0.133 A 
HETATM    6  C6  UNL     1      -2.175   0.051   0.784  1.00  0.00     0.098 A 
HETATM    7  N3  UNL     1      -3.442  -0.490   1.139  1.00  0.00    -0.099 NA
HETATM    8  C7  UNL     1      -1.954   1.382   1.151  1.00  0.00     0.097 A 
HETATM    9  N4  UNL     1      -2.886   2.172   1.824  1.00  0.00    -0.098 NA
HETATM   10  C8  UNL     1      -0.737   1.894   0.806  1.00  0.00     0.092 A 
HETATM   11  N5  UNL     1      -0.327   3.225   1.092  1.00  0.00    -0.099 NA
HETATM   12  C9  UNL     1       0.206   1.112   0.130  1.00  0.00     0.061 A 
HETATM   13  S2  UNL     1       1.809   1.350  -0.474  1.00  0.00    -0.070 SA
ENDROOT
BRANCH   5  14
HETATM   14  S1  UNL     1      -1.704  -2.378  -0.261  1.00  0.00     0.261 S 
HETATM   15  O2  UNL     1      -2.546  -3.000   0.798  1.00  0.00    -0.201 OA
HETATM   16  O3  UNL     1      -0.419  -3.181  -0.333  1.00  0.00    -0.201 OA
BRANCH  14  17
HETATM   17  N2  UNL     1      -2.458  -2.486  -1.795  1.00  0.00    -0.324 N 
ATOM     18  H22 UNL     1      -2.625  -1.680  -2.397  1.00  0.00     0.169 HD
ATOM     19  H21 UNL     1      -2.712  -3.448  -2.020  1.00  0.00     0.169 HD
ENDBRANCH  14  17
ENDBRANCH   5  14
BRANCH   1  20
HETATM   20  C2  UNL     1       3.285  -0.695  -1.826  1.00  0.00     0.231 C 
BRANCH  20  21
HETATM   21  O1  UNL     1       4.427  -0.018  -1.478  1.00  0.00    -0.390 OA
HETATM   22  C1  UNL     1       4.777  -0.098  -0.156  1.00  0.00     0.201 C 
ENDBRANCH  20  21
ENDBRANCH   1  20
TORSDOF 4
