REMARK  3 active torsions:
REMARK  status: ('A' for Active; 'I' for Inactive)
REMARK    1  A    between atoms: C1_2  and  C8_17 
REMARK    2  A    between atoms: N2_3  and  N3_5 
REMARK       I    between atoms: N3_5  and  C2_7 
REMARK    3  A    between atoms: C2_7  and  C3_9 
ROOT
HETATM    1  N1  UNL     1      -0.292  -1.333  -0.823  1.00  0.00    -0.079 NA
HETATM    2  C1  UNL     1       0.266  -0.051  -0.659  1.00  0.00     0.159 C 
HETATM    3  N2  UNL     1      -0.485   0.999  -0.658  1.00  0.00    -0.283 N 
ATOM      4  H2  UNL     1      -0.043   1.910  -0.538  1.00  0.00     0.188 HD
ENDROOT
BRANCH   2   5
HETATM    5  C8  UNL     1       1.706   0.103  -0.489  1.00  0.00     0.094 A 
HETATM    6  C9  UNL     1       2.437   1.263  -0.317  1.00  0.00     0.151 A 
HETATM    7  N6  UNL     1       3.759   0.963  -0.196  1.00  0.00    -0.249 N 
HETATM    8  N7  UNL     1       4.849   1.697  -0.018  1.00  0.00    -0.302 N 
HETATM    9  C13 UNL     1       3.861  -0.375  -0.292  1.00  0.00     0.129 A 
HETATM   10  C10 UNL     1       6.081   1.169   0.075  1.00  0.00     0.134 A 
ATOM     11  H7  UNL     1       4.747   2.710   0.052  1.00  0.00     0.186 HD
HETATM   12  C11 UNL     1       6.238  -0.199  -0.018  1.00  0.00     0.066 A 
HETATM   13  N8  UNL     1       7.542  -0.782   0.079  1.00  0.00    -0.101 NA
HETATM   14  C12 UNL     1       5.108  -0.960  -0.202  1.00  0.00     0.078 A 
HETATM   15  N9  UNL     1       2.610  -0.893  -0.470  1.00  0.00    -0.337 N 
ATOM     16  H9  UNL     1       2.394  -1.885  -0.573  1.00  0.00     0.167 HD
ENDBRANCH   2   5
BRANCH   3  17
HETATM   17  N3  UNL     1      -1.860   0.951  -0.812  1.00  0.00    -0.264 N 
HETATM   18  C2  UNL     1      -2.665   0.407   0.200  1.00  0.00     0.273 C 
HETATM   19  O1  UNL     1      -2.065  -0.030   1.246  1.00  0.00    -0.266 OA
ATOM     20  H3  UNL     1      -2.289   1.312  -1.664  1.00  0.00     0.190 HD
BRANCH  18  21
HETATM   21  C3  UNL     1      -4.117   0.309   0.139  1.00  0.00     0.073 A 
HETATM   22  C4  UNL     1      -4.818   0.758  -0.950  1.00  0.00     0.106 A 
HETATM   23  N4  UNL     1      -6.175   0.671  -1.016  1.00  0.00    -0.374 N 
HETATM   24  C5  UNL     1      -6.897   0.143  -0.023  1.00  0.00     0.089 A 
ATOM     25  H4  UNL     1      -6.654   1.019  -1.847  1.00  0.00     0.164 HD
HETATM   26  C6  UNL     1      -6.234  -0.321   1.092  1.00  0.00     0.044 A 
HETATM   27  C7  UNL     1      -4.840  -0.240   1.177  1.00  0.00     0.064 A 
HETATM   28  N5  UNL     1      -4.155  -0.708   2.306  1.00  0.00    -0.101 NA
ENDBRANCH  18  21
ENDBRANCH   3  17
TORSDOF 3
