REMARK  7 active torsions:
REMARK  status: ('A' for Active; 'I' for Inactive)
REMARK    1  A    between atoms: O1_2  and  N1_3 
REMARK    2  A    between atoms: N1_3  and  N2_4 
REMARK    3  A    between atoms: N2_4  and  C3_6 
REMARK    4  A    between atoms: C3_6  and  O2_7 
REMARK    5  A    between atoms: C3_6  and  C4_9 
REMARK    6  A    between atoms: C11_20  and  N6_21 
REMARK    7  A    between atoms: C13_26  and  O3_27 
ROOT
HETATM    1  C4  UNL     1      -0.242  -0.260   0.001  1.00  0.00     0.091 A 
HETATM    2  C5  UNL     1       0.116   0.935  -0.558  1.00  0.00     0.135 A 
HETATM    3  N3  UNL     1      -0.810   1.827  -1.230  1.00  0.00    -0.082 NA
HETATM    4  N4  UNL     1       1.420   1.293  -0.562  1.00  0.00    -0.329 N 
ATOM      5  H4  UNL     1       1.676   2.187  -0.980  1.00  0.00     0.168 HD
HETATM    6  C6  UNL     1       2.391   0.531  -0.044  1.00  0.00     0.124 A 
HETATM    7  C7  UNL     1       2.093  -0.686   0.533  1.00  0.00     0.063 A 
HETATM    8  C8  UNL     1       3.107  -1.440   1.051  1.00  0.00     0.065 A 
HETATM    9  C9  UNL     1       2.840  -2.706   1.655  1.00  0.00     0.100 C 
HETATM   10  N5  UNL     1       2.655  -3.755   2.161  1.00  0.00    -0.191 NA
HETATM   11  C10 UNL     1       4.409  -0.949   0.977  1.00  0.00     0.072 A 
HETATM   12  C11 UNL     1       4.648   0.272   0.391  1.00  0.00     0.103 A 
HETATM   13  N7  UNL     1       3.671   1.002  -0.110  1.00  0.00    -0.323 N 
HETATM   14  C12 UNL     1       3.885   2.306  -0.742  1.00  0.00     0.159 C 
HETATM   15  C13 UNL     1       0.751  -1.094   0.559  1.00  0.00     0.099 A 
ENDROOT
BRANCH  15  16
HETATM   16  O3  UNL     1       0.504  -2.276   1.134  1.00  0.00    -0.359 OA
ATOM     17  H3  UNL     1       1.172  -2.837   1.509  1.00  0.00     0.217 HD
ENDBRANCH  15  16
BRANCH  12  18
HETATM   18  N6  UNL     1       5.870   0.710   0.333  1.00  0.00    -0.385 N 
ATOM     19  H62 UNL     1       6.626   0.145   0.721  1.00  0.00     0.157 HD
ATOM     20  H61 UNL     1       6.047   1.616  -0.102  1.00  0.00     0.157 HD
ENDBRANCH  12  18
BRANCH   1  21
HETATM   21  C3  UNL     1      -1.587  -0.771  -0.061  1.00  0.00     0.172 C 
BRANCH  21  22
HETATM   22  N2  UNL     1      -2.838  -0.204   0.094  1.00  0.00    -0.253 N 
HETATM   23  C2  UNL     1      -3.236   1.112   0.532  1.00  0.00     0.178 C 
BRANCH  22  24
HETATM   24  N1  UNL     1      -3.960  -1.086  -0.127  1.00  0.00     0.025 NA
BRANCH  24  25
HETATM   25  O1  UNL     1      -4.950  -0.363  -0.661  1.00  0.00    -0.272 OA
HETATM   26  C1  UNL     1      -6.197  -0.685  -0.126  1.00  0.00     0.234 C 
ENDBRANCH  24  25
ENDBRANCH  22  24
ENDBRANCH  21  22
BRANCH  21  27
HETATM   27  O2  UNL     1      -1.612  -2.064  -0.314  1.00  0.00    -0.344 OA
ATOM     28  H2  UNL     1      -0.752  -2.454  -0.421  1.00  0.00     0.219 HD
ENDBRANCH  21  27
ENDBRANCH   1  21
TORSDOF 7
