REMARK  6 active torsions:
REMARK  status: ('A' for Active; 'I' for Inactive)
REMARK    1  A    between atoms: O1_2  and  C2_3 
REMARK       I    between atoms: C2_3  and  N1_5 
REMARK    2  A    between atoms: N1_5  and  N2_7 
REMARK    3  A    between atoms: N3_9  and  C4_11 
REMARK    4  A    between atoms: C10_22  and  N7_23 
REMARK    5  A    between atoms: N8_26  and  C11_27 
REMARK    6  A    between atoms: C11_27  and  O4_28 
ROOT
HETATM    1  C4  UNL     1       0.664   0.583   1.565  1.00  0.00     0.148 A 
HETATM    2  N4  UNL     1      -0.320  -0.318   1.789  1.00  0.00    -0.324 N 
ATOM      3  H4  UNL     1      -0.313  -1.030   2.519  1.00  0.00     0.169 HD
HETATM    4  C5  UNL     1      -1.295  -0.131   0.911  1.00  0.00     0.145 A 
HETATM    5  C6  UNL     1      -0.931   0.924   0.094  1.00  0.00     0.105 A 
HETATM    6  C7  UNL     1       0.319   1.390   0.501  1.00  0.00     0.111 A 
HETATM    7  N5  UNL     1       1.017   2.470  -0.103  1.00  0.00    -0.097 NA
HETATM    8  C8  UNL     1      -1.786   1.302  -0.893  1.00  0.00     0.277 A 
HETATM    9  O3  UNL     1      -1.447   2.263  -1.632  1.00  0.00    -0.266 OA
HETATM   10  N6  UNL     1      -2.952   0.668  -1.069  1.00  0.00    -0.151 N 
HETATM   11  C9  UNL     1      -3.847   1.093  -2.132  1.00  0.00     0.179 C 
HETATM   12  C10 UNL     1      -3.276  -0.363  -0.249  1.00  0.00     0.686 A 
HETATM   13  N8  UNL     1      -2.469  -0.773   0.737  1.00  0.00    -0.145 N 
ENDROOT
BRANCH   1  14
HETATM   14  N3  UNL     1       1.873   0.705   2.297  1.00  0.00    -0.269 N 
HETATM   15  N2  UNL     1       2.886   0.077   1.881  1.00  0.00    -0.235 N 
ATOM     16  H2  UNL     1       3.742   0.183   2.425  1.00  0.00     0.208 HD
ATOM     17  H3  UNL     1       1.922   1.284   3.136  1.00  0.00     0.190 HD
BRANCH  15  18
HETATM   18  N1  UNL     1       2.961  -0.737   0.771  1.00  0.00    -0.226 N 
HETATM   19  C2  UNL     1       3.628  -0.276  -0.386  1.00  0.00     0.382 C 
HETATM   20  O2  UNL     1       3.702  -1.010  -1.402  1.00  0.00    -0.236 OA
HETATM   21  C3  UNL     1       2.371  -2.050   0.778  1.00  0.00     0.185 C 
BRANCH  19  22
HETATM   22  O1  UNL     1       4.214   0.979  -0.440  1.00  0.00    -0.308 OA
HETATM   23  C1  UNL     1       4.887   1.437  -1.612  1.00  0.00     0.215 C 
ENDBRANCH  19  22
ENDBRANCH  15  18
ENDBRANCH   1  14
BRANCH  13  24
HETATM   24  C11 UNL     1      -2.842  -1.877   1.597  1.00  0.00     0.315 C 
BRANCH  24  25
HETATM   25  O4  UNL     1      -2.379  -3.090   1.042  1.00  0.00    -0.381 OA
ATOM     26  H4  UNL     1      -2.624  -3.814   1.606  1.00  0.00     0.211 HD
ENDBRANCH  24  25
ENDBRANCH  13  24
BRANCH  12  27
HETATM   27  N7  UNL     1      -4.414  -0.915  -0.491  1.00  0.00    -0.234 N 
ATOM     28  H72 UNL     1      -5.029  -0.603  -1.242  1.00  0.00     0.174 HD
ATOM     29  H71 UNL     1      -4.658  -1.690   0.126  1.00  0.00     0.174 HD
ENDBRANCH  12  27
TORSDOF 6
