REMARK  2 active torsions:
REMARK  status: ('A' for Active; 'I' for Inactive)
REMARK    1  A    between atoms: C2_2  and  C3_3 
REMARK    2  A    between atoms: C3_3  and  N1_4 
REMARK       I    between atoms: N1_4  and  C4_6 
REMARK       I    between atoms: C4_6  and  N3_10 
ROOT
HETATM    1  N1  UNL     1       1.638   0.886   0.035  1.00  0.00    -0.223 N 
ATOM      2  H1  UNL     1       1.723   1.883   0.231  1.00  0.00     0.178 HD
HETATM    3  C4  UNL     1       0.713   0.155   0.792  1.00  0.00     0.669 C 
HETATM    4  N2  UNL     1       1.072  -0.498   1.870  1.00  0.00    -0.235 N 
ATOM      5  H21 UNL     1       0.399  -1.030   2.421  1.00  0.00     0.174 HD
ATOM      6  H22 UNL     1       2.061  -0.433   2.111  1.00  0.00     0.174 HD
HETATM    7  N3  UNL     1      -0.667   0.064   0.455  1.00  0.00    -0.218 N 
HETATM    8  C5  UNL     1      -1.339   1.154  -0.239  1.00  0.00     0.141 C 
HETATM    9  C6  UNL     1      -2.784   1.146   0.250  1.00  0.00     0.020 C 
HETATM   10  C7  UNL     1      -3.436  -0.059  -0.377  1.00  0.00     0.003 C 
HETATM   11  C8  UNL     1      -2.592  -1.273  -0.179  1.00  0.00     0.020 C 
HETATM   12  C9  UNL     1      -1.456  -1.094   0.783  1.00  0.00     0.141 C 
ENDROOT
BRANCH   1  13
HETATM   13  C3  UNL     1       2.482   0.334  -1.004  1.00  0.00     0.164 C 
BRANCH  13  14
HETATM   14  C2  UNL     1       3.513  -0.586  -0.503  1.00  0.00    -0.017 C 
HETATM   15  C1  UNL     1       4.791  -0.304  -0.714  1.00  0.00     0.008 C 
ENDBRANCH  13  14
ENDBRANCH   1  13
TORSDOF 2
