REMARK  2 active torsions:
REMARK  status: ('A' for Active; 'I' for Inactive)
REMARK    1  A    between atoms: C2_2  and  C3_3 
REMARK    2  A    between atoms: C3_3  and  N1_4 
REMARK       I    between atoms: C4_6  and  N3_8 
ROOT
HETATM    1  N1  UNL     1       1.372   0.797   0.290  1.00  0.00    -0.361 N 
ATOM      2  H1  UNL     1       0.890   0.913   1.181  1.00  0.00     0.162 HD
HETATM    3  C4  UNL     1       0.679   0.331  -0.648  1.00  0.00     0.186 C 
HETATM    4  N2  UNL     1       1.232   0.124  -1.930  1.00  0.00    -0.064 NA
HETATM    5  N3  UNL     1      -0.678   0.004  -0.433  1.00  0.00    -0.356 N 
HETATM    6  C5  UNL     1      -1.662  -0.082  -1.490  1.00  0.00     0.125 C 
HETATM    7  C6  UNL     1      -2.652  -1.167  -1.067  1.00  0.00     0.020 C 
HETATM    8  C7  UNL     1      -3.482  -0.539   0.058  1.00  0.00     0.003 C 
HETATM    9  C8  UNL     1      -2.590   0.099   1.099  1.00  0.00     0.020 C 
HETATM   10  C9  UNL     1      -1.137  -0.267   0.917  1.00  0.00     0.125 C 
ENDROOT
BRANCH   1  11
HETATM   11  C3  UNL     1       2.744   1.185   0.273  1.00  0.00     0.148 C 
BRANCH  11  12
HETATM   12  C2  UNL     1       3.690   0.096   0.590  1.00  0.00    -0.018 C 
HETATM   13  C1  UNL     1       4.486   0.226   1.634  1.00  0.00     0.008 C 
ENDBRANCH  11  12
ENDBRANCH   1  11
TORSDOF 2
