REMARK  1 active torsions:
REMARK  status: ('A' for Active; 'I' for Inactive)
REMARK       I    between atoms: N1_2  and  C2_3 
REMARK    1  A    between atoms: N1_2  and  C3_8 
ROOT
HETATM    1  C1  UNL     1      -1.566  -1.535  -0.992  1.00  0.00     0.120 C 
HETATM    2  N1  UNL     1      -1.281  -0.650   0.143  1.00  0.00    -0.257 NA
HETATM    3  C2  UNL     1      -2.479   0.048   0.390  1.00  0.00     0.162 C 
HETATM    4  N2  UNL     1      -3.542  -0.670   0.538  1.00  0.00    -0.378 N 
ATOM      5  H21 UNL     1      -4.410  -0.164   0.717  1.00  0.00     0.158 HD
ATOM      6  H22 UNL     1      -3.447  -1.682   0.455  1.00  0.00     0.158 HD
HETATM    7  N3  UNL     1      -2.610   1.442   0.505  1.00  0.00    -0.070 NA
ENDROOT
BRANCH   2   8
HETATM    8  C3  UNL     1      -0.120   0.165  -0.049  1.00  0.00     0.065 C 
HETATM    9  C4  UNL     1       0.686   0.385   1.220  1.00  0.00     0.020 C 
HETATM   10  C5  UNL     1       1.902   1.205   0.788  1.00  0.00     0.002 C 
HETATM   11  C6  UNL     1       2.922   0.275   0.134  1.00  0.00     0.000 C 
HETATM   12  C7  UNL     1       2.142  -0.886  -0.415  1.00  0.00     0.002 C 
HETATM   13  C8  UNL     1       0.859  -0.376  -1.064  1.00  0.00     0.020 C 
ENDBRANCH   2   8
TORSDOF 1
