REMARK  3 active torsions:
REMARK  status: ('A' for Active; 'I' for Inactive)
REMARK    1  A    between atoms: C2_2  and  C4_6 
REMARK    2  A    between atoms: N1_9  and  C7_10 
REMARK    3  A    between atoms: C10_13  and  O1_14 
ROOT
HETATM    1  C4  UNL     1       2.161   0.297  -0.334  1.00  0.00     0.020 C 
HETATM    2  C5  UNL     1       1.475   0.784   0.917  1.00  0.00     0.028 C 
HETATM    3  C6  UNL     1      -0.028   0.825   0.761  1.00  0.00     0.118 C 
HETATM    4  N1  UNL     1      -0.517  -0.409   0.267  1.00  0.00    -0.408 N 
HETATM    5  C12 UNL     1       0.127  -0.897  -0.905  1.00  0.00     0.118 C 
HETATM    6  C13 UNL     1       1.628  -1.078  -0.675  1.00  0.00     0.028 C 
ENDROOT
BRANCH   4   7
HETATM    7  C7  UNL     1      -1.918  -0.586   0.305  1.00  0.00     0.081 C 
HETATM    8  C8  UNL     1      -2.550  -0.581   1.648  1.00  0.00     0.027 C 
HETATM    9  C9  UNL     1      -3.953  -0.011   1.438  1.00  0.00     0.034 C 
HETATM   10  C10 UNL     1      -4.044   0.314  -0.041  1.00  0.00     0.120 C 
HETATM   11  C11 UNL     1      -2.576   0.636  -0.350  1.00  0.00     0.056 C 
BRANCH  10  12
HETATM   12  O1  UNL     1      -4.334  -0.865  -0.721  1.00  0.00    -0.396 OA
ATOM     13  H1  UNL     1      -4.391  -0.661  -1.647  1.00  0.00     0.210 HD
ENDBRANCH  10  12
ENDBRANCH   4   7
BRANCH   1  14
HETATM   14  C2  UNL     1       3.621   0.294  -0.223  1.00  0.00    -0.046 C 
HETATM   15  C1  UNL     1       4.279  -0.570   0.778  1.00  0.00     0.046 C 
HETATM   16  C3  UNL     1       4.347   1.063  -1.017  1.00  0.00     0.105 C 
HETATM   17 CL1  UNL     1       6.103   1.044  -0.868  1.00  0.00    -0.071 Cl
HETATM   18 CL2  UNL     1       3.568   2.094  -2.210  1.00  0.00    -0.071 Cl
ENDBRANCH   1  14
TORSDOF 3
