REMARK  2 active torsions:
REMARK  status: ('A' for Active; 'I' for Inactive)
REMARK       I    between atoms: N1_2  and  C2_4 
REMARK    1  A    between atoms: C2_4  and  C3_6 
REMARK    2  A    between atoms: N2_10  and  C6_11 
ROOT
HETATM    1  C3  UNL     1       2.963   0.352   0.686  1.00  0.00     0.186 C 
HETATM    2  F1  UNL     1       2.238   0.949   1.673  1.00  0.00    -0.233 F 
HETATM    3  C4  UNL     1       2.520  -1.095   0.587  1.00  0.00     0.084 C 
HETATM    4  C5  UNL     1       1.046  -1.149   0.506  1.00  0.00     0.276 C 
HETATM    5  N2  UNL     1       0.353   0.017   0.185  1.00  0.00     0.093 N 
HETATM    6  C14 UNL     1       0.987   1.033  -0.550  1.00  0.00     0.276 C 
HETATM    7  C15 UNL     1       2.481   0.957  -0.640  1.00  0.00     0.084 C 
ENDROOT
BRANCH   5   8
HETATM    8  C6  UNL     1      -0.957  -0.273  -0.357  1.00  0.00     0.223 C 
HETATM    9  C7  UNL     1      -1.741   0.944  -0.717  1.00  0.00     0.036 C 
HETATM   10  C8  UNL     1      -2.934   1.155   0.206  1.00  0.00     0.011 C 
HETATM   11  C9  UNL     1      -3.918   0.015   0.107  1.00  0.00    -0.048 C 
HETATM   12  C10 UNL     1      -4.856   0.222  -1.059  1.00  0.00     0.015 C 
HETATM   13  C11 UNL     1      -4.757  -0.114   1.356  1.00  0.00     0.015 C 
HETATM   14  C12 UNL     1      -3.154  -1.288  -0.072  1.00  0.00     0.011 C 
HETATM   15  C13 UNL     1      -1.799  -1.110   0.585  1.00  0.00     0.036 C 
ENDBRANCH   5   8
BRANCH   1  16
HETATM   16  C2  UNL     1       4.406   0.503   0.819  1.00  0.00     0.257 C 
HETATM   17  N1  UNL     1       5.275  -0.067  -0.138  1.00  0.00    -0.363 N 
HETATM   18  C1  UNL     1       6.719   0.064  -0.037  1.00  0.00     0.149 C 
ATOM     19  H1  UNL     1       4.878  -0.585  -0.922  1.00  0.00     0.162 HD
HETATM   20  O1  UNL     1       4.904   1.137   1.777  1.00  0.00    -0.270 OA
ENDBRANCH   1  16
TORSDOF 2
