REMARK  4 active torsions:
REMARK  status: ('A' for Active; 'I' for Inactive)
REMARK    1  A    between atoms: C1_4  and  O1_5 
REMARK    2  A    between atoms: C1_4  and  C9_17 
REMARK    3  A    between atoms: O1_5  and  C2_6 
REMARK    4  A    between atoms: C2_6  and  C3_7 
REMARK       I    between atoms: C3_7  and  N2_9 
ROOT
HETATM    1  O1  UNL     1      -0.811  -0.078  -1.508  1.00  0.00    -0.330 OA
ENDROOT
BRANCH   1   2
HETATM    2  C1  UNL     1      -1.693  -0.701  -0.609  1.00  0.00     0.119 C 
HETATM    3  N1  UNL     1      -1.210  -1.690   0.041  1.00  0.00    -0.383 N 
ATOM      4  H12 UNL     1      -0.246  -1.994  -0.094  1.00  0.00     0.158 HD
ATOM      5  H11 UNL     1      -1.850  -2.142   0.694  1.00  0.00     0.158 HD
BRANCH   2   6
HETATM    6  C9  UNL     1      -3.068  -0.267  -0.417  1.00  0.00     0.082 C 
HETATM    7  C10 UNL     1      -3.159   1.155   0.067  1.00  0.00    -0.018 C 
HETATM    8  C11 UNL     1      -4.307   1.544   0.571  1.00  0.00    -0.030 C 
HETATM    9  C12 UNL     1      -5.506   0.700   0.699  1.00  0.00     0.027 C 
HETATM   10  C13 UNL     1      -5.236  -0.759   0.731  1.00  0.00     0.005 C 
HETATM   11  C14 UNL     1      -3.776  -1.119   0.585  1.00  0.00     0.017 C 
ENDBRANCH   2   6
ENDBRANCH   1   2
BRANCH   1  12
HETATM   12  C2  UNL     1       0.579  -0.200  -1.429  1.00  0.00     0.280 C 
BRANCH  12  13
HETATM   13  C3  UNL     1       1.150   0.291  -0.159  1.00  0.00     0.244 C 
HETATM   14  O2  UNL     1       0.409   0.762   0.723  1.00  0.00    -0.271 OA
HETATM   15  N2  UNL     1       2.541   0.224   0.048  1.00  0.00    -0.350 N 
HETATM   16  C4  UNL     1       3.450  -0.316  -0.947  1.00  0.00     0.131 C 
HETATM   17  C8  UNL     1       3.108   0.700   1.284  1.00  0.00     0.131 C 
HETATM   18  C5  UNL     1       4.821   0.301  -0.877  1.00  0.00     0.099 C 
HETATM   19  C6  UNL     1       5.384   0.304   0.522  1.00  0.00     0.246 C 
HETATM   20  F1  UNL     1       5.761   1.607   0.813  1.00  0.00    -0.206 F 
HETATM   21  F2  UNL     1       6.483  -0.487   0.649  1.00  0.00    -0.206 F 
HETATM   22  C7  UNL     1       4.361  -0.115   1.551  1.00  0.00     0.099 C 
ENDBRANCH  12  13
ENDBRANCH   1  12
TORSDOF 4
