REMARK  9 active torsions:
REMARK  status: ('A' for Active; 'I' for Inactive)
REMARK    1  A    between atoms: C2_2  and  C3_3 
REMARK    2  A    between atoms: C2_2  and  N3_15 
REMARK    3  A    between atoms: C3_3  and  O1_4 
REMARK    4  A    between atoms: O1_4  and  C4_5 
REMARK       I    between atoms: C4_5  and  N1_7 
REMARK    5  A    between atoms: N1_7  and  C5_9 
REMARK    6  A    between atoms: N3_15  and  C8_17 
REMARK    7  A    between atoms: C17_30  and  C18_31 
REMARK    8  A    between atoms: C18_31  and  O3_32 
REMARK    9  A    between atoms: O3_32  and  C19_33 
ROOT
HETATM    1  C8  UNL     1       0.774  -0.589  -0.537  1.00  0.00     0.146 A 
HETATM    2  N4  UNL     1       0.182  -1.418  -1.386  1.00  0.00    -0.336 N 
ATOM      3  H4  UNL     1       0.738  -1.951  -2.054  1.00  0.00     0.168 HD
HETATM    4  C9  UNL     1      -1.123  -1.548  -1.361  1.00  0.00     0.052 A 
HETATM    5  C10 UNL     1      -1.910  -2.381  -2.188  1.00  0.00     0.034 A 
HETATM    6  C11 UNL     1      -3.273  -2.406  -2.039  1.00  0.00     0.040 A 
HETATM    7  C12 UNL     1      -3.974  -1.666  -1.123  1.00  0.00     0.079 A 
HETATM    8  C13 UNL     1      -3.213  -0.854  -0.316  1.00  0.00     0.034 A 
HETATM    9  C14 UNL     1      -1.818  -0.807  -0.445  1.00  0.00     0.047 A 
HETATM   10  S2  UNL     1      -0.573   0.048   0.347  1.00  0.00    -0.051 SA
HETATM   11  C15 UNL     1      -3.784   0.022   0.734  1.00  0.00     0.138 C 
HETATM   12  C16 UNL     1      -3.847   1.411   0.167  1.00  0.00     0.058 C 
HETATM   13  F1  UNL     1      -2.921   0.037   1.817  1.00  0.00    -0.237 F 
HETATM   14  C17 UNL     1      -5.101  -0.528   1.185  1.00  0.00     0.078 C 
HETATM   15  C20 UNL     1      -6.006  -0.901   0.035  1.00  0.00     0.186 C 
HETATM   16  O4  UNL     1      -5.327  -1.664  -0.946  1.00  0.00    -0.350 OA
ENDROOT
BRANCH   1  17
HETATM   17  N3  UNL     1       2.008  -0.279  -0.352  1.00  0.00    -0.364 N 
ATOM     18  H3  UNL     1       2.255   0.398   0.370  1.00  0.00     0.162 HD
BRANCH  17  19
HETATM   19  C2  UNL     1       3.046  -0.877  -1.154  1.00  0.00     0.104 C 
HETATM   20  C1  UNL     1       3.260  -0.234  -2.473  1.00  0.00     0.034 C 
BRANCH  19  21
HETATM   21  C3  UNL     1       4.260  -1.202  -0.325  1.00  0.00     0.205 C 
BRANCH  21  22
HETATM   22  O1  UNL     1       4.818  -0.173   0.347  1.00  0.00    -0.302 OA
BRANCH  22  23
HETATM   23  C4  UNL     1       5.480   0.917  -0.085  1.00  0.00     0.366 C 
HETATM   24  O2  UNL     1       5.707   1.134  -1.294  1.00  0.00    -0.238 OA
HETATM   25  N1  UNL     1       5.936   1.859   0.920  1.00  0.00    -0.282 N 
ATOM     26  H1  UNL     1       5.332   2.579   1.316  1.00  0.00     0.173 HD
BRANCH  25  27
HETATM   27  C5  UNL     1       7.192   1.707   1.278  1.00  0.00     0.152 A 
HETATM   28  N2  UNL     1       8.102   0.831   0.864  1.00  0.00    -0.346 N 
HETATM   29  C6  UNL     1       9.299   0.872   1.368  1.00  0.00     0.097 A 
ATOM     30  H2  UNL     1       7.863   0.134   0.158  1.00  0.00     0.167 HD
HETATM   31  C7  UNL     1       9.570   1.827   2.311  1.00  0.00     0.070 A 
HETATM   32  S1  UNL     1       8.073   2.636   2.437  1.00  0.00    -0.064 SA
ENDBRANCH  25  27
ENDBRANCH  22  23
ENDBRANCH  21  22
ENDBRANCH  19  21
ENDBRANCH  17  19
ENDBRANCH   1  17
BRANCH  14  33
HETATM   33  C18 UNL     1      -5.766   0.439   2.107  1.00  0.00     0.184 C 
BRANCH  33  34
HETATM   34  O3  UNL     1      -6.028   1.677   1.560  1.00  0.00    -0.332 OA
BRANCH  34  35
HETATM   35  C19 UNL     1      -6.637   2.485   2.490  1.00  0.00     0.500 C 
HETATM   36  F2  UNL     1      -5.812   3.582   2.763  1.00  0.00    -0.185 F 
HETATM   37  F3  UNL     1      -7.846   2.993   2.055  1.00  0.00    -0.185 F 
ENDBRANCH  34  35
ENDBRANCH  33  34
ENDBRANCH  14  33
TORSDOF 9
