REMARK  11 active torsions:
REMARK  status: ('A' for Active; 'I' for Inactive)
REMARK    1  A    between atoms: C2_2  and  O1_3 
REMARK    2  A    between atoms: O1_3  and  C3_4 
REMARK    3  A    between atoms: C3_4  and  C4_6 
REMARK    4  A    between atoms: C4_6  and  C5_7 
REMARK    5  A    between atoms: C5_7  and  O3_8 
REMARK    6  A    between atoms: C5_7  and  C17_25 
REMARK    7  A    between atoms: O3_8  and  C6_9 
REMARK    8  A    between atoms: C11_16  and  C12_17 
REMARK    9  A    between atoms: C12_17  and  O7_19 
REMARK   10  A    between atoms: C22_32  and  C23_33 
REMARK   11  A    between atoms: C24_34  and  N1_35 
ROOT
HETATM    1  C5  UNL     1      -1.815  -0.840  -0.948  1.00  0.00     0.075 C 
ENDROOT
BRANCH   1   2
HETATM    2  C4  UNL     1      -3.062  -0.137  -1.371  1.00  0.00     0.177 C 
BRANCH   2   3
HETATM    3  C3  UNL     1      -2.965   1.255  -1.837  1.00  0.00     0.264 C 
HETATM    4  O2  UNL     1      -2.323   1.650  -2.808  1.00  0.00    -0.265 OA
BRANCH   3   5
HETATM    5  O1  UNL     1      -3.658   2.228  -1.108  1.00  0.00    -0.322 OA
BRANCH   5   6
HETATM    6  C2  UNL     1      -3.789   3.577  -1.224  1.00  0.00     0.174 C 
HETATM    7  C1  UNL     1      -4.419   4.106  -2.494  1.00  0.00     0.034 C 
ENDBRANCH   5   6
ENDBRANCH   3   5
ENDBRANCH   2   3
ENDBRANCH   1   2
BRANCH   1   8
HETATM    8  O3  UNL     1      -1.026  -0.333  -0.008  1.00  0.00    -0.312 OA
BRANCH   8   9
HETATM    9  C6  UNL     1       0.285  -0.068   0.186  1.00  0.00     0.100 A 
HETATM   10  C7  UNL     1       0.637   0.575   1.362  1.00  0.00     0.077 A 
HETATM   11  C8  UNL     1       1.917   0.910   1.699  1.00  0.00     0.093 A 
HETATM   12  O4  UNL     1       2.176   1.528   2.844  1.00  0.00    -0.275 OA
HETATM   13  C14 UNL     1       2.964   0.623   0.869  1.00  0.00     0.016 A 
HETATM   14  C9  UNL     1       3.394   1.861   3.186  1.00  0.00     0.289 A 
HETATM   15  O5  UNL     1       3.573   2.459   4.309  1.00  0.00    -0.260 OA
HETATM   16  C10 UNL     1       4.491   1.613   2.423  1.00  0.00     0.101 A 
HETATM   17  C11 UNL     1       4.260   0.956   1.190  1.00  0.00     0.058 A 
HETATM   18  C15 UNL     1       2.646  -0.019  -0.311  1.00  0.00     0.042 A 
HETATM   19  C16 UNL     1       1.321  -0.363  -0.651  1.00  0.00     0.069 A 
HETATM   20 CL1  UNL     1       1.147  -1.230  -2.181  1.00  0.00    -0.081 Cl
BRANCH  17  21
HETATM   21  C12 UNL     1       5.402   0.731   0.337  1.00  0.00     0.294 C 
HETATM   22  O6  UNL     1       5.406   0.400  -0.849  1.00  0.00    -0.259 OA
BRANCH  21  23
HETATM   23  O7  UNL     1       6.687   0.891   0.896  1.00  0.00    -0.322 OA
HETATM   24  C13 UNL     1       7.856   0.694   0.162  1.00  0.00     0.213 C 
ENDBRANCH  21  23
ENDBRANCH  17  21
ENDBRANCH   8   9
ENDBRANCH   1   8
BRANCH   1  25
HETATM   25  C17 UNL     1      -2.149  -2.322  -0.860  1.00  0.00     0.019 A 
HETATM   26  C18 UNL     1      -2.354  -3.063  -2.027  1.00  0.00     0.058 A 
HETATM   27  C19 UNL     1      -2.469  -4.442  -1.996  1.00  0.00     0.120 A 
HETATM   28  F1  UNL     1      -2.661  -5.192  -3.115  1.00  0.00    -0.206 F 
HETATM   29  C20 UNL     1      -2.378  -5.094  -0.791  1.00  0.00     0.086 A 
HETATM   30  C21 UNL     1      -2.180  -4.344   0.362  1.00  0.00     0.139 A 
HETATM   31  F2  UNL     1      -2.085  -4.942   1.588  1.00  0.00    -0.204 F 
HETATM   32  C22 UNL     1      -2.071  -2.990   0.318  1.00  0.00     0.070 A 
BRANCH  32  33
HETATM   33  C23 UNL     1      -2.099  -2.222   1.565  1.00  0.00    -0.040 C 
HETATM   34  C24 UNL     1      -2.180  -1.563   2.579  1.00  0.00     0.009 C 
BRANCH  34  35
HETATM   35  N1  UNL     1      -2.301  -0.781   3.751  1.00  0.00    -0.359 N 
ATOM     36  H12 UNL     1      -2.890  -0.835   2.920  1.00  0.00     0.166 HD
ATOM     37  H11 UNL     1      -2.369  -0.226   4.604  1.00  0.00     0.166 HD
ENDBRANCH  34  35
ENDBRANCH  32  33
ENDBRANCH   1  25
TORSDOF 11
