REMARK  8 active torsions:
REMARK  status: ('A' for Active; 'I' for Inactive)
REMARK    1  A    between atoms: O1_2  and  C2_3 
REMARK    2  A    between atoms: C4_5  and  C5_6 
REMARK    3  A    between atoms: C5_6  and  O3_8 
REMARK    4  A    between atoms: O3_8  and  C6_9 
REMARK    5  A    between atoms: C6_9  and  C7_10 
REMARK       I    between atoms: C7_10  and  N1_12 
REMARK    6  A    between atoms: N1_12  and  C8_14 
REMARK    7  A    between atoms: C15_27  and  C16_28 
REMARK    8  A    between atoms: C17_33  and  O8_34 
ROOT
HETATM    1  C6  UNL     1       1.552   2.941  -0.368  1.00  0.00     0.282 C 
ENDROOT
BRANCH   1   2
HETATM    2  O3  UNL     1       1.953   1.727   0.219  1.00  0.00    -0.308 OA
BRANCH   2   3
HETATM    3  C5  UNL     1       1.607   0.490  -0.422  1.00  0.00     0.296 C 
HETATM    4  O2  UNL     1       0.980   0.681  -1.464  1.00  0.00    -0.259 OA
BRANCH   3   5
HETATM    5  C4  UNL     1       2.026  -0.735   0.217  1.00  0.00     0.075 A 
HETATM    6  C3  UNL     1       2.719  -0.625   1.441  1.00  0.00     0.061 A 
HETATM    7  C2  UNL     1       3.139  -1.737   2.115  1.00  0.00     0.120 A 
HETATM    8  C17 UNL     1       2.883  -3.010   1.595  1.00  0.00     0.176 A 
HETATM    9  N3  UNL     1       2.232  -3.091   0.445  1.00  0.00    -0.328 N 
HETATM   10  C15 UNL     1       1.792  -1.977  -0.264  1.00  0.00     0.128 A 
ATOM     11  H3  UNL     1       2.043  -4.016   0.059  1.00  0.00     0.168 HD
BRANCH   7  12
HETATM   12  O1  UNL     1       3.819  -1.699   3.312  1.00  0.00    -0.352 OA
HETATM   13  C1  UNL     1       4.186  -0.546   4.023  1.00  0.00     0.210 C 
ENDBRANCH   7  12
BRANCH   8  14
HETATM   14  O8  UNL     1       3.310  -4.129   2.282  1.00  0.00    -0.339 OA
HETATM   15  C18 UNL     1       3.069  -5.430   1.786  1.00  0.00     0.211 C 
ENDBRANCH   8  14
BRANCH  10  16
HETATM   16  C16 UNL     1       1.112  -2.236  -1.503  1.00  0.00     0.228 C 
HETATM   17  O6  UNL     1       0.664  -1.421  -2.296  1.00  0.00    -0.643 OA
HETATM   18  O7  UNL     1       0.935  -3.622  -1.856  1.00  0.00    -0.643 OA
ENDBRANCH  10  16
ENDBRANCH   3   5
ENDBRANCH   2   3
ENDBRANCH   1   2
BRANCH   1  19
HETATM   19  C7  UNL     1       0.102   3.150  -0.422  1.00  0.00     0.249 C 
HETATM   20  O4  UNL     1      -0.285   4.205  -1.034  1.00  0.00    -0.271 OA
HETATM   21  N1  UNL     1      -0.902   2.330   0.121  1.00  0.00    -0.290 N 
ATOM     22  H1  UNL     1      -0.711   1.768   0.950  1.00  0.00     0.172 HD
BRANCH  21  23
HETATM   23  C8  UNL     1      -2.084   2.291  -0.443  1.00  0.00     0.232 A 
HETATM   24  N2  UNL     1      -3.134   1.565  -0.044  1.00  0.00    -0.318 N 
HETATM   25  C9  UNL     1      -4.154   1.800  -0.882  1.00  0.00     0.093 A 
ATOM     26  H2  UNL     1      -3.155   0.939   0.761  1.00  0.00     0.169 HD
HETATM   27  C10 UNL     1      -5.462   1.354  -0.984  1.00  0.00     0.087 A 
HETATM   28  C14 UNL     1      -3.709   2.708  -1.833  1.00  0.00     0.109 A 
HETATM   29 CL1  UNL     1      -6.052   0.204   0.215  1.00  0.00    -0.080 Cl
HETATM   30  C11 UNL     1      -6.306   1.770  -1.968  1.00  0.00     0.080 A 
HETATM   31 CL2  UNL     1      -7.951   1.191  -2.077  1.00  0.00    -0.081 Cl
HETATM   32  C12 UNL     1      -5.845   2.680  -2.914  1.00  0.00     0.060 A 
HETATM   33 CL3  UNL     1      -6.913   3.225  -4.181  1.00  0.00    -0.082 Cl
HETATM   34  C13 UNL     1      -4.552   3.143  -2.841  1.00  0.00     0.065 A 
HETATM   35  O5  UNL     1      -2.464   2.960  -1.512  1.00  0.00    -0.277 OA
ENDBRANCH  21  23
ENDBRANCH   1  19
TORSDOF 8
