REMARK  5 active torsions:
REMARK  status: ('A' for Active; 'I' for Inactive)
REMARK    1  A    between atoms: C2_2  and  C4_4 
REMARK    2  A    between atoms: C2_2  and  C5_6 
REMARK    3  A    between atoms: N1_10  and  O2_12 
REMARK    4  A    between atoms: C9_15  and  C10_16 
REMARK    5  A    between atoms: C13_19  and  N2_20 
ROOT
HETATM    1  C5  UNL     1       2.683   0.020   0.141  1.00  0.00     0.271 C 
HETATM    2  O1  UNL     1       2.275  -0.181  -1.158  1.00  0.00    -0.347 OA
HETATM    3  C6  UNL     1       1.335  -1.220  -1.072  1.00  0.00     0.201 C 
HETATM    4  C7  UNL     1       0.227  -0.982  -1.987  1.00  0.00     0.044 C 
HETATM    5  N1  UNL     1       0.414  -0.321  -3.077  1.00  0.00    -0.275 N 
ATOM      6  H1  UNL     1      -0.369  -0.161  -3.710  1.00  0.00     0.193 HD
HETATM    7  C8  UNL     1      -1.083  -1.503  -1.676  1.00  0.00     0.093 C 
HETATM    8  C9  UNL     1      -1.513  -1.472  -0.221  1.00  0.00     0.071 C 
HETATM    9  N3  UNL     1      -2.550  -2.479  -0.137  1.00  0.00    -0.357 N 
ATOM     10  H3  UNL     1      -3.032  -2.697  -1.009  1.00  0.00     0.162 HD
HETATM   11  C16 UNL     1      -2.975  -3.194   0.996  1.00  0.00     0.134 C 
HETATM   12  N4  UNL     1      -3.991  -3.955   1.063  1.00  0.00    -0.380 N 
ATOM     13  H41 UNL     1      -4.299  -4.474   1.885  1.00  0.00     0.158 HD
ATOM     14  H42 UNL     1      -4.576  -4.079   0.236  1.00  0.00     0.158 HD
HETATM   15  S1  UNL     1      -1.948  -2.977   2.448  1.00  0.00    -0.094 SA
HETATM   16  C17 UNL     1      -0.325  -2.826   1.590  1.00  0.00     0.092 C 
HETATM   17  C18 UNL     1      -0.423  -1.559   0.750  1.00  0.00     0.060 C 
HETATM   18  C19 UNL     1       0.977  -1.259   0.355  1.00  0.00     0.167 C 
HETATM   19  O5  UNL     1       1.480  -0.044   0.845  1.00  0.00    -0.352 OA
ENDROOT
BRANCH   8  20
HETATM   20  C10 UNL     1      -2.271  -0.158  -0.103  1.00  0.00    -0.029 A 
HETATM   21  C11 UNL     1      -3.604  -0.093   0.248  1.00  0.00     0.012 A 
HETATM   22  C12 UNL     1      -4.311   1.085   0.366  1.00  0.00     0.037 A 
HETATM   23  C13 UNL     1      -3.665   2.270   0.124  1.00  0.00     0.102 A 
HETATM   24  C14 UNL     1      -2.338   2.273  -0.230  1.00  0.00     0.037 A 
HETATM   25  C15 UNL     1      -1.662   1.055  -0.338  1.00  0.00     0.012 A 
BRANCH  23  26
HETATM   26  N2  UNL     1      -4.397   3.479   0.251  1.00  0.00    -0.116 N 
HETATM   27  O3  UNL     1      -5.598   3.500   0.572  1.00  0.00    -0.532 OA
HETATM   28  O4  UNL     1      -3.770   4.674   0.014  1.00  0.00    -0.532 OA
ENDBRANCH  23  26
ENDBRANCH   8  20
BRANCH   5  29
HETATM   29  O2  UNL     1       1.642   0.165  -3.392  1.00  0.00    -0.290 OA
ATOM     30  H2  UNL     1       1.780   0.652  -4.196  1.00  0.00     0.244 HD
ENDBRANCH   5  29
BRANCH   1  31
HETATM   31  C2  UNL     1       3.449   1.287   0.346  1.00  0.00     0.028 C 
HETATM   32  C1  UNL     1       2.679   2.522  -0.012  1.00  0.00     0.022 C 
HETATM   33  C3  UNL     1       4.720   1.190  -0.480  1.00  0.00     0.022 C 
BRANCH  31  34
HETATM   34  C4  UNL     1       3.871   1.397   1.802  1.00  0.00     0.235 C 
HETATM   35  F1  UNL     1       4.661   2.537   1.895  1.00  0.00    -0.255 F 
ENDBRANCH  31  34
ENDBRANCH   1  31
TORSDOF 5
