REMARK  6 active torsions:
REMARK  status: ('A' for Active; 'I' for Inactive)
REMARK    1  A    between atoms: O1_2  and  C2_3 
REMARK    2  A    between atoms: C2_3  and  C3_5 
REMARK    3  A    between atoms: C7_17  and  N3_18 
REMARK    4  A    between atoms: N3_18  and  C8_20 
REMARK    5  A    between atoms: C10_22  and  O4_23 
REMARK    6  A    between atoms: C13_26  and  O5_27 
ROOT
HETATM    1  C3  UNL     1      -3.569   0.166  -0.575  1.00  0.00     0.168 C 
HETATM    2  C4  UNL     1      -3.304  -0.109  -2.019  1.00  0.00     0.126 C 
HETATM    3  N1  UNL     1      -4.056  -0.888  -2.718  1.00  0.00    -0.383 N 
ATOM      4  H11 UNL     1      -3.875  -1.076  -3.704  1.00  0.00     0.158 HD
ATOM      5  H12 UNL     1      -4.875  -1.371  -2.348  1.00  0.00     0.158 HD
HETATM    6  O3  UNL     1      -2.189   0.548  -2.523  1.00  0.00    -0.328 OA
HETATM    7  C5  UNL     1      -1.027   0.734  -1.799  1.00  0.00     0.200 C 
HETATM    8  C6  UNL     1       0.020  -0.228  -2.329  1.00  0.00     0.400 C 
HETATM    9  F1  UNL     1      -0.489  -1.044  -3.328  1.00  0.00    -0.216 F 
HETATM   10  N2  UNL     1       0.541  -0.954  -1.213  1.00  0.00    -0.020 N 
ATOM     11  H21 UNL     1       1.538  -1.154  -1.288  1.00  0.00     0.283 HD
ATOM     12  H22 UNL     1       0.223  -1.922  -1.174  1.00  0.00     0.283 HD
HETATM   13  C7  UNL     1       0.195  -0.188  -0.043  1.00  0.00     0.295 C 
HETATM   14  C16 UNL     1      -1.115   0.489  -0.333  1.00  0.00     0.080 C 
HETATM   15  C17 UNL     1      -2.312  -0.213   0.158  1.00  0.00    -0.011 C 
HETATM   16  C18 UNL     1      -2.147  -1.713   0.044  1.00  0.00     0.011 C 
HETATM   17  C19 UNL     1      -3.356  -2.470   0.559  1.00  0.00     0.001 C 
HETATM   18  C20 UNL     1      -3.725  -2.056   1.967  1.00  0.00     0.000 C 
HETATM   19  C21 UNL     1      -2.607  -1.166   2.467  1.00  0.00     0.001 C 
HETATM   20  C22 UNL     1      -2.547   0.096   1.629  1.00  0.00     0.011 C 
ENDROOT
BRANCH  13  21
HETATM   21  N3  UNL     1       1.232   0.838   0.107  1.00  0.00    -0.362 N 
ATOM     22  H3  UNL     1       0.949   1.816   0.047  1.00  0.00     0.161 HD
BRANCH  21  23
HETATM   23  C8  UNL     1       2.574   0.560   0.325  1.00  0.00     0.034 A 
HETATM   24  C9  UNL     1       3.498   1.572   0.385  1.00  0.00     0.066 A 
HETATM   25  C10 UNL     1       4.848   1.366   0.603  1.00  0.00     0.073 A 
HETATM   26  C12 UNL     1       5.282   0.068   0.769  1.00  0.00     0.073 A 
HETATM   27  C13 UNL     1       4.386  -0.972   0.715  1.00  0.00     0.073 A 
HETATM   28  C15 UNL     1       3.023  -0.731   0.492  1.00  0.00     0.066 A 
BRANCH  25  29
HETATM   29  O4  UNL     1       5.701   2.454   0.647  1.00  0.00    -0.356 OA
HETATM   30  C11 UNL     1       7.077   2.337   0.862  1.00  0.00     0.210 C 
ENDBRANCH  25  29
BRANCH  27  31
HETATM   31  O5  UNL     1       4.785  -2.281   0.876  1.00  0.00    -0.356 OA
HETATM   32  C14 UNL     1       6.136  -2.560   1.100  1.00  0.00     0.210 C 
ENDBRANCH  27  31
ENDBRANCH  21  23
ENDBRANCH  13  21
BRANCH   1  33
HETATM   33  C2  UNL     1      -3.900   1.605  -0.480  1.00  0.00     0.271 C 
HETATM   34  O2  UNL     1      -3.308   2.465   0.177  1.00  0.00    -0.264 OA
BRANCH  33  35
HETATM   35  O1  UNL     1      -5.014   2.051  -1.219  1.00  0.00    -0.326 OA
HETATM   36  C1  UNL     1      -5.397   3.421  -1.180  1.00  0.00     0.213 C 
ENDBRANCH  33  35
ENDBRANCH   1  33
TORSDOF 6
