REMARK  8 active torsions:
REMARK  status: ('A' for Active; 'I' for Inactive)
REMARK    1  A    between atoms: N1_2  and  C2_4 
REMARK    2  A    between atoms: C2_4  and  C3_5 
REMARK    3  A    between atoms: C11_13  and  C12_14 
REMARK    4  A    between atoms: C12_14  and  N2_15 
REMARK    5  A    between atoms: C12_14  and  N3_18 
REMARK    6  A    between atoms: N3_18  and  C13_20 
REMARK    7  A    between atoms: C13_20  and  C14_21 
REMARK    8  A    between atoms: C14_21  and  N4_22 
ROOT
HETATM    1  C3  UNL     1      -2.104   0.165  -0.255  1.00  0.00    -0.029 A 
HETATM    2  C4  UNL     1      -3.467  -0.123  -0.235  1.00  0.00     0.010 A 
HETATM    3  C5  UNL     1      -4.036  -1.250   0.261  1.00  0.00     0.002 A 
HETATM    4  C6  UNL     1      -3.222  -2.194   0.793  1.00  0.00     0.012 A 
HETATM    5  C7  UNL     1      -1.858  -1.985   0.814  1.00  0.00    -0.024 A 
HETATM    6  C8  UNL     1      -1.147  -2.964   1.478  1.00  0.00     0.012 A 
HETATM    7  C9  UNL     1       0.189  -2.749   1.617  1.00  0.00     0.002 A 
HETATM    8  C10 UNL     1       0.774  -1.632   1.123  1.00  0.00     0.016 A 
HETATM    9  C11 UNL     1       0.039  -0.599   0.418  1.00  0.00     0.019 A 
HETATM   10  C15 UNL     1      -1.281  -0.827   0.297  1.00  0.00    -0.004 A 
ENDROOT
BRANCH   9  11
HETATM   11  C12 UNL     1       0.871   0.321  -0.252  1.00  0.00     0.109 C 
BRANCH  11  12
HETATM   12  N2  UNL     1       0.973   0.992  -1.195  1.00  0.00    -0.385 N 
ATOM     13  H22 UNL     1       0.199   0.741  -1.810  1.00  0.00     0.157 HD
ATOM     14  H21 UNL     1       1.575   1.658  -1.680  1.00  0.00     0.157 HD
ENDBRANCH  11  12
BRANCH  11  15
HETATM   15  N3  UNL     1       2.029   0.697   0.669  1.00  0.00    -0.354 N 
ATOM     16  H3  UNL     1       1.969   0.442   1.655  1.00  0.00     0.166 HD
BRANCH  15  17
HETATM   17  C13 UNL     1       3.169   1.375   0.225  1.00  0.00     0.089 C 
BRANCH  17  18
HETATM   18  C14 UNL     1       3.996   0.533  -0.710  1.00  0.00     0.274 C 
BRANCH  18  19
HETATM   19  N4  UNL     1       4.420  -0.658  -0.056  1.00  0.00    -0.075 N 
ATOM     20  H43 UNL     1       4.913  -0.459   0.815  1.00  0.00     0.274 HD
ATOM     21  H42 UNL     1       3.634  -1.180   0.332  1.00  0.00     0.274 HD
ATOM     22  H41 UNL     1       4.980  -1.228  -0.689  1.00  0.00     0.274 HD
ENDBRANCH  18  19
ENDBRANCH  17  18
ENDBRANCH  15  17
ENDBRANCH  11  15
ENDBRANCH   9  11
BRANCH   1  23
HETATM   23  C2  UNL     1      -1.633   1.435  -0.775  1.00  0.00     0.157 C 
BRANCH  23  24
HETATM   24  N1  UNL     1      -2.869   2.196  -1.123  1.00  0.00    -0.404 N 
HETATM   25  C1  UNL     1      -2.711   3.385  -1.581  1.00  0.00     0.112 C 
ATOM     26  H1  UNL     1      -3.797   1.790  -1.002  1.00  0.00     0.158 HD
ENDBRANCH  23  24
ENDBRANCH   1  23
TORSDOF 8
