REMARK  4 active torsions:
REMARK  status: ('A' for Active; 'I' for Inactive)
REMARK    1  A    between atoms: N2_3  and  C2_5 
REMARK    2  A    between atoms: N3_6  and  C3_8 
REMARK    3  A    between atoms: C7_14  and  C8_15 
REMARK    4  A    between atoms: N6_17  and  C9_19 
ROOT
HETATM    1  C3  UNL     1       1.726  -1.372   0.536  1.00  0.00     0.049 A 
HETATM    2  C4  UNL     1       2.581  -2.090   1.349  1.00  0.00     0.047 A 
HETATM    3  C5  UNL     1       2.122  -2.819   2.433  1.00  0.00     0.090 A 
HETATM    4  N4  UNL     1       0.800  -2.810   2.678  1.00  0.00    -0.374 N 
ATOM      5  H4  UNL     1       0.454  -3.345   3.475  1.00  0.00     0.164 HD
HETATM    6  C6  UNL     1      -0.092  -2.135   1.931  1.00  0.00     0.104 A 
HETATM    7  C7  UNL     1       0.384  -1.409   0.848  1.00  0.00     0.047 A 
ENDROOT
BRANCH   7   8
HETATM    8  C8  UNL     1      -0.557  -0.682   0.035  1.00  0.00     0.130 C 
HETATM    9  N5  UNL     1      -0.095   0.060  -1.073  1.00  0.00    -0.082 NA
HETATM   10  N6  UNL     1      -1.808  -0.708   0.317  1.00  0.00    -0.344 N 
ATOM     11  H6  UNL     1      -2.108  -1.254   1.125  1.00  0.00     0.167 HD
BRANCH  10  12
HETATM   12  C9  UNL     1      -2.791  -0.025  -0.427  1.00  0.00     0.033 A 
HETATM   13  C10 UNL     1      -2.949   1.340  -0.376  1.00  0.00     0.029 A 
HETATM   14  C11 UNL     1      -3.929   1.959  -1.126  1.00  0.00     0.002 A 
HETATM   15  C12 UNL     1      -4.779   1.244  -1.946  1.00  0.00     0.000 A 
HETATM   16  C13 UNL     1      -4.632  -0.125  -2.007  1.00  0.00     0.002 A 
HETATM   17  C14 UNL     1      -3.636  -0.743  -1.244  1.00  0.00     0.029 A 
ENDBRANCH  10  12
ENDBRANCH   7   8
BRANCH   1  18
HETATM   18  N3  UNL     1       2.147  -0.623  -0.566  1.00  0.00    -0.351 N 
HETATM   19  C2  UNL     1       3.123   0.174  -0.643  1.00  0.00     0.181 C 
ATOM     20  H3  UNL     1       1.595  -0.734  -1.417  1.00  0.00     0.166 HD
BRANCH  19  21
HETATM   21  N2  UNL     1       3.948   0.400   0.479  1.00  0.00    -0.350 N 
HETATM   22  C1  UNL     1       4.252   1.542   0.951  1.00  0.00     0.190 C 
HETATM   23  N1  UNL     1       3.829   2.787   0.451  1.00  0.00    -0.097 NA
ATOM     24  H2  UNL     1       4.332  -0.419   0.950  1.00  0.00     0.167 HD
ENDBRANCH  19  21
ENDBRANCH   1  18
TORSDOF 4
