REMARK  3 active torsions:
REMARK  status: ('A' for Active; 'I' for Inactive)
REMARK    1  A    between atoms: C2_2  and  C3_3 
REMARK    2  A    between atoms: N1_5  and  N2_7 
REMARK    3  A    between atoms: C4_8  and  C5_9 
ROOT
HETATM    1  N2  UNL     1       0.401   1.001  -0.203  1.00  0.00    -0.210 N 
HETATM    2  C4  UNL     1       1.578   0.407   0.029  1.00  0.00     0.164 A 
HETATM    3  N3  UNL     1       2.302   1.311   0.726  1.00  0.00    -0.281 N 
ATOM      4  H3  UNL     1       3.254   1.156   1.057  1.00  0.00     0.188 HD
HETATM    5  N4  UNL     1       1.614   2.422   0.923  1.00  0.00    -0.273 N 
ATOM      6  H4  UNL     1       1.928   3.257   1.418  1.00  0.00     0.189 HD
HETATM    7  C7  UNL     1       0.417   2.231   0.340  1.00  0.00     0.214 A 
HETATM    8  S3  UNL     1      -0.759   3.366   0.345  1.00  0.00    -0.037 SA
ENDROOT
BRANCH   1   9
HETATM    9  N1  UNL     1      -0.647   0.425  -0.891  1.00  0.00    -0.298 N 
HETATM   10  C2  UNL     1      -1.630  -0.205  -0.373  1.00  0.00     0.014 C 
HETATM   11  C1  UNL     1      -2.679  -0.766  -1.241  1.00  0.00     0.066 C 
ATOM     12  H1  UNL     1      -0.636   0.510  -1.907  1.00  0.00     0.187 HD
BRANCH  10  13
HETATM   13  C3  UNL     1      -1.688  -0.353   1.092  1.00  0.00     0.168 C 
HETATM   14 CL1  UNL     1      -3.202   0.423   1.674  1.00  0.00    -0.124 Cl
ENDBRANCH  10  13
ENDBRANCH   1   9
BRANCH   2  15
HETATM   15  C5  UNL     1       2.014  -0.941  -0.376  1.00  0.00     0.088 A 
HETATM   16  S1  UNL     1       1.208  -2.170  -1.249  1.00  0.00    -0.045 SA
HETATM   17  S2  UNL     1       2.904  -3.212  -0.996  1.00  0.00    -0.038 SA
HETATM   18  C6  UNL     1       3.161  -1.688  -0.224  1.00  0.00     0.102 A 
HETATM   19 CL2  UNL     1       4.687  -1.282   0.590  1.00  0.00    -0.074 Cl
ENDBRANCH   2  15
TORSDOF 3
