REMARK  4 active torsions:
REMARK  status: ('A' for Active; 'I' for Inactive)
REMARK    1  A    between atoms: C3_5  and  N2_6 
REMARK    2  A    between atoms: C4_7  and  C5_8 
REMARK    3  A    between atoms: C5_8  and  S1_9 
REMARK    4  A    between atoms: S1_9  and  C6_10 
ROOT
HETATM    1  N2  UNL     1       0.761  -0.725   1.071  1.00  0.00    -0.253 N 
HETATM    2  C4  UNL     1       1.990  -0.233   1.041  1.00  0.00     0.116 A 
HETATM    3  N3  UNL     1       2.761  -1.187   1.654  1.00  0.00    -0.286 N 
ATOM      4  H3  UNL     1       3.769  -1.124   1.800  1.00  0.00     0.188 HD
HETATM    5  N4  UNL     1       2.000  -2.200   2.027  1.00  0.00    -0.274 N 
ATOM      6  H4  UNL     1       2.319  -3.043   2.505  1.00  0.00     0.189 HD
HETATM    7  C7  UNL     1       0.731  -1.930   1.668  1.00  0.00     0.200 A 
HETATM    8  S2  UNL     1      -0.550  -2.917   1.937  1.00  0.00    -0.038 SA
ENDROOT
BRANCH   1   9
HETATM    9  C3  UNL     1      -0.455  -0.135   0.554  1.00  0.00     0.159 A 
HETATM   10  N1  UNL     1      -1.554  -0.773   0.165  1.00  0.00    -0.339 N 
HETATM   11  C2  UNL     1      -2.567  -0.111  -0.278  1.00  0.00     0.020 A 
ATOM     12  H1  UNL     1      -1.596  -1.791   0.217  1.00  0.00     0.168 HD
HETATM   13  C1  UNL     1      -3.844  -0.791  -0.732  1.00  0.00     0.069 C 
HETATM   14  C8  UNL     1      -2.465   1.257  -0.331  1.00  0.00     0.004 A 
HETATM   15  S3  UNL     1      -0.886   1.489   0.275  1.00  0.00    -0.056 SA
HETATM   16  C9  UNL     1      -3.489   2.253  -0.803  1.00  0.00     0.058 C 
ENDBRANCH   1   9
BRANCH   2  17
HETATM   17  C5  UNL     1       2.458   1.057   0.485  1.00  0.00     0.157 C 
BRANCH  17  18
HETATM   18  S1  UNL     1       2.897   0.962  -1.259  1.00  0.00    -0.093 SA
BRANCH  18  19
HETATM   19  C6  UNL     1       4.347  -0.088  -1.532  1.00  0.00     0.416 C 
HETATM   20  F1  UNL     1       5.449   0.523  -0.940  1.00  0.00    -0.203 F 
HETATM   21  F2  UNL     1       4.597  -0.095  -2.904  1.00  0.00    -0.203 F 
ENDBRANCH  18  19
ENDBRANCH  17  18
ENDBRANCH   2  17
TORSDOF 4
