REMARK  4 active torsions:
REMARK  status: ('A' for Active; 'I' for Inactive)
REMARK    1  A    between atoms: O1_2  and  C2_3 
REMARK    2  A    between atoms: C3_4  and  N1_5 
REMARK    3  A    between atoms: C6_14  and  N4_15 
REMARK    4  A    between atoms: N4_15  and  C7_17 
ROOT
HETATM    1  C2  UNL     1      -0.371  -0.254  -0.007  1.00  0.00     0.132 A 
HETATM    2  C3  UNL     1      -1.618  -0.004  -0.509  1.00  0.00     0.126 A 
HETATM    3  S1  UNL     1      -1.457   1.533  -1.218  1.00  0.00    -0.055 SA
HETATM    4  C4  UNL     1       0.178   1.832  -0.868  1.00  0.00     0.117 A 
HETATM    5  C5  UNL     1       0.997   2.999  -1.194  1.00  0.00     0.109 C 
HETATM    6  N3  UNL     1       1.631   3.927  -1.444  1.00  0.00    -0.191 NA
HETATM    7  C6  UNL     1       0.570   0.708  -0.195  1.00  0.00     0.098 A 
ENDROOT
BRANCH   7   8
HETATM    8  N4  UNL     1       1.951   0.586   0.284  1.00  0.00    -0.337 N 
ATOM      9  H4  UNL     1       2.707   0.471  -0.391  1.00  0.00     0.167 HD
BRANCH   8  10
HETATM   10  C7  UNL     1       2.223   0.621   1.530  1.00  0.00     0.151 C 
HETATM   11 CL1  UNL     1       0.910   0.818   2.663  1.00  0.00    -0.056 Cl
HETATM   12 BR1  UNL     1       4.037   0.457   2.095  1.00  0.00    -0.017 Br
ENDBRANCH   8  10
ENDBRANCH   7   8
BRANCH   2  13
HETATM   13  N1  UNL     1      -2.765  -0.881  -0.425  1.00  0.00    -0.298 N 
HETATM   14  N2  UNL     1      -3.919  -0.409  -0.229  1.00  0.00    -0.344 N 
ATOM     15  H22 UNL     1      -4.026   0.601  -0.131  1.00  0.00     0.176 HD
ATOM     16  H21 UNL     1      -4.728  -1.028  -0.170  1.00  0.00     0.176 HD
ATOM     17  H1  UNL     1      -2.640  -1.888  -0.525  1.00  0.00     0.187 HD
ENDBRANCH   2  13
BRANCH   1  18
HETATM   18  O1  UNL     1      -0.091  -1.482   0.683  1.00  0.00    -0.351 OA
HETATM   19  C1  UNL     1       0.370  -2.576  -0.115  1.00  0.00     0.210 C 
ENDBRANCH   1  18
TORSDOF 4
