REMARK  6 active torsions:
REMARK  status: ('A' for Active; 'I' for Inactive)
REMARK    1  A    between atoms: C2_2  and  O1_3 
REMARK    2  A    between atoms: O1_3  and  C3_4 
REMARK    3  A    between atoms: C3_4  and  C4_6 
REMARK    4  A    between atoms: C5_12  and  N3_13 
REMARK    5  A    between atoms: N4_15  and  C6_17 
REMARK    6  A    between atoms: C6_17  and  C7_21 
ROOT
HETATM    1  C4  UNL     1      -0.344   0.467  -1.060  1.00  0.00     0.161 A 
HETATM    2  N1  UNL     1      -0.373   0.432  -2.358  1.00  0.00    -0.286 N 
ATOM      3  H1  UNL     1      -1.129  -0.060  -2.834  1.00  0.00     0.188 HD
HETATM    4  N2  UNL     1       0.547   1.015  -3.052  1.00  0.00    -0.267 N 
ATOM      5  H2  UNL     1       0.638   1.061  -4.067  1.00  0.00     0.195 HD
HETATM    6  S1  UNL     1       1.557   1.679  -1.887  1.00  0.00     0.024 SA
HETATM    7  C5  UNL     1       0.725   1.162  -0.492  1.00  0.00     0.141 A 
ENDROOT
BRANCH   7   8
HETATM    8  N3  UNL     1       0.968   1.341   0.903  1.00  0.00    -0.289 N 
HETATM    9  N4  UNL     1       2.098   1.264   1.381  1.00  0.00    -0.286 N 
ATOM     10  H4  UNL     1       2.140   1.411   2.389  1.00  0.00     0.188 HD
ATOM     11  H3  UNL     1       0.181   1.539   1.521  1.00  0.00     0.188 HD
BRANCH   9  12
HETATM   12  C6  UNL     1       3.332   1.010   0.783  1.00  0.00     0.123 C 
HETATM   13  N5  UNL     1       4.029   1.911   0.185  1.00  0.00    -0.386 N 
ATOM     14  H52 UNL     1       3.651   2.857   0.143  1.00  0.00     0.157 HD
ATOM     15  H51 UNL     1       4.932   1.725  -0.252  1.00  0.00     0.157 HD
BRANCH  12  16
HETATM   16  C7  UNL     1       3.884  -0.371   0.844  1.00  0.00     0.246 C 
HETATM   17 CL1  UNL     1       2.804  -1.545   0.065  1.00  0.00    -0.100 Cl
HETATM   18 CL2  UNL     1       5.453  -0.466   0.020  1.00  0.00    -0.100 Cl
ENDBRANCH  12  16
ENDBRANCH   9  12
ENDBRANCH   7   8
BRANCH   1  19
HETATM   19  C3  UNL     1      -1.392  -0.197  -0.229  1.00  0.00     0.314 C 
HETATM   20  O2  UNL     1      -1.333  -0.143   1.015  1.00  0.00    -0.257 OA
BRANCH  19  21
HETATM   21  O1  UNL     1      -2.442  -0.879  -0.798  1.00  0.00    -0.317 OA
BRANCH  21  22
HETATM   22  C2  UNL     1      -3.465  -1.528  -0.106  1.00  0.00     0.175 C 
HETATM   23  C1  UNL     1      -4.273  -0.619   0.783  1.00  0.00     0.034 C 
ENDBRANCH  21  22
ENDBRANCH  19  21
ENDBRANCH   1  19
TORSDOF 6
