REMARK  19 active torsions:
REMARK  status: ('A' for Active; 'I' for Inactive)
REMARK    1  A    between atoms: C2_2  and  C3_3 
REMARK    2  A    between atoms: C3_3  and  N1_4 
REMARK    3  A    between atoms: C3_3  and  C4_8 
REMARK       I    between atoms: C4_8  and  N2_10 
REMARK       I    between atoms: N3_13  and  C7_14 
REMARK       I    between atoms: C7_14  and  N4_16 
REMARK    4  A    between atoms: N4_16  and  C8_18 
REMARK    5  A    between atoms: C8_18  and  C9_19 
REMARK    6  A    between atoms: C8_18  and  C13_27 
REMARK    7  A    between atoms: C9_19  and  C10_20 
REMARK    8  A    between atoms: C10_20  and  C11_21 
REMARK    9  A    between atoms: C11_21  and  N5_22 
REMARK       I    between atoms: N5_22  and  C12_24 
REMARK       I    between atoms: C13_27  and  N8_29 
REMARK   10  A    between atoms: N8_29  and  C14_31 
REMARK   11  A    between atoms: C14_31  and  C15_32 
REMARK   12  A    between atoms: C14_31  and  C17_34 
REMARK   13  A    between atoms: C17_34  and  O4_35 
REMARK   14  A    between atoms: C17_34  and  N9_37 
REMARK   15  A    between atoms: N9_37  and  C19_39 
REMARK   16  A    between atoms: C19_39  and  C20_40 
REMARK   17  A    between atoms: C19_39  and  C26_46 
REMARK   18  A    between atoms: C26_46  and  C27_47 
REMARK   19  A    between atoms: C27_47  and  C28_48 
ROOT
HETATM    1  C8  UNL     1       2.191   1.947  -0.756  1.00  0.00     0.178 C 
ENDROOT
BRANCH   1   2
HETATM    2  N4  UNL     1       3.175   0.958  -0.415  1.00  0.00    -0.330 N 
HETATM    3  C7  UNL     1       4.042   1.010   0.725  1.00  0.00     0.319 C 
HETATM    4  N3  UNL     1       4.979  -0.017   0.970  1.00  0.00    -0.331 N 
HETATM    5  O2  UNL     1       3.997   1.959   1.533  1.00  0.00    -0.247 OA
HETATM    6  C6  UNL     1       5.831   0.051   2.135  1.00  0.00     0.147 C 
HETATM    7  C34 UNL     1       5.136  -1.165   0.083  1.00  0.00     0.147 C 
HETATM    8  C5  UNL     1       6.024  -1.285   2.784  1.00  0.00     0.145 C 
HETATM    9  N2  UNL     1       6.556  -2.207   1.764  1.00  0.00    -0.347 N 
HETATM   10  C4  UNL     1       7.104  -3.433   2.177  1.00  0.00     0.250 C 
HETATM   11  C35 UNL     1       6.473  -1.850   0.377  1.00  0.00     0.145 C 
HETATM   12  O1  UNL     1       7.069  -3.686   3.422  1.00  0.00    -0.271 OA
ATOM     13  H4  UNL     1       3.264   0.153  -1.035  1.00  0.00     0.165 HD
BRANCH  10  14
HETATM   14  C3  UNL     1       7.709  -4.446   1.316  1.00  0.00     0.274 C 
BRANCH  14  15
HETATM   15  C2  UNL     1       9.221  -4.316   1.174  1.00  0.00     0.038 C 
HETATM   16  C1  UNL     1       9.668  -3.064   0.505  1.00  0.00     0.007 C 
ENDBRANCH  14  15
BRANCH  14  17
HETATM   17  N1  UNL     1       7.563  -5.759   2.001  1.00  0.00    -0.067 N 
ATOM     18  H13 UNL     1       8.019  -6.541   1.531  1.00  0.00     0.275 HD
ATOM     19  H12 UNL     1       8.085  -5.849   2.873  1.00  0.00     0.275 HD
ATOM     20  H11 UNL     1       6.551  -5.846   2.096  1.00  0.00     0.275 HD
ENDBRANCH  14  17
ENDBRANCH  10  14
ENDBRANCH   1   2
BRANCH   1  21
HETATM   21  C9  UNL     1       2.197   2.437  -2.151  1.00  0.00     0.036 C 
BRANCH  21  22
HETATM   22  C10 UNL     1       3.487   3.077  -2.546  1.00  0.00     0.022 C 
BRANCH  22  23
HETATM   23  C11 UNL     1       3.746   4.265  -1.647  1.00  0.00     0.122 C 
BRANCH  23  24
HETATM   24  N5  UNL     1       4.983   4.939  -2.006  1.00  0.00    -0.367 N 
HETATM   25  C12 UNL     1       5.101   6.212  -2.091  1.00  0.00     0.196 C 
HETATM   26  N6  UNL     1       4.044   7.133  -1.846  1.00  0.00    -0.067 NA
HETATM   27  N7  UNL     1       6.367   6.743  -2.455  1.00  0.00    -0.067 NA
ATOM     28  H5  UNL     1       5.804   4.366  -2.201  1.00  0.00     0.161 HD
ENDBRANCH  23  24
ENDBRANCH  22  23
ENDBRANCH  21  22
ENDBRANCH   1  21
BRANCH   1  29
HETATM   29  C13 UNL     1       0.808   1.444  -0.413  1.00  0.00     0.241 C 
HETATM   30  O3  UNL     1       0.693   0.324   0.139  1.00  0.00    -0.271 OA
HETATM   31  N8  UNL     1      -0.348   2.194  -0.695  1.00  0.00    -0.347 N 
ATOM     32  H8  UNL     1      -0.264   3.103  -1.149  1.00  0.00     0.163 HD
BRANCH  31  33
HETATM   33  C14 UNL     1      -1.698   1.668  -0.334  1.00  0.00     0.159 C 
BRANCH  33  34
HETATM   34  C15 UNL     1      -2.462   2.756   0.327  1.00  0.00     0.029 C 
HETATM   35  C16 UNL     1      -2.694   3.970  -0.522  1.00  0.00     0.007 C 
ENDBRANCH  33  34
BRANCH  33  36
HETATM   36  C17 UNL     1      -2.333   1.136  -1.542  1.00  0.00     0.141 C 
BRANCH  36  37
HETATM   37  O4  UNL     1      -1.748   1.529  -2.687  1.00  0.00    -0.348 OA
ATOM     38  H4  UNL     1      -2.160   1.184  -3.470  1.00  0.00     0.219 HD
ENDBRANCH  36  37
BRANCH  36  39
HETATM   39  N9  UNL     1      -3.404   0.300  -1.776  1.00  0.00    -0.338 N 
HETATM   40  C18 UNL     1      -3.597   0.031  -3.270  1.00  0.00     0.158 C 
BRANCH  39  41
HETATM   41  C19 UNL     1      -4.398  -0.363  -0.994  1.00  0.00     0.013 C 
BRANCH  41  42
HETATM   42  C20 UNL     1      -3.834  -1.296  -0.046  1.00  0.00     0.028 C 
HETATM   43  C21 UNL     1      -3.563  -1.269   1.222  1.00  0.00    -0.078 C 
HETATM   44  C22 UNL     1      -2.950  -2.462   1.956  1.00  0.00     0.034 C 
HETATM   45  C25 UNL     1      -3.671  -0.288   2.327  1.00  0.00     0.034 C 
HETATM   46  C23 UNL     1      -3.877  -2.560   3.139  1.00  0.00     0.005 C 
HETATM   47  C24 UNL     1      -4.335  -1.129   3.424  1.00  0.00     0.005 C 
ENDBRANCH  41  42
BRANCH  41  48
HETATM   48  C26 UNL     1      -5.512   0.530  -0.620  1.00  0.00     0.057 C 
BRANCH  48  49
HETATM   49  C27 UNL     1      -6.645  -0.070   0.149  1.00  0.00     0.010 C 
BRANCH  49  50
HETATM   50  C28 UNL     1      -7.327  -1.213  -0.517  1.00  0.00    -0.014 C 
HETATM   51  C29 UNL     1      -7.930  -0.876  -1.836  1.00  0.00     0.004 C 
HETATM   52  C30 UNL     1      -8.371  -2.150  -2.545  1.00  0.00     0.000 C 
HETATM   53  C31 UNL     1      -9.002  -3.116  -1.550  1.00  0.00     0.000 C 
HETATM   54  C32 UNL     1      -9.590  -2.277  -0.433  1.00  0.00     0.000 C 
HETATM   55  C33 UNL     1      -8.484  -1.652   0.389  1.00  0.00     0.004 C 
ENDBRANCH  49  50
ENDBRANCH  48  49
ENDBRANCH  41  48
ENDBRANCH  39  41
ENDBRANCH  36  39
ENDBRANCH  33  36
ENDBRANCH  31  33
ENDBRANCH   1  29
TORSDOF 19
