REMARK  18 active torsions:
REMARK  status: ('A' for Active; 'I' for Inactive)
REMARK    1  A    between atoms: C2_2  and  C3_3 
REMARK    2  A    between atoms: C3_3  and  C4_4 
REMARK    3  A    between atoms: C4_4  and  C5_5 
REMARK    4  A    between atoms: C5_5  and  N1_6 
REMARK    5  A    between atoms: C5_5  and  C27_39 
REMARK       I    between atoms: N1_6  and  C6_8 
REMARK    6  A    between atoms: C6_8  and  C7_10 
REMARK    7  A    between atoms: C7_10  and  C8_11 
REMARK    8  A    between atoms: C7_10  and  N2_18 
REMARK    9  A    between atoms: C8_11  and  C9_12 
REMARK   10  A    between atoms: N2_18  and  C15_20 
REMARK   11  A    between atoms: C15_20  and  O2_21 
REMARK   12  A    between atoms: C15_20  and  C16_23 
REMARK   13  A    between atoms: C21_28  and  C22_29 
REMARK   14  A    between atoms: C21_28  and  C23_32 
REMARK   15  A    between atoms: C23_32  and  O5_33 
REMARK   16  A    between atoms: N3_35  and  C25_37 
REMARK       I    between atoms: C27_39  and  N4_41 
REMARK   17  A    between atoms: C29_43  and  C30_44 
REMARK   18  A    between atoms: C30_44  and  C31_45 
REMARK       I    between atoms: N5_48  and  C34_49 
ROOT
HETATM    1  C7  UNL     1       1.141   1.055  -1.258  1.00  0.00     0.175 C 
ENDROOT
BRANCH   1   2
HETATM    2  C6  UNL     1      -0.328   0.727  -1.489  1.00  0.00     0.241 C 
HETATM    3  N1  UNL     1      -1.381   1.595  -1.205  1.00  0.00    -0.346 N 
ATOM      4  H1  UNL     1      -1.168   2.512  -0.813  1.00  0.00     0.163 HD
HETATM    5  O1  UNL     1      -0.593  -0.404  -1.962  1.00  0.00    -0.271 OA
BRANCH   3   6
HETATM    6  C5  UNL     1      -2.783   1.240  -1.448  1.00  0.00     0.176 C 
BRANCH   6   7
HETATM    7  C4  UNL     1      -3.520   2.366  -2.084  1.00  0.00     0.035 C 
BRANCH   7   8
HETATM    8  C3  UNL     1      -3.518   3.621  -1.207  1.00  0.00     0.002 C 
BRANCH   8   9
HETATM    9  C2  UNL     1      -4.315   4.689  -1.961  1.00  0.00    -0.004 C 
HETATM   10  C1  UNL     1      -4.351   5.970  -1.134  1.00  0.00     0.005 C 
ENDBRANCH   8   9
ENDBRANCH   7   8
ENDBRANCH   6   7
BRANCH   6  11
HETATM   11  C27 UNL     1      -3.422   0.822  -0.164  1.00  0.00     0.243 C 
HETATM   12  O6  UNL     1      -2.730   1.013   0.895  1.00  0.00    -0.271 OA
HETATM   13  N4  UNL     1      -4.705   0.240  -0.050  1.00  0.00    -0.334 N 
HETATM   14  C28 UNL     1      -5.197  -0.082   1.277  1.00  0.00     0.134 C 
HETATM   15  C35 UNL     1      -5.502  -0.053  -1.217  1.00  0.00     0.256 C 
HETATM   16  C29 UNL     1      -5.967  -1.374   1.312  1.00  0.00     0.022 C 
HETATM   17  C33 UNL     1      -6.963  -1.479   0.198  1.00  0.00     0.135 C 
HETATM   18  N5  UNL     1      -6.233  -1.285  -1.044  1.00  0.00    -0.320 N 
HETATM   19  C34 UNL     1      -6.233  -2.264  -2.073  1.00  0.00     0.332 C 
HETATM   20  N6  UNL     1      -6.953  -3.480  -1.944  1.00  0.00    -0.040 NA
HETATM   21  O7  UNL     1      -5.580  -2.048  -3.127  1.00  0.00    -0.251 OA
BRANCH  16  22
HETATM   22  C30 UNL     1      -6.585  -1.617   2.649  1.00  0.00     0.007 C 
BRANCH  22  23
HETATM   23  C31 UNL     1      -7.350  -2.932   2.631  1.00  0.00    -0.004 C 
HETATM   24  C32 UNL     1      -6.475  -4.110   2.305  1.00  0.00     0.005 C 
ENDBRANCH  22  23
ENDBRANCH  16  22
ENDBRANCH   6  11
ENDBRANCH   3   6
ENDBRANCH   1   2
BRANCH   1  25
HETATM   25  C8  UNL     1       1.262   2.336  -0.590  1.00  0.00     0.039 C 
BRANCH  25  26
HETATM   26  C9  UNL     1       2.548   2.947  -0.235  1.00  0.00    -0.012 C 
HETATM   27  C10 UNL     1       3.426   2.235   0.717  1.00  0.00     0.005 C 
HETATM   28  C11 UNL     1       2.929   2.487   2.149  1.00  0.00     0.000 C 
HETATM   29  C12 UNL     1       3.356   3.894   2.546  1.00  0.00     0.000 C 
HETATM   30  C13 UNL     1       3.355   4.735   1.286  1.00  0.00     0.000 C 
HETATM   31  C14 UNL     1       2.228   4.322   0.404  1.00  0.00     0.005 C 
ENDBRANCH  25  26
ENDBRANCH   1  25
BRANCH   1  32
HETATM   32  N2  UNL     1       1.794  -0.128  -0.768  1.00  0.00    -0.361 N 
ATOM     33  H2  UNL     1       1.608  -0.417   0.192  1.00  0.00     0.162 HD
BRANCH  32  34
HETATM   34  C15 UNL     1       2.674  -0.910  -1.535  1.00  0.00     0.117 C 
BRANCH  34  35
HETATM   35  O2  UNL     1       2.830  -0.409  -2.737  1.00  0.00    -0.349 OA
ATOM     36  H2  UNL     1       3.425  -0.938  -3.256  1.00  0.00     0.219 HD
ENDBRANCH  34  35
BRANCH  34  37
HETATM   37  C16 UNL     1       3.401  -2.137  -1.213  1.00  0.00     0.087 C 
HETATM   38  C17 UNL     1       4.147  -2.608  -2.447  1.00  0.00     0.014 C 
HETATM   39  C18 UNL     1       5.094  -3.692  -2.345  1.00  0.00     0.001 C 
HETATM   40  C19 UNL     1       5.604  -4.062  -0.995  1.00  0.00     0.002 C 
HETATM   41  C20 UNL     1       4.733  -3.634   0.119  1.00  0.00     0.030 C 
HETATM   42  C21 UNL     1       4.222  -2.198   0.020  1.00  0.00     0.123 C 
BRANCH  42  43
HETATM   43  C22 UNL     1       3.296  -2.056   1.206  1.00  0.00     0.191 C 
HETATM   44  O3  UNL     1       3.456  -1.203   2.080  1.00  0.00    -0.647 OA
HETATM   45  O4  UNL     1       2.242  -2.940   1.280  1.00  0.00    -0.647 OA
ENDBRANCH  42  43
BRANCH  42  46
HETATM   46  C23 UNL     1       5.341  -1.272   0.077  1.00  0.00     0.133 C 
HETATM   47  N3  UNL     1       6.364  -1.012   0.943  1.00  0.00    -0.369 N 
HETATM   48  C24 UNL     1       7.269   0.130   0.647  1.00  0.00     0.151 C 
BRANCH  46  49
HETATM   49  O5  UNL     1       5.380  -0.468  -0.976  1.00  0.00    -0.348 OA
ATOM     50  H5  UNL     1       6.111   0.137  -0.939  1.00  0.00     0.219 HD
ENDBRANCH  46  49
BRANCH  47  51
HETATM   51  C25 UNL     1       6.751  -1.720   2.116  1.00  0.00     0.119 C 
HETATM   52  C26 UNL     1       7.861  -2.754   1.864  1.00  0.00     0.026 C 
ENDBRANCH  47  51
ENDBRANCH  42  46
ENDBRANCH  34  37
ENDBRANCH  32  34
ENDBRANCH   1  32
TORSDOF 18
