REMARK  17 active torsions:
REMARK  status: ('A' for Active; 'I' for Inactive)
REMARK    1  A    between atoms: C2_2  and  C3_3 
REMARK    2  A    between atoms: C3_3  and  C4_4 
REMARK    3  A    between atoms: C4_4  and  C5_5 
REMARK    4  A    between atoms: C5_5  and  C6_6 
REMARK    5  A    between atoms: C6_6  and  C7_7 
REMARK    6  A    between atoms: C7_7  and  N1_8 
REMARK    7  A    between atoms: C7_7  and  C26_40 
REMARK       I    between atoms: N1_8  and  C8_10 
REMARK    8  A    between atoms: C8_10  and  C9_12 
REMARK    9  A    between atoms: C9_12  and  C10_13 
REMARK   10  A    between atoms: C9_12  and  N3_18 
REMARK   11  A    between atoms: C10_13  and  C11_14 
REMARK   12  A    between atoms: C11_14  and  C12_15 
REMARK       I    between atoms: N3_18  and  C13_20 
REMARK   13  A    between atoms: C13_20  and  C14_22 
REMARK       I    between atoms: N4_26  and  C18_27 
REMARK   14  A    between atoms: C18_27  and  C19_29 
REMARK   15  A    between atoms: C19_29  and  N5_30 
REMARK   16  A    between atoms: C19_29  and  C20_34 
REMARK       I    between atoms: C26_40  and  N6_42 
REMARK   17  A    between atoms: C34_50  and  C35_51 
ROOT
HETATM    1  C9  UNL     1       0.086  -0.735  -2.161  1.00  0.00     0.177 C 
ENDROOT
BRANCH   1   2
HETATM    2  C8  UNL     1      -1.253  -0.219  -1.807  1.00  0.00     0.241 C 
HETATM    3  N1  UNL     1      -2.052  -0.870  -0.836  1.00  0.00    -0.346 N 
ATOM      4  H1  UNL     1      -1.684  -1.707  -0.384  1.00  0.00     0.163 HD
HETATM    5  O1  UNL     1      -1.689   0.807  -2.365  1.00  0.00    -0.271 OA
BRANCH   3   6
HETATM    6  C7  UNL     1      -3.399  -0.390  -0.446  1.00  0.00     0.176 C 
BRANCH   6   7
HETATM    7  C6  UNL     1      -3.144   0.222   0.946  1.00  0.00     0.035 C 
BRANCH   7   8
HETATM    8  C5  UNL     1      -2.118   1.337   0.835  1.00  0.00     0.002 C 
BRANCH   8   9
HETATM    9  C4  UNL     1      -1.872   1.961   2.189  1.00  0.00     0.000 C 
BRANCH   9  10
HETATM   10  C3  UNL     1      -1.339   0.939   3.145  1.00  0.00    -0.000 C 
BRANCH  10  11
HETATM   11  C2  UNL     1      -1.110   1.649   4.468  1.00  0.00    -0.005 C 
HETATM   12  C1  UNL     1      -0.105   2.766   4.187  1.00  0.00     0.005 C 
ENDBRANCH  10  11
ENDBRANCH   9  10
ENDBRANCH   8   9
ENDBRANCH   7   8
ENDBRANCH   6   7
BRANCH   6  13
HETATM   13  C26 UNL     1      -4.248  -1.561  -0.294  1.00  0.00     0.243 C 
HETATM   14  O5  UNL     1      -3.638  -2.700  -0.418  1.00  0.00    -0.271 OA
HETATM   15  N6  UNL     1      -5.621  -1.664  -0.042  1.00  0.00    -0.333 N 
HETATM   16  C27 UNL     1      -6.497  -0.533   0.170  1.00  0.00     0.088 C 
HETATM   17  C34 UNL     1      -6.229  -2.995  -0.028  1.00  0.00     0.177 C 
HETATM   18  C28 UNL     1      -6.865  -0.397   1.617  1.00  0.00     0.025 C 
HETATM   19  C32 UNL     1      -7.801  -0.754  -0.589  1.00  0.00     0.030 C 
HETATM   20  C29 UNL     1      -8.323  -0.161   1.884  1.00  0.00     0.002 C 
HETATM   21  C30 UNL     1      -9.184  -1.282   1.325  1.00  0.00     0.005 C 
HETATM   22  C31 UNL     1      -8.504  -1.895   0.104  1.00  0.00    -0.010 C 
HETATM   23  C33 UNL     1      -7.623  -3.031   0.493  1.00  0.00     0.039 C 
BRANCH  17  24
HETATM   24  C35 UNL     1      -6.178  -3.596  -1.403  1.00  0.00     0.254 C 
HETATM   25  N7  UNL     1      -6.650  -4.905  -1.644  1.00  0.00    -0.060 NA
HETATM   26  O6  UNL     1      -5.713  -2.924  -2.338  1.00  0.00    -0.275 OA
ENDBRANCH  17  24
ENDBRANCH   6  13
ENDBRANCH   3   6
ENDBRANCH   1   2
BRANCH   1  27
HETATM   27  C10 UNL     1      -0.039  -1.596  -3.423  1.00  0.00     0.043 C 
BRANCH  27  28
HETATM   28  C11 UNL     1       1.352  -2.097  -3.754  1.00  0.00     0.102 C 
BRANCH  28  29
HETATM   29  C12 UNL     1       1.276  -2.940  -4.961  1.00  0.00     0.231 C 
HETATM   30  N2  UNL     1       2.445  -3.485  -5.573  1.00  0.00    -0.062 NA
HETATM   31  O2  UNL     1       0.182  -3.200  -5.480  1.00  0.00    -0.277 OA
ENDBRANCH  28  29
ENDBRANCH  27  28
ENDBRANCH   1  27
BRANCH   1  32
HETATM   32  N3  UNL     1       1.089   0.275  -2.334  1.00  0.00    -0.346 N 
HETATM   33  C13 UNL     1       2.313   0.199  -1.615  1.00  0.00     0.241 C 
HETATM   34  O3  UNL     1       2.469  -0.781  -0.842  1.00  0.00    -0.271 OA
ATOM     35  H3  UNL     1       0.924   1.051  -2.975  1.00  0.00     0.163 HD
BRANCH  33  36
HETATM   36  C14 UNL     1       3.405   1.196  -1.718  1.00  0.00     0.179 C 
HETATM   37  C15 UNL     1       4.023   1.322  -3.056  1.00  0.00     0.037 C 
HETATM   38  C16 UNL     1       5.183   0.382  -3.043  1.00  0.00     0.022 C 
HETATM   39  C17 UNL     1       5.208  -0.222  -1.633  1.00  0.00     0.127 C 
HETATM   40  N4  UNL     1       4.505   0.734  -0.853  1.00  0.00    -0.337 N 
HETATM   41  C18 UNL     1       4.676   1.252   0.447  1.00  0.00     0.251 C 
HETATM   42  O4  UNL     1       3.882   2.175   0.869  1.00  0.00    -0.271 OA
BRANCH  41  43
HETATM   43  C19 UNL     1       5.697   0.857   1.443  1.00  0.00     0.278 C 
BRANCH  43  44
HETATM   44  N5  UNL     1       6.379  -0.381   1.125  1.00  0.00    -0.066 N 
ATOM     45  H53 UNL     1       5.707  -1.135   0.982  1.00  0.00     0.275 HD
ATOM     46  H52 UNL     1       6.787  -0.336   0.191  1.00  0.00     0.275 HD
ATOM     47  H51 UNL     1       7.083  -0.653   1.811  1.00  0.00     0.275 HD
ENDBRANCH  43  44
BRANCH  43  48
HETATM   48  C20 UNL     1       6.687   1.990   1.674  1.00  0.00     0.025 C 
HETATM   49  C21 UNL     1       7.710   1.602   2.687  1.00  0.00     0.007 C 
HETATM   50  C22 UNL     1       9.039   2.317   2.408  1.00  0.00     0.000 C 
HETATM   51  C23 UNL     1       8.834   3.709   1.872  1.00  0.00     0.000 C 
HETATM   52  C24 UNL     1       8.036   3.728   0.605  1.00  0.00     0.000 C 
HETATM   53  C25 UNL     1       7.382   2.380   0.391  1.00  0.00     0.007 C 
ENDBRANCH  43  48
ENDBRANCH  41  43
ENDBRANCH  33  36
ENDBRANCH   1  32
TORSDOF 17
