REMARK  19 active torsions:
REMARK  status: ('A' for Active; 'I' for Inactive)
REMARK    1  A    between atoms: C2_2  and  C3_3 
REMARK    2  A    between atoms: C3_3  and  C4_4 
REMARK    3  A    between atoms: C4_4  and  C5_5 
REMARK    4  A    between atoms: C5_5  and  C6_6 
REMARK    5  A    between atoms: C6_6  and  C7_7 
REMARK    6  A    between atoms: C7_7  and  N1_8 
REMARK    7  A    between atoms: N1_8  and  C8_10 
REMARK    8  A    between atoms: C8_10  and  O1_11 
REMARK    9  A    between atoms: C8_10  and  C9_13 
REMARK   10  A    between atoms: C9_13  and  C10_14 
REMARK   11  A    between atoms: C10_14  and  C11_15 
REMARK   12  A    between atoms: C11_15  and  C12_16 
REMARK   13  A    between atoms: N2_28  and  C23_29 
REMARK   14  A    between atoms: C23_29  and  C24_30 
REMARK   15  A    between atoms: C24_30  and  N3_31 
REMARK       I    between atoms: N3_31  and  C25_33 
REMARK   16  A    between atoms: C25_33  and  C26_35 
REMARK   17  A    between atoms: C29_38  and  S1_39 
REMARK   18  A    between atoms: N5_44  and  C31_45 
REMARK   19  A    between atoms: C31_45  and  C32_46 
ROOT
HETATM    1  C3  UNL     1       1.827  -0.074   0.934  1.00  0.00     0.125 C 
HETATM    2  C22 UNL     1       2.749   0.260  -0.216  1.00  0.00     0.256 C 
HETATM    3  O2  UNL     1       2.482   0.368  -1.437  1.00  0.00    -0.270 OA
HETATM    4  N2  UNL     1       4.050   0.447   0.324  1.00  0.00    -0.253 N 
HETATM    5  N5  UNL     1       3.913   0.699   1.713  1.00  0.00    -0.245 N 
HETATM    6  C33 UNL     1       2.507   0.663   2.019  1.00  0.00     0.257 C 
HETATM    7  O7  UNL     1       2.000   1.185   3.045  1.00  0.00    -0.270 OA
ENDROOT
BRANCH   1   8
HETATM    8  C2  UNL     1       1.963  -1.563   1.128  1.00  0.00     0.025 C 
HETATM    9  C1  UNL     1       1.555  -2.355  -0.084  1.00  0.00     0.007 C 
ENDBRANCH   1   8
BRANCH   1  10
HETATM   10  C4  UNL     1       0.443   0.372   0.627  1.00  0.00     0.029 C 
BRANCH  10  11
HETATM   11  C5  UNL     1      -0.531   0.020   1.695  1.00  0.00     0.003 C 
BRANCH  11  12
HETATM   12  C6  UNL     1      -1.950   0.489   1.344  1.00  0.00     0.020 C 
BRANCH  12  13
HETATM   13  C7  UNL     1      -2.849   0.079   2.496  1.00  0.00     0.121 C 
BRANCH  13  14
HETATM   14  N1  UNL     1      -4.252   0.502   2.229  1.00  0.00    -0.371 N 
ATOM     15  H1  UNL     1      -4.512   0.994   1.374  1.00  0.00     0.161 HD
BRANCH  14  16
HETATM   16  C8  UNL     1      -5.195   0.187   3.215  1.00  0.00     0.135 C 
BRANCH  16  17
HETATM   17  O1  UNL     1      -4.758  -0.445   4.268  1.00  0.00    -0.346 OA
ATOM     18  H1  UNL     1      -5.398  -0.659   4.937  1.00  0.00     0.219 HD
ENDBRANCH  16  17
BRANCH  16  19
HETATM   19  C9  UNL     1      -6.590   0.468   3.223  1.00  0.00     0.051 C 
BRANCH  19  20
HETATM   20  C10 UNL     1      -7.406   1.052   2.420  1.00  0.00    -0.022 C 
BRANCH  20  21
HETATM   21  C11 UNL     1      -7.246   1.700   1.116  1.00  0.00     0.036 C 
BRANCH  21  22
HETATM   22  C12 UNL     1      -8.108   0.956   0.104  1.00  0.00    -0.036 C 
HETATM   23  C13 UNL     1      -7.688  -0.480   0.006  1.00  0.00     0.014 C 
HETATM   24  C14 UNL     1      -8.563  -1.150  -1.035  1.00  0.00    -0.013 C 
HETATM   25  C15 UNL     1      -8.344  -0.538  -2.393  1.00  0.00     0.009 C 
HETATM   26  C19 UNL     1     -10.030  -1.009  -0.706  1.00  0.00     0.009 C 
HETATM   27  C16 UNL     1      -8.673   0.927  -2.326  1.00  0.00    -0.013 C 
HETATM   28  C17 UNL     1     -10.145   1.073  -2.001  1.00  0.00     0.009 C 
HETATM   29  C21 UNL     1      -7.884   1.629  -1.246  1.00  0.00     0.014 C 
HETATM   30  C18 UNL     1     -10.400   0.463  -0.653  1.00  0.00    -0.013 C 
HETATM   31  C20 UNL     1      -9.556   1.090   0.438  1.00  0.00     0.014 C 
ENDBRANCH  21  22
ENDBRANCH  20  21
ENDBRANCH  19  20
ENDBRANCH  16  19
ENDBRANCH  14  16
ENDBRANCH  13  14
ENDBRANCH  12  13
ENDBRANCH  11  12
ENDBRANCH  10  11
ENDBRANCH   1  10
BRANCH   4  32
HETATM   32  C23 UNL     1       5.307   0.404  -0.346  1.00  0.00     0.172 C 
BRANCH  32  33
HETATM   33  C24 UNL     1       5.915  -1.002  -0.363  1.00  0.00     0.145 C 
BRANCH  33  34
HETATM   34  N3  UNL     1       7.179  -0.905  -1.058  1.00  0.00    -0.354 N 
HETATM   35  C25 UNL     1       8.020  -2.045  -1.260  1.00  0.00     0.268 C 
HETATM   36  O3  UNL     1       7.645  -3.163  -0.821  1.00  0.00    -0.266 OA
ATOM     37  H3  UNL     1       7.480   0.002  -1.415  1.00  0.00     0.162 HD
BRANCH  35  38
HETATM   38  C26 UNL     1       9.296  -1.937  -1.960  1.00  0.00     0.101 A 
HETATM   39  C27 UNL     1      10.169  -2.950  -2.217  1.00  0.00     0.038 A 
HETATM   40  C28 UNL     1      11.235  -2.402  -2.889  1.00  0.00     0.041 A 
HETATM   41  C29 UNL     1      11.022  -1.060  -3.046  1.00  0.00     0.100 A 
HETATM   42  N4  UNL     1       9.839  -0.798  -2.475  1.00  0.00    -0.344 N 
ATOM     43  H4  UNL     1       9.406   0.124  -2.432  1.00  0.00     0.167 HD
BRANCH  41  44
HETATM   44  S1  UNL     1      12.080   0.121  -3.834  1.00  0.00     0.062 S 
HETATM   45  C30 UNL     1      13.186   0.820  -2.604  1.00  0.00     0.134 C 
HETATM   46  O4  UNL     1      12.964  -0.608  -5.063  1.00  0.00    -0.252 OA
ENDBRANCH  41  44
ENDBRANCH  35  38
ENDBRANCH  33  34
ENDBRANCH  32  33
ENDBRANCH   4  32
BRANCH   5  47
HETATM   47  C31 UNL     1       4.918   0.956   2.689  1.00  0.00     0.265 C 
BRANCH  47  48
HETATM   48  C32 UNL     1       5.262   2.363   2.856  1.00  0.00     0.193 C 
HETATM   49  O5  UNL     1       4.694   3.242   2.172  1.00  0.00    -0.647 OA
HETATM   50  O6  UNL     1       6.219   2.751   3.772  1.00  0.00    -0.647 OA
ENDBRANCH  47  48
ENDBRANCH   5  47
TORSDOF 19
