REMARK  7 active torsions:
REMARK  status: ('A' for Active; 'I' for Inactive)
REMARK    1  A    between atoms: C2_2  and  C3_3 
REMARK    2  A    between atoms: C4_4  and  O1_5 
REMARK    3  A    between atoms: C7_13  and  N2_14 
REMARK       I    between atoms: N2_14  and  C8_16 
REMARK    4  A    between atoms: C8_16  and  C9_18 
REMARK    5  A    between atoms: C9_18  and  C10_19 
REMARK    6  A    between atoms: C10_19  and  S1_20 
REMARK    7  A    between atoms: S1_20  and  C11_21 
ROOT
HETATM    1  C3  UNL     1      -3.022  -0.443   1.083  1.00  0.00     0.021 A 
HETATM    2  C4  UNL     1      -4.221  -0.244   1.782  1.00  0.00     0.149 A 
HETATM    3  N1  UNL     1      -4.509   0.860   2.468  1.00  0.00    -0.326 N 
ATOM      4  H1  UNL     1      -5.399   0.951   2.958  1.00  0.00     0.169 HD
HETATM    5  C5  UNL     1      -3.604   1.850   2.502  1.00  0.00     0.129 A 
HETATM    6 CL1  UNL     1      -3.935   3.344   3.400  1.00  0.00    -0.062 Cl
HETATM    7  C6  UNL     1      -2.416   1.738   1.851  1.00  0.00     0.100 A 
HETATM    8 CL2  UNL     1      -1.198   3.004   1.863  1.00  0.00    -0.079 Cl
HETATM    9  C7  UNL     1      -2.094   0.549   1.104  1.00  0.00     0.070 A 
ENDROOT
BRANCH   9  10
HETATM   10  N2  UNL     1      -1.008   0.552   0.543  1.00  0.00    -0.325 N 
HETATM   11  C8  UNL     1      -0.180  -0.146  -0.241  1.00  0.00     0.222 C 
HETATM   12  O2  UNL     1      -0.372  -0.223  -1.520  1.00  0.00    -0.273 OA
ATOM     13  H2  UNL     1      -0.553   1.439   0.759  1.00  0.00     0.169 HD
BRANCH  11  14
HETATM   14  C9  UNL     1       1.035  -0.906   0.206  1.00  0.00     0.113 C 
BRANCH  14  15
HETATM   15  C10 UNL     1       1.742  -1.528  -0.973  1.00  0.00     0.084 C 
BRANCH  15  16
HETATM   16  S1  UNL     1       2.326  -0.347  -2.187  1.00  0.00    -0.160 SA
BRANCH  16  17
HETATM   17  C11 UNL     1       3.656   0.691  -1.595  1.00  0.00    -0.003 C 
HETATM   18  C12 UNL     1       3.274   1.639  -0.490  1.00  0.00     0.026 C 
HETATM   19  C13 UNL     1       4.255   1.545  -2.701  1.00  0.00     0.026 C 
HETATM   20  C14 UNL     1       4.815  -0.182  -1.094  1.00  0.00     0.026 C 
ENDBRANCH  16  17
ENDBRANCH  15  16
ENDBRANCH  14  15
ENDBRANCH  11  14
ENDBRANCH   9  10
BRANCH   1  21
HETATM   21  C2  UNL     1      -2.846  -1.715   0.367  1.00  0.00     0.041 C 
HETATM   22  C1  UNL     1      -3.661  -1.617  -0.932  1.00  0.00     0.010 C 
ENDBRANCH   1  21
BRANCH   2  23
HETATM   23  O1  UNL     1      -5.163  -1.249   1.760  1.00  0.00    -0.346 OA
ATOM     24  H1  UNL     1      -5.975  -1.114   2.234  1.00  0.00     0.219 HD
ENDBRANCH   2  23
TORSDOF 7
