REMARK  5 active torsions:
REMARK  status: ('A' for Active; 'I' for Inactive)
REMARK    1  A    between atoms: C2_2  and  C3_3 
REMARK    2  A    between atoms: C3_3  and  N1_5 
REMARK    3  A    between atoms: N1_5  and  C5_7 
REMARK    4  A    between atoms: C8_10  and  C9_11 
REMARK    5  A    between atoms: C16_23  and  C17_24 
ROOT
HETATM    1  C5  UNL     1      -1.958  -0.197  -0.211  1.00  0.00     0.101 A 
HETATM    2  C6  UNL     1      -1.499   0.248   1.005  1.00  0.00     0.049 A 
HETATM    3  C7  UNL     1      -0.141   0.417   1.171  1.00  0.00     0.018 A 
HETATM    4  C8  UNL     1       0.754   0.142   0.124  1.00  0.00     0.000 A 
HETATM    5  C16 UNL     1       0.264  -0.293  -1.064  1.00  0.00     0.025 A 
HETATM    6  N3  UNL     1      -1.075  -0.452  -1.200  1.00  0.00    -0.345 N 
ATOM      7  H3  UNL     1      -1.434  -0.781  -2.096  1.00  0.00     0.167 HD
ENDROOT
BRANCH   4   8
HETATM    8  C9  UNL     1       2.155   0.294   0.480  1.00  0.00     0.017 A 
HETATM    9  C10 UNL     1       3.042  -0.749   0.415  1.00  0.00     0.054 A 
HETATM   10  C11 UNL     1       4.369  -0.601   0.818  1.00  0.00     0.101 A 
HETATM   11  C12 UNL     1       4.822   0.602   1.295  1.00  0.00     0.068 A 
HETATM   12  O1  UNL     1       5.425  -1.488   0.843  1.00  0.00    -0.296 OA
HETATM   13  C13 UNL     1       3.933   1.673   1.368  1.00  0.00     0.075 A 
HETATM   14  N2  UNL     1       6.203   0.483   1.637  1.00  0.00    -0.336 N 
HETATM   15  C14 UNL     1       2.617   1.499   0.960  1.00  0.00     0.129 A 
HETATM   16  F1  UNL     1       1.767   2.566   1.042  1.00  0.00    -0.205 F 
HETATM   17  C15 UNL     1       6.531  -0.921   1.522  1.00  0.00     0.421 C 
ATOM     18  H2  UNL     1       6.833   1.238   1.908  1.00  0.00     0.165 HD
HETATM   19  F2  UNL     1       7.680  -1.027   0.760  1.00  0.00    -0.195 F 
ENDBRANCH   4   8
BRANCH   5  20
HETATM   20  C17 UNL     1       1.156  -0.527  -2.222  1.00  0.00     0.028 C 
HETATM   21  C18 UNL     1       0.405  -1.231  -3.346  1.00  0.00     0.016 C 
HETATM   22  C19 UNL     1       1.597   0.829  -2.813  1.00  0.00     0.016 C 
ENDBRANCH   5  20
BRANCH   1  23
HETATM   23  N1  UNL     1      -3.217  -0.360  -0.386  1.00  0.00    -0.372 N 
ATOM     24  H1  UNL     1      -3.548  -0.691  -1.292  1.00  0.00     0.161 HD
BRANCH  23  25
HETATM   25  C3  UNL     1      -4.173  -0.095   0.640  1.00  0.00     0.078 C 
HETATM   26  C4  UNL     1      -4.287  -1.273   1.620  1.00  0.00     0.032 C 
BRANCH  25  27
HETATM   27  C2  UNL     1      -5.520   0.061  -0.079  1.00  0.00     0.020 C 
HETATM   28  C1  UNL     1      -6.648   0.335   0.862  1.00  0.00     0.007 C 
ENDBRANCH  25  27
ENDBRANCH  23  25
ENDBRANCH   1  23
TORSDOF 5
