REMARK  7 active torsions:
REMARK  status: ('A' for Active; 'I' for Inactive)
REMARK    1  A    between atoms: C2_2  and  C3_3 
REMARK    2  A    between atoms: C3_3  and  C4_4 
REMARK       I    between atoms: C4_4  and  N1_6 
REMARK    3  A    between atoms: N1_6  and  C5_8 
REMARK    4  A    between atoms: C6_11  and  C7_12 
REMARK    5  A    between atoms: C7_12  and  C10_15 
REMARK    6  A    between atoms: C11_19  and  N3_20 
REMARK       I    between atoms: N3_20  and  C12_22 
REMARK    7  A    between atoms: C12_22  and  C13_24 
ROOT
HETATM    1  C5  UNL     1       1.225  -1.366  -1.114  1.00  0.00     0.153 A 
HETATM    2  N2  UNL     1       1.144  -0.193  -0.479  1.00  0.00    -0.337 N 
ATOM      3  H2  UNL     1       1.988   0.315  -0.215  1.00  0.00     0.168 HD
HETATM    4  C6  UNL     1      -0.044   0.292  -0.202  1.00  0.00     0.062 A 
HETATM    5  C11 UNL     1      -1.128  -0.464  -0.596  1.00  0.00     0.103 A 
HETATM    6  S1  UNL     1      -0.403  -1.806  -1.330  1.00  0.00    -0.034 SA
ENDROOT
BRANCH   1   7
HETATM    7  N1  UNL     1       2.308  -2.024  -1.483  1.00  0.00    -0.307 N 
HETATM    8  C4  UNL     1       3.596  -1.542  -1.239  1.00  0.00     0.223 C 
HETATM    9  O1  UNL     1       4.183  -0.897  -2.150  1.00  0.00    -0.273 OA
ATOM     10  H1  UNL     1       2.200  -2.917  -1.964  1.00  0.00     0.171 HD
BRANCH   8  11
HETATM   11  C3  UNL     1       4.328  -1.742   0.036  1.00  0.00     0.103 C 
BRANCH  11  12
HETATM   12  C2  UNL     1       5.698  -1.104  -0.007  1.00  0.00     0.005 C 
HETATM   13  C1  UNL     1       6.376  -1.350   1.320  1.00  0.00     0.005 C 
ENDBRANCH  11  12
ENDBRANCH   8  11
ENDBRANCH   1   7
BRANCH   4  14
HETATM   14  C7  UNL     1      -0.234   1.615   0.518  1.00  0.00     0.095 C 
HETATM   15  C8  UNL     1      -0.969   1.444   1.796  1.00  0.00     0.031 C 
HETATM   16  C9  UNL     1      -1.072   2.562  -0.353  1.00  0.00     0.031 C 
BRANCH  14  17
HETATM   17  C10 UNL     1       1.057   2.330   0.760  1.00  0.00     0.400 C 
HETATM   18  F1  UNL     1       1.741   2.631  -0.405  1.00  0.00    -0.170 F 
HETATM   19  F2  UNL     1       0.803   3.589   1.344  1.00  0.00    -0.170 F 
HETATM   20  F3  UNL     1       1.806   1.668   1.698  1.00  0.00    -0.170 F 
ENDBRANCH  14  17
ENDBRANCH   4  14
BRANCH   5  21
HETATM   21  N3  UNL     1      -2.516  -0.217  -0.441  1.00  0.00    -0.319 N 
HETATM   22  C12 UNL     1      -3.472  -1.141  -0.931  1.00  0.00     0.226 C 
HETATM   23  O2  UNL     1      -3.067  -2.181  -1.504  1.00  0.00    -0.273 OA
ATOM     24  H3  UNL     1      -2.829   0.633   0.027  1.00  0.00     0.169 HD
BRANCH  22  25
HETATM   25  C13 UNL     1      -4.930  -0.928  -0.794  1.00  0.00     0.070 C 
HETATM   26  C14 UNL     1      -5.271   0.360  -1.513  1.00  0.00     0.019 C 
HETATM   27  C15 UNL     1      -5.241  -0.834   0.687  1.00  0.00     0.019 C 
ENDBRANCH  22  25
ENDBRANCH   5  21
TORSDOF 7
