REMARK  5 active torsions:
REMARK  status: ('A' for Active; 'I' for Inactive)
REMARK    1  A    between atoms: C2_2  and  C3_3 
REMARK    2  A    between atoms: C3_3  and  N1_5 
REMARK    3  A    between atoms: N1_5  and  C5_7 
REMARK    4  A    between atoms: C7_11  and  S1_12 
REMARK    5  A    between atoms: S1_12  and  C8_13 
ROOT
HETATM    1  C5  UNL     1      -2.115  -0.690   0.223  1.00  0.00     0.141 A 
HETATM    2  N2  UNL     1      -1.362   0.022   1.074  1.00  0.00    -0.349 N 
ATOM      3  H2  UNL     1      -1.746   0.882   1.467  1.00  0.00     0.167 HD
HETATM    4  C6  UNL     1      -0.122  -0.353   1.429  1.00  0.00     0.109 A 
HETATM    5  C7  UNL     1       0.474  -1.509   0.940  1.00  0.00     0.031 A 
HETATM    6  C15 UNL     1      -0.256  -2.257   0.077  1.00  0.00    -0.001 A 
HETATM    7  C16 UNL     1       0.273  -3.517  -0.482  1.00  0.00     0.053 C 
HETATM    8  C17 UNL     1      -1.535  -1.861  -0.284  1.00  0.00     0.167 A 
HETATM    9  F2  UNL     1      -2.248  -2.635  -1.157  1.00  0.00    -0.202 F 
ENDROOT
BRANCH   5  10
HETATM   10  S1  UNL     1       2.135  -1.924   1.509  1.00  0.00    -0.067 SA
BRANCH  10  11
HETATM   11  C8  UNL     1       3.376  -1.066   0.591  1.00  0.00     0.120 A 
HETATM   12  N3  UNL     1       3.730   0.216   0.905  1.00  0.00    -0.328 N 
HETATM   13  C9  UNL     1       4.667   0.887   0.258  1.00  0.00     0.162 A 
ATOM     14  H3  UNL     1       3.248   0.677   1.676  1.00  0.00     0.168 HD
HETATM   15  O1  UNL     1       5.159   2.097   0.384  1.00  0.00    -0.305 OA
HETATM   16  C12 UNL     1       5.330   0.270  -0.794  1.00  0.00     0.070 A 
HETATM   17  C10 UNL     1       6.092   2.301  -0.513  1.00  0.00     0.145 A 
HETATM   18  C11 UNL     1       6.248   1.176  -1.294  1.00  0.00     0.044 A 
HETATM   19  C13 UNL     1       5.012  -1.005  -1.144  1.00  0.00     0.227 A 
HETATM   20  O2  UNL     1       5.586  -1.598  -2.087  1.00  0.00    -0.284 OA
HETATM   21  C14 UNL     1       4.025  -1.681  -0.445  1.00  0.00     0.201 A 
HETATM   22  F1  UNL     1       3.767  -2.942  -0.817  1.00  0.00    -0.199 F 
ENDBRANCH  10  11
ENDBRANCH   5  10
BRANCH   1  23
HETATM   23  N1  UNL     1      -3.297  -0.340  -0.121  1.00  0.00    -0.369 N 
ATOM     24  H1  UNL     1      -3.810  -0.933  -0.773  1.00  0.00     0.161 HD
BRANCH  23  25
HETATM   25  C3  UNL     1      -3.927   0.839   0.366  1.00  0.00     0.078 C 
HETATM   26  C4  UNL     1      -3.318   2.035  -0.379  1.00  0.00     0.032 C 
BRANCH  25  27
HETATM   27  C2  UNL     1      -5.432   0.823   0.170  1.00  0.00     0.020 C 
HETATM   28  C1  UNL     1      -5.975   2.123   0.727  1.00  0.00     0.007 C 
ENDBRANCH  25  27
ENDBRANCH  23  25
ENDBRANCH   1  23
TORSDOF 5
