REMARK  5 active torsions:
REMARK  status: ('A' for Active; 'I' for Inactive)
REMARK    1  A    between atoms: C3_3  and  C4_4 
REMARK    2  A    between atoms: C4_4  and  C5_5 
REMARK    3  A    between atoms: C5_5  and  C6_6 
REMARK       I    between atoms: N1_7  and  C7_9 
REMARK    4  A    between atoms: C7_9  and  C8_11 
REMARK    5  A    between atoms: N2_19  and  O2_20 
ROOT
HETATM    1  C1  UNL     1       4.183   2.038   0.774  1.00  0.00     0.012 C 
HETATM    2  C2  UNL     1       4.597   1.124   0.101  1.00  0.00    -0.117 C 
HETATM    3  C3  UNL     1       5.082   0.019  -0.723  1.00  0.00     0.093 C 
ENDROOT
BRANCH   3   4
HETATM    4  C4  UNL     1       4.906  -1.316  -0.030  1.00  0.00     0.017 C 
BRANCH   4   5
HETATM    5  C5  UNL     1       3.419  -1.554   0.263  1.00  0.00     0.045 C 
BRANCH   5   6
HETATM    6  C6  UNL     1       2.635  -1.562  -0.976  1.00  0.00     0.064 C 
HETATM    7  N1  UNL     1       1.387  -1.345  -1.064  1.00  0.00    -0.340 N 
HETATM    8  C7  UNL     1       0.523  -1.057   0.006  1.00  0.00     0.233 C 
ATOM      9  H1  UNL     1       0.974  -1.383  -1.996  1.00  0.00     0.167 HD
HETATM   10  O1  UNL     1       0.790  -1.461   1.149  1.00  0.00    -0.272 OA
BRANCH   8  11
HETATM   11  C8  UNL     1      -0.698  -0.276  -0.231  1.00  0.00     0.153 C 
HETATM   12  C9  UNL     1      -1.586  -0.992  -1.216  1.00  0.00     0.047 C 
HETATM   13 CL1  UNL     1      -1.050  -2.412  -2.055  1.00  0.00    -0.086 Cl
HETATM   14  C10 UNL     1      -2.788  -0.463  -1.390  1.00  0.00     0.060 C 
HETATM   15 CL2  UNL     1      -3.921  -1.214  -2.521  1.00  0.00    -0.085 Cl
HETATM   16  C11 UNL     1      -3.139   0.755  -0.624  1.00  0.00     0.087 C 
HETATM   17  C12 UNL     1      -4.678   0.779  -0.593  1.00  0.00     0.046 C 
HETATM   18  C13 UNL     1      -2.753   1.935  -1.513  1.00  0.00     0.046 C 
HETATM   19  N2  UNL     1      -2.594   0.844   0.681  1.00  0.00    -0.272 N 
HETATM   20  C14 UNL     1      -1.508  -0.015   1.002  1.00  0.00     0.065 C 
HETATM   21  C15 UNL     1      -0.570   0.624   2.026  1.00  0.00     0.041 C 
HETATM   22  C16 UNL     1      -2.038  -1.276   1.637  1.00  0.00     0.041 C 
BRANCH  19  23
HETATM   23  O2  UNL     1      -2.447   2.105   1.132  1.00  0.00    -0.290 OA
ATOM     24  H2  UNL     1      -2.082   2.165   2.007  1.00  0.00     0.244 HD
ENDBRANCH  19  23
ENDBRANCH   8  11
ENDBRANCH   5   6
ENDBRANCH   4   5
ENDBRANCH   3   4
TORSDOF 5
