REMARK  6 active torsions:
REMARK  status: ('A' for Active; 'I' for Inactive)
REMARK    1  A    between atoms: O1_2  and  C2_3 
REMARK    2  A    between atoms: C8_11  and  N2_12 
REMARK    3  A    between atoms: N2_12  and  C9_14 
REMARK    4  A    between atoms: C9_14  and  C10_15 
REMARK    5  A    between atoms: C13_19  and  O2_20 
REMARK    6  A    between atoms: C19_28  and  O3_29 
ROOT
HETATM    1  C2  UNL     1       3.885  -1.073  -0.351  1.00  0.00     0.103 A 
HETATM    2  C3  UNL     1       3.859   0.311  -0.391  1.00  0.00     0.070 A 
HETATM    3  C4  UNL     1       2.692   1.027  -0.196  1.00  0.00     0.047 A 
HETATM    4  N1  UNL     1       2.687   2.382  -0.233  1.00  0.00    -0.359 N 
ATOM      5  H1  UNL     1       3.555   2.888  -0.411  1.00  0.00     0.166 HD
HETATM    6  C5  UNL     1       1.539   3.067  -0.036  1.00  0.00     0.007 A 
HETATM    7  C6  UNL     1       1.534   4.527  -0.066  1.00  0.00     0.068 C 
HETATM    8  C7  UNL     1       0.322   2.409   0.211  1.00  0.00     0.054 A 
HETATM    9  C8  UNL     1       0.347   1.043   0.246  1.00  0.00     0.042 A 
HETATM   10  C17 UNL     1       1.539   0.316   0.042  1.00  0.00     0.020 A 
HETATM   11  C18 UNL     1       1.547  -1.074   0.085  1.00  0.00     0.055 A 
HETATM   12  C19 UNL     1       2.706  -1.789  -0.108  1.00  0.00     0.102 A 
ENDROOT
BRANCH   9  13
HETATM   13  N2  UNL     1      -0.699   0.320   0.453  1.00  0.00    -0.385 N 
ATOM     14  H2  UNL     1      -0.617  -0.697   0.471  1.00  0.00     0.160 HD
BRANCH  13  15
HETATM   15  C9  UNL     1      -1.986   0.938   0.660  1.00  0.00     0.162 C 
BRANCH  15  16
HETATM   16  C10 UNL     1      -3.109   0.122   0.140  1.00  0.00     0.007 A 
HETATM   17  C11 UNL     1      -3.054  -0.315  -1.201  1.00  0.00     0.127 A 
HETATM   18  F1  UNL     1      -1.957  -0.016  -1.925  1.00  0.00    -0.205 F 
HETATM   19  C12 UNL     1      -4.114  -1.017  -1.671  1.00  0.00     0.082 A 
HETATM   20  C13 UNL     1      -5.264  -1.338  -0.913  1.00  0.00     0.107 A 
HETATM   21  C14 UNL     1      -5.295  -0.888   0.428  1.00  0.00     0.156 A 
HETATM   22  F2  UNL     1      -6.363  -1.155   1.180  1.00  0.00    -0.203 F 
HETATM   23  C15 UNL     1      -4.191  -0.162   0.901  1.00  0.00    -0.010 A 
HETATM   24  C16 UNL     1      -4.351   0.295   2.333  1.00  0.00     0.052 C 
BRANCH  20  25
HETATM   25  O2  UNL     1      -6.268  -2.017  -1.408  1.00  0.00    -0.357 OA
ATOM     26  H2  UNL     1      -7.040  -2.233  -0.899  1.00  0.00     0.217 HD
ENDBRANCH  20  25
ENDBRANCH  15  16
ENDBRANCH  13  15
ENDBRANCH   9  13
BRANCH  12  27
HETATM   27  O3  UNL     1       2.762  -3.175  -0.077  1.00  0.00    -0.353 OA
HETATM   28  C20 UNL     1       1.618  -3.970   0.159  1.00  0.00     0.210 C 
ENDBRANCH  12  27
BRANCH   1  29
HETATM   29  O1  UNL     1       5.021  -1.793  -0.543  1.00  0.00    -0.353 OA
HETATM   30  C1  UNL     1       6.282  -1.226  -0.810  1.00  0.00     0.210 C 
ENDBRANCH   1  29
TORSDOF 6
