REMARK  5 active torsions:
REMARK  status: ('A' for Active; 'I' for Inactive)
REMARK    1  A    between atoms: N1_1  and  C1_5 
REMARK    2  A    between atoms: C1_5  and  C2_6 
REMARK    3  A    between atoms: C1_5  and  C11_22 
REMARK    4  A    between atoms: C5_9  and  O1_10 
REMARK    5  A    between atoms: O1_10  and  C6_11 
ROOT
HETATM    1  C2  UNL     1       0.345   1.089   0.892  1.00  0.00    -0.024 A 
HETATM    2  C3  UNL     1       1.122  -0.042   1.046  1.00  0.00     0.012 A 
HETATM    3  C4  UNL     1       2.435  -0.096   0.613  1.00  0.00     0.041 A 
HETATM    4  C5  UNL     1       3.036   0.971   0.007  1.00  0.00     0.117 A 
HETATM    5  C9  UNL     1       2.261   2.121  -0.155  1.00  0.00     0.150 A 
HETATM    6  F2  UNL     1       2.805   3.225  -0.754  1.00  0.00    -0.203 F 
HETATM    7  C10 UNL     1       0.953   2.170   0.279  1.00  0.00     0.054 A 
ENDROOT
BRANCH   1   8
HETATM    8  C1  UNL     1      -1.053   1.131   1.358  1.00  0.00     0.225 C 
BRANCH   8   9
HETATM    9  N1  UNL     1      -1.228   0.560   2.675  1.00  0.00    -0.070 N 
ATOM     10  H13 UNL     1      -0.861  -0.391   2.711  1.00  0.00     0.275 HD
ATOM     11  H12 UNL     1      -0.606   1.005   3.350  1.00  0.00     0.275 HD
ATOM     12  H11 UNL     1      -2.195   0.589   2.997  1.00  0.00     0.275 HD
ENDBRANCH   8   9
BRANCH   8  13
HETATM   13  C11 UNL     1      -2.034   0.515   0.396  1.00  0.00    -0.007 C 
HETATM   14  C12 UNL     1      -1.829  -0.976   0.302  1.00  0.00     0.016 C 
HETATM   15  C13 UNL     1      -2.944  -1.619  -0.500  1.00  0.00    -0.013 C 
HETATM   16  C14 UNL     1      -2.887  -1.042  -1.917  1.00  0.00     0.009 C 
HETATM   17  C18 UNL     1      -4.304  -1.345   0.058  1.00  0.00     0.009 C 
HETATM   18  C15 UNL     1      -3.021   0.447  -1.826  1.00  0.00    -0.013 C 
HETATM   19  C16 UNL     1      -4.391   0.795  -1.258  1.00  0.00     0.009 C 
HETATM   20  C20 UNL     1      -1.950   1.086  -0.980  1.00  0.00     0.016 C 
HETATM   21  C17 UNL     1      -4.499   0.155   0.107  1.00  0.00    -0.013 C 
HETATM   22  C19 UNL     1      -3.434   0.729   0.979  1.00  0.00     0.016 C 
ENDBRANCH   8  13
ENDBRANCH   1   8
BRANCH   4  23
HETATM   23  O1  UNL     1       4.327   1.039  -0.463  1.00  0.00    -0.277 OA
BRANCH  23  24
HETATM   24  C6  UNL     1       5.246   0.009  -0.402  1.00  0.00     0.222 C 
HETATM   25  N2  UNL     1       4.932  -1.170  -0.871  1.00  0.00    -0.352 N 
HETATM   26  C7  UNL     1       6.018  -2.109  -0.716  1.00  0.00     0.182 C 
ATOM     27  H2  UNL     1       4.032  -1.398  -1.294  1.00  0.00     0.163 HD
HETATM   28  C8  UNL     1       7.007  -1.363   0.119  1.00  0.00     0.289 C 
HETATM   29  F1  UNL     1       8.294  -1.493  -0.380  1.00  0.00    -0.225 F 
HETATM   30  N3  UNL     1       6.567   0.010   0.120  1.00  0.00    -0.324 N 
ATOM     31  H3  UNL     1       7.099   0.822   0.434  1.00  0.00     0.166 HD
ENDBRANCH  23  24
ENDBRANCH   4  23
TORSDOF 5
