REMARK  5 active torsions:
REMARK  status: ('A' for Active; 'I' for Inactive)
REMARK    1  A    between atoms: C2_2  and  C3_3 
REMARK    2  A    between atoms: C3_3  and  C4_4 
REMARK    3  A    between atoms: C8_12  and  N3_13 
REMARK    4  A    between atoms: N3_13  and  C9_15 
REMARK    5  A    between atoms: C12_19  and  O1_20 
ROOT
HETATM    1  C4  UNL     1      -2.609   0.274  -0.275  1.00  0.00     0.095 A 
HETATM    2  N1  UNL     1      -2.864  -0.889   0.189  1.00  0.00    -0.353 N 
ATOM      3  H1  UNL     1      -3.764  -1.021   0.650  1.00  0.00     0.163 HD
HETATM    4  C5  UNL     1      -1.987  -2.031   0.116  1.00  0.00     0.114 A 
HETATM    5  C6  UNL     1      -2.734  -3.099  -0.692  1.00  0.00     0.063 C 
HETATM    6  C7  UNL     1      -1.785  -2.540   1.529  1.00  0.00     0.063 C 
HETATM    7  N2  UNL     1      -0.734  -1.759  -0.552  1.00  0.00    -0.200 N 
ATOM      8  H2  UNL     1      -0.064  -2.523  -0.640  1.00  0.00     0.180 HD
HETATM    9  C8  UNL     1      -0.413  -0.626  -1.038  1.00  0.00     0.682 A 
HETATM   10  N4  UNL     1      -1.342   0.443  -0.919  1.00  0.00    -0.181 N 
ATOM     11  H4  UNL     1      -1.099   1.356  -1.303  1.00  0.00     0.185 HD
ENDROOT
BRANCH   9  12
HETATM   12  N3  UNL     1       0.845  -0.471  -1.674  1.00  0.00    -0.187 N 
ATOM     13  H3  UNL     1       0.846  -0.385  -2.690  1.00  0.00     0.184 HD
BRANCH  12  14
HETATM   14  C9  UNL     1       2.085  -0.426  -1.026  1.00  0.00     0.105 A 
HETATM   15  C10 UNL     1       2.619   0.775  -0.570  1.00  0.00     0.147 A 
HETATM   16  F1  UNL     1       1.889   1.887  -0.778  1.00  0.00    -0.204 F 
HETATM   17  C11 UNL     1       3.843   0.805   0.064  1.00  0.00     0.081 A 
HETATM   18  C12 UNL     1       4.568  -0.350   0.263  1.00  0.00     0.072 A 
HETATM   19  C14 UNL     1       4.058  -1.550  -0.180  1.00  0.00     0.058 A 
HETATM   20  C15 UNL     1       2.816  -1.571  -0.823  1.00  0.00     0.044 A 
HETATM   21 BR1  UNL     1       2.129  -3.236  -1.435  1.00  0.00    -0.049 Br
BRANCH  18  22
HETATM   22  O1  UNL     1       5.793  -0.261   0.907  1.00  0.00    -0.356 OA
HETATM   23  C13 UNL     1       6.316   0.949   1.359  1.00  0.00     0.210 C 
ENDBRANCH  18  22
ENDBRANCH  12  14
ENDBRANCH   9  12
BRANCH   1  24
HETATM   24  C3  UNL     1      -3.567   1.423  -0.166  1.00  0.00     0.076 C 
BRANCH  24  25
HETATM   25  C2  UNL     1      -2.981   2.565   0.594  1.00  0.00     0.003 C 
HETATM   26  C1  UNL     1      -3.997   3.670   0.659  1.00  0.00     0.005 C 
ENDBRANCH  24  25
ENDBRANCH   1  24
TORSDOF 5
