REMARK  5 active torsions:
REMARK  status: ('A' for Active; 'I' for Inactive)
REMARK    1  A    between atoms: C5_5  and  O1_6 
REMARK    2  A    between atoms: O1_6  and  C6_7 
REMARK    3  A    between atoms: C6_7  and  C7_8 
REMARK    4  A    between atoms: C7_8  and  C8_9 
REMARK    5  A    between atoms: C10_15  and  O4_16 
ROOT
HETATM    1  O1  UNL     1      -0.176  -1.288   0.971  1.00  0.00    -0.348 OA
ENDROOT
BRANCH   1   2
HETATM    2  C5  UNL     1      -1.181  -0.502   0.534  1.00  0.00     0.097 A 
HETATM    3  C3  UNL     1      -1.766  -0.718  -0.695  1.00  0.00    -0.020 A 
HETATM    4  C2  UNL     1      -2.805   0.064  -1.188  1.00  0.00    -0.035 A 
HETATM    5  C4  UNL     1      -1.269  -1.844  -1.547  1.00  0.00     0.052 C 
HETATM    6  C1  UNL     1      -3.420  -0.175  -2.500  1.00  0.00     0.050 C 
HETATM    7  C14 UNL     1      -3.255   1.101  -0.386  1.00  0.00     0.025 A 
HETATM    8  C12 UNL     1      -2.706   1.346   0.830  1.00  0.00    -0.019 A 
HETATM    9 BR1  UNL     1      -4.693   2.229  -1.000  1.00  0.00    -0.050 Br
HETATM   10  C11 UNL     1      -1.661   0.536   1.290  1.00  0.00     0.075 A 
HETATM   11  C13 UNL     1      -3.199   2.455   1.669  1.00  0.00     0.051 C 
HETATM   12 CL1  UNL     1      -1.031   0.927   2.877  1.00  0.00    -0.081 Cl
ENDBRANCH   1   2
BRANCH   1  13
HETATM   13  C6  UNL     1       1.185  -1.219   0.818  1.00  0.00     0.182 C 
BRANCH  13  14
HETATM   14  C7  UNL     1       1.916  -0.038   1.331  1.00  0.00     0.096 C 
BRANCH  14  15
HETATM   15  C8  UNL     1       3.362  -0.240   0.996  1.00  0.00     0.111 A 
HETATM   16  O2  UNL     1       4.356  -0.603   1.753  1.00  0.00    -0.261 OA
HETATM   17  C9  UNL     1       5.484  -0.667   1.078  1.00  0.00     0.371 A 
HETATM   18  O3  UNL     1       6.557  -0.995   1.616  1.00  0.00    -0.238 OA
HETATM   19  N1  UNL     1       5.253  -0.335  -0.185  1.00  0.00    -0.281 N 
HETATM   20  C10 UNL     1       3.941  -0.064  -0.268  1.00  0.00     0.175 A 
ATOM     21  H1  UNL     1       5.936  -0.294  -0.942  1.00  0.00     0.173 HD
BRANCH  20  22
HETATM   22  O4  UNL     1       3.244   0.327  -1.394  1.00  0.00    -0.344 OA
ATOM     23  H4  UNL     1       3.637   0.446  -2.251  1.00  0.00     0.219 HD
ENDBRANCH  20  22
ENDBRANCH  14  15
ENDBRANCH  13  14
ENDBRANCH   1  13
TORSDOF 5
