REMARK  4 active torsions:
REMARK  status: ('A' for Active; 'I' for Inactive)
REMARK    1  A    between atoms: C2_2  and  N1_3 
REMARK    2  A    between atoms: N1_3  and  C3_5 
REMARK    3  A    between atoms: N5_22  and  C14_23 
REMARK    4  A    between atoms: C14_23  and  C15_24 
ROOT
HETATM    1  C3  UNL     1      -2.493   0.353   0.117  1.00  0.00     0.132 A 
HETATM    2  N2  UNL     1      -3.229   0.094   1.227  1.00  0.00    -0.285 N 
ATOM      3  H2  UNL     1      -4.086   0.580   1.492  1.00  0.00     0.188 HD
HETATM    4  N3  UNL     1      -2.666  -0.884   1.912  1.00  0.00    -0.303 N 
ATOM      5  H3  UNL     1      -3.009  -1.280   2.787  1.00  0.00     0.186 HD
HETATM    6  C4  UNL     1      -1.558  -1.265   1.249  1.00  0.00     0.039 A 
HETATM    7  C5  UNL     1      -0.677  -2.359   1.750  1.00  0.00     0.071 C 
HETATM    8  C6  UNL     1      -1.402  -0.508   0.098  1.00  0.00     0.077 A 
HETATM    9  C7  UNL     1      -0.335  -0.667  -0.851  1.00  0.00     0.129 A 
HETATM   10  N4  UNL     1      -0.450  -1.579  -1.856  1.00  0.00    -0.339 N 
ATOM     11  H4  UNL     1      -1.264  -2.181  -1.979  1.00  0.00     0.167 HD
HETATM   12  C8  UNL     1       0.603  -1.604  -2.655  1.00  0.00     0.061 A 
HETATM   13  C9  UNL     1       0.949  -2.310  -3.799  1.00  0.00     0.032 A 
HETATM   14  C10 UNL     1       2.145  -2.040  -4.402  1.00  0.00     0.002 A 
HETATM   15  C11 UNL     1       3.024  -1.088  -3.913  1.00  0.00     0.002 A 
HETATM   16  C12 UNL     1       2.678  -0.396  -2.784  1.00  0.00     0.032 A 
HETATM   17  C13 UNL     1       1.469  -0.657  -2.158  1.00  0.00     0.067 A 
HETATM   18  N5  UNL     1       0.854  -0.105  -1.047  1.00  0.00    -0.304 N 
ENDROOT
BRANCH  18  19
HETATM   19  C14 UNL     1       1.376   0.976  -0.311  1.00  0.00     0.116 C 
BRANCH  19  20
HETATM   20  C15 UNL     1       1.874   0.650   1.028  1.00  0.00     0.057 A 
HETATM   21  C16 UNL     1       2.938  -0.119   1.346  1.00  0.00     0.131 A 
HETATM   22  F1  UNL     1       3.662  -0.740   0.398  1.00  0.00    -0.205 F 
HETATM   23  C17 UNL     1       3.363  -0.324   2.640  1.00  0.00     0.043 A 
HETATM   24  C18 UNL     1       2.687   0.274   3.670  1.00  0.00     0.006 A 
HETATM   25  C19 UNL     1       1.590   1.076   3.436  1.00  0.00     0.043 A 
HETATM   26  C20 UNL     1       1.219   1.240   2.124  1.00  0.00     0.131 A 
HETATM   27  F2  UNL     1       0.148   2.087   1.949  1.00  0.00    -0.205 F 
ENDBRANCH  19  20
ENDBRANCH  18  19
BRANCH   1  28
HETATM   28  N1  UNL     1      -2.655   1.189  -0.807  1.00  0.00    -0.375 N 
ATOM     29  H1  UNL     1      -1.934   1.164  -1.528  1.00  0.00     0.161 HD
BRANCH  28  30
HETATM   30  C2  UNL     1      -3.665   2.161  -1.022  1.00  0.00     0.116 C 
HETATM   31  C1  UNL     1      -3.996   3.030   0.148  1.00  0.00     0.026 C 
ENDBRANCH  28  30
ENDBRANCH   1  28
TORSDOF 4
