REMARK  7 active torsions:
REMARK  status: ('A' for Active; 'I' for Inactive)
REMARK    1  A    between atoms: C2_2  and  C3_3 
REMARK    2  A    between atoms: C3_3  and  C4_4 
REMARK    3  A    between atoms: C3_3  and  N1_6 
REMARK    4  A    between atoms: N1_6  and  C6_8 
REMARK    5  A    between atoms: C8_14  and  N4_15 
REMARK    6  A    between atoms: N4_15  and  C9_17 
REMARK    7  A    between atoms: C11_19  and  C12_20 
ROOT
HETATM    1  C6  UNL     1       2.378  -0.278  -0.252  1.00  0.00     0.693 A 
HETATM    2  N2  UNL     1       2.316   1.055  -0.115  1.00  0.00    -0.187 N 
ATOM      3  H2  UNL     1       3.172   1.605  -0.044  1.00  0.00     0.185 HD
HETATM    4  C7  UNL     1       1.115   1.661  -0.072  1.00  0.00     0.215 A 
HETATM    5  N3  UNL     1      -0.030   0.965  -0.163  1.00  0.00    -0.187 N 
ATOM      6  H3  UNL     1      -0.934   1.435  -0.129  1.00  0.00     0.185 HD
HETATM    7  C8  UNL     1       0.051  -0.366  -0.300  1.00  0.00     0.698 A 
HETATM    8  N5  UNL     1       1.241  -0.985  -0.344  1.00  0.00    -0.022 N 
ATOM      9  H5  UNL     1       1.281  -1.999  -0.448  1.00  0.00     0.203 HD
ENDROOT
BRANCH   7  10
HETATM   10  N4  UNL     1      -0.994  -1.119  -0.395  1.00  0.00    -0.191 N 
ATOM     11  H4  UNL     1      -0.855  -2.124  -0.496  1.00  0.00     0.184 HD
BRANCH  10  12
HETATM   12  C9  UNL     1      -2.315  -0.630  -0.367  1.00  0.00     0.056 A 
HETATM   13  C10 UNL     1      -2.868   0.071  -1.415  1.00  0.00     0.047 A 
HETATM   14  C11 UNL     1      -4.186   0.553  -1.376  1.00  0.00     0.056 A 
HETATM   15  C13 UNL     1      -4.934   0.310  -0.248  1.00  0.00    -0.040 A 
HETATM   16  C14 UNL     1      -6.336   0.805  -0.155  1.00  0.00     0.049 C 
HETATM   17  C15 UNL     1      -4.394  -0.404   0.837  1.00  0.00    -0.047 A 
HETATM   18  C16 UNL     1      -5.212  -0.652   2.032  1.00  0.00     0.049 C 
HETATM   19  C17 UNL     1      -3.099  -0.851   0.741  1.00  0.00    -0.028 A 
HETATM   20  C18 UNL     1      -2.503  -1.611   1.882  1.00  0.00     0.051 C 
BRANCH  14  21
HETATM   21  C12 UNL     1      -4.724   1.292  -2.529  1.00  0.00     0.418 C 
HETATM   22  F1  UNL     1      -3.705   1.373  -3.499  1.00  0.00    -0.166 F 
HETATM   23  F2  UNL     1      -5.749   0.635  -3.190  1.00  0.00    -0.166 F 
HETATM   24  F3  UNL     1      -5.040   2.609  -2.262  1.00  0.00    -0.166 F 
ENDBRANCH  14  21
ENDBRANCH  10  12
ENDBRANCH   7  10
BRANCH   1  25
HETATM   25  N1  UNL     1       3.535  -0.892  -0.296  1.00  0.00    -0.221 N 
ATOM     26  H1  UNL     1       3.575  -1.906  -0.400  1.00  0.00     0.178 HD
BRANCH  25  27
HETATM   27  C3  UNL     1       4.740  -0.130  -0.197  1.00  0.00     0.098 C 
BRANCH  27  28
HETATM   28  C2  UNL     1       5.515  -0.170  -1.520  1.00  0.00     0.021 C 
HETATM   29  C1  UNL     1       6.733   0.724  -1.415  1.00  0.00     0.007 C 
ENDBRANCH  27  28
BRANCH  27  30
HETATM   30  C4  UNL     1       5.600  -0.610   0.941  1.00  0.00     0.021 C 
HETATM   31  C5  UNL     1       4.776  -0.543   2.200  1.00  0.00     0.007 C 
ENDBRANCH  27  30
ENDBRANCH  25  27
ENDBRANCH   1  25
TORSDOF 7
