REMARK  6 active torsions:
REMARK  status: ('A' for Active; 'I' for Inactive)
REMARK    1  A    between atoms: C2_2  and  C3_3 
REMARK    2  A    between atoms: C3_3  and  C4_4 
REMARK    3  A    between atoms: C5_7  and  N2_8 
REMARK    4  A    between atoms: N2_8  and  C6_10 
REMARK    5  A    between atoms: C6_10  and  C7_11 
REMARK    6  A    between atoms: C17_25  and  C18_26 
ROOT
HETATM    1  N2  UNL     1      -0.172  -0.615   0.354  1.00  0.00    -0.372 N 
ATOM      2  H2  UNL     1       0.152   0.177  -0.201  1.00  0.00     0.161 HD
ENDROOT
BRANCH   1   3
HETATM    3  C5  UNL     1      -1.416  -0.790   0.383  1.00  0.00     0.104 A 
HETATM    4  N1  UNL     1      -2.180   0.084  -0.350  1.00  0.00    -0.332 N 
HETATM    5  C4  UNL     1      -3.498   0.034  -0.425  1.00  0.00     0.083 A 
ATOM      6  H1  UNL     1      -1.700   0.819  -0.870  1.00  0.00     0.168 HD
HETATM    7  N5  UNL     1      -4.110  -0.965   0.295  1.00  0.00    -0.342 N 
HETATM    8  C17 UNL     1      -3.432  -1.841   1.024  1.00  0.00     0.121 A 
ATOM      9  H5  UNL     1      -5.127  -1.035   0.267  1.00  0.00     0.167 HD
HETATM   10  C16 UNL     1      -2.064  -1.773   1.081  1.00  0.00     0.082 A 
BRANCH   5  11
HETATM   11  C3  UNL     1      -4.334   0.853  -1.298  1.00  0.00     0.076 C 
BRANCH  11  12
HETATM   12  C2  UNL     1      -4.882   2.135  -0.815  1.00  0.00     0.003 C 
HETATM   13  C1  UNL     1      -3.928   3.209  -0.421  1.00  0.00     0.005 C 
ENDBRANCH  11  12
ENDBRANCH   5  11
BRANCH   8  14
HETATM   14  C18 UNL     1      -4.163  -2.888   1.802  1.00  0.00     0.432 C 
HETATM   15  F1  UNL     1      -4.387  -4.048   1.068  1.00  0.00    -0.165 F 
HETATM   16  F2  UNL     1      -3.410  -3.252   2.875  1.00  0.00    -0.165 F 
HETATM   17  F3  UNL     1      -5.386  -2.361   2.126  1.00  0.00    -0.165 F 
ENDBRANCH   8  14
ENDBRANCH   1   3
BRANCH   1  18
HETATM   18  C6  UNL     1       0.869  -1.398   1.011  1.00  0.00     0.162 C 
BRANCH  18  19
HETATM   19  C7  UNL     1       2.150  -0.728   0.640  1.00  0.00    -0.016 A 
HETATM   20  C8  UNL     1       2.944  -0.150   1.594  1.00  0.00     0.042 A 
HETATM   21  C9  UNL     1       4.152   0.412   1.168  1.00  0.00     0.060 A 
HETATM   22  N3  UNL     1       5.149   1.056   1.817  1.00  0.00    -0.363 N 
HETATM   23  C13 UNL     1       4.459   0.349  -0.175  1.00  0.00     0.066 A 
HETATM   24  C10 UNL     1       6.099   1.424   0.905  1.00  0.00     0.097 A 
ATOM     25  H3  UNL     1       5.186   1.237   2.820  1.00  0.00     0.165 HD
HETATM   26  C11 UNL     1       5.679   0.994  -0.321  1.00  0.00    -0.018 A 
HETATM   27  C12 UNL     1       6.297   1.223  -1.683  1.00  0.00     0.052 C 
HETATM   28  N4  UNL     1       3.657  -0.232  -1.086  1.00  0.00    -0.357 N 
HETATM   29  C14 UNL     1       2.506  -0.770  -0.695  1.00  0.00     0.013 A 
ATOM     30  H4  UNL     1       3.930  -0.259  -2.068  1.00  0.00     0.166 HD
HETATM   31  C15 UNL     1       1.528  -1.374  -1.628  1.00  0.00     0.068 C 
ENDBRANCH  18  19
ENDBRANCH   1  18
TORSDOF 6
