REMARK  4 active torsions:
REMARK  status: ('A' for Active; 'I' for Inactive)
REMARK    1  A    between atoms: C2_2  and  C3_3 
REMARK    2  A    between atoms: C3_3  and  C4_6 
REMARK    3  A    between atoms: C7_10  and  O1_11 
REMARK    4  A    between atoms: C8_13  and  C9_14 
ROOT
HETATM    1  C4  UNL     1       2.710  -0.737   0.068  1.00  0.00     0.058 A 
HETATM    2  C5  UNL     1       2.674  -1.520   1.229  1.00  0.00     0.131 A 
HETATM    3  F3  UNL     1       3.727  -1.557   2.111  1.00  0.00    -0.205 F 
HETATM    4  C6  UNL     1       1.619  -2.320   1.546  1.00  0.00     0.080 A 
HETATM    5  C7  UNL     1       0.541  -2.362   0.690  1.00  0.00     0.079 A 
HETATM    6  C8  UNL     1       0.498  -1.624  -0.464  1.00  0.00     0.006 A 
HETATM    7  C18 UNL     1       1.594  -0.827  -0.746  1.00  0.00    -0.034 A 
HETATM    8  C19 UNL     1       1.664  -0.015  -1.993  1.00  0.00     0.050 C 
ENDROOT
BRANCH   6   9
HETATM    9  C9  UNL     1      -0.698  -1.641  -1.274  1.00  0.00     0.046 C 
HETATM   10  C10 UNL     1      -1.699  -0.627  -1.372  1.00  0.00     0.056 A 
HETATM   11  N1  UNL     1      -2.001  -0.212  -2.658  1.00  0.00    -0.297 N 
HETATM   12  C13 UNL     1      -2.507  -0.043  -0.443  1.00  0.00    -0.018 A 
HETATM   13  N2  UNL     1      -2.903   0.609  -3.032  1.00  0.00    -0.266 N 
ATOM     14  H1  UNL     1      -1.429  -0.614  -3.401  1.00  0.00     0.187 HD
HETATM   15  C11 UNL     1      -3.709   1.195  -2.143  1.00  0.00     0.266 A 
ATOM     16  H2  UNL     1      -3.010   0.821  -4.024  1.00  0.00     0.190 HD
HETATM   17  O2  UNL     1      -4.601   2.005  -2.515  1.00  0.00    -0.266 OA
HETATM   18  C12 UNL     1      -3.507   0.863  -0.829  1.00  0.00     0.020 A 
HETATM   19  C17 UNL     1      -4.407   1.537   0.152  1.00  0.00     0.045 C 
HETATM   20  C16 UNL     1      -3.621   1.791   1.419  1.00  0.00     0.005 C 
HETATM   21  C15 UNL     1      -3.184   0.442   1.908  1.00  0.00     0.005 C 
HETATM   22  C14 UNL     1      -2.309  -0.328   0.975  1.00  0.00     0.042 C 
ENDBRANCH   6   9
BRANCH   5  23
HETATM   23  O1  UNL     1      -0.479  -3.238   1.123  1.00  0.00    -0.360 OA
ATOM     24  H1  UNL     1      -1.223  -3.267   0.533  1.00  0.00     0.217 HD
ENDBRANCH   5  23
BRANCH   1  25
HETATM   25  C3  UNL     1       3.892   0.098  -0.095  1.00  0.00     0.274 C 
HETATM   26  F1  UNL     1       4.177   0.591  -1.334  1.00  0.00    -0.201 F 
HETATM   27  F2  UNL     1       5.034  -0.760   0.140  1.00  0.00    -0.201 F 
BRANCH  25  28
HETATM   28  C2  UNL     1       4.085   1.154   0.986  1.00  0.00     0.080 C 
HETATM   29  C1  UNL     1       5.507   1.650   1.037  1.00  0.00     0.011 C 
ENDBRANCH  25  28
ENDBRANCH   1  25
TORSDOF 4
