REMARK  5 active torsions:
REMARK  status: ('A' for Active; 'I' for Inactive)
REMARK    1  A    between atoms: C3_3  and  C4_4 
REMARK    2  A    between atoms: C7_10  and  O1_11 
REMARK    3  A    between atoms: N2_20  and  C13_22 
REMARK    4  A    between atoms: C13_22  and  C14_23 
REMARK    5  A    between atoms: C14_23  and  N3_24 
ROOT
HETATM    1  C1  UNL     1       0.520   2.782   0.338  1.00  0.00     0.053 C 
HETATM    2  C2  UNL     1       1.402   1.640   0.212  1.00  0.00    -0.002 A 
HETATM    3  C3  UNL     1       2.742   1.781  -0.135  1.00  0.00     0.070 A 
HETATM    4  C5  UNL     1       3.464   0.615  -0.252  1.00  0.00     0.009 A 
HETATM    5  C6  UNL     1       4.789   0.643  -0.590  1.00  0.00     0.051 A 
HETATM    6  C7  UNL     1       5.572  -0.499  -0.723  1.00  0.00     0.067 A 
HETATM    7  C8  UNL     1       4.964  -1.706  -0.499  1.00  0.00     0.045 A 
HETATM    8  C9  UNL     1       3.632  -1.794  -0.156  1.00  0.00    -0.032 A 
HETATM    9  C10 UNL     1       3.000  -3.123   0.080  1.00  0.00     0.050 C 
HETATM   10  C11 UNL     1       2.895  -0.636  -0.036  1.00  0.00     0.051 A 
HETATM   11  N1  UNL     1       1.606  -0.734   0.297  1.00  0.00    -0.341 N 
ATOM     12  H1  UNL     1       1.180  -1.647   0.457  1.00  0.00     0.167 HD
HETATM   13  C12 UNL     1       0.895   0.366   0.415  1.00  0.00     0.108 A 
HETATM   14  N2  UNL     1      -0.366   0.252   0.740  1.00  0.00    -0.374 N 
ATOM     15  H2  UNL     1      -0.931   1.096   0.833  1.00  0.00     0.161 HD
ENDROOT
BRANCH  14  16
HETATM   16  C13 UNL     1      -0.980  -1.028   0.970  1.00  0.00     0.151 C 
BRANCH  16  17
HETATM   17  C14 UNL     1      -2.408  -0.899   1.447  1.00  0.00     0.292 C 
BRANCH  17  18
HETATM   18  N3  UNL     1      -3.246  -0.213   0.507  1.00  0.00     0.090 N 
HETATM   19  C15 UNL     1      -4.589  -0.164   1.102  1.00  0.00     0.272 C 
HETATM   20  C16 UNL     1      -5.360   0.839   0.272  1.00  0.00     0.030 C 
HETATM   21  C17 UNL     1      -5.351   0.529  -1.176  1.00  0.00     0.003 C 
HETATM   22  C18 UNL     1      -4.513  -0.642  -1.574  1.00  0.00     0.030 C 
HETATM   23  C19 UNL     1      -3.360  -0.953  -0.708  1.00  0.00     0.272 C 
ENDBRANCH  17  18
ENDBRANCH  16  17
ENDBRANCH  14  16
BRANCH   3  24
HETATM   24  C4  UNL     1       3.247   3.075  -0.307  1.00  0.00     0.419 C 
HETATM   25  F1  UNL     1       4.387   3.568  -0.681  1.00  0.00    -0.166 F 
HETATM   26  F2  UNL     1       2.328   3.928  -0.972  1.00  0.00    -0.166 F 
HETATM   27  F3  UNL     1       3.148   3.643   1.032  1.00  0.00    -0.166 F 
ENDBRANCH   3  24
BRANCH   6  28
HETATM   28  O1  UNL     1       6.889  -0.329  -1.067  1.00  0.00    -0.361 OA
ATOM     29  H1  UNL     1       7.424  -1.109  -1.158  1.00  0.00     0.217 HD
ENDBRANCH   6  28
TORSDOF 5
