REMARK  7 active torsions:
REMARK  status: ('A' for Active; 'I' for Inactive)
REMARK    1  A    between atoms: C4_4  and  C5_5 
REMARK    2  A    between atoms: C5_5  and  C8_8 
REMARK    3  A    between atoms: C9_14  and  N2_15 
REMARK    4  A    between atoms: N2_15  and  C10_17 
REMARK    5  A    between atoms: C10_17  and  C11_18 
REMARK    6  A    between atoms: C10_17  and  C17_24 
REMARK    7  A    between atoms: C11_18  and  C12_19 
ROOT
HETATM    1  C1  UNL     1      -2.748   2.573  -2.709  1.00  0.00     0.068 C 
HETATM    2  C2  UNL     1      -2.312   1.534  -1.714  1.00  0.00     0.024 A 
HETATM    3  C3  UNL     1      -3.246   0.808  -0.998  1.00  0.00     0.051 A 
HETATM    4  C4  UNL     1      -2.871  -0.147  -0.084  1.00  0.00     0.045 A 
HETATM    5  N1  UNL     1      -1.561  -0.377   0.114  1.00  0.00    -0.195 N 
ATOM      6  H1  UNL     1      -1.258  -1.081   0.787  1.00  0.00     0.184 HD
HETATM    7  C9  UNL     1      -0.651   0.332  -0.585  1.00  0.00     0.679 A 
HETATM    8  N3  UNL     1      -1.015   1.268  -1.481  1.00  0.00    -0.196 N 
ATOM      9  H3  UNL     1      -0.297   1.783  -1.990  1.00  0.00     0.184 HD
ENDROOT
BRANCH   7  10
HETATM   10  N2  UNL     1       0.573   0.082  -0.357  1.00  0.00    -0.211 N 
ATOM     11  H2  UNL     1       0.775  -0.637   0.337  1.00  0.00     0.178 HD
BRANCH  10  12
HETATM   12  C10 UNL     1       1.712   0.721  -0.989  1.00  0.00     0.200 C 
BRANCH  12  13
HETATM   13  C11 UNL     1       2.679   1.040   0.107  1.00  0.00     0.041 C 
BRANCH  13  14
HETATM   14  C12 UNL     1       3.169  -0.100   0.925  1.00  0.00    -0.012 C 
HETATM   15  C13 UNL     1       3.932  -1.169   0.266  1.00  0.00     0.005 C 
HETATM   16  C14 UNL     1       5.249  -1.313   1.070  1.00  0.00     0.000 C 
HETATM   17  C15 UNL     1       5.432   0.140   1.544  1.00  0.00     0.000 C 
HETATM   18  C16 UNL     1       4.044   0.434   2.033  1.00  0.00     0.005 C 
ENDBRANCH  13  14
ENDBRANCH  12  13
BRANCH  12  19
HETATM   19  C17 UNL     1       2.254   0.021  -2.146  1.00  0.00     0.197 C 
HETATM   20  O1  UNL     1       1.864  -1.115  -2.543  1.00  0.00    -0.646 OA
HETATM   21  O2  UNL     1       3.272   0.621  -2.889  1.00  0.00    -0.646 OA
ENDBRANCH  12  19
ENDBRANCH  10  12
ENDBRANCH   7  10
BRANCH   4  22
HETATM   22  C5  UNL     1      -3.920  -0.877   0.657  1.00  0.00     0.093 C 
HETATM   23  C6  UNL     1      -5.202  -0.072   0.737  1.00  0.00     0.031 C 
HETATM   24  C7  UNL     1      -3.492  -1.094   2.115  1.00  0.00     0.031 C 
BRANCH  22  25
HETATM   25  C8  UNL     1      -4.204  -2.199  -0.013  1.00  0.00     0.400 C 
HETATM   26  F1  UNL     1      -3.092  -3.011  -0.070  1.00  0.00    -0.170 F 
HETATM   27  F2  UNL     1      -4.657  -1.912  -1.291  1.00  0.00    -0.170 F 
HETATM   28  F3  UNL     1      -5.241  -2.868   0.631  1.00  0.00    -0.170 F 
ENDBRANCH  22  25
ENDBRANCH   4  22
TORSDOF 7
