REMARK  5 active torsions:
REMARK  status: ('A' for Active; 'I' for Inactive)
REMARK    1  A    between atoms: C6_8  and  C7_9 
REMARK    2  A    between atoms: C7_9  and  N1_10 
REMARK    3  A    between atoms: N1_10  and  C8_13 
REMARK    4  A    between atoms: C8_13  and  C9_14 
REMARK    5  A    between atoms: C14_19  and  C15_20 
ROOT
HETATM    1  C8  UNL     1       0.315  -1.479  -0.306  1.00  0.00     0.237 C 
ENDROOT
BRANCH   1   2
HETATM    2  N1  UNL     1      -1.027  -1.450   0.125  1.00  0.00    -0.071 N 
ATOM      3  H12 UNL     1      -1.095  -1.494   1.142  1.00  0.00     0.277 HD
ATOM      4  H11 UNL     1      -1.512  -2.318  -0.102  1.00  0.00     0.277 HD
BRANCH   2   5
HETATM    5  C7  UNL     1      -1.717  -0.309  -0.399  1.00  0.00     0.272 C 
BRANCH   5   6
HETATM    6  C6  UNL     1      -3.167  -0.253  -0.118  1.00  0.00    -0.013 A 
HETATM    7  C4  UNL     1      -4.006  -1.359  -0.169  1.00  0.00     0.022 A 
HETATM    8  C3  UNL     1      -5.383  -1.210   0.002  1.00  0.00     0.294 A 
HETATM    9  C5  UNL     1      -3.392  -2.682  -0.379  1.00  0.00     0.055 C 
HETATM   10  O1  UNL     1      -5.901  -0.055   0.205  1.00  0.00    -0.279 OA
HETATM   11  O2  UNL     1      -6.147  -2.245  -0.041  1.00  0.00    -0.259 OA
HETATM   12  C2  UNL     1      -5.151   1.009   0.258  1.00  0.00     0.059 A 
HETATM   13  C1  UNL     1      -5.774   2.365   0.491  1.00  0.00     0.077 C 
HETATM   14  C18 UNL     1      -3.756   0.963   0.103  1.00  0.00    -0.024 A 
HETATM   15  C19 UNL     1      -3.017   2.253   0.180  1.00  0.00     0.051 C 
ENDBRANCH   5   6
ENDBRANCH   2   5
ENDBRANCH   1   2
BRANCH   1  16
HETATM   16  C9  UNL     1       1.421  -0.736   0.284  1.00  0.00     0.017 C 
HETATM   17  C10 UNL     1       1.332   0.730   0.394  1.00  0.00     0.011 C 
HETATM   18  C11 UNL     1       2.605   1.358   0.945  1.00  0.00     0.041 C 
HETATM   19  C12 UNL     1       3.826   0.681   0.494  1.00  0.00    -0.033 A 
HETATM   20  C13 UNL     1       5.161   0.972   0.743  1.00  0.00     0.043 A 
HETATM   21  C16 UNL     1       3.827  -0.428  -0.310  1.00  0.00     0.016 A 
HETATM   22  C14 UNL     1       5.948   0.063   0.101  1.00  0.00     0.117 A 
HETATM   23  N2  UNL     1       5.125  -0.778  -0.532  1.00  0.00    -0.355 N 
ATOM     24  H2  UNL     1       5.426  -1.570  -1.101  1.00  0.00     0.166 HD
HETATM   25  C17 UNL     1       2.570  -1.002  -0.772  1.00  0.00     0.064 C 
BRANCH  22  26
HETATM   26  C15 UNL     1       7.440  -0.026   0.063  1.00  0.00     0.432 C 
HETATM   27  F1  UNL     1       7.979   0.166   1.298  1.00  0.00    -0.165 F 
HETATM   28  F2  UNL     1       7.917   0.983  -0.782  1.00  0.00    -0.165 F 
HETATM   29  F3  UNL     1       7.840  -1.211  -0.527  1.00  0.00    -0.165 F 
ENDBRANCH  22  26
ENDBRANCH   1  16
TORSDOF 5
