REMARK  6 active torsions:
REMARK  status: ('A' for Active; 'I' for Inactive)
REMARK    1  A    between atoms: C2_2  and  N1_3 
REMARK    2  A    between atoms: N1_3  and  C3_5 
REMARK    3  A    between atoms: C4_8  and  N3_9 
REMARK    4  A    between atoms: C10_17  and  N5_18 
REMARK    5  A    between atoms: N5_18  and  C11_20 
REMARK    6  A    between atoms: C15_24  and  C16_25 
ROOT
HETATM    1  C3  UNL     1      -0.796   1.537  -0.004  1.00  0.00     0.707 A 
HETATM    2  N2  UNL     1      -1.938   0.804  -0.123  1.00  0.00    -0.021 N 
ATOM      3  H2  UNL     1      -2.821   1.314  -0.108  1.00  0.00     0.203 HD
HETATM    4  C4  UNL     1      -2.004  -0.518  -0.257  1.00  0.00     0.713 A 
HETATM    5  N4  UNL     1      -0.833  -1.179  -0.274  1.00  0.00    -0.021 N 
ATOM      6  H4  UNL     1      -0.838  -2.194  -0.374  1.00  0.00     0.203 HD
HETATM    7  C10 UNL     1       0.356  -0.532  -0.162  1.00  0.00     0.711 A 
HETATM    8  N6  UNL     1       0.349   0.812  -0.029  1.00  0.00    -0.021 N 
ATOM      9  H6  UNL     1       1.240   1.301   0.056  1.00  0.00     0.203 HD
ENDROOT
BRANCH   7  10
HETATM   10  N5  UNL     1       1.388  -1.267  -0.154  1.00  0.00    -0.190 N 
ATOM     11  H5  UNL     1       1.249  -2.275  -0.219  1.00  0.00     0.184 HD
BRANCH  10  12
HETATM   12  C11 UNL     1       2.717  -0.797  -0.062  1.00  0.00     0.061 A 
HETATM   13  C12 UNL     1       3.465  -0.469  -1.167  1.00  0.00    -0.033 A 
HETATM   14  C13 UNL     1       2.876  -0.616  -2.546  1.00  0.00     0.050 C 
HETATM   15  C14 UNL     1       4.762   0.004  -1.015  1.00  0.00     0.025 A 
HETATM   16  C15 UNL     1       5.357   0.167   0.210  1.00  0.00     0.049 A 
HETATM   17  C17 UNL     1       4.571  -0.179   1.310  1.00  0.00     0.025 A 
HETATM   18  C18 UNL     1       3.279  -0.648   1.187  1.00  0.00    -0.033 A 
HETATM   19  C19 UNL     1       2.528  -1.024   2.458  1.00  0.00     0.050 C 
BRANCH  16  20
HETATM   20  C16 UNL     1       6.750   0.612   0.412  1.00  0.00     0.417 C 
HETATM   21  F1  UNL     1       7.459   0.616  -0.788  1.00  0.00    -0.166 F 
HETATM   22  F2  UNL     1       6.728   1.957   0.798  1.00  0.00    -0.166 F 
HETATM   23  F3  UNL     1       7.363  -0.115   1.406  1.00  0.00    -0.166 F 
ENDBRANCH  16  20
ENDBRANCH  10  12
ENDBRANCH   7  10
BRANCH   4  24
HETATM   24  N3  UNL     1      -3.294  -1.110  -0.259  1.00  0.00    -0.196 N 
HETATM   25  C5  UNL     1      -3.557  -2.325  -0.924  1.00  0.00     0.082 C 
HETATM   26  C6  UNL     1      -5.003  -2.676  -1.032  1.00  0.00     0.045 C 
HETATM   27  C7  UNL     1      -5.877  -2.238   0.082  1.00  0.00     0.007 C 
HETATM   28  C8  UNL     1      -5.164  -1.541   1.200  1.00  0.00     0.021 C 
HETATM   29  C9  UNL     1      -4.317  -0.432   0.501  1.00  0.00     0.146 C 
ENDBRANCH   4  24
BRANCH   1  30
HETATM   30  N1  UNL     1      -0.899   2.785   0.083  1.00  0.00    -0.225 N 
ATOM     31  H1  UNL     1      -1.882   3.056   0.052  1.00  0.00     0.177 HD
BRANCH  30  32
HETATM   32  C2  UNL     1      -0.090   3.927   0.210  1.00  0.00     0.133 C 
HETATM   33  C1  UNL     1      -0.890   5.169  -0.209  1.00  0.00     0.027 C 
ENDBRANCH  30  32
ENDBRANCH   1  30
TORSDOF 6
