REMARK  7 active torsions:
REMARK  status: ('A' for Active; 'I' for Inactive)
REMARK    1  A    between atoms: C2_2  and  C3_3 
REMARK    2  A    between atoms: C3_3  and  O1_4 
REMARK    3  A    between atoms: C3_3  and  N1_6 
REMARK    4  A    between atoms: C9_12  and  N2_13 
REMARK    5  A    between atoms: N2_13  and  C10_15 
REMARK    6  A    between atoms: C11_16  and  C12_17 
REMARK    7  A    between atoms: C15_24  and  C16_25 
ROOT
HETATM    1  N2  UNL     1      -1.915   1.003  -0.575  1.00  0.00    -0.382 N 
ATOM      2  H2  UNL     1      -1.834   1.118  -1.585  1.00  0.00     0.160 HD
ENDROOT
BRANCH   1   3
HETATM    3  C9  UNL     1      -0.694   0.937   0.095  1.00  0.00     0.082 C 
HETATM    4  C8  UNL     1      -0.352  -0.362   0.766  1.00  0.00     0.026 C 
HETATM    5  C7  UNL     1       0.934  -0.190   1.551  1.00  0.00     0.013 C 
HETATM    6  C6  UNL     1       2.028   0.182   0.594  1.00  0.00    -0.022 C 
HETATM    7  C5  UNL     1       2.281  -0.808  -0.497  1.00  0.00     0.031 C 
HETATM    8  C18 UNL     1       1.677   1.530  -0.021  1.00  0.00     0.013 C 
HETATM    9  C19 UNL     1       3.305   0.222   1.324  1.00  0.00     0.134 C 
HETATM   10  C4  UNL     1       3.714  -0.339  -0.909  1.00  0.00     0.125 C 
HETATM   11  N1  UNL     1       4.373  -0.213   0.362  1.00  0.00    -0.361 N 
HETATM   12  C17 UNL     1       0.435   1.419  -0.832  1.00  0.00     0.026 C 
BRANCH  11  13
HETATM   13  C3  UNL     1       5.693  -0.330   0.803  1.00  0.00     0.137 C 
BRANCH  13  14
HETATM   14  C2  UNL     1       6.836  -0.465  -0.023  1.00  0.00     0.045 C 
HETATM   15  C1  UNL     1       6.906  -0.433  -1.303  1.00  0.00     0.015 C 
ENDBRANCH  13  14
BRANCH  13  16
HETATM   16  O1  UNL     1       5.877  -0.315   2.100  1.00  0.00    -0.346 OA
ATOM     17  H1  UNL     1       5.111  -0.224   2.654  1.00  0.00     0.219 HD
ENDBRANCH  13  16
ENDBRANCH  11  13
ENDBRANCH   1   3
BRANCH   1  18
HETATM   18  C10 UNL     1      -3.228   0.939  -0.108  1.00  0.00     0.086 A 
HETATM   19  C11 UNL     1      -3.996  -0.221  -0.107  1.00  0.00     0.058 A 
HETATM   20  N3  UNL     1      -5.242   0.199   0.304  1.00  0.00    -0.302 N 
HETATM   21  N4  UNL     1      -5.215   1.487   0.530  1.00  0.00    -0.294 N 
ATOM     22  H3  UNL     1      -6.059  -0.401   0.415  1.00  0.00     0.186 HD
HETATM   23  C15 UNL     1      -4.000   2.027   0.293  1.00  0.00     0.161 A 
ATOM     24  H4  UNL     1      -6.021   2.024   0.850  1.00  0.00     0.187 HD
BRANCH  19  25
HETATM   25  C12 UNL     1      -3.598  -1.636  -0.308  1.00  0.00     0.031 C 
HETATM   26  C13 UNL     1      -4.205  -2.126  -1.670  1.00  0.00     0.016 C 
HETATM   27  C14 UNL     1      -4.513  -2.505   0.669  1.00  0.00     0.016 C 
ENDBRANCH  19  25
BRANCH  23  28
HETATM   28  C16 UNL     1      -3.607   3.443   0.351  1.00  0.00     0.436 C 
HETATM   29  F1  UNL     1      -4.710   4.143   0.902  1.00  0.00    -0.165 F 
HETATM   30  F2  UNL     1      -2.439   3.779   0.939  1.00  0.00    -0.165 F 
HETATM   31  F3  UNL     1      -3.544   3.976  -0.960  1.00  0.00    -0.165 F 
ENDBRANCH  23  28
ENDBRANCH   1  18
TORSDOF 7
