REMARK  7 active torsions:
REMARK  status: ('A' for Active; 'I' for Inactive)
REMARK    1  A    between atoms: N1_2  and  C3_4 
REMARK    2  A    between atoms: C8_9  and  N2_10 
REMARK    3  A    between atoms: N2_10  and  C9_12 
REMARK    4  A    between atoms: C12_17  and  N4_18 
REMARK    5  A    between atoms: N4_18  and  C13_20 
REMARK    6  A    between atoms: C18_25  and  O1_26 
REMARK    7  A    between atoms: O1_26  and  C19_27 
ROOT
HETATM    1  C9  UNL     1      -0.530  -0.977   0.691  1.00  0.00     0.122 A 
HETATM    2  C10 UNL     1      -0.812  -2.306   0.465  1.00  0.00     0.066 A 
HETATM    3  C11 UNL     1       0.222  -3.197   0.172  1.00  0.00     0.110 A 
HETATM    4  N3  UNL     1       1.479  -2.721   0.120  1.00  0.00    -0.202 N 
ATOM      5  H3  UNL     1       2.239  -3.367  -0.093  1.00  0.00     0.183 HD
HETATM    6  C12 UNL     1       1.774  -1.425   0.338  1.00  0.00     0.684 A 
HETATM    7  N5  UNL     1       0.761  -0.587   0.618  1.00  0.00    -0.176 N 
ATOM      8  H5  UNL     1       0.979   0.396   0.784  1.00  0.00     0.186 HD
ENDROOT
BRANCH   6   9
HETATM    9  N4  UNL     1       2.985  -1.049   0.271  1.00  0.00    -0.189 N 
ATOM     10  H4  UNL     1       3.676  -1.767   0.052  1.00  0.00     0.184 HD
BRANCH   9  11
HETATM   11  C13 UNL     1       3.469   0.249   0.467  1.00  0.00     0.082 A 
HETATM   12  C14 UNL     1       3.463   0.814   1.711  1.00  0.00     0.033 A 
HETATM   13  C15 UNL     1       3.939   2.090   1.904  1.00  0.00     0.002 A 
HETATM   14  C16 UNL     1       4.424   2.799   0.837  1.00  0.00     0.003 A 
HETATM   15  C17 UNL     1       4.447   2.270  -0.420  1.00  0.00     0.039 A 
HETATM   16  C18 UNL     1       3.957   0.972  -0.587  1.00  0.00     0.105 A 
BRANCH  16  17
HETATM   17  O1  UNL     1       4.004   0.480  -1.891  1.00  0.00    -0.253 OA
BRANCH  17  18
HETATM   18  C19 UNL     1       5.173  -0.223  -2.320  1.00  0.00     0.530 C 
HETATM   19  F1  UNL     1       5.405  -1.343  -1.551  1.00  0.00    -0.144 F 
HETATM   20  F2  UNL     1       6.299   0.566  -2.239  1.00  0.00    -0.144 F 
HETATM   21  F3  UNL     1       4.923  -0.647  -3.619  1.00  0.00    -0.144 F 
ENDBRANCH  17  18
ENDBRANCH  16  17
ENDBRANCH   9  11
ENDBRANCH   6   9
BRANCH   1  22
HETATM   22  N2  UNL     1      -1.428  -0.087   0.969  1.00  0.00    -0.340 N 
ATOM     23  H2  UNL     1      -1.118   0.873   1.120  1.00  0.00     0.167 HD
BRANCH  22  24
HETATM   24  C8  UNL     1      -2.819  -0.362   1.078  1.00  0.00     0.060 A 
HETATM   25  C3  UNL     1      -3.666   0.148   0.126  1.00  0.00     0.056 A 
HETATM   26  C4  UNL     1      -5.038  -0.083   0.178  1.00  0.00     0.031 A 
HETATM   27  C5  UNL     1      -5.514  -0.845   1.223  1.00  0.00     0.002 A 
HETATM   28  C6  UNL     1      -4.680  -1.363   2.185  1.00  0.00     0.002 A 
HETATM   29  C7  UNL     1      -3.332  -1.116   2.103  1.00  0.00     0.032 A 
BRANCH  25  30
HETATM   30  N1  UNL     1      -3.207   0.939  -0.967  1.00  0.00    -0.388 N 
HETATM   31  C1  UNL     1      -2.288   0.433  -1.934  1.00  0.00     0.149 C 
HETATM   32  C2  UNL     1      -3.729   2.297  -1.044  1.00  0.00     0.149 C 
ENDBRANCH  25  30
ENDBRANCH  22  24
ENDBRANCH   1  22
TORSDOF 7
