REMARK  2 active torsions:
REMARK  status: ('A' for Active; 'I' for Inactive)
REMARK    1  A    between atoms: O1_2  and  C2_3 
REMARK    2  A    between atoms: C2_3  and  O2_4 
ROOT
HETATM    1  C2  UNL     1      -0.224   2.379  -0.204  1.00  0.00     0.418 C 
HETATM    2  O3  UNL     1       1.159   2.601  -0.285  1.00  0.00    -0.279 OA
HETATM    3  C3  UNL     1       2.155   2.181  -1.097  1.00  0.00     0.140 C 
HETATM    4  C4  UNL     1       2.927   1.125  -1.030  1.00  0.00     0.006 C 
HETATM    5  C5  UNL     1       2.969   0.039  -0.042  1.00  0.00    -0.028 C 
HETATM    6  C6  UNL     1       3.712   0.608   1.194  1.00  0.00     0.019 C 
HETATM    7  C7  UNL     1       3.885  -1.100  -0.495  1.00  0.00     0.019 C 
HETATM    8  C8  UNL     1       1.685  -0.455   0.505  1.00  0.00     0.013 C 
HETATM    9  C9  UNL     1       0.596  -0.774  -0.475  1.00  0.00     0.009 C 
HETATM   10  C10 UNL     1      -0.768  -0.680   0.155  1.00  0.00     0.028 C 
HETATM   11  C11 UNL     1      -1.526  -1.907   0.357  1.00  0.00    -0.041 C 
HETATM   12  C12 UNL     1      -2.406  -1.799   1.619  1.00  0.00     0.015 C 
HETATM   13  C13 UNL     1      -0.580  -3.050   0.689  1.00  0.00     0.015 C 
HETATM   14  C14 UNL     1      -2.410  -2.388  -0.745  1.00  0.00     0.009 C 
HETATM   15  C15 UNL     1      -2.850  -1.382  -1.734  1.00  0.00     0.004 C 
HETATM   16  C16 UNL     1      -2.007  -0.180  -1.882  1.00  0.00     0.038 C 
HETATM   17  C17 UNL     1      -1.518   0.438  -0.589  1.00  0.00     0.070 C 
HETATM   18  C18 UNL     1      -2.698   0.936   0.188  1.00  0.00     0.047 C 
HETATM   19  O4  UNL     1      -0.598   1.353  -0.924  1.00  0.00    -0.297 OA
ENDROOT
BRANCH   1  20
HETATM   20  O1  UNL     1      -0.532   2.374   1.154  1.00  0.00    -0.314 OA
HETATM   21  C1  UNL     1      -0.039   3.534   1.745  1.00  0.00     0.210 C 
ENDBRANCH   1  20
BRANCH   1  22
HETATM   22  O2  UNL     1      -0.866   3.547  -0.697  1.00  0.00    -0.319 OA
ATOM     23  H2  UNL     1      -0.656   3.550  -1.623  1.00  0.00     0.218 HD
ENDBRANCH   1  22
TORSDOF 2
