REMARK  2 active torsions:
REMARK  status: ('A' for Active; 'I' for Inactive)
REMARK    1  A    between atoms: C15_17  and  O3_18 
REMARK    2  A    between atoms: O3_18  and  O4_19 
ROOT
HETATM    1  C1  UNL     1      -1.795   2.319  -0.338  1.00  0.00     0.046 C 
HETATM    2  C2  UNL     1      -0.590   1.400  -0.340  1.00  0.00    -0.044 C 
HETATM    3  C3  UNL     1       0.420   1.988  -0.997  1.00  0.00    -0.021 C 
HETATM    4  C4  UNL     1       1.789   1.693  -1.362  1.00  0.00     0.030 C 
HETATM    5  C5  UNL     1       2.718   1.082  -0.418  1.00  0.00     0.044 C 
HETATM    6  C6  UNL     1       2.275   0.049   0.526  1.00  0.00     0.093 C 
HETATM    7  C7  UNL     1       3.372  -0.039   1.618  1.00  0.00     0.049 C 
HETATM    8  C8  UNL     1       2.114  -1.337   0.039  1.00  0.00     0.041 C 
HETATM    9  C9  UNL     1       1.160  -1.671  -1.010  1.00  0.00     0.004 C 
HETATM   10  C10 UNL     1      -0.225  -2.117  -0.545  1.00  0.00     0.013 C 
HETATM   11  C11 UNL     1      -1.236  -0.989  -0.572  1.00  0.00     0.008 C 
HETATM   12  C12 UNL     1      -1.476  -0.540  -1.994  1.00  0.00     0.019 C 
HETATM   13  C13 UNL     1      -2.553  -1.595  -0.104  1.00  0.00     0.124 C 
HETATM   14  C14 UNL     1      -2.365  -1.981   1.321  1.00  0.00     0.262 C 
HETATM   15  O1  UNL     1      -2.642  -3.132   1.754  1.00  0.00    -0.265 OA
HETATM   16  O2  UNL     1      -1.861  -0.970   2.130  1.00  0.00    -0.283 OA
HETATM   17  C15 UNL     1      -1.850   0.337   1.477  1.00  0.00     0.348 C 
HETATM   18  C16 UNL     1      -0.860   0.151   0.351  1.00  0.00     0.179 C 
HETATM   19  O5  UNL     1       0.257  -0.368   1.064  1.00  0.00    -0.218 OA
HETATM   20  O6  UNL     1       1.165   0.507   1.284  1.00  0.00    -0.229 OA
ENDROOT
BRANCH  17  21
HETATM   21  O3  UNL     1      -1.255   1.147   2.457  1.00  0.00    -0.206 OA
BRANCH  21  22
HETATM   22  O4  UNL     1      -2.068   2.000   2.995  1.00  0.00    -0.248 OA
ATOM     23  H4  UNL     1      -1.665   2.548   3.658  1.00  0.00     0.253 HD
ENDBRANCH  21  22
ENDBRANCH  17  21
TORSDOF 2
