REMARK  2 active torsions:
REMARK  status: ('A' for Active; 'I' for Inactive)
REMARK    1  A    between atoms: C6_6  and  C7_7 
REMARK    2  A    between atoms: C7_7  and  C8_8 
ROOT
HETATM    1  C1  UNL     1       4.971   1.520  -1.678  1.00  0.00     0.085 C 
HETATM    2  C2  UNL     1       4.027   0.629  -0.882  1.00  0.00     0.226 C 
HETATM    3  C3  UNL     1       2.911   1.449  -0.296  1.00  0.00     0.074 C 
HETATM    4  C4  UNL     1       2.592   0.956   1.092  1.00  0.00     0.018 C 
HETATM    5  C5  UNL     1       2.044  -0.426   1.031  1.00  0.00     0.076 C 
HETATM    6  C6  UNL     1       0.733  -0.566   0.292  1.00  0.00     0.086 C 
HETATM    7  N1  UNL     1       0.367  -1.927   0.237  1.00  0.00    -0.416 N 
ATOM      8  H1  UNL     1      -0.446  -2.239  -0.294  1.00  0.00     0.153 HD
HETATM    9  C16 UNL     1       1.190  -2.854   0.963  1.00  0.00     0.119 C 
HETATM   10  C17 UNL     1       2.658  -2.728   0.641  1.00  0.00     0.094 C 
HETATM   11  C18 UNL     1       3.031  -1.313   0.251  1.00  0.00     0.236 C 
HETATM   12  O1  UNL     1       4.337  -1.053   0.574  1.00  0.00    -0.194 OA
HETATM   13  O2  UNL     1       4.773   0.088   0.152  1.00  0.00    -0.195 OA
HETATM   14  O3  UNL     1       2.754  -1.171  -1.105  1.00  0.00    -0.194 OA
HETATM   15  O4  UNL     1       3.605  -0.394  -1.708  1.00  0.00    -0.195 OA
ENDROOT
BRANCH   6  16
HETATM   16  C7  UNL     1      -0.229   0.419   0.803  1.00  0.00     0.029 C 
BRANCH  16  17
HETATM   17  C8  UNL     1      -1.608   0.427   0.182  1.00  0.00    -0.013 C 
HETATM   18  C9  UNL     1      -2.348   1.549   0.874  1.00  0.00     0.005 C 
HETATM   19  C10 UNL     1      -3.556   2.031   0.168  1.00  0.00     0.000 C 
HETATM   20  C11 UNL     1      -3.666   1.644  -1.278  1.00  0.00     0.000 C 
HETATM   21  C12 UNL     1      -4.071   0.249  -1.557  1.00  0.00     0.000 C 
HETATM   22  C13 UNL     1      -4.617  -0.539  -0.426  1.00  0.00     0.000 C 
HETATM   23  C14 UNL     1      -3.728  -0.858   0.702  1.00  0.00     0.000 C 
HETATM   24  C15 UNL     1      -2.251  -0.910   0.419  1.00  0.00     0.005 C 
ENDBRANCH  16  17
ENDBRANCH   6  16
TORSDOF 2
