REMARK  3 active torsions:
REMARK  status: ('A' for Active; 'I' for Inactive)
REMARK    1  A    between atoms: C2_2  and  C3_3 
REMARK    2  A    between atoms: C2_2  and  C11_17 
REMARK    3  A    between atoms: C7_8  and  O2_9 
ROOT
HETATM    1  C3  UNL     1       1.786  -1.098  -0.156  1.00  0.00     0.077 A 
HETATM    2  C4  UNL     1       2.329   0.061   0.300  1.00  0.00     0.110 A 
HETATM    3  O1  UNL     1       1.806   1.215   0.035  1.00  0.00    -0.320 OA
HETATM    4  C5  UNL     1       2.276   2.338   0.417  1.00  0.00     0.145 A 
HETATM    5  C6  UNL     1       3.439   2.472   1.191  1.00  0.00     0.062 A 
HETATM    6  C7  UNL     1       4.085   1.299   1.537  1.00  0.00     0.086 A 
HETATM    7  C8  UNL     1       3.562   0.108   1.112  1.00  0.00     0.107 A 
HETATM    8  C9  UNL     1       4.175  -1.088   1.401  1.00  0.00     0.306 A 
HETATM    9  O3  UNL     1       5.233  -1.030   2.101  1.00  0.00    -0.259 OA
HETATM   10  O4  UNL     1       3.637  -2.178   0.945  1.00  0.00    -0.237 OA
HETATM   11  C10 UNL     1       2.548  -2.244   0.231  1.00  0.00     0.304 A 
HETATM   12  O5  UNL     1       2.160  -3.373  -0.125  1.00  0.00    -0.259 OA
ENDROOT
BRANCH   1  13
HETATM   13  C2  UNL     1       0.478  -1.282  -0.793  1.00  0.00    -0.056 C 
HETATM   14  C1  UNL     1       0.624  -1.896  -2.175  1.00  0.00     0.045 C 
BRANCH  13  15
HETATM   15  C11 UNL     1      -0.725  -0.502  -0.493  1.00  0.00    -0.015 C 
HETATM   16  C12 UNL     1      -0.850  -0.027   0.919  1.00  0.00     0.019 C 
HETATM   17  C13 UNL     1      -2.123   0.779   1.084  1.00  0.00    -0.013 C 
HETATM   18  C14 UNL     1      -2.290   1.862   0.073  1.00  0.00     0.009 C 
HETATM   19  C18 UNL     1      -3.340  -0.148   0.982  1.00  0.00     0.009 C 
HETATM   20  C15 UNL     1      -2.380   1.222  -1.276  1.00  0.00    -0.013 C 
HETATM   21  C16 UNL     1      -3.501   0.231  -1.394  1.00  0.00     0.009 C 
HETATM   22  C20 UNL     1      -1.044   0.525  -1.545  1.00  0.00     0.019 C 
HETATM   23  C17 UNL     1      -3.237  -0.835  -0.346  1.00  0.00    -0.013 C 
HETATM   24  C19 UNL     1      -1.945  -1.499  -0.618  1.00  0.00     0.019 C 
ENDBRANCH  13  15
ENDBRANCH   1  13
BRANCH   6  25
HETATM   25  O2  UNL     1       5.248   1.274   2.308  1.00  0.00    -0.359 OA
ATOM     26  H2  UNL     1       5.692   0.468   2.546  1.00  0.00     0.217 HD
ENDBRANCH   6  25
TORSDOF 3
