REMARK  4 active torsions:
REMARK  status: ('A' for Active; 'I' for Inactive)
REMARK    1  A    between atoms: O1_2  and  C2_3 
REMARK    2  A    between atoms: C2_3  and  C3_5 
REMARK    3  A    between atoms: C3_5  and  C4_6 
REMARK    4  A    between atoms: C7_11  and  O5_12 
ROOT
HETATM    1  C4  UNL     1       2.349  -1.501   0.633  1.00  0.00     0.180 C 
HETATM    2  O3  UNL     1       2.921  -1.150   1.849  1.00  0.00    -0.234 OA
HETATM    3  O4  UNL     1       2.390   0.035   2.178  1.00  0.00    -0.234 OA
HETATM    4  C5  UNL     1       1.081  -0.122   1.856  1.00  0.00     0.174 C 
HETATM    5  C6  UNL     1       0.186   1.041   1.836  1.00  0.00     0.079 C 
HETATM    6  C7  UNL     1      -1.215   0.466   1.574  1.00  0.00     0.091 C 
HETATM    7  C8  UNL     1      -1.992   1.546   0.944  1.00  0.00    -0.043 C 
HETATM    8  C9  UNL     1      -2.042   2.927   1.516  1.00  0.00     0.047 C 
HETATM    9  C10 UNL     1      -2.620   1.114  -0.165  1.00  0.00    -0.050 C 
HETATM   10  C11 UNL     1      -3.462   2.042  -0.959  1.00  0.00     0.049 C 
HETATM   11  C12 UNL     1      -2.333  -0.283  -0.379  1.00  0.00    -0.043 C 
HETATM   12  C13 UNL     1      -2.870  -1.080  -1.274  1.00  0.00    -0.080 C 
HETATM   13  C14 UNL     1      -3.902  -0.700  -2.266  1.00  0.00     0.043 C 
HETATM   14  C15 UNL     1      -2.429  -2.534  -1.332  1.00  0.00     0.043 C 
HETATM   15  C16 UNL     1      -1.277  -0.659   0.643  1.00  0.00     0.059 C 
HETATM   16  C17 UNL     1      -0.064  -1.212   0.041  1.00  0.00     0.027 C 
HETATM   17  C18 UNL     1       1.253  -0.548   0.378  1.00  0.00     0.015 C 
HETATM   18  C19 UNL     1       1.537   0.632  -0.479  1.00  0.00     0.020 C 
ENDROOT
BRANCH   1  19
HETATM   19  C3  UNL     1       3.284  -1.879  -0.434  1.00  0.00     0.146 C 
BRANCH  19  20
HETATM   20  C2  UNL     1       4.301  -0.884  -0.827  1.00  0.00     0.261 C 
HETATM   21  O2  UNL     1       4.925  -1.102  -1.910  1.00  0.00    -0.265 OA
BRANCH  20  22
HETATM   22  O1  UNL     1       4.650   0.250  -0.150  1.00  0.00    -0.326 OA
HETATM   23  C1  UNL     1       5.653   1.119  -0.645  1.00  0.00     0.213 C 
ENDBRANCH  20  22
ENDBRANCH  19  20
ENDBRANCH   1  19
BRANCH   6  24
HETATM   24  O5  UNL     1      -1.723   0.128   2.836  1.00  0.00    -0.384 OA
ATOM     25  H5  UNL     1      -2.589  -0.227   2.674  1.00  0.00     0.211 HD
ENDBRANCH   6  24
TORSDOF 4
