REMARK  3 active torsions:
REMARK  status: ('A' for Active; 'I' for Inactive)
REMARK    1  A    between atoms: N1_5  and  N2_7 
REMARK    2  A    between atoms: N2_7  and  C4_9 
REMARK    3  A    between atoms: C5_12  and  C6_13 
ROOT
HETATM    1  O1  UNL     1      -2.933   1.681   1.995  1.00  0.00    -0.296 OA
HETATM    2  C1  UNL     1      -2.434   0.739   1.406  1.00  0.00     0.152 C 
HETATM    3  C2  UNL     1      -1.090   0.119   1.638  1.00  0.00     0.146 C 
HETATM    4  C3  UNL     1      -0.437  -0.053   0.347  1.00  0.00     0.070 C 
HETATM    5  N1  UNL     1       0.774   0.074   0.069  1.00  0.00    -0.296 N 
ATOM      6  H1  UNL     1       1.381   0.331   0.847  1.00  0.00     0.187 HD
HETATM    7  S2  UNL     1      -1.739  -0.484  -0.764  1.00  0.00    -0.097 SA
HETATM    8  C10 UNL     1      -3.150   0.033   0.298  1.00  0.00     0.075 C 
HETATM    9  C11 UNL     1      -3.953  -1.128   0.758  1.00  0.00     0.029 C 
HETATM   10  C12 UNL     1      -5.404  -0.658   0.901  1.00  0.00     0.002 C 
HETATM   11  C13 UNL     1      -5.922  -0.326  -0.460  1.00  0.00     0.000 C 
HETATM   12  C14 UNL     1      -4.915   0.320  -1.361  1.00  0.00     0.002 C 
HETATM   13  C15 UNL     1      -3.913   1.048  -0.491  1.00  0.00     0.029 C 
ENDROOT
BRANCH   5  14
HETATM   14  N2  UNL     1       1.396  -0.086  -1.143  1.00  0.00    -0.279 N 
ATOM     15  H2  UNL     1       0.859  -0.197  -2.003  1.00  0.00     0.189 HD
BRANCH  14  16
HETATM   16  C4  UNL     1       2.710  -0.091  -1.154  1.00  0.00     0.163 A 
HETATM   17  N3  UNL     1       3.550   0.039  -0.133  1.00  0.00    -0.338 N 
HETATM   18  C5  UNL     1       4.836   0.005  -0.364  1.00  0.00     0.022 A 
ATOM     19  H3  UNL     1       3.197   0.163   0.816  1.00  0.00     0.168 HD
HETATM   20  C9  UNL     1       5.236  -0.166  -1.671  1.00  0.00     0.078 A 
HETATM   21  S1  UNL     1       3.750  -0.269  -2.494  1.00  0.00    -0.062 SA
BRANCH  18  22
HETATM   22  C6  UNL     1       5.906   0.142   0.709  1.00  0.00     0.036 A 
HETATM   23  C7  UNL     1       7.147  -0.662   0.537  1.00  0.00     0.011 A 
HETATM   24  C8  UNL     1       7.154   0.861   0.346  1.00  0.00     0.011 A 
ENDBRANCH  18  22
ENDBRANCH  14  16
ENDBRANCH   5  14
TORSDOF 3
