REMARK  5 active torsions:
REMARK  status: ('A' for Active; 'I' for Inactive)
REMARK    1  A    between atoms: C2_2  and  C3_3 
REMARK    2  A    between atoms: C2_2  and  C6_12 
REMARK    3  A    between atoms: C5_9  and  O2_10 
REMARK    4  A    between atoms: C6_12  and  N2_15 
REMARK    5  A    between atoms: N2_15  and  C9_17 
ROOT
HETATM    1  C1  UNL     1      -2.438  -1.939  -1.090  1.00  0.00     0.018 C 
HETATM    2  C2  UNL     1      -1.855  -0.981  -0.087  1.00  0.00     0.053 C 
ENDROOT
BRANCH   2   3
HETATM    3  C3  UNL     1      -2.323   0.386  -0.326  1.00  0.00     0.045 A 
HETATM    4  S1  UNL     1      -2.008   1.533  -1.556  1.00  0.00    -0.029 SA
HETATM    5  C4  UNL     1      -2.780   2.889  -0.905  1.00  0.00     0.290 A 
HETATM    6  O1  UNL     1      -2.873   4.064  -1.387  1.00  0.00    -0.260 OA
HETATM    7  N1  UNL     1      -3.279   2.420   0.271  1.00  0.00    -0.297 N 
HETATM    8  C5  UNL     1      -3.064   1.183   0.564  1.00  0.00     0.157 A 
ATOM      9  H1  UNL     1      -3.805   3.027   0.900  1.00  0.00     0.171 HD
BRANCH   8  10
HETATM   10  O2  UNL     1      -3.578   0.604   1.765  1.00  0.00    -0.345 OA
ATOM     11  H2  UNL     1      -4.079   1.143   2.366  1.00  0.00     0.219 HD
ENDBRANCH   8  10
ENDBRANCH   2   3
BRANCH   2  12
HETATM   12  C6  UNL     1      -0.294  -1.102  -0.207  1.00  0.00     0.026 C 
HETATM   13  C7  UNL     1       0.074  -0.915  -1.649  1.00  0.00     0.038 C 
HETATM   14  C8  UNL     1       0.054  -2.472   0.199  1.00  0.00     0.038 C 
BRANCH  12  15
HETATM   15  N2  UNL     1       0.223  -0.115   0.638  1.00  0.00    -0.408 N 
ATOM     16  H2  UNL     1      -0.387   0.150   1.412  1.00  0.00     0.154 HD
BRANCH  15  17
HETATM   17  C9  UNL     1       1.417   0.552   0.592  1.00  0.00     0.077 C 
HETATM   18  C10 UNL     1       2.483   0.010   1.509  1.00  0.00     0.024 C 
HETATM   19  C11 UNL     1       3.700   0.908   1.225  1.00  0.00     0.002 C 
HETATM   20  C12 UNL     1       3.498   1.361  -0.171  1.00  0.00     0.002 C 
HETATM   21  C13 UNL     1       2.236   0.604  -0.672  1.00  0.00     0.024 C 
ENDBRANCH  15  17
ENDBRANCH  12  15
ENDBRANCH   2  12
TORSDOF 5
