REMARK  5 active torsions:
REMARK  status: ('A' for Active; 'I' for Inactive)
REMARK    1  A    between atoms: N1_1  and  C1_4 
REMARK    2  A    between atoms: C3_8  and  C4_9 
REMARK    3  A    between atoms: C4_9  and  C5_10 
REMARK    4  A    between atoms: C5_10  and  C6_11 
REMARK    5  A    between atoms: C6_11  and  N3_12 
ROOT
HETATM    1  C1  UNL     1       4.803  -1.115   0.042  1.00  0.00     0.676 A 
HETATM    2  N2  UNL     1       3.584  -0.926   0.572  1.00  0.00    -0.189 N 
ATOM      3  H2  UNL     1       3.181  -1.628   1.192  1.00  0.00     0.184 HD
HETATM    4  C2  UNL     1       2.894   0.198   0.281  1.00  0.00     0.085 A 
HETATM    5  C3  UNL     1       1.628   0.626   0.701  1.00  0.00    -0.013 A 
HETATM    6  C12 UNL     1       1.418   1.851   0.103  1.00  0.00     0.098 A 
HETATM    7  N4  UNL     1       2.493   2.182  -0.656  1.00  0.00    -0.362 N 
ATOM      8  H4  UNL     1       2.605   3.032  -1.208  1.00  0.00     0.165 HD
HETATM    9  C13 UNL     1       3.381   1.181  -0.545  1.00  0.00     0.076 A 
HETATM   10  C14 UNL     1       4.651   0.971  -1.090  1.00  0.00     0.138 A 
HETATM   11  N5  UNL     1       5.288  -0.157  -0.769  1.00  0.00    -0.200 N 
ATOM     12  H5  UNL     1       6.214  -0.304  -1.170  1.00  0.00     0.183 HD
ENDROOT
BRANCH   5  13
HETATM   13  C4  UNL     1       0.756  -0.156   1.617  1.00  0.00     0.044 C 
BRANCH  13  14
HETATM   14  C5  UNL     1       0.078  -1.313   0.925  1.00  0.00     0.024 C 
BRANCH  14  15
HETATM   15  C6  UNL     1      -0.825  -0.896  -0.198  1.00  0.00     0.122 C 
BRANCH  15  16
HETATM   16  N3  UNL     1      -1.853  -0.046   0.333  1.00  0.00    -0.393 N 
HETATM   17  C7  UNL     1      -2.777  -0.697   1.185  1.00  0.00     0.122 C 
HETATM   18  C8  UNL     1      -4.148  -0.914   0.629  1.00  0.00     0.020 C 
HETATM   19  C9  UNL     1      -4.497  -0.059  -0.547  1.00  0.00     0.007 C 
HETATM   20  C10 UNL     1      -3.790   1.277  -0.345  1.00  0.00     0.044 C 
HETATM   21  C11 UNL     1      -2.318   0.991  -0.489  1.00  0.00     0.058 C 
ENDBRANCH  15  16
ENDBRANCH  14  15
ENDBRANCH  13  14
ENDBRANCH   5  13
BRANCH   1  22
HETATM   22  N1  UNL     1       5.503  -2.194   0.299  1.00  0.00    -0.234 N 
ATOM     23  H12 UNL     1       5.135  -2.920   0.914  1.00  0.00     0.174 HD
ATOM     24  H11 UNL     1       6.429  -2.338  -0.104  1.00  0.00     0.174 HD
ENDBRANCH   1  22
TORSDOF 5
