REMARK  5 active torsions:
REMARK  status: ('A' for Active; 'I' for Inactive)
REMARK    1  A    between atoms: N1_1  and  C1_4 
REMARK    2  A    between atoms: C2_7  and  N3_8 
REMARK    3  A    between atoms: N3_8  and  C3_10 
REMARK    4  A    between atoms: C7_14  and  S1_15 
REMARK    5  A    between atoms: S1_15  and  C8_16 
ROOT
HETATM    1  C1  UNL     1       1.423  -0.001  -2.296  1.00  0.00     0.678 A 
HETATM    2  N2  UNL     1       2.496   0.011  -1.489  1.00  0.00    -0.177 N 
ATOM      3  H2  UNL     1       3.401   0.284  -1.872  1.00  0.00     0.185 HD
HETATM    4  C2  UNL     1       2.411  -0.326  -0.196  1.00  0.00     0.119 A 
HETATM    5  C6  UNL     1       1.208  -0.703   0.361  1.00  0.00     0.086 A 
HETATM    6  C7  UNL     1       0.097  -0.715  -0.480  1.00  0.00     0.090 A 
HETATM    7  N4  UNL     1       0.236  -0.369  -1.764  1.00  0.00    -0.186 N 
ATOM      8  H4  UNL     1      -0.587  -0.383  -2.367  1.00  0.00     0.185 HD
ENDROOT
BRANCH   6   9
HETATM    9  S1  UNL     1      -1.447  -1.199   0.244  1.00  0.00    -0.107 SA
BRANCH   9  10
HETATM   10  C8  UNL     1      -2.275   0.284   0.887  1.00  0.00     0.054 C 
HETATM   11  C9  UNL     1      -2.667   1.181  -0.247  1.00  0.00     0.015 C 
HETATM   12  C10 UNL     1      -4.195   1.275  -0.347  1.00  0.00     0.001 C 
HETATM   13  C11 UNL     1      -4.715  -0.142  -0.338  1.00  0.00     0.000 C 
HETATM   14  C12 UNL     1      -4.579  -0.711   1.064  1.00  0.00     0.001 C 
HETATM   15  C13 UNL     1      -3.398  -0.122   1.783  1.00  0.00     0.015 C 
ENDBRANCH   9  10
ENDBRANCH   6   9
BRANCH   4  16
HETATM   16  N3  UNL     1       3.592  -0.292   0.602  1.00  0.00    -0.371 N 
ATOM     17  H3  UNL     1       3.537  -0.553   1.587  1.00  0.00     0.161 HD
BRANCH  16  18
HETATM   18  C3  UNL     1       4.856   0.101   0.050  1.00  0.00     0.083 A 
HETATM   19  C4  UNL     1       6.038   0.077   1.012  1.00  0.00     0.027 A 
HETATM   20  C5  UNL     1       5.553   1.336   0.449  1.00  0.00     0.027 A 
ENDBRANCH  16  18
ENDBRANCH   4  16
BRANCH   1  21
HETATM   21  N1  UNL     1       1.534   0.328  -3.534  1.00  0.00    -0.234 N 
ATOM     22  H12 UNL     1       2.430   0.606  -3.935  1.00  0.00     0.174 HD
ATOM     23  H11 UNL     1       0.719   0.319  -4.147  1.00  0.00     0.174 HD
ENDBRANCH   1  21
TORSDOF 5
