REMARK  5 active torsions:
REMARK  status: ('A' for Active; 'I' for Inactive)
REMARK    1  A    between atoms: C2_2  and  N1_5 
REMARK    2  A    between atoms: N1_5  and  C5_8 
REMARK    3  A    between atoms: C5_8  and  C6_9 
REMARK    4  A    between atoms: C6_9  and  N2_10 
REMARK    5  A    between atoms: N2_10  and  C7_12 
ROOT
HETATM    1  C6  UNL     1      -0.020   0.739  -0.012  1.00  0.00     0.049 C 
HETATM    2  C12 UNL     1       0.500   2.081   0.527  1.00  0.00     0.032 C 
HETATM    3  C13 UNL     1       0.984   2.998  -0.541  1.00  0.00     0.002 C 
HETATM    4  C14 UNL     1      -0.058   3.321  -1.586  1.00  0.00     0.000 C 
HETATM    5  C15 UNL     1      -0.864   2.106  -1.927  1.00  0.00     0.002 C 
HETATM    6  C16 UNL     1      -0.024   0.900  -1.514  1.00  0.00     0.032 C 
ENDROOT
BRANCH   1   7
HETATM    7  C5  UNL     1       1.022  -0.271   0.395  1.00  0.00     0.263 C 
BRANCH   7   8
HETATM    8  N1  UNL     1       2.319   0.002  -0.195  1.00  0.00    -0.065 N 
ATOM      9  H12 UNL     1       2.662   0.943  -0.000  1.00  0.00     0.278 HD
ATOM     10  H11 UNL     1       2.291   0.085  -1.211  1.00  0.00     0.278 HD
BRANCH   8  11
HETATM   11  C2  UNL     1       3.225  -1.060   0.280  1.00  0.00     0.115 C 
HETATM   12  C1  UNL     1       3.299  -0.917   1.779  1.00  0.00     0.045 C 
HETATM   13  C3  UNL     1       2.787  -2.415  -0.148  1.00  0.00     0.045 C 
HETATM   14  C4  UNL     1       4.608  -0.740  -0.298  1.00  0.00     0.045 C 
ENDBRANCH   8  11
ENDBRANCH   7   8
ENDBRANCH   1   7
BRANCH   1  15
HETATM   15  N2  UNL     1      -1.294   0.564   0.502  1.00  0.00    -0.407 N 
ATOM     16  H2  UNL     1      -1.631   1.325   1.091  1.00  0.00     0.154 HD
BRANCH  15  17
HETATM   17  C7  UNL     1      -2.158  -0.462   0.341  1.00  0.00     0.080 C 
HETATM   18  C8  UNL     1      -2.743  -0.884  -0.942  1.00  0.00     0.052 C 
HETATM   19  C9  UNL     1      -3.984  -1.720  -0.684  1.00  0.00     0.234 C 
HETATM   20  N3  UNL     1      -3.939  -2.415   0.582  1.00  0.00    -0.075 N 
HETATM   21  C10 UNL     1      -4.027  -1.493   1.675  1.00  0.00     0.234 C 
ATOM     22  H32 UNL     1      -4.656  -3.138   0.640  1.00  0.00     0.277 HD
ATOM     23  H31 UNL     1      -3.114  -3.010   0.656  1.00  0.00     0.277 HD
HETATM   24  C11 UNL     1      -3.362  -0.218   1.281  1.00  0.00     0.052 C 
ENDBRANCH  15  17
ENDBRANCH   1  15
TORSDOF 5
