REMARK  5 active torsions:
REMARK  status: ('A' for Active; 'I' for Inactive)
REMARK    1  A    between atoms: O1_1  and  C1_3 
REMARK    2  A    between atoms: C1_3  and  C2_4 
REMARK    3  A    between atoms: C2_4  and  N1_5 
REMARK    4  A    between atoms: C5_13  and  C6_14 
REMARK    5  A    between atoms: C6_14  and  C7_15 
ROOT
HETATM    1  N1  UNL     1      -3.132   0.544   0.631  1.00  0.00    -0.306 N 
HETATM    2  C3  UNL     1      -3.843   0.079   1.755  1.00  0.00     0.194 A 
HETATM    3  S1  UNL     1      -5.203   0.657   2.451  1.00  0.00    -0.039 SA
HETATM    4  N2  UNL     1      -3.129  -1.071   2.226  1.00  0.00    -0.274 N 
ATOM      5  H2  UNL     1      -3.381  -1.646   3.030  1.00  0.00     0.189 HD
HETATM    6  N3  UNL     1      -2.021  -1.267   1.386  1.00  0.00    -0.283 N 
ATOM      7  H3  UNL     1      -1.340  -2.019   1.494  1.00  0.00     0.188 HD
HETATM    8  C4  UNL     1      -1.974  -0.280   0.365  1.00  0.00     0.120 A 
HETATM    9  C5  UNL     1      -1.103  -0.124  -0.610  1.00  0.00     0.024 C 
ENDROOT
BRANCH   1  10
HETATM   10  C2  UNL     1      -3.504   1.688  -0.166  1.00  0.00     0.159 C 
BRANCH  10  11
HETATM   11  C1  UNL     1      -4.795   1.313  -0.904  1.00  0.00     0.184 C 
BRANCH  11  12
HETATM   12  O1  UNL     1      -4.565   0.187  -1.717  1.00  0.00    -0.399 OA
ATOM     13  H1  UNL     1      -5.365  -0.045  -2.174  1.00  0.00     0.209 HD
ENDBRANCH  11  12
ENDBRANCH  10  11
ENDBRANCH   1  10
BRANCH   9  14
HETATM   14  C6  UNL     1       0.018  -1.038  -0.753  1.00  0.00     0.035 C 
BRANCH  14  15
HETATM   15  C7  UNL     1       1.368  -0.409  -0.693  1.00  0.00    -0.011 C 
HETATM   16  C8  UNL     1       1.712   0.313   0.558  1.00  0.00     0.005 C 
HETATM   17  C9  UNL     1       2.822   1.313   0.217  1.00  0.00     0.000 C 
HETATM   18  C10 UNL     1       4.192   0.774   0.434  1.00  0.00     0.000 C 
HETATM   19  C11 UNL     1       4.508  -0.526  -0.203  1.00  0.00     0.000 C 
HETATM   20  C12 UNL     1       3.692  -0.900  -1.393  1.00  0.00     0.000 C 
HETATM   21  C13 UNL     1       2.399  -1.525  -0.900  1.00  0.00     0.005 C 
ENDBRANCH  14  15
ENDBRANCH   9  14
TORSDOF 5
