REMARK  3 active torsions:
REMARK  status: ('A' for Active; 'I' for Inactive)
REMARK    1  A    between atoms: N1_1  and  C1_4 
REMARK    2  A    between atoms: C2_6  and  C3_7 
REMARK    3  A    between atoms: N3_12  and  O2_13 
ROOT
HETATM    1  C1  UNL     1       3.043   0.541   0.121  1.00  0.00     0.130 A 
HETATM    2  S1  UNL     1       1.373   0.870  -0.057  1.00  0.00    -0.047 SA
HETATM    3  C2  UNL     1       0.543  -0.564   0.292  1.00  0.00     0.098 A 
HETATM    4  N3  UNL     1       1.339  -1.593   0.615  1.00  0.00    -0.187 N 
HETATM    5  S2  UNL     1       2.941  -1.095   0.563  1.00  0.00     0.042 SA
ENDROOT
BRANCH   3   6
HETATM    6  C3  UNL     1      -0.933  -0.646   0.237  1.00  0.00     0.089 C 
HETATM    7  C4  UNL     1      -1.338  -0.252  -1.187  1.00  0.00     0.156 C 
HETATM    8  N2  UNL     1      -2.490   0.569  -0.939  1.00  0.00    -0.100 NA
HETATM    9  O1  UNL     1      -2.080   1.345   0.094  1.00  0.00    -0.286 OA
HETATM   10  C5  UNL     1      -1.607   0.446   1.035  1.00  0.00     0.208 C 
ENDBRANCH   3   6
BRANCH   4  11
HETATM   11  O2  UNL     1       0.955  -2.885   0.948  1.00  0.00    -0.276 OA
ATOM     12  H2  UNL     1       1.519  -3.614   1.177  1.00  0.00     0.246 HD
ENDBRANCH   4  11
BRANCH   1  13
HETATM   13  N1  UNL     1       4.044   1.328  -0.042  1.00  0.00    -0.387 N 
ATOM     14  H12 UNL     1       4.105   2.311  -0.308  1.00  0.00     0.157 HD
ATOM     15  H11 UNL     1       5.039   1.132   0.064  1.00  0.00     0.157 HD
ENDBRANCH   1  13
TORSDOF 3
