REMARK  8 active torsions:
REMARK  status: ('A' for Active; 'I' for Inactive)
REMARK    1  A    between atoms: C2_2  and  C3_3 
REMARK    2  A    between atoms: C3_3  and  C4_4 
REMARK    3  A    between atoms: C4_4  and  C5_5 
REMARK    4  A    between atoms: C5_5  and  C7_7 
REMARK    5  A    between atoms: C7_7  and  O1_10 
REMARK    6  A    between atoms: O1_10  and  C9_11 
REMARK    7  A    between atoms: C9_11  and  C10_13 
REMARK    8  A    between atoms: C10_13  and  C11_14 
ROOT
HETATM    1  C7  UNL     1      -0.431  -0.759   0.374  1.00  0.00     0.210 C 
HETATM    2  C8  UNL     1      -0.415  -2.014  -0.485  1.00  0.00     0.085 C 
HETATM    3  F1  UNL     1      -1.142  -0.974   1.534  1.00  0.00    -0.211 F 
ENDROOT
BRANCH   1   4
HETATM    4  C5  UNL     1       0.954  -0.334   0.743  1.00  0.00     0.049 C 
HETATM    5  C6  UNL     1       1.584  -1.449   1.548  1.00  0.00     0.016 C 
BRANCH   4   6
HETATM    6  C4  UNL     1       1.808  -0.028  -0.470  1.00  0.00     0.010 C 
BRANCH   6   7
HETATM    7  C3  UNL     1       3.181   0.397   0.017  1.00  0.00     0.000 C 
BRANCH   7   8
HETATM    8  C2  UNL     1       4.090   0.719  -1.151  1.00  0.00    -0.005 C 
HETATM    9  C1  UNL     1       5.423   1.128  -0.563  1.00  0.00     0.005 C 
ENDBRANCH   7   8
ENDBRANCH   6   7
ENDBRANCH   4   6
ENDBRANCH   1   4
BRANCH   1  10
HETATM   10  O1  UNL     1      -1.093   0.246  -0.371  1.00  0.00    -0.302 OA
BRANCH  10  11
HETATM   11  C9  UNL     1      -2.393   0.091  -0.832  1.00  0.00     0.116 C 
HETATM   12  S1  UNL     1      -2.649  -0.799  -2.165  1.00  0.00    -0.058 SA
BRANCH  11  13
HETATM   13  C10 UNL     1      -3.466   0.757  -0.061  1.00  0.00     0.077 C 
BRANCH  13  14
HETATM   14  C11 UNL     1      -4.830   0.519  -0.655  1.00  0.00     0.003 C 
HETATM   15  C12 UNL     1      -5.827   1.260   0.238  1.00  0.00     0.005 C 
ENDBRANCH  13  14
ENDBRANCH  11  13
ENDBRANCH  10  11
ENDBRANCH   1  10
TORSDOF 8
