REMARK  3 active torsions:
REMARK  status: ('A' for Active; 'I' for Inactive)
REMARK    1  A    between atoms: C5_6  and  C6_7 
REMARK    2  A    between atoms: C6_7  and  C7_8 
REMARK    3  A    between atoms: C7_8  and  C8_9 
ROOT
HETATM    1  C1  UNL     1       3.911   1.213   0.471  1.00  0.00     0.221 C 
HETATM    2  N1  UNL     1       3.000   0.684   0.025  1.00  0.00    -0.466 NA
HETATM    3  C2  UNL     1       1.875   0.039  -0.503  1.00  0.00     0.161 C 
HETATM    4  C3  UNL     1       1.775  -1.329   0.119  1.00  0.00     0.040 C 
HETATM    5  C4  UNL     1       0.329  -1.662  -0.022  1.00  0.00     0.008 C 
HETATM    6  C5  UNL     1      -0.408  -0.343   0.260  1.00  0.00    -0.011 C 
HETATM    7  C9  UNL     1       0.601   0.709  -0.065  1.00  0.00     0.044 C 
ENDROOT
BRANCH   6   8
HETATM    8  C6  UNL     1      -1.620  -0.383  -0.587  1.00  0.00     0.011 C 
BRANCH   8   9
HETATM    9  C7  UNL     1      -2.548   0.794  -0.485  1.00  0.00     0.070 C 
BRANCH   9  10
HETATM   10  C8  UNL     1      -3.091   1.016   0.857  1.00  0.00     0.231 C 
HETATM   11  O1  UNL     1      -2.735   1.996   1.503  1.00  0.00    -0.307 OA
ENDBRANCH   9  10
ENDBRANCH   8   9
ENDBRANCH   6   8
TORSDOF 3
