REMARK  3 active torsions:
REMARK  status: ('A' for Active; 'I' for Inactive)
REMARK    1  A    between atoms: C5_5  and  C6_6 
REMARK    2  A    between atoms: C6_6  and  N1_9 
REMARK    3  A    between atoms: N1_9  and  C9_11 
ROOT
HETATM    1  C1  UNL     1       3.732  -1.553   0.975  1.00  0.00     0.012 C 
HETATM    2  C2  UNL     1       2.860  -0.818   0.575  1.00  0.00    -0.112 C 
HETATM    3  C3  UNL     1       1.793   0.087   0.104  1.00  0.00     0.074 A 
HETATM    4  C4  UNL     1       1.234  -0.262  -1.231  1.00  0.00     0.030 A 
HETATM    5  C5  UNL     1       0.400  -0.456   0.001  1.00  0.00     0.052 A 
ENDROOT
BRANCH   5   6
HETATM    6  C6  UNL     1      -0.795   0.427   0.047  1.00  0.00     0.013 C 
HETATM    7  C7  UNL     1      -1.953  -0.181   0.120  1.00  0.00    -0.006 C 
HETATM    8  C8  UNL     1      -1.982  -1.679   0.150  1.00  0.00     0.038 C 
BRANCH   6   9
HETATM    9  N1  UNL     1      -0.605   1.828   0.004  1.00  0.00    -0.338 N 
ATOM     10  H1  UNL     1       0.364   2.136  -0.071  1.00  0.00     0.168 HD
BRANCH   9  11
HETATM   11  C9  UNL     1      -1.554   2.847   0.050  1.00  0.00     0.353 C 
HETATM   12  O1  UNL     1      -2.773   2.661   0.141  1.00  0.00    -0.283 OA
ENDBRANCH   9  11
ENDBRANCH   6   9
ENDBRANCH   5   6
TORSDOF 3
