REMARK  2 active torsions:
REMARK  status: ('A' for Active; 'I' for Inactive)
REMARK    1  A    between atoms: C2_2  and  C3_3 
REMARK    2  A    between atoms: C3_3  and  C4_4 
ROOT
HETATM    1  C4  UNL     1       0.571  -0.017  -0.759  1.00  0.00     0.197 C 
HETATM    2  C5  UNL     1       0.504  -1.519  -0.559  1.00  0.00     0.062 C 
HETATM    3  C6  UNL     1      -0.972  -1.289  -0.690  1.00  0.00     0.242 C 
HETATM    4  N1  UNL     1      -0.727   0.061  -0.215  1.00  0.00    -0.037 N 
HETATM    5  C7  UNL     1      -1.694   0.945  -0.832  1.00  0.00     0.267 C 
HETATM    6  C8  UNL     1      -2.884   0.704   0.071  1.00  0.00     0.262 C 
HETATM    7  N2  UNL     1      -2.321   0.483   1.385  1.00  0.00    -0.049 N 
ATOM      8  H21 UNL     1      -2.792  -0.259   1.902  1.00  0.00     0.279 HD
ATOM      9  H22 UNL     1      -2.518   1.243   2.037  1.00  0.00     0.279 HD
HETATM   10  C9  UNL     1      -0.888   0.237   1.207  1.00  0.00     0.468 C 
ENDROOT
BRANCH   1  11
HETATM   11  C3  UNL     1       1.640   0.647   0.068  1.00  0.00     0.060 C 
BRANCH  11  12
HETATM   12  C2  UNL     1       2.989   0.137  -0.253  1.00  0.00    -0.035 C 
HETATM   13  C1  UNL     1       3.723  -0.438   0.674  1.00  0.00     0.007 C 
ENDBRANCH  11  12
ENDBRANCH   1  11
TORSDOF 2
