REMARK  4 active torsions:
REMARK  status: ('A' for Active; 'I' for Inactive)
REMARK    1  A    between atoms: N1_1  and  C1_4 
REMARK    2  A    between atoms: C2_9  and  C3_10 
REMARK    3  A    between atoms: C3_10  and  C4_11 
REMARK    4  A    between atoms: C4_11  and  C5_12 
ROOT
HETATM    1  C1  UNL     1       4.018   0.655  -0.099  1.00  0.00     0.158 A 
HETATM    2  N2  UNL     1       3.072   1.100   0.732  1.00  0.00    -0.279 N 
ATOM      3  H2  UNL     1       3.213   1.954   1.272  1.00  0.00     0.189 HD
HETATM    4  N3  UNL     1       2.003   0.445   0.836  1.00  0.00    -0.296 N 
ATOM      5  H3  UNL     1       1.280   0.785   1.470  1.00  0.00     0.187 HD
HETATM    6  C2  UNL     1       1.781  -0.660   0.159  1.00  0.00     0.069 A 
HETATM    7  S2  UNL     1       3.299  -0.754  -0.726  1.00  0.00    -0.038 SA
ENDROOT
BRANCH   6   8
HETATM    8  C3  UNL     1       0.673  -1.628   0.056  1.00  0.00     0.067 C 
BRANCH   8   9
HETATM    9  C4  UNL     1      -0.627  -1.307   0.628  1.00  0.00     0.012 C 
BRANCH   9  10
HETATM   10  C5  UNL     1      -1.464  -0.248   0.022  1.00  0.00    -0.004 C 
HETATM   11  C6  UNL     1      -2.757  -0.211   0.857  1.00  0.00     0.015 C 
HETATM   12  C7  UNL     1      -3.692   0.713   0.162  1.00  0.00     0.074 C 
HETATM   13  S1  UNL     1      -2.545   2.016  -0.443  1.00  0.00    -0.169 SA
HETATM   14  C8  UNL     1      -0.955   1.128   0.008  1.00  0.00     0.078 C 
ENDBRANCH   9  10
ENDBRANCH   8   9
ENDBRANCH   6   8
BRANCH   1  15
HETATM   15  N1  UNL     1       5.192   1.195  -0.342  1.00  0.00    -0.379 N 
ATOM     16  H12 UNL     1       5.623   2.040   0.034  1.00  0.00     0.158 HD
ATOM     17  H11 UNL     1       5.915   0.855  -0.977  1.00  0.00     0.158 HD
ENDBRANCH   1  15
TORSDOF 4
