REMARK  3 active torsions:
REMARK  status: ('A' for Active; 'I' for Inactive)
REMARK    1  A    between atoms: C2_2  and  C3_3 
REMARK    2  A    between atoms: C3_3  and  O1_4 
REMARK    3  A    between atoms: O1_4  and  C4_5 
ROOT
HETATM    1  C4  UNL     1       0.176  -0.895   0.155  1.00  0.00     0.169 C 
HETATM    2  C5  UNL     1      -0.264  -1.873   1.242  1.00  0.00     0.036 C 
HETATM    3  C6  UNL     1      -1.716  -2.132   1.009  1.00  0.00     0.007 C 
HETATM    4  C7  UNL     1      -2.171  -1.174  -0.069  1.00  0.00     0.055 C 
HETATM    5  C8  UNL     1      -1.081  -0.148  -0.122  1.00  0.00     0.163 C 
HETATM    6  O2  UNL     1      -1.065   0.619  -1.276  1.00  0.00    -0.295 OA
HETATM    7  C9  UNL     1      -1.821   1.754  -1.261  1.00  0.00     0.224 C 
HETATM    8  N1  UNL     1      -2.418   2.214  -2.318  1.00  0.00    -0.365 N 
ATOM      9  H11 UNL     1      -2.983   3.063  -2.307  1.00  0.00     0.159 HD
ATOM     10  H12 UNL     1      -2.362   1.759  -3.229  1.00  0.00     0.159 HD
HETATM   11  N2  UNL     1      -1.899   2.382  -0.002  1.00  0.00    -0.293 N 
ATOM     12  H2  UNL     1      -2.200   3.336   0.200  1.00  0.00     0.177 HD
HETATM   13  S1  UNL     1      -1.364   1.160   1.147  1.00  0.00    -0.010 SA
ENDROOT
BRANCH   1  14
HETATM   14  O1  UNL     1       1.209  -0.078   0.610  1.00  0.00    -0.378 OA
BRANCH  14  15
HETATM   15  C3  UNL     1       2.344  -0.251  -0.188  1.00  0.00     0.195 C 
BRANCH  15  16
HETATM   16  C2  UNL     1       3.417   0.633   0.328  1.00  0.00    -0.011 C 
HETATM   17  C1  UNL     1       3.929   1.555  -0.446  1.00  0.00     0.009 C 
ENDBRANCH  15  16
ENDBRANCH  14  15
ENDBRANCH   1  14
TORSDOF 3
