REMARK  4 active torsions:
REMARK  status: ('A' for Active; 'I' for Inactive)
REMARK    1  A    between atoms: C2_2  and  C3_3 
REMARK    2  A    between atoms: C3_3  and  C4_4 
REMARK    3  A    between atoms: C4_4  and  N1_5 
REMARK    4  A    between atoms: N1_5  and  C5_7 
ROOT
HETATM    1  C5  UNL     1      -0.562  -0.337  -0.475  1.00  0.00     0.385 C 
HETATM    2  N2  UNL     1      -0.797   1.048  -0.481  1.00  0.00    -0.353 N 
ATOM      3  H2  UNL     1      -0.114   1.693  -0.879  1.00  0.00     0.163 HD
HETATM    4  C6  UNL     1      -1.898   1.483   0.029  1.00  0.00     0.001 C 
HETATM    5  C7  UNL     1      -2.195   2.955   0.043  1.00  0.00     0.064 C 
HETATM    6  C8  UNL     1      -2.944   0.615   0.627  1.00  0.00     0.168 C 
HETATM    7  C9  UNL     1      -4.169   0.768  -0.152  1.00  0.00     0.072 C 
HETATM    8  N3  UNL     1      -5.166   0.883  -0.761  1.00  0.00    -0.196 NA
HETATM    9  C10 UNL     1      -2.495  -0.822   0.728  1.00  0.00     0.209 C 
HETATM   10  C11 UNL     1      -3.048  -1.674  -0.386  1.00  0.00     0.042 C 
HETATM   11  N4  UNL     1      -1.042  -0.872   0.805  1.00  0.00    -0.031 N 
ATOM     12  H41 UNL     1      -0.658  -0.393   1.619  1.00  0.00     0.282 HD
ATOM     13  H42 UNL     1      -0.675  -1.798   1.026  1.00  0.00     0.282 HD
ENDROOT
BRANCH   1  14
HETATM   14  N1  UNL     1       0.737  -0.795  -0.800  1.00  0.00    -0.380 N 
ATOM     15  H1  UNL     1       0.900  -1.441  -1.573  1.00  0.00     0.157 HD
BRANCH  14  16
HETATM   16  C4  UNL     1       1.816  -0.303   0.016  1.00  0.00     0.117 C 
BRANCH  16  17
HETATM   17  C3  UNL     1       3.060  -1.038  -0.438  1.00  0.00     0.019 C 
BRANCH  17  18
HETATM   18  C2  UNL     1       4.303  -0.672   0.295  1.00  0.00    -0.003 C 
HETATM   19  C1  UNL     1       4.683   0.772   0.165  1.00  0.00     0.005 C 
ENDBRANCH  17  18
ENDBRANCH  16  17
ENDBRANCH  14  16
ENDBRANCH   1  14
TORSDOF 4
