REMARK  6 active torsions:
REMARK  status: ('A' for Active; 'I' for Inactive)
REMARK    1  A    between atoms: C3_4  and  O1_5 
REMARK    2  A    between atoms: C5_8  and  O2_9 
REMARK    3  A    between atoms: C7_12  and  N2_13 
REMARK    4  A    between atoms: N3_15  and  C8_17 
REMARK    5  A    between atoms: C8_17  and  N4_19 
REMARK    6  A    between atoms: N4_19  and  N5_21 
ROOT
HETATM    1  N1  UNL     1      -6.201   2.122  -0.237  1.00  0.00    -0.191 NA
HETATM    2  C1  UNL     1      -5.166   1.641  -0.002  1.00  0.00     0.105 C 
HETATM    3  C2  UNL     1      -3.889   1.051   0.281  1.00  0.00     0.116 A 
HETATM    4  C3  UNL     1      -2.973   0.825  -0.769  1.00  0.00     0.106 A 
HETATM    5  C4  UNL     1      -1.748   0.260  -0.507  1.00  0.00     0.076 A 
HETATM    6  C5  UNL     1      -0.819   0.016  -1.477  1.00  0.00     0.086 A 
HETATM    7  C6  UNL     1       0.428  -0.562  -1.196  1.00  0.00     0.087 A 
HETATM    8  C7  UNL     1       0.688  -0.879   0.119  1.00  0.00     0.124 A 
HETATM    9  N6  UNL     1      -0.243  -0.629   1.055  1.00  0.00    -0.327 N 
ATOM     10  H6  UNL     1      -0.021  -0.876   2.019  1.00  0.00     0.169 HD
HETATM   11  C9  UNL     1      -1.440  -0.080   0.816  1.00  0.00     0.123 A 
HETATM   12  N7  UNL     1      -2.336   0.150   1.790  1.00  0.00    -0.331 N 
ATOM     13  H7  UNL     1      -2.095  -0.103   2.748  1.00  0.00     0.168 HD
HETATM   14  C10 UNL     1      -3.538   0.701   1.550  1.00  0.00     0.126 A 
HETATM   15  S2  UNL     1      -4.592   0.953   2.815  1.00  0.00    -0.059 SA
ENDROOT
BRANCH   4  16
HETATM   16  O1  UNL     1      -3.356   1.182  -1.999  1.00  0.00    -0.358 OA
ATOM     17  H1  UNL     1      -2.740   1.030  -2.706  1.00  0.00     0.217 HD
ENDBRANCH   4  16
BRANCH   6  18
HETATM   18  O2  UNL     1      -1.067   0.330  -2.800  1.00  0.00    -0.359 OA
ATOM     19  H2  UNL     1      -0.420   0.160  -3.475  1.00  0.00     0.217 HD
ENDBRANCH   6  18
BRANCH   8  20
HETATM   20  N2  UNL     1       1.949  -1.472   0.459  1.00  0.00    -0.283 N 
HETATM   21  N3  UNL     1       3.035  -0.968   0.072  1.00  0.00    -0.274 N 
ATOM     22  H3  UNL     1       3.044  -0.121  -0.496  1.00  0.00     0.189 HD
ATOM     23  H2  UNL     1       1.966  -2.320   1.026  1.00  0.00     0.188 HD
BRANCH  21  24
HETATM   24  C8  UNL     1       4.248  -1.605   0.444  1.00  0.00     0.204 C 
HETATM   25  S1  UNL     1       4.259  -3.143   0.999  1.00  0.00    -0.038 SA
BRANCH  24  26
HETATM   26  N4  UNL     1       5.476  -0.899   0.335  1.00  0.00    -0.282 N 
ATOM     27  H4  UNL     1       6.348  -1.356   0.603  1.00  0.00     0.189 HD
BRANCH  26  28
HETATM   28  N5  UNL     1       5.498   0.419  -0.137  1.00  0.00    -0.343 N 
ATOM     29  H52 UNL     1       4.617   0.861  -0.400  1.00  0.00     0.176 HD
ATOM     30  H51 UNL     1       6.380   0.926  -0.215  1.00  0.00     0.176 HD
ENDBRANCH  26  28
ENDBRANCH  24  26
ENDBRANCH  21  24
ENDBRANCH   8  20
TORSDOF 6
