REMARK  5 active torsions:
REMARK  status: ('A' for Active; 'I' for Inactive)
REMARK    1  A    between atoms: C3_5  and  N2_6 
REMARK    2  A    between atoms: N3_9  and  O1_10 
REMARK    3  A    between atoms: C11_19  and  O2_20 
REMARK    4  A    between atoms: C12_22  and  O3_23 
REMARK    5  A    between atoms: C13_25  and  O4_26 
ROOT
HETATM    1  C1  UNL     1      -0.316   2.700   2.816  1.00  0.00     0.097 C 
HETATM    2  C2  UNL     1      -0.688   1.592   1.866  1.00  0.00     0.117 A 
HETATM    3  N1  UNL     1       0.031   0.554   1.755  1.00  0.00    -0.352 N 
ATOM      4  H1  UNL     1       0.866   0.507   2.339  1.00  0.00     0.163 HD
HETATM    5  C3  UNL     1      -0.221  -0.578   0.874  1.00  0.00     0.215 A 
HETATM    6  C8  UNL     1      -1.474  -0.351   0.116  1.00  0.00     0.026 A 
HETATM    7  C9  UNL     1      -1.923  -1.315  -0.794  1.00  0.00    -0.013 A 
HETATM    8  C10 UNL     1      -1.111  -2.546  -0.924  1.00  0.00     0.052 C 
HETATM    9  C11 UNL     1      -3.064  -1.151  -1.524  1.00  0.00     0.108 A 
HETATM   10  C12 UNL     1      -3.826   0.011  -1.373  1.00  0.00     0.136 A 
HETATM   11  C13 UNL     1      -3.411   0.977  -0.486  1.00  0.00     0.136 A 
HETATM   12  C14 UNL     1      -2.251   0.782   0.238  1.00  0.00     0.123 A 
HETATM   13  O5  UNL     1      -1.848   1.783   1.140  1.00  0.00    -0.295 OA
ENDROOT
BRANCH   5  14
HETATM   14  N2  UNL     1       0.922  -0.738  -0.009  1.00  0.00    -0.205 NA
HETATM   15  C4  UNL     1       1.164   0.411  -0.817  1.00  0.00     0.133 C 
HETATM   16  C5  UNL     1       2.453   0.142  -1.599  1.00  0.00     0.139 C 
HETATM   17  N3  UNL     1       3.520   0.128  -0.640  1.00  0.00    -0.175 NA
HETATM   18  C6  UNL     1       3.221  -0.555   0.581  1.00  0.00     0.190 C 
HETATM   19  C7  UNL     1       3.344   0.411   1.754  1.00  0.00     0.052 C 
HETATM   20  N4  UNL     1       2.011  -1.298   0.597  1.00  0.00    -0.332 N 
ATOM     21  H4  UNL     1       1.957  -2.214   1.043  1.00  0.00     0.176 HD
BRANCH  17  22
HETATM   22  O1  UNL     1       4.680  -0.208  -1.204  1.00  0.00    -0.311 OA
ATOM     23  H1  UNL     1       5.387  -0.217  -0.569  1.00  0.00     0.237 HD
ENDBRANCH  17  22
ENDBRANCH   5  14
BRANCH   9  24
HETATM   24  O2  UNL     1      -3.511  -2.096  -2.425  1.00  0.00    -0.357 OA
ATOM     25  H2  UNL     1      -4.305  -1.982  -2.933  1.00  0.00     0.217 HD
ENDBRANCH   9  24
BRANCH  11  26
HETATM   26  O4  UNL     1      -4.192   2.122  -0.359  1.00  0.00    -0.356 OA
ATOM     27  H4  UNL     1      -3.905   2.789   0.254  1.00  0.00     0.218 HD
ENDBRANCH  11  26
BRANCH  10  28
HETATM   28  O3  UNL     1      -4.987   0.150  -2.134  1.00  0.00    -0.356 OA
ATOM     29  H3  UNL     1      -5.505   0.940  -2.031  1.00  0.00     0.218 HD
ENDBRANCH  10  28
TORSDOF 5
