REMARK  4 active torsions:
REMARK  status: ('A' for Active; 'I' for Inactive)
REMARK       I    between atoms: C2_2  and  N1_4 
REMARK    1  A    between atoms: N1_4  and  C3_5 
REMARK    2  A    between atoms: C4_6  and  O2_7 
REMARK    3  A    between atoms: C6_11  and  O3_12 
REMARK    4  A    between atoms: N3_19  and  O4_20 
ROOT
HETATM    1  C3  UNL     1      -2.131  -0.740   0.063  1.00  0.00     0.164 A 
HETATM    2  C4  UNL     1      -2.203  -1.884   0.842  1.00  0.00     0.135 A 
HETATM    3  C5  UNL     1      -1.027  -2.417   1.293  1.00  0.00     0.117 A 
HETATM    4  N2  UNL     1      -1.087  -3.607   2.107  1.00  0.00    -0.096 NA
HETATM    5  C6  UNL     1       0.194  -1.855   0.997  1.00  0.00     0.107 A 
HETATM    6  C7  UNL     1       0.308  -0.695   0.210  1.00  0.00     0.056 A 
HETATM    7  C8  UNL     1       1.440  -0.037  -0.157  1.00  0.00     0.119 A 
HETATM    8  C9  UNL     1       1.293   1.079  -0.929  1.00  0.00     0.133 A 
HETATM    9  S1  UNL     1      -0.398   1.189  -1.129  1.00  0.00    -0.063 SA
HETATM   10  C10 UNL     1      -0.874  -0.180  -0.229  1.00  0.00     0.066 A 
HETATM   11  N3  UNL     1       2.412   1.872  -1.383  1.00  0.00    -0.245 N 
HETATM   12  C11 UNL     1       3.763   1.563  -0.964  1.00  0.00     0.136 C 
HETATM   13  C12 UNL     1       3.907   2.150   0.448  1.00  0.00     0.037 C 
HETATM   14  C13 UNL     1       3.791   0.034  -0.839  1.00  0.00     0.203 C 
HETATM   15  O5  UNL     1       2.809  -0.325   0.137  1.00  0.00    -0.345 OA
ENDROOT
BRANCH   1  16
HETATM   16  N1  UNL     1      -3.214  -0.070  -0.442  1.00  0.00    -0.367 NA
HETATM   17  C2  UNL     1      -4.264   0.580  -0.933  1.00  0.00     0.288 C 
HETATM   18  C1  UNL     1      -4.875   1.694  -0.072  1.00  0.00     0.135 C 
HETATM   19  O1  UNL     1      -4.874   0.435  -2.031  1.00  0.00    -0.258 OA
ENDBRANCH   1  16
BRANCH   2  20
HETATM   20  O2  UNL     1      -3.465  -2.389   1.095  1.00  0.00    -0.356 OA
ATOM     21  H2  UNL     1      -3.514  -3.173   1.629  1.00  0.00     0.218 HD
ENDBRANCH   2  20
BRANCH   5  22
HETATM   22  O3  UNL     1       1.299  -2.498   1.519  1.00  0.00    -0.358 OA
ATOM     23  H3  UNL     1       2.142  -2.110   1.315  1.00  0.00     0.217 HD
ENDBRANCH   5  22
BRANCH  11  24
HETATM   24  O4  UNL     1       2.102   2.895  -2.209  1.00  0.00    -0.286 OA
ATOM     25  H4  UNL     1       2.838   3.416  -2.508  1.00  0.00     0.244 HD
ENDBRANCH  11  24
TORSDOF 4
