REMARK  12 active torsions:
REMARK  status: ('A' for Active; 'I' for Inactive)
REMARK    1  A    between atoms: C2_2  and  C3_3 
REMARK    2  A    between atoms: C3_3  and  C4_4 
REMARK    3  A    between atoms: C4_4  and  N1_5 
REMARK       I    between atoms: N1_5  and  C5_7 
REMARK    4  A    between atoms: C5_7  and  C6_9 
REMARK    5  A    between atoms: C6_9  and  N2_10 
REMARK    6  A    between atoms: C6_9  and  C24_42 
REMARK       I    between atoms: N2_10  and  C7_12 
REMARK    7  A    between atoms: C7_12  and  O3_14 
REMARK    8  A    between atoms: O3_14  and  C8_15 
REMARK    9  A    between atoms: C10_17  and  N3_18 
REMARK       I    between atoms: N3_18  and  C11_20 
REMARK   10  A    between atoms: C11_20  and  C12_22 
REMARK   11  A    between atoms: C15_25  and  C16_26 
REMARK   12  A    between atoms: C16_26  and  C17_28 
REMARK       I    between atoms: C17_28  and  N4_30 
ROOT
HETATM    1  C8  UNL     1       1.626   1.729  -0.697  1.00  0.00     0.147 C 
HETATM    2  C9  UNL     1       1.838   3.213  -0.455  1.00  0.00     0.058 C 
HETATM    3  C10 UNL     1       3.310   3.476  -0.707  1.00  0.00     0.087 C 
HETATM    4  C14 UNL     1       3.839   2.339  -1.512  1.00  0.00     0.040 C 
HETATM    5  C15 UNL     1       2.748   1.263  -1.549  1.00  0.00     0.097 C 
ENDROOT
BRANCH   1   6
HETATM    6  O3  UNL     1       0.336   1.470  -1.214  1.00  0.00    -0.298 OA
BRANCH   6   7
HETATM    7  C7  UNL     1      -0.622   0.771  -0.526  1.00  0.00     0.361 C 
HETATM    8  N2  UNL     1      -1.913   0.485  -0.996  1.00  0.00    -0.323 N 
ATOM      9  H2  UNL     1      -2.190   0.801  -1.926  1.00  0.00     0.165 HD
HETATM   10  O2  UNL     1      -0.301   0.360   0.623  1.00  0.00    -0.238 OA
BRANCH   8  11
HETATM   11  C6  UNL     1      -2.859  -0.251  -0.184  1.00  0.00     0.183 C 
BRANCH  11  12
HETATM   12  C5  UNL     1      -3.991   0.607   0.213  1.00  0.00     0.240 C 
HETATM   13  N1  UNL     1      -5.351   0.251   0.262  1.00  0.00    -0.359 N 
ATOM     14  H1  UNL     1      -5.630  -0.694  -0.001  1.00  0.00     0.162 HD
HETATM   15  O1  UNL     1      -3.748   1.830   0.555  1.00  0.00    -0.271 OA
BRANCH  13  16
HETATM   16  C4  UNL     1      -6.377   1.214   0.684  1.00  0.00     0.122 C 
BRANCH  16  17
HETATM   17  C3  UNL     1      -7.747   0.626   0.681  1.00  0.00     0.019 C 
BRANCH  17  18
HETATM   18  C2  UNL     1      -7.829  -0.529   1.626  1.00  0.00    -0.003 C 
HETATM   19  C1  UNL     1      -9.207  -1.159   1.651  1.00  0.00     0.005 C 
ENDBRANCH  17  18
ENDBRANCH  16  17
ENDBRANCH  13  16
ENDBRANCH  11  12
BRANCH  11  20
HETATM   20  C24 UNL     1      -3.213  -1.591  -0.676  1.00  0.00     0.018 C 
HETATM   21  C25 UNL     1      -1.976  -2.381  -1.124  1.00  0.00     0.007 C 
HETATM   22  C26 UNL     1      -2.431  -3.711  -1.601  1.00  0.00     0.000 C 
HETATM   23  C27 UNL     1      -3.898  -3.958  -1.600  1.00  0.00     0.000 C 
HETATM   24  C28 UNL     1      -4.565  -3.567  -0.296  1.00  0.00     0.000 C 
HETATM   25  C29 UNL     1      -3.801  -2.487   0.414  1.00  0.00     0.007 C 
ENDBRANCH  11  20
ENDBRANCH   8  11
ENDBRANCH   6   7
ENDBRANCH   1   6
BRANCH   5  26
HETATM   26  C16 UNL     1       3.317  -0.054  -1.177  1.00  0.00     0.223 C 
HETATM   27  O5  UNL     1       3.270  -0.965  -2.039  1.00  0.00    -0.287 OA
BRANCH  26  28
HETATM   28  C17 UNL     1       3.913  -0.338   0.106  1.00  0.00     0.291 C 
HETATM   29  O6  UNL     1       3.928   0.631   0.932  1.00  0.00    -0.264 OA
HETATM   30  N4  UNL     1       4.466  -1.563   0.516  1.00  0.00    -0.328 N 
HETATM   31  C18 UNL     1       4.509  -2.683  -0.363  1.00  0.00     0.188 C 
HETATM   32  C22 UNL     1       4.983  -1.639   1.896  1.00  0.00     0.160 C 
HETATM   33  C19 UNL     1       5.061  -3.911   0.202  1.00  0.00     0.075 A 
HETATM   34  N5  UNL     1       5.227  -5.226   0.138  1.00  0.00    -0.300 N 
HETATM   35  C20 UNL     1       5.800  -3.932   1.349  1.00  0.00     0.121 A 
HETATM   36  N6  UNL     1       5.949  -5.253   1.257  1.00  0.00    -0.295 N 
ATOM     37  H5  UNL     1       4.919  -5.943  -0.518  1.00  0.00     0.186 HD
ATOM     38  H6  UNL     1       6.415  -5.974   1.807  1.00  0.00     0.187 HD
HETATM   39  C21 UNL     1       6.042  -2.653   2.041  1.00  0.00     0.201 C 
HETATM   40  O7  UNL     1       7.096  -2.482   2.700  1.00  0.00    -0.288 OA
HETATM   41  C23 UNL     1       3.850  -1.901   2.865  1.00  0.00     0.041 C 
ENDBRANCH  26  28
ENDBRANCH   5  26
BRANCH   3  42
HETATM   42  N3  UNL     1       3.526   4.781  -1.280  1.00  0.00    -0.356 N 
HETATM   43  C11 UNL     1       4.385   5.707  -0.670  1.00  0.00     0.217 C 
HETATM   44  O4  UNL     1       4.972   5.378   0.393  1.00  0.00    -0.274 OA
ATOM     45  H3  UNL     1       3.046   5.035  -2.143  1.00  0.00     0.162 HD
BRANCH  43  46
HETATM   46  C12 UNL     1       4.612   7.047  -1.244  1.00  0.00     0.098 C 
HETATM   47  C13 UNL     1       5.596   7.785  -0.366  1.00  0.00     0.014 C 
ENDBRANCH  43  46
ENDBRANCH   3  42
TORSDOF 12
