REMARK  5 active torsions:
REMARK  status: ('A' for Active; 'I' for Inactive)
REMARK    1  A    between atoms: C2_2  and  S1_3 
REMARK    2  A    between atoms: S1_3  and  C3_4 
REMARK    3  A    between atoms: C3_4  and  C4_5 
REMARK    4  A    between atoms: C7_8  and  N1_9 
REMARK       I    between atoms: N1_9  and  C8_11 
REMARK    5  A    between atoms: C8_11  and  C9_13 
REMARK       I    between atoms: N3_23  and  C17_24 
ROOT
HETATM    1  C9  UNL     1       1.719  -1.954   1.599  1.00  0.00     0.079 C 
HETATM    2  C10 UNL     1       1.912  -0.726   2.423  1.00  0.00     0.019 C 
HETATM    3  C11 UNL     1       3.112   0.023   1.893  1.00  0.00    -0.003 C 
HETATM    4  C12 UNL     1       2.623   1.247   1.148  1.00  0.00     0.011 C 
HETATM    5  C13 UNL     1       3.773   1.983   0.532  1.00  0.00     0.060 C 
HETATM    6  C14 UNL     1       4.667   1.032  -0.218  1.00  0.00     0.044 A 
HETATM    7  C15 UNL     1       4.623  -0.326  -0.001  1.00  0.00     0.038 A 
HETATM    8  N2  UNL     1       5.555  -0.844  -0.846  1.00  0.00    -0.353 N 
ATOM      9  H2  UNL     1       5.783  -1.834  -0.943  1.00  0.00     0.166 HD
HETATM   10  C16 UNL     1       6.126   0.159  -1.532  1.00  0.00     0.193 A 
HETATM   11  N3  UNL     1       5.585   1.352  -1.155  1.00  0.00    -0.265 N 
HETATM   12  C17 UNL     1       5.944   2.627  -1.667  1.00  0.00     0.340 C 
HETATM   13  N4  UNL     1       6.935   2.803  -2.657  1.00  0.00    -0.039 NA
HETATM   14  O2  UNL     1       5.356   3.639  -1.221  1.00  0.00    -0.250 OA
HETATM   15  C18 UNL     1       3.735  -0.979   0.952  1.00  0.00     0.042 C 
HETATM   16  C19 UNL     1       2.514  -1.618   0.329  1.00  0.00     0.025 C 
ENDROOT
BRANCH   1  17
HETATM   17  C8  UNL     1       0.330  -2.284   1.320  1.00  0.00     0.222 C 
HETATM   18  N1  UNL     1      -0.495  -1.377   0.615  1.00  0.00    -0.353 N 
ATOM     19  H1  UNL     1      -0.093  -0.491   0.309  1.00  0.00     0.163 HD
HETATM   20  O1  UNL     1      -0.152  -3.374   1.700  1.00  0.00    -0.273 OA
BRANCH  18  21
HETATM   21  C7  UNL     1      -1.886  -1.647   0.307  1.00  0.00     0.121 C 
HETATM   22  C6  UNL     1      -2.056  -1.507  -1.190  1.00  0.00     0.066 C 
HETATM   23  C4  UNL     1      -3.509  -1.097  -1.272  1.00  0.00     0.069 C 
HETATM   24  C5  UNL     1      -4.338  -2.344  -1.532  1.00  0.00     0.047 C 
HETATM   25  O3  UNL     1      -3.847  -0.460  -0.114  1.00  0.00    -0.367 OA
HETATM   26  C20 UNL     1      -2.825  -0.583   0.810  1.00  0.00     0.075 C 
HETATM   27  C21 UNL     1      -2.163   0.759   0.952  1.00  0.00     0.048 C 
HETATM   28  C22 UNL     1      -3.442  -1.007   2.126  1.00  0.00     0.048 C 
BRANCH  23  29
HETATM   29  C3  UNL     1      -3.654  -0.133  -2.428  1.00  0.00     0.111 C 
BRANCH  29  30
HETATM   30  S1  UNL     1      -5.378   0.349  -2.634  1.00  0.00    -0.167 SA
BRANCH  30  31
HETATM   31  C2  UNL     1      -5.990   1.313  -1.244  1.00  0.00     0.069 C 
HETATM   32  C1  UNL     1      -5.323   2.657  -1.120  1.00  0.00     0.016 C 
ENDBRANCH  30  31
ENDBRANCH  29  30
ENDBRANCH  23  29
ENDBRANCH  18  21
ENDBRANCH   1  17
TORSDOF 5
