REMARK  7 active torsions:
REMARK  status: ('A' for Active; 'I' for Inactive)
REMARK    1  A    between atoms: O1_2  and  C2_3 
REMARK    2  A    between atoms: C3_4  and  C4_5 
REMARK    3  A    between atoms: C4_5  and  C5_6 
REMARK    4  A    between atoms: C5_6  and  C6_7 
REMARK    5  A    between atoms: C6_7  and  C7_8 
REMARK    6  A    between atoms: C14_17  and  C15_18 
REMARK    7  A    between atoms: C21_29  and  O6_30 
ROOT
HETATM    1  C2  UNL     1       1.189  -1.134  -0.023  1.00  0.00     0.163 C 
HETATM    2  C3  UNL     1       1.739   0.259  -0.488  1.00  0.00     0.022 C 
HETATM    3  C8  UNL     1       1.082   1.010   0.636  1.00  0.00    -0.004 C 
HETATM    4  C9  UNL     1       1.386   2.435   0.603  1.00  0.00     0.011 C 
HETATM    5  C10 UNL     1      -0.410   0.667   0.390  1.00  0.00     0.035 C 
HETATM    6  C11 UNL     1      -0.985   1.503  -0.619  1.00  0.00     0.006 A 
HETATM    7  C12 UNL     1      -2.301   1.709  -1.051  1.00  0.00    -0.000 A 
HETATM    8  C13 UNL     1      -3.518   0.996  -0.636  1.00  0.00     0.018 C 
HETATM    9  C14 UNL     1      -3.540  -0.501  -0.971  1.00  0.00     0.055 C 
HETATM   10  C16 UNL     1      -2.481  -1.104  -0.161  1.00  0.00     0.166 C 
HETATM   11  O4  UNL     1      -2.708  -2.335   0.457  1.00  0.00    -0.347 OA
HETATM   12  C17 UNL     1      -1.576  -2.464   1.306  1.00  0.00     0.158 C 
HETATM   13  C18 UNL     1      -1.089  -3.903   1.225  1.00  0.00     0.078 C 
HETATM   14  C19 UNL     1      -2.258  -2.412   2.703  1.00  0.00     0.078 C 
HETATM   15  O5  UNL     1      -0.663  -1.515   1.331  1.00  0.00    -0.339 OA
HETATM   16  C20 UNL     1      -0.229  -0.821   0.201  1.00  0.00     0.123 C 
HETATM   17  C21 UNL     1      -1.174  -1.304  -0.860  1.00  0.00     0.185 C 
HETATM   18  C22 UNL     1      -1.722   2.740  -0.162  1.00  0.00    -0.039 A 
HETATM   19  C23 UNL     1      -1.471   4.083  -0.825  1.00  0.00     0.015 C 
HETATM   20  C24 UNL     1      -2.414   2.871   1.151  1.00  0.00     0.015 C 
ENDROOT
BRANCH   2  21
HETATM   21  C4  UNL     1       3.220   0.157  -0.454  1.00  0.00     0.008 C 
BRANCH  21  22
HETATM   22  C5  UNL     1       4.040   1.299  -0.877  1.00  0.00     0.011 C 
BRANCH  22  23
HETATM   23  C6  UNL     1       5.530   0.937  -0.743  1.00  0.00     0.113 C 
BRANCH  23  24
HETATM   24  C7  UNL     1       5.920  -0.218  -1.569  1.00  0.00     0.172 C 
HETATM   25  O2  UNL     1       5.900  -1.390  -1.121  1.00  0.00    -0.648 OA
HETATM   26  O3  UNL     1       6.331  -0.060  -2.886  1.00  0.00    -0.648 OA
ENDBRANCH  23  24
ENDBRANCH  22  23
ENDBRANCH  21  22
ENDBRANCH   2  21
BRANCH   1  27
HETATM   27  O1  UNL     1       1.812  -1.351   1.201  1.00  0.00    -0.387 OA
HETATM   28  C1  UNL     1       2.580  -2.497   1.234  1.00  0.00     0.202 C 
ENDBRANCH   1  27
BRANCH  17  29
HETATM   29  O6  UNL     1      -1.025  -0.823  -2.110  1.00  0.00    -0.390 OA
ATOM     30  H6  UNL     1      -0.195  -0.950  -2.554  1.00  0.00     0.210 HD
ENDBRANCH  17  29
BRANCH   9  31
HETATM   31  C15 UNL     1      -4.896  -1.042  -0.819  1.00  0.00     0.060 C 
HETATM   32  N1  UNL     1      -5.109  -2.042  -0.086  1.00  0.00    -0.411 N 
ATOM     33  H12 UNL     1      -4.321  -2.469   0.400  1.00  0.00     0.155 HD
ATOM     34  H11 UNL     1      -6.051  -2.418   0.020  1.00  0.00     0.155 HD
ENDBRANCH   9  31
TORSDOF 7
