REMARK  6 active torsions:
REMARK  status: ('A' for Active; 'I' for Inactive)
REMARK    1  A    between atoms: C2_2  and  C3_3 
REMARK    2  A    between atoms: C3_3  and  C4_4 
REMARK    3  A    between atoms: C4_4  and  O1_5 
REMARK    4  A    between atoms: C4_4  and  C5_7 
REMARK    5  A    between atoms: C12_14  and  O2_15 
REMARK    6  A    between atoms: O2_15  and  S1_16 
ROOT
HETATM    1  C5  UNL     1       2.371   0.076  -1.148  1.00  0.00     0.043 C 
HETATM    2  C6  UNL     1       2.810   0.811  -2.393  1.00  0.00     0.026 C 
HETATM    3  C7  UNL     1       0.883   0.253  -0.965  1.00  0.00     0.027 C 
HETATM    4  C8  UNL     1       0.354  -0.545   0.207  1.00  0.00     0.026 C 
HETATM    5  C9  UNL     1      -1.032  -0.192   0.583  1.00  0.00    -0.003 C 
HETATM    6  C10 UNL     1      -1.159   1.332   0.403  1.00  0.00     0.008 C 
HETATM    7  C11 UNL     1      -2.425   1.827   1.118  1.00  0.00     0.034 C 
HETATM    8  C12 UNL     1      -3.572   1.213   0.303  1.00  0.00     0.149 C 
HETATM    9  C13 UNL     1      -3.431  -0.277   0.477  1.00  0.00     0.016 C 
HETATM   10  C14 UNL     1      -4.650  -0.990   0.033  1.00  0.00     0.013 C 
HETATM   11  C15 UNL     1      -2.142  -0.809  -0.172  1.00  0.00    -0.002 C 
HETATM   12  C16 UNL     1      -2.235  -2.296  -0.106  1.00  0.00     0.032 C 
HETATM   13  C17 UNL     1      -1.228  -3.042  -0.916  1.00  0.00     0.169 C 
HETATM   14  O6  UNL     1      -0.008  -2.477  -1.037  1.00  0.00    -0.380 OA
HETATM   15  C18 UNL     1       0.617  -2.022   0.070  1.00  0.00     0.068 C 
HETATM   16  C19 UNL     1       0.326  -2.722   1.351  1.00  0.00     0.047 C 
HETATM   17  C20 UNL     1       2.120  -2.237  -0.176  1.00  0.00     0.117 C 
HETATM   18  C21 UNL     1       2.630  -1.379  -1.242  1.00  0.00     0.140 C 
HETATM   19  O7  UNL     1       3.259  -1.775  -2.212  1.00  0.00    -0.297 OA
ENDROOT
BRANCH   1  20
HETATM   20  C4  UNL     1       3.189   0.631  -0.006  1.00  0.00     0.133 C 
BRANCH  20  21
HETATM   21  C3  UNL     1       4.632   0.371  -0.338  1.00  0.00     0.032 C 
BRANCH  21  22
HETATM   22  C2  UNL     1       5.514   0.806   0.790  1.00  0.00    -0.002 C 
HETATM   23  C1  UNL     1       5.399   2.276   1.075  1.00  0.00     0.005 C 
ENDBRANCH  21  22
ENDBRANCH  20  21
BRANCH  20  24
HETATM   24  O1  UNL     1       2.953   1.971   0.214  1.00  0.00    -0.394 OA
ATOM     25  H1  UNL     1       2.041   2.135   0.424  1.00  0.00     0.210 HD
ENDBRANCH  20  24
ENDBRANCH   1  20
BRANCH   8  26
HETATM   26  O2  UNL     1      -4.797   1.584   0.805  1.00  0.00    -0.251 OA
BRANCH  26  27
HETATM   27  S1  UNL     1      -5.744   2.425  -0.280  1.00  0.00     0.251 S 
HETATM   28  O3  UNL     1      -5.213   2.341  -1.690  1.00  0.00    -0.572 OA
HETATM   29  O4  UNL     1      -7.162   1.954  -0.310  1.00  0.00    -0.572 OA
HETATM   30  O5  UNL     1      -5.779   4.038   0.236  1.00  0.00    -0.572 OA
ENDBRANCH  26  27
ENDBRANCH   8  26
TORSDOF 6
