REMARK  8 active torsions:
REMARK  status: ('A' for Active; 'I' for Inactive)
REMARK    1  A    between atoms: O1_2  and  C2_3 
REMARK    2  A    between atoms: C7_8  and  O2_9 
REMARK    3  A    between atoms: C11_13  and  C12_14 
REMARK    4  A    between atoms: C12_14  and  O3_17 
REMARK    5  A    between atoms: N1_27  and  C22_28 
REMARK    6  A    between atoms: C22_28  and  C23_29 
REMARK    7  A    between atoms: C23_29  and  C24_30 
REMARK    8  A    between atoms: C24_30  and  O4_31 
ROOT
HETATM    1  C2  UNL     1      -1.620   4.054   0.352  1.00  0.00     0.102 A 
HETATM    2  C3  UNL     1      -0.426   3.665  -0.212  1.00  0.00     0.047 A 
HETATM    3  C4  UNL     1      -0.046   2.326  -0.293  1.00  0.00    -0.041 A 
HETATM    4  C5  UNL     1      -0.926   1.405   0.219  1.00  0.00    -0.028 A 
HETATM    5  C6  UNL     1      -2.133   1.796   0.791  1.00  0.00     0.049 A 
HETATM    6  C7  UNL     1      -2.505   3.133   0.869  1.00  0.00     0.102 A 
HETATM    7  C9  UNL     1      -0.323   0.060  -0.006  1.00  0.00     0.068 C 
HETATM    8  C10 UNL     1      -0.748  -0.984   0.943  1.00  0.00     0.036 C 
HETATM    9  C11 UNL     1      -1.975  -1.666   0.430  1.00  0.00     0.030 C 
HETATM   10  C15 UNL     1      -1.641  -2.140  -0.987  1.00  0.00     0.082 C 
HETATM   11  S1  UNL     1      -0.943  -0.544  -1.591  1.00  0.00    -0.151 SA
HETATM   12  C16 UNL     1       1.133   0.374  -0.015  1.00  0.00     0.254 C 
HETATM   13  C17 UNL     1       1.176   1.659  -0.809  1.00  0.00     0.055 C 
HETATM   14  C18 UNL     1       1.249   1.497  -2.279  1.00  0.00     0.017 C 
HETATM   15  C19 UNL     1       2.166   0.362  -2.693  1.00  0.00     0.011 C 
HETATM   16  C20 UNL     1       3.261   0.891  -3.652  1.00  0.00     0.011 C 
HETATM   17  C21 UNL     1       2.921  -0.226  -1.539  1.00  0.00     0.277 C 
HETATM   18  N1  UNL     1       2.039  -0.612  -0.454  1.00  0.00     0.096 N 
ENDROOT
BRANCH   9  19
HETATM   19  C12 UNL     1      -2.356  -2.874   1.244  1.00  0.00     0.055 C 
HETATM   20  C13 UNL     1      -2.637  -2.550   2.675  1.00  0.00     0.045 C 
HETATM   21  C14 UNL     1      -1.323  -3.974   1.190  1.00  0.00     0.045 C 
BRANCH  19  22
HETATM   22  O3  UNL     1      -3.545  -3.432   0.723  1.00  0.00    -0.390 OA
ATOM     23  H3  UNL     1      -3.785  -4.194   1.237  1.00  0.00     0.210 HD
ENDBRANCH  19  22
ENDBRANCH   9  19
BRANCH  18  24
HETATM   24  C22 UNL     1       2.833  -1.049   0.686  1.00  0.00     0.275 C 
BRANCH  24  25
HETATM   25  C23 UNL     1       3.811  -2.113   0.372  1.00  0.00     0.056 C 
BRANCH  25  26
HETATM   26  C24 UNL     1       3.106  -3.360  -0.159  1.00  0.00     0.165 C 
BRANCH  26  27
HETATM   27  O4  UNL     1       4.027  -4.363  -0.455  1.00  0.00    -0.401 OA
ATOM     28  H4  UNL     1       3.589  -5.138  -0.785  1.00  0.00     0.209 HD
ENDBRANCH  26  27
ENDBRANCH  25  26
ENDBRANCH  24  25
ENDBRANCH  18  24
BRANCH   6  29
HETATM   29  O2  UNL     1      -3.703   3.547   1.434  1.00  0.00    -0.353 OA
HETATM   30  C8  UNL     1      -4.559   2.540   1.942  1.00  0.00     0.210 C 
ENDBRANCH   6  29
BRANCH   1  31
HETATM   31  O1  UNL     1      -1.986   5.389   0.426  1.00  0.00    -0.353 OA
HETATM   32  C1  UNL     1      -1.221   6.454  -0.042  1.00  0.00     0.210 C 
ENDBRANCH   1  31
TORSDOF 8
