REMARK  3 active torsions:
REMARK  status: ('A' for Active; 'I' for Inactive)
REMARK    1  A    between atoms: C2_2  and  C3_4 
REMARK    2  A    between atoms: N1_5  and  N2_7 
REMARK    3  A    between atoms: N2_7  and  C4_9 
ROOT
HETATM    1  C4  UNL     1       1.111  -0.759   0.154  1.00  0.00     0.180 A 
HETATM    2  N3  UNL     1       2.370  -1.083   0.450  1.00  0.00    -0.277 N 
ATOM      3  H3  UNL     1       2.580  -1.961   0.925  1.00  0.00     0.189 HD
HETATM    4  N4  UNL     1       3.307  -0.281   0.131  1.00  0.00    -0.282 N 
ATOM      5  H4  UNL     1       4.277  -0.511   0.349  1.00  0.00     0.188 HD
HETATM    6  C5  UNL     1       3.010   0.861  -0.490  1.00  0.00     0.160 A 
HETATM    7  S1  UNL     1       4.001   2.067  -1.012  1.00  0.00    -0.051 SA
HETATM    8  S2  UNL     1       1.290   0.756  -0.611  1.00  0.00    -0.020 SA
ENDROOT
BRANCH   1   9
HETATM    9  N2  UNL     1       0.018  -1.409   0.379  1.00  0.00    -0.279 N 
ATOM     10  H2  UNL     1       0.055  -2.312   0.851  1.00  0.00     0.189 HD
BRANCH   9  11
HETATM   11  N1  UNL     1      -1.203  -0.890  -0.015  1.00  0.00    -0.308 N 
HETATM   12  C3  UNL     1      -1.617   0.289   0.235  1.00  0.00     0.130 C 
ATOM     13  H1  UNL     1      -1.822  -1.501  -0.549  1.00  0.00     0.186 HD
BRANCH  12  14
HETATM   14  C2  UNL     1      -2.930   0.705  -0.242  1.00  0.00     0.041 C 
HETATM   15  C1  UNL     1      -3.692  -0.128  -0.928  1.00  0.00     0.038 C 
HETATM   16 CL1  UNL     1      -3.535   2.326   0.084  1.00  0.00    -0.084 Cl
ENDBRANCH  12  14
ENDBRANCH   9  11
ENDBRANCH   1   9
TORSDOF 3
