REMARK  4 active torsions:
REMARK  status: ('A' for Active; 'I' for Inactive)
REMARK    1  A    between atoms: O1_1  and  N1_3 
REMARK    2  A    between atoms: C1_5  and  O2_6 
REMARK    3  A    between atoms: C1_5  and  C2_8 
REMARK    4  A    between atoms: C3_9  and  C4_10 
ROOT
HETATM    1  C2  UNL     1      -1.287  -0.020  -0.286  1.00  0.00     0.004 C 
HETATM    2  C3  UNL     1      -0.295  -0.534   0.348  1.00  0.00     0.020 C 
HETATM    3  C5  UNL     1       1.122  -0.028   0.129  1.00  0.00     0.192 C 
HETATM    4  C6  UNL     1       1.174   1.445  -0.082  1.00  0.00     0.074 C 
HETATM    5  C7  UNL     1      -0.147   2.091  -0.381  1.00  0.00     0.010 C 
HETATM    6  C8  UNL     1      -0.922   1.108  -1.249  1.00  0.00     0.044 C 
HETATM    7  O3  UNL     1       1.888  -0.319   1.251  1.00  0.00    -0.349 OA
HETATM    8  C9  UNL     1       3.142  -0.696   0.789  1.00  0.00     0.198 C 
HETATM    9  C10 UNL     1       3.074  -0.548  -0.702  1.00  0.00     0.198 C 
HETATM   10  O4  UNL     1       1.711  -0.662  -0.956  1.00  0.00    -0.349 OA
ENDROOT
BRANCH   1  11
HETATM   11  C1  UNL     1      -2.669  -0.387  -0.187  1.00  0.00     0.166 C 
HETATM   12  N1  UNL     1      -3.239  -1.261   0.513  1.00  0.00    -0.247 N 
ATOM     13  H1  UNL     1      -2.672  -1.836   1.136  1.00  0.00     0.196 HD
BRANCH  12  14
HETATM   14  O1  UNL     1      -4.582  -1.470   0.473  1.00  0.00    -0.288 OA
ATOM     15  H1  UNL     1      -5.013  -2.131   1.002  1.00  0.00     0.244 HD
ENDBRANCH  12  14
BRANCH  11  16
HETATM   16  O2  UNL     1      -3.580   0.354  -1.021  1.00  0.00    -0.344 OA
ATOM     17  H2  UNL     1      -3.149   1.015  -1.550  1.00  0.00     0.219 HD
ENDBRANCH  11  16
ENDBRANCH   1  11
BRANCH   2  18
HETATM   18  C4  UNL     1      -0.413  -1.618   1.309  1.00  0.00     0.262 C 
HETATM   19  F1  UNL     1       0.022  -1.247   2.583  1.00  0.00    -0.251 F 
ENDBRANCH   2  18
TORSDOF 4
