REMARK  2 active torsions:
REMARK  status: ('A' for Active; 'I' for Inactive)
REMARK    1  A    between atoms: C4_8  and  C5_9 
REMARK    2  A    between atoms: C5_9  and  C6_11 
ROOT
HETATM    1  N1  UNL     1      -0.874  -0.114   3.362  1.00  0.00    -0.093 NA
HETATM    2  C1  UNL     1      -1.381   0.531   2.187  1.00  0.00     0.104 A 
HETATM    3  S1  UNL     1      -2.593   1.728   2.113  1.00  0.00    -0.060 SA
HETATM    4  C2  UNL     1      -2.632   1.980   0.445  1.00  0.00     0.101 A 
HETATM    5 CL1  UNL     1      -3.667   3.107  -0.429  1.00  0.00    -0.074 Cl
HETATM    6  C3  UNL     1      -1.681   1.110  -0.037  1.00  0.00     0.091 A 
HETATM    7  N2  UNL     1      -1.512   1.087  -1.486  1.00  0.00    -0.099 NA
HETATM    8  C4  UNL     1      -1.022   0.351   0.856  1.00  0.00     0.068 A 
ENDROOT
BRANCH   8   9
HETATM    9  C5  UNL     1       0.005  -0.658   0.531  1.00  0.00     0.168 C 
HETATM   10  O1  UNL     1       0.455  -1.367   1.496  1.00  0.00    -0.292 OA
BRANCH   9  11
HETATM   11  C6  UNL     1       0.568  -0.921  -0.803  1.00  0.00     0.061 C 
HETATM   12  C7  UNL     1       1.408   0.128  -1.444  1.00  0.00     0.012 C 
HETATM   13  C8  UNL     1       2.652  -0.669  -1.128  1.00  0.00     0.002 C 
HETATM   14  C9  UNL     1       1.785  -1.828  -0.736  1.00  0.00     0.012 C 
ENDBRANCH   9  11
ENDBRANCH   8   9
TORSDOF 2
