REMARK  3 active torsions:
REMARK  status: ('A' for Active; 'I' for Inactive)
REMARK       I    between atoms: N1_2  and  C2_4 
REMARK       I    between atoms: C2_4  and  N2_6 
REMARK    1  A    between atoms: C3_8  and  C4_9 
REMARK    2  A    between atoms: C4_9  and  C5_10 
REMARK    3  A    between atoms: C9_14  and  O2_15 
ROOT
HETATM    1  C1  UNL     1       5.409   0.104   0.505  1.00  0.00     0.151 C 
HETATM    2  N1  UNL     1       3.996   0.305   0.331  1.00  0.00    -0.346 N 
ATOM      3  H1  UNL     1       3.512   1.019   0.875  1.00  0.00     0.163 HD
HETATM    4  C2  UNL     1       3.280  -0.485  -0.591  1.00  0.00     0.334 C 
HETATM    5  O1  UNL     1       3.904  -1.355  -1.243  1.00  0.00    -0.246 OA
HETATM    6  N2  UNL     1       1.863  -0.317  -0.798  1.00  0.00    -0.210 N 
HETATM    7  S1  UNL     1       0.734  -1.065  -1.787  1.00  0.00    -0.001 SA
HETATM    8  C3  UNL     1      -0.254   0.069  -0.982  1.00  0.00     0.053 A 
HETATM    9  C9  UNL     1       0.885   0.474  -0.311  1.00  0.00     0.172 A 
ENDROOT
BRANCH   9  10
HETATM   10  O2  UNL     1       1.013   1.486   0.665  1.00  0.00    -0.344 OA
ATOM     11  H2  UNL     1       0.324   2.043   1.008  1.00  0.00     0.219 HD
ENDBRANCH   9  10
BRANCH   8  12
HETATM   12  C4  UNL     1      -1.700   0.369  -1.068  1.00  0.00     0.060 C 
BRANCH  12  13
HETATM   13  C5  UNL     1      -2.517  -0.171   0.059  1.00  0.00    -0.047 C 
HETATM   14  C6  UNL     1      -2.442  -1.668   0.181  1.00  0.00     0.015 C 
HETATM   15  C7  UNL     1      -2.094   0.517   1.339  1.00  0.00     0.015 C 
HETATM   16  C8  UNL     1      -3.977   0.149  -0.258  1.00  0.00     0.015 C 
ENDBRANCH  12  13
ENDBRANCH   8  12
TORSDOF 3
