REMARK  3 active torsions:
REMARK  status: ('A' for Active; 'I' for Inactive)
REMARK    1  A    between atoms: C1_2  and  C2_7 
REMARK    2  A    between atoms: N2_3  and  O1_5 
REMARK    3  A    between atoms: C3_11  and  C4_12 
ROOT
HETATM    1  C2  UNL     1       2.341  -0.092   0.418  1.00  0.00     0.165 A 
HETATM    2  O2  UNL     1       1.930   1.132   0.723  1.00  0.00    -0.233 OA
HETATM    3  N3  UNL     1       0.684   1.300   0.542  1.00  0.00    -0.263 N 
ATOM      4  H3  UNL     1       0.169   2.163   0.714  1.00  0.00     0.194 HD
HETATM    5  C3  UNL     1       0.153   0.139   0.082  1.00  0.00     0.061 A 
HETATM    6  C9  UNL     1       1.208  -0.734   0.009  1.00  0.00     0.098 A 
HETATM    7 CL1  UNL     1       1.199  -2.404  -0.526  1.00  0.00    -0.079 Cl
ENDROOT
BRANCH   1   8
HETATM    8  C1  UNL     1       3.723  -0.581   0.507  1.00  0.00     0.173 C 
HETATM    9  N1  UNL     1       3.964  -1.877  -0.005  1.00  0.00    -0.078 NA
HETATM   10  N2  UNL     1       4.631   0.155   0.977  1.00  0.00    -0.253 N 
ATOM     11  H2  UNL     1       5.601  -0.159   1.006  1.00  0.00     0.195 HD
BRANCH  10  12
HETATM   12  O1  UNL     1       4.266   1.413   1.456  1.00  0.00    -0.288 OA
ATOM     13  H1  UNL     1       4.951   1.968   1.810  1.00  0.00     0.244 HD
ENDBRANCH  10  12
ENDBRANCH   1   8
BRANCH   5  14
HETATM   14  C4  UNL     1      -1.267  -0.126  -0.248  1.00  0.00     0.039 C 
HETATM   15  C5  UNL     1      -1.904   1.245  -0.675  1.00  0.00     0.011 C 
HETATM   16  C6  UNL     1      -3.317   0.724  -0.884  1.00  0.00     0.001 C 
HETATM   17  C7  UNL     1      -3.558  -0.166   0.352  1.00  0.00     0.001 C 
HETATM   18  C8  UNL     1      -2.157  -0.300   0.992  1.00  0.00     0.011 C 
ENDBRANCH   5  14
TORSDOF 3
