REMARK  6 active torsions:
REMARK  status: ('A' for Active; 'I' for Inactive)
REMARK    1  A    between atoms: C3_3  and  N1_4 
REMARK    2  A    between atoms: N5_16  and  N6_18 
REMARK    3  A    between atoms: C9_20  and  C10_21 
REMARK    4  A    between atoms: C12_24  and  N7_25 
REMARK    5  A    between atoms: C13_30  and  O1_31 
REMARK    6  A    between atoms: C14_33  and  O2_34 
ROOT
HETATM    1  N1  UNL     1      -0.773  -1.053   0.825  1.00  0.00    -0.269 N 
HETATM    2  C4  UNL     1      -1.227  -2.108   1.706  1.00  0.00     0.202 C 
HETATM    3  N2  UNL     1      -2.597  -2.275   2.035  1.00  0.00    -0.062 NA
HETATM    4  N3  UNL     1      -0.320  -2.886   2.174  1.00  0.00    -0.319 N 
ATOM      5  H3  UNL     1      -0.619  -3.636   2.797  1.00  0.00     0.169 HD
HETATM    6  C5  UNL     1       1.058  -2.783   1.892  1.00  0.00     0.088 C 
HETATM    7  N4  UNL     1       1.886  -3.767   2.036  1.00  0.00    -0.388 N 
ATOM      8  H41 UNL     1       2.883  -3.693   1.832  1.00  0.00     0.157 HD
ATOM      9  H42 UNL     1       1.522  -4.659   2.371  1.00  0.00     0.157 HD
HETATM   10  C6  UNL     1       1.585  -1.493   1.408  1.00  0.00     0.118 C 
HETATM   11  C7  UNL     1       1.730  -0.615   2.656  1.00  0.00     0.026 C 
HETATM   12  C8  UNL     1       0.597  -0.889   0.503  1.00  0.00     0.116 C 
HETATM   13  N5  UNL     1       0.925  -0.220  -0.565  1.00  0.00    -0.288 N 
ATOM     14  H5  UNL     1       0.169   0.164  -1.133  1.00  0.00     0.188 HD
ENDROOT
BRANCH   1  15
HETATM   15  C3  UNL     1      -1.729  -0.178   0.239  1.00  0.00     0.087 A 
HETATM   16  C2  UNL     1      -2.118   0.953   0.889  1.00  0.00    -0.003 A 
HETATM   17  C1  UNL     1      -1.576   1.295   2.213  1.00  0.00     0.053 C 
HETATM   18  C18 UNL     1      -3.053   1.843   0.342  1.00  0.00     0.070 A 
HETATM   19  C15 UNL     1      -3.605   1.584  -0.886  1.00  0.00     0.099 A 
HETATM   20  N10 UNL     1      -3.400   2.948   1.029  1.00  0.00    -0.359 N 
HETATM   21  C14 UNL     1      -3.223   0.441  -1.560  1.00  0.00     0.130 A 
HETATM   22  N9  UNL     1      -4.499   2.452  -1.390  1.00  0.00    -0.318 N 
HETATM   23  C13 UNL     1      -2.300  -0.425  -1.004  1.00  0.00     0.129 A 
HETATM   24  C16 UNL     1      -4.836   3.545  -0.699  1.00  0.00     0.261 A 
ATOM     25  H9  UNL     1      -4.921   2.276  -2.302  1.00  0.00     0.169 HD
HETATM   26  O3  UNL     1      -5.677   4.319  -1.222  1.00  0.00    -0.267 OA
HETATM   27  C17 UNL     1      -4.290   3.814   0.530  1.00  0.00     0.163 A 
ATOM     28  H10 UNL     1      -2.979   3.127   1.941  1.00  0.00     0.165 HD
BRANCH  21  29
HETATM   29  O2  UNL     1      -3.794   0.200  -2.796  1.00  0.00    -0.356 OA
ATOM     30  H2  UNL     1      -4.428   0.795  -3.178  1.00  0.00     0.218 HD
ENDBRANCH  21  29
BRANCH  23  31
HETATM   31  O1  UNL     1      -1.906  -1.574  -1.664  1.00  0.00    -0.356 OA
ATOM     32  H1  UNL     1      -2.296  -1.743  -2.514  1.00  0.00     0.218 HD
ENDBRANCH  23  31
ENDBRANCH   1  15
BRANCH  13  33
HETATM   33  N6  UNL     1       2.205   0.006  -0.981  1.00  0.00    -0.308 N 
HETATM   34  C9  UNL     1       2.924  -0.814  -1.665  1.00  0.00     0.137 C 
ATOM     35  H6  UNL     1       2.627   0.900  -0.729  1.00  0.00     0.186 HD
BRANCH  34  36
HETATM   36  C10 UNL     1       4.314  -0.489  -2.080  1.00  0.00     0.057 A 
HETATM   37  C11 UNL     1       5.034  -1.397  -2.806  1.00  0.00     0.084 A 
HETATM   38  S1  UNL     1       6.518  -0.580  -3.025  1.00  0.00    -0.064 SA
HETATM   39  C12 UNL     1       6.141   0.852  -2.189  1.00  0.00     0.142 A 
HETATM   40  N8  UNL     1       4.892   0.646  -1.777  1.00  0.00    -0.335 N 
ATOM     41  H8  UNL     1       4.397   1.356  -1.238  1.00  0.00     0.168 HD
BRANCH  39  42
HETATM   42  N7  UNL     1       6.888   1.913  -1.990  1.00  0.00    -0.380 N 
ATOM     43  H72 UNL     1       7.845   2.071  -2.306  1.00  0.00     0.158 HD
ATOM     44  H71 UNL     1       6.662   2.772  -1.489  1.00  0.00     0.158 HD
ENDBRANCH  39  42
ENDBRANCH  34  36
ENDBRANCH  13  33
TORSDOF 6
