REMARK  6 active torsions:
REMARK  status: ('A' for Active; 'I' for Inactive)
REMARK       I    between atoms: N1_2  and  C2_4 
REMARK    1  A    between atoms: C2_4  and  C3_6 
REMARK    2  A    between atoms: C8_13  and  O2_14 
REMARK    3  A    between atoms: N3_16  and  C9_17 
REMARK    4  A    between atoms: C15_24  and  O3_25 
REMARK    5  A    between atoms: C18_31  and  N6_32 
REMARK    6  A    between atoms: N6_32  and  C19_34 
ROOT
HETATM    1  C3  UNL     1       0.773  -1.547  -0.700  1.00  0.00     0.074 C 
HETATM    2  C4  UNL     1       0.310  -1.067  -2.035  1.00  0.00     0.029 C 
HETATM    3  C5  UNL     1       1.575  -0.480   0.042  1.00  0.00     0.167 C 
HETATM    4  N2  UNL     1       0.652   0.527   0.546  1.00  0.00    -0.373 N 
ATOM      5  H2  UNL     1       1.018   1.250   1.165  1.00  0.00     0.160 HD
HETATM    6  C6  UNL     1      -0.727   0.557   0.224  1.00  0.00     0.092 A 
HETATM    7  C7  UNL     1      -1.346  -0.673   0.003  1.00  0.00     0.031 A 
HETATM    8  C8  UNL     1      -2.646  -0.440  -0.294  1.00  0.00     0.158 A 
HETATM    9  N3  UNL     1      -2.836   0.911  -0.258  1.00  0.00    -0.268 N 
HETATM   10  C15 UNL     1      -1.685   1.531   0.054  1.00  0.00     0.177 A 
HETATM   11  C16 UNL     1      -0.435  -1.859   0.157  1.00  0.00     0.063 C 
HETATM   12  C17 UNL     1      -0.069  -2.021   1.613  1.00  0.00     0.132 C 
HETATM   13  N5  UNL     1       1.320  -1.884   1.906  1.00  0.00    -0.377 N 
ATOM     14  H5  UNL     1       1.684  -2.378   2.721  1.00  0.00     0.160 HD
HETATM   15  C18 UNL     1       2.151  -1.177   1.211  1.00  0.00     0.103 C 
ENDROOT
BRANCH  15  16
HETATM   16  N6  UNL     1       3.498  -1.126   1.558  1.00  0.00    -0.328 N 
ATOM     17  H6  UNL     1       3.891  -1.997   1.913  1.00  0.00     0.169 HD
BRANCH  16  18
HETATM   18  C19 UNL     1       4.388  -0.052   1.489  1.00  0.00     0.139 A 
HETATM   19  C20 UNL     1       4.262   1.247   1.084  1.00  0.00     0.161 A 
HETATM   20  N7  UNL     1       5.454   1.882   1.223  1.00  0.00    -0.290 N 
HETATM   21  C21 UNL     1       5.644   3.280   0.874  1.00  0.00     0.178 C 
HETATM   22  N8  UNL     1       6.309   1.019   1.700  1.00  0.00    -0.240 N 
HETATM   23  N9  UNL     1       5.709  -0.137   1.869  1.00  0.00    -0.270 N 
ATOM     24  H8  UNL     1       7.289   1.212   1.909  1.00  0.00     0.208 HD
ATOM     25  H9  UNL     1       6.158  -0.979   2.231  1.00  0.00     0.190 HD
ENDBRANCH  16  18
ENDBRANCH  15  16
BRANCH   1  26
HETATM   26  C2  UNL     1       1.538  -2.783  -0.893  1.00  0.00     0.229 C 
HETATM   27  N1  UNL     1       2.732  -2.863  -1.659  1.00  0.00    -0.365 N 
HETATM   28  C1  UNL     1       3.447  -4.107  -1.818  1.00  0.00     0.149 C 
ATOM     29  H1  UNL     1       3.093  -2.021  -2.108  1.00  0.00     0.161 HD
HETATM   30  O1  UNL     1       1.134  -3.847  -0.360  1.00  0.00    -0.273 OA
ENDBRANCH   1  26
BRANCH  10  31
HETATM   31  O3  UNL     1      -1.424   2.897   0.199  1.00  0.00    -0.344 OA
ATOM     32  H3  UNL     1      -2.085   3.569   0.082  1.00  0.00     0.219 HD
ENDBRANCH  10  31
BRANCH   8  33
HETATM   33  O2  UNL     1      -3.574  -1.432  -0.575  1.00  0.00    -0.345 OA
ATOM     34  H2  UNL     1      -4.486  -1.268  -0.783  1.00  0.00     0.219 HD
ENDBRANCH   8  33
BRANCH   9  35
HETATM   35  C9  UNL     1      -4.081   1.559  -0.516  1.00  0.00     0.068 A 
HETATM   36  C10 UNL     1      -4.231   2.440  -1.585  1.00  0.00     0.032 A 
HETATM   37  C11 UNL     1      -5.435   3.071  -1.839  1.00  0.00     0.002 A 
HETATM   38  C12 UNL     1      -6.518   2.828  -1.021  1.00  0.00     0.002 A 
HETATM   39  C13 UNL     1      -6.402   1.967   0.038  1.00  0.00     0.029 A 
HETATM   40  C14 UNL     1      -5.196   1.342   0.284  1.00  0.00     0.073 A 
HETATM   41  N4  UNL     1      -5.111   0.453   1.394  1.00  0.00    -0.100 NA
ENDBRANCH   9  35
TORSDOF 6
