REMARK  7 active torsions:
REMARK  status: ('A' for Active; 'I' for Inactive)
REMARK    1  A    between atoms: C3_3  and  O1_4 
REMARK    2  A    between atoms: C6_9  and  C7_10 
REMARK    3  A    between atoms: C9_13  and  N2_14 
REMARK    4  A    between atoms: C10_17  and  C11_18 
REMARK    5  A    between atoms: C12_21  and  N4_22 
REMARK       I    between atoms: N4_22  and  C13_24 
REMARK    6  A    between atoms: C13_24  and  C14_26 
REMARK    7  A    between atoms: C14_26  and  O4_30 
ROOT
HETATM    1  C7  UNL     1      -1.246  -0.651  -0.327  1.00  0.00     0.117 A 
HETATM    2  C8  UNL     1      -0.025  -0.088  -0.055  1.00  0.00     0.151 A 
HETATM    3  N1  UNL     1       0.958  -0.773  -0.708  1.00  0.00    -0.137 N 
HETATM    4  C9  UNL     1       2.287  -0.649  -0.787  1.00  0.00     0.154 A 
HETATM    5  C10 UNL     1       3.013  -1.522  -1.550  1.00  0.00     0.139 A 
HETATM    6  N8  UNL     1       2.346  -2.488  -2.204  1.00  0.00    -0.280 N 
ATOM      7  H8  UNL     1       2.875  -3.145  -2.777  1.00  0.00     0.188 HD
HETATM    8  N9  UNL     1       1.035  -2.623  -2.136  1.00  0.00    -0.131 N 
ATOM      9  H9  UNL     1       0.567  -3.371  -2.648  1.00  0.00     0.205 HD
HETATM   10  C15 UNL     1       0.323  -1.766  -1.386  1.00  0.00     0.705 A 
HETATM   11  N10 UNL     1      -1.003  -1.679  -1.146  1.00  0.00    -0.184 N 
ATOM     12  H10 UNL     1      -1.712  -2.303  -1.531  1.00  0.00     0.184 HD
ENDROOT
BRANCH   5  13
HETATM   13  C11 UNL     1       4.484  -1.414  -1.660  1.00  0.00     0.168 A 
HETATM   14  N3  UNL     1       5.283  -0.519  -1.078  1.00  0.00    -0.171 N 
HETATM   15  C12 UNL     1       6.557  -0.763  -1.431  1.00  0.00     0.701 A 
ATOM     16  H3  UNL     1       4.976   0.233  -0.461  1.00  0.00     0.186 HD
HETATM   17  N6  UNL     1       6.524  -1.836  -2.249  1.00  0.00    -0.130 N 
HETATM   18  N7  UNL     1       5.265  -2.226  -2.384  1.00  0.00    -0.269 N 
ATOM     19  H6  UNL     1       7.333  -2.274  -2.690  1.00  0.00     0.205 HD
ATOM     20  H7  UNL     1       4.944  -3.014  -2.946  1.00  0.00     0.189 HD
BRANCH  15  21
HETATM   21  N4  UNL     1       7.671  -0.010  -0.999  1.00  0.00    -0.151 N 
HETATM   22  C13 UNL     1       7.498   1.093  -0.131  1.00  0.00     0.310 C 
HETATM   23  O3  UNL     1       6.335   1.430   0.279  1.00  0.00    -0.263 OA
ATOM     24  H4  UNL     1       8.607  -0.264  -1.315  1.00  0.00     0.188 HD
BRANCH  22  25
HETATM   25  C14 UNL     1       8.617   1.895   0.338  1.00  0.00     0.204 C 
HETATM   26  N5  UNL     1       8.435   2.892   1.126  1.00  0.00    -0.376 N 
ATOM     27  H52 UNL     1       7.485   3.117   1.422  1.00  0.00     0.158 HD
ATOM     28  H51 UNL     1       9.220   3.454   1.455  1.00  0.00     0.158 HD
BRANCH  25  29
HETATM   29  O4  UNL     1       9.905   1.590  -0.064  1.00  0.00    -0.342 OA
ATOM     30  H4  UNL     1      10.636   2.114   0.242  1.00  0.00     0.219 HD
ENDBRANCH  25  29
ENDBRANCH  22  25
ENDBRANCH  15  21
ENDBRANCH   5  13
BRANCH   4  31
HETATM   31  N2  UNL     1       2.892   0.284  -0.150  1.00  0.00    -0.383 N 
ATOM     32  H22 UNL     1       2.351   0.935   0.419  1.00  0.00     0.157 HD
ATOM     33  H21 UNL     1       3.906   0.379  -0.210  1.00  0.00     0.157 HD
ENDBRANCH   4  31
BRANCH   1  34
HETATM   34  C6  UNL     1      -2.534  -0.189   0.196  1.00  0.00     0.177 A 
HETATM   35  O2  UNL     1      -2.737   0.827   1.001  1.00  0.00    -0.289 OA
HETATM   36  C5  UNL     1      -4.003   0.978   1.281  1.00  0.00     0.107 A 
HETATM   37  C4  UNL     1      -4.661   1.904   2.078  1.00  0.00     0.076 A 
HETATM   38  C16 UNL     1      -4.676  -0.017   0.607  1.00  0.00     0.075 A 
HETATM   39  C3  UNL     1      -6.035   1.794   2.173  1.00  0.00     0.074 A 
HETATM   40  C2  UNL     1      -6.744   0.815   1.514  1.00  0.00    -0.021 A 
HETATM   41  C1  UNL     1      -8.206   0.701   1.618  1.00  0.00     0.052 C 
HETATM   42  C17 UNL     1      -6.055  -0.083   0.736  1.00  0.00    -0.024 A 
HETATM   43  C18 UNL     1      -6.769  -1.142   0.018  1.00  0.00     0.051 C 
HETATM   44  N11 UNL     1      -3.751  -0.711  -0.046  1.00  0.00    -0.332 N 
ATOM     45  H11 UNL     1      -3.935  -1.518  -0.642  1.00  0.00     0.168 HD
BRANCH  39  46
HETATM   46  O1  UNL     1      -6.687   2.722   2.969  1.00  0.00    -0.360 OA
ATOM     47  H1  UNL     1      -6.198   3.398   3.424  1.00  0.00     0.217 HD
ENDBRANCH  39  46
ENDBRANCH   1  34
TORSDOF 7
