REMARK  9 active torsions:
REMARK  status: ('A' for Active; 'I' for Inactive)
REMARK    1  A    between atoms: C2_2  and  C4_4 
REMARK    2  A    between atoms: C2_2  and  C14_22 
REMARK    3  A    between atoms: C4_4  and  N1_5 
REMARK    4  A    between atoms: N1_5  and  C5_7 
REMARK    5  A    between atoms: C7_11  and  C8_12 
REMARK    6  A    between atoms: C9_13  and  C10_14 
REMARK    7  A    between atoms: C10_14  and  C11_15 
REMARK    8  A    between atoms: C11_15  and  C12_16 
REMARK    9  A    between atoms: C12_16  and  O1_17 
ROOT
HETATM    1  C5  UNL     1       0.435  -1.092  -0.306  1.00  0.00     0.677 A 
HETATM    2  N2  UNL     1       1.007  -1.366   0.881  1.00  0.00    -0.201 N 
ATOM      3  H2  UNL     1       0.406  -1.603   1.670  1.00  0.00     0.183 HD
HETATM    4  C6  UNL     1       2.336  -1.340   1.069  1.00  0.00     0.128 A 
HETATM    5  C7  UNL     1       3.177  -1.024   0.024  1.00  0.00     0.049 A 
HETATM    6  C13 UNL     1       2.551  -0.745  -1.195  1.00  0.00     0.128 A 
HETATM    7  N3  UNL     1       1.220  -0.785  -1.326  1.00  0.00    -0.201 N 
ATOM      8  H3  UNL     1       0.801  -0.574  -2.232  1.00  0.00     0.183 HD
ENDROOT
BRANCH   1   9
HETATM    9  N1  UNL     1      -0.845  -1.153  -0.349  1.00  0.00    -0.225 N 
ATOM     10  H1  UNL     1      -1.314  -1.404   0.521  1.00  0.00     0.177 HD
BRANCH   9  11
HETATM   11  C4  UNL     1      -1.688  -0.911  -1.470  1.00  0.00     0.147 C 
BRANCH  11  12
HETATM   12  C2  UNL     1      -2.567   0.318  -1.271  1.00  0.00    -0.028 C 
HETATM   13  C1  UNL     1      -3.451   0.569  -2.449  1.00  0.00     0.016 C 
HETATM   14  C3  UNL     1      -1.685   1.540  -1.087  1.00  0.00     0.016 C 
BRANCH  12  15
HETATM   15  C14 UNL     1      -3.388   0.147  -0.016  1.00  0.00    -0.005 C 
HETATM   16  C15 UNL     1      -4.196   1.377   0.256  1.00  0.00     0.005 C 
HETATM   17  C16 UNL     1      -4.749   1.311   1.685  1.00  0.00     0.000 C 
HETATM   18  C17 UNL     1      -5.443  -0.004   1.905  1.00  0.00     0.000 C 
HETATM   19  C18 UNL     1      -5.638  -0.753   0.603  1.00  0.00     0.000 C 
HETATM   20  C19 UNL     1      -4.320  -1.027  -0.090  1.00  0.00     0.005 C 
ENDBRANCH  12  15
ENDBRANCH  11  12
ENDBRANCH   9  11
ENDBRANCH   1   9
BRANCH   5  21
HETATM   21  C8  UNL     1       4.602  -0.986   0.186  1.00  0.00    -0.064 C 
HETATM   22  C9  UNL     1       5.798  -0.967   0.337  1.00  0.00    -0.101 C 
BRANCH  22  23
HETATM   23  C10 UNL     1       7.268  -0.962   0.540  1.00  0.00     0.096 C 
BRANCH  23  24
HETATM   24  C11 UNL     1       7.729   0.477   0.476  1.00  0.00     0.038 C 
BRANCH  24  25
HETATM   25  C12 UNL     1       6.998   1.218   1.594  1.00  0.00     0.165 C 
BRANCH  25  26
HETATM   26  O1  UNL     1       7.382   2.537   1.581  1.00  0.00    -0.401 OA
ATOM     27  H1  UNL     1       6.927   2.998   2.276  1.00  0.00     0.209 HD
ENDBRANCH  25  26
ENDBRANCH  24  25
ENDBRANCH  23  24
ENDBRANCH  22  23
ENDBRANCH   5  21
TORSDOF 9
