REMARK  7 active torsions:
REMARK  status: ('A' for Active; 'I' for Inactive)
REMARK    1  A    between atoms: C2_2  and  O1_3 
REMARK    2  A    between atoms: O1_3  and  C3_4 
REMARK    3  A    between atoms: C4_5  and  N1_6 
REMARK    4  A    between atoms: N1_6  and  C5_8 
REMARK    5  A    between atoms: C5_8  and  N2_10 
REMARK    6  A    between atoms: N2_10  and  C6_12 
REMARK    7  A    between atoms: C11_17  and  O2_18 
ROOT
HETATM    1  C3  UNL     1      -1.150   0.625   0.175  1.00  0.00     0.155 C 
HETATM    2  C4  UNL     1       0.302   0.592   0.627  1.00  0.00     0.114 C 
HETATM    3  C9  UNL     1       0.549  -0.619   1.393  1.00  0.00     0.030 C 
HETATM    4  C10 UNL     1      -0.565  -1.401   1.965  1.00  0.00     0.035 C 
HETATM    5  C11 UNL     1      -1.794  -1.573   1.127  1.00  0.00     0.132 C 
HETATM    6  C13 UNL     1      -1.745  -0.701  -0.122  1.00  0.00     0.014 C 
HETATM    7  C14 UNL     1      -1.010  -1.387  -1.219  1.00  0.00     0.015 C 
HETATM    8  C15 UNL     1      -1.916  -1.461  -2.424  1.00  0.00     0.001 C 
HETATM    9  C16 UNL     1      -3.273  -1.599  -1.732  1.00  0.00     0.001 C 
HETATM   10  C17 UNL     1      -3.117  -0.486  -0.703  1.00  0.00     0.015 C 
ENDROOT
BRANCH   2  11
HETATM   11  N1  UNL     1       1.203   0.959  -0.428  1.00  0.00    -0.360 N 
ATOM     12  H1  UNL     1       0.736   1.204  -1.301  1.00  0.00     0.162 HD
BRANCH  11  13
HETATM   13  C5  UNL     1       2.576   1.045  -0.490  1.00  0.00     0.168 C 
HETATM   14  S1  UNL     1       3.242   1.518  -1.945  1.00  0.00    -0.041 SA
BRANCH  13  15
HETATM   15  N2  UNL     1       3.546   0.792   0.500  1.00  0.00    -0.363 N 
ATOM     16  H2  UNL     1       3.217   0.498   1.420  1.00  0.00     0.162 HD
BRANCH  15  17
HETATM   17  C6  UNL     1       4.978   0.919   0.308  1.00  0.00     0.075 C 
HETATM   18  C7  UNL     1       5.458   0.005  -0.802  1.00  0.00     0.032 C 
HETATM   19  C8  UNL     1       5.741   0.549   1.561  1.00  0.00     0.032 C 
ENDBRANCH  15  17
ENDBRANCH  13  15
ENDBRANCH  11  13
ENDBRANCH   2  11
BRANCH   1  20
HETATM   20  O1  UNL     1      -1.317   1.504  -0.852  1.00  0.00    -0.383 OA
BRANCH  20  21
HETATM   21  C2  UNL     1      -2.007   2.625  -0.414  1.00  0.00     0.163 C 
HETATM   22  C1  UNL     1      -2.191   3.576  -1.573  1.00  0.00     0.033 C 
ENDBRANCH  20  21
ENDBRANCH   1  20
BRANCH   5  23
HETATM   23  O2  UNL     1      -2.969  -1.354   1.767  1.00  0.00    -0.390 OA
HETATM   24  C12 UNL     1      -3.867  -2.347   1.907  1.00  0.00     0.202 C 
ENDBRANCH   5  23
TORSDOF 7
