REMARK  14 active torsions:
REMARK  status: ('A' for Active; 'I' for Inactive)
REMARK    1  A    between atoms: O1_2  and  N1_3 
REMARK    2  A    between atoms: N1_3  and  C2_5 
REMARK    3  A    between atoms: C3_8  and  N3_9 
REMARK    4  A    between atoms: N3_9  and  C4_11 
REMARK    5  A    between atoms: C4_11  and  C5_12 
REMARK    6  A    between atoms: C5_12  and  C6_13 
REMARK    7  A    between atoms: C6_13  and  C7_14 
REMARK    8  A    between atoms: C7_14  and  C8_15 
REMARK    9  A    between atoms: C8_15  and  C9_16 
REMARK   10  A    between atoms: C9_16  and  O2_17 
REMARK   11  A    between atoms: C11_22  and  N5_23 
REMARK       I    between atoms: N5_23  and  C12_25 
REMARK   12  A    between atoms: C13_32  and  N9_33 
REMARK   13  A    between atoms: C15_35  and  N10_36 
REMARK   14  A    between atoms: C17_41  and  N11_42 
ROOT
HETATM    1  C2  UNL     1      -0.029  -1.006  -0.967  1.00  0.00     0.170 A 
HETATM    2  N2  UNL     1       1.273  -0.750  -0.702  1.00  0.00    -0.173 N 
ATOM      3  H2  UNL     1       1.989  -1.301  -1.175  1.00  0.00     0.186 HD
HETATM    4  C3  UNL     1       1.655   0.204   0.161  1.00  0.00     0.680 A 
HETATM    5  N4  UNL     1       0.727   0.961   0.811  1.00  0.00    -0.186 N 
ATOM      6  H4  UNL     1       1.031   1.683   1.464  1.00  0.00     0.184 HD
HETATM    7  C10 UNL     1      -0.587   0.764   0.599  1.00  0.00     0.124 A 
HETATM    8  C11 UNL     1      -1.534   1.524   1.253  1.00  0.00     0.153 A 
HETATM    9  N8  UNL     1      -2.826   1.251   0.973  1.00  0.00    -0.174 N 
ATOM     10  H8  UNL     1      -3.556   1.793   1.436  1.00  0.00     0.186 HD
HETATM   11  C13 UNL     1      -3.187   0.280   0.096  1.00  0.00     0.682 A 
HETATM   12  N12 UNL     1      -2.255  -0.457  -0.538  1.00  0.00    -0.185 N 
ATOM     13  H12 UNL     1      -2.539  -1.183  -1.196  1.00  0.00     0.184 HD
HETATM   14  C19 UNL     1      -0.962  -0.236  -0.305  1.00  0.00     0.126 A 
ENDROOT
BRANCH  11  15
HETATM   15  N9  UNL     1      -4.568   0.020  -0.175  1.00  0.00    -0.214 N 
HETATM   16  C14 UNL     1      -4.951  -1.017  -1.111  1.00  0.00     0.174 C 
HETATM   17  C15 UNL     1      -6.197  -1.699  -0.557  1.00  0.00     0.204 C 
HETATM   18  C16 UNL     1      -7.345  -0.739  -0.400  1.00  0.00     0.069 C 
HETATM   19  C17 UNL     1      -6.903   0.691  -0.392  1.00  0.00     0.204 C 
HETATM   20  C18 UNL     1      -5.630   0.766   0.461  1.00  0.00     0.174 C 
BRANCH  17  21
HETATM   21  N10 UNL     1      -5.836  -2.234   0.743  1.00  0.00    -0.073 N 
ATOM     22 3H10 UNL     1      -5.021  -2.846   0.714  1.00  0.00     0.274 HD
ATOM     23 2H10 UNL     1      -5.447  -1.533   1.373  1.00  0.00     0.274 HD
ATOM     24 1H10 UNL     1      -6.670  -2.690   1.114  1.00  0.00     0.274 HD
ENDBRANCH  17  21
BRANCH  19  25
HETATM   25  N11 UNL     1      -7.890   1.561   0.203  1.00  0.00    -0.073 N 
ATOM     26 3H11 UNL     1      -8.797   1.457  -0.252  1.00  0.00     0.274 HD
ATOM     27 2H11 UNL     1      -8.143   1.247   1.140  1.00  0.00     0.274 HD
ATOM     28 1H11 UNL     1      -7.589   2.535   0.208  1.00  0.00     0.274 HD
ENDBRANCH  19  25
ENDBRANCH  11  15
BRANCH   8  29
HETATM   29  N5  UNL     1      -1.151   2.424   2.067  1.00  0.00    -0.315 N 
HETATM   30  C12 UNL     1      -1.969   3.278   2.808  1.00  0.00     0.187 C 
HETATM   31  N6  UNL     1      -2.710   4.139   2.218  1.00  0.00    -0.373 N 
HETATM   32  N7  UNL     1      -1.980   3.192   4.217  1.00  0.00    -0.064 NA
ATOM     33  H62 UNL     1      -2.702   4.201   1.200  1.00  0.00     0.158 HD
ATOM     34  H61 UNL     1      -3.308   4.763   2.760  1.00  0.00     0.158 HD
ATOM     35  H5  UNL     1      -0.144   2.532   2.190  1.00  0.00     0.170 HD
ENDBRANCH   8  29
BRANCH   1  36
HETATM   36  N1  UNL     1      -0.393  -1.923  -1.797  1.00  0.00    -0.248 N 
ATOM     37  H1  UNL     1      -1.382  -2.096  -1.979  1.00  0.00     0.196 HD
BRANCH  36  38
HETATM   38  O1  UNL     1       0.576  -2.664  -2.432  1.00  0.00    -0.284 OA
HETATM   39  C1  UNL     1       0.870  -2.549  -3.794  1.00  0.00     0.237 C 
ENDBRANCH  36  38
ENDBRANCH   1  36
BRANCH   4  40
HETATM   40  N3  UNL     1       2.906   0.418   0.386  1.00  0.00    -0.226 N 
ATOM     41  H3  UNL     1       3.190   1.144   1.043  1.00  0.00     0.177 HD
BRANCH  40  42
HETATM   42  C4  UNL     1       3.900  -0.370  -0.292  1.00  0.00     0.138 C 
BRANCH  42  43
HETATM   43  C5  UNL     1       5.301   0.176  -0.064  1.00  0.00     0.020 C 
BRANCH  43  44
HETATM   44  C6  UNL     1       6.248  -0.726  -0.817  1.00  0.00     0.002 C 
BRANCH  44  45
HETATM   45  C7  UNL     1       7.684  -0.323  -0.697  1.00  0.00     0.002 C 
BRANCH  45  46
HETATM   46  C8  UNL     1       8.121  -0.343   0.751  1.00  0.00     0.026 C 
BRANCH  46  47
HETATM   47  C9  UNL     1       9.569   0.061   0.892  1.00  0.00     0.164 C 
BRANCH  47  48
HETATM   48  O2  UNL     1      10.417  -0.798   0.188  1.00  0.00    -0.401 OA
ATOM     49  H2  UNL     1      11.328  -0.544   0.277  1.00  0.00     0.209 HD
ENDBRANCH  47  48
ENDBRANCH  46  47
ENDBRANCH  45  46
ENDBRANCH  44  45
ENDBRANCH  43  44
ENDBRANCH  42  43
ENDBRANCH  40  42
ENDBRANCH   4  40
TORSDOF 14
