REMARK  10 active torsions:
REMARK  status: ('A' for Active; 'I' for Inactive)
REMARK    1  A    between atoms: C2_2  and  C4_4 
REMARK    2  A    between atoms: C4_4  and  N1_5 
REMARK    3  A    between atoms: C4_4  and  C5_9 
REMARK       I    between atoms: C5_9  and  N2_11 
REMARK    4  A    between atoms: N2_11  and  C6_13 
REMARK    5  A    between atoms: C6_13  and  C7_14 
REMARK    6  A    between atoms: C6_13  and  N7_25 
REMARK    7  A    between atoms: C6_13  and  C16_42 
REMARK    8  A    between atoms: C7_14  and  S1_15 
REMARK    9  A    between atoms: S1_15  and  C8_16 
REMARK       I    between atoms: N7_25  and  C10_27 
REMARK       I    between atoms: C10_27  and  N9_31 
REMARK   10  A    between atoms: N9_31  and  N10_33 
REMARK       I    between atoms: N10_33  and  C11_35 
REMARK       I    between atoms: C11_35  and  N11_37 
ROOT
HETATM    1  C6  UNL     1      -1.675   1.032   0.406  1.00  0.00     0.221 C 
ENDROOT
BRANCH   1   2
HETATM    2  N2  UNL     1      -2.562   0.124  -0.266  1.00  0.00    -0.323 N 
HETATM    3  C5  UNL     1      -3.047  -1.030   0.365  1.00  0.00     0.251 C 
HETATM    4  O1  UNL     1      -2.726  -1.325   1.545  1.00  0.00    -0.271 OA
ATOM      5  H2  UNL     1      -2.846   0.324  -1.225  1.00  0.00     0.165 HD
BRANCH   3   6
HETATM    6  C4  UNL     1      -3.974  -1.984  -0.309  1.00  0.00     0.278 C 
BRANCH   6   7
HETATM    7  C2  UNL     1      -3.134  -2.918  -1.203  1.00  0.00     0.017 C 
HETATM    8  C1  UNL     1      -2.121  -3.672  -0.375  1.00  0.00     0.012 C 
HETATM    9  C3  UNL     1      -4.002  -3.894  -1.940  1.00  0.00     0.012 C 
ENDBRANCH   6   7
BRANCH   6  10
HETATM   10  N1  UNL     1      -4.601  -2.835   0.651  1.00  0.00    -0.066 N 
ATOM     11  H13 UNL     1      -5.138  -3.596   0.235  1.00  0.00     0.275 HD
ATOM     12  H12 UNL     1      -3.946  -3.419   1.170  1.00  0.00     0.275 HD
ATOM     13  H11 UNL     1      -5.157  -2.217   1.242  1.00  0.00     0.275 HD
ENDBRANCH   6  10
ENDBRANCH   3   6
ENDBRANCH   1   2
BRANCH   1  14
HETATM   14  C7  UNL     1      -1.236   2.168  -0.461  1.00  0.00     0.148 C 
BRANCH  14  15
HETATM   15  S1  UNL     1      -2.454   3.227  -1.156  1.00  0.00    -0.086 SA
BRANCH  15  16
HETATM   16  C8  UNL     1      -3.369   4.286  -0.101  1.00  0.00     0.178 A 
HETATM   17  N3  UNL     1      -4.535   4.109   0.531  1.00  0.00    -0.263 N 
HETATM   18  N4  UNL     1      -4.815   5.198   1.192  1.00  0.00    -0.226 N 
ATOM     19  H3  UNL     1      -5.108   3.266   0.501  1.00  0.00     0.190 HD
HETATM   20  N5  UNL     1      -3.850   6.071   0.996  1.00  0.00    -0.224 N 
ATOM     21  H4  UNL     1      -5.645   5.348   1.766  1.00  0.00     0.210 HD
HETATM   22  N6  UNL     1      -2.938   5.550   0.205  1.00  0.00    -0.259 N 
ATOM     23  H5  UNL     1      -3.815   7.008   1.396  1.00  0.00     0.210 HD
HETATM   24  C9  UNL     1      -1.735   6.219  -0.230  1.00  0.00     0.181 C 
ENDBRANCH  15  16
ENDBRANCH  14  15
ENDBRANCH   1  14
BRANCH   1  25
HETATM   25  N7  UNL     1      -0.448   0.322   0.795  1.00  0.00    -0.187 N 
HETATM   26  C10 UNL     1       0.373  -0.403  -0.091  1.00  0.00     0.688 C 
HETATM   27  N8  UNL     1       0.074  -0.589  -1.357  1.00  0.00    -0.234 N 
HETATM   28  N9  UNL     1       1.570  -0.970   0.409  1.00  0.00    -0.129 N 
ATOM     29  H82 UNL     1      -0.788  -0.180  -1.717  1.00  0.00     0.174 HD
ATOM     30  H81 UNL     1       0.668  -1.114  -1.998  1.00  0.00     0.174 HD
ATOM     31  H9  UNL     1       1.487  -1.660   1.156  1.00  0.00     0.205 HD
ATOM     32  H7  UNL     1      -0.171   0.357   1.776  1.00  0.00     0.181 HD
BRANCH  28  33
HETATM   33  N10 UNL     1       2.845  -0.662  -0.036  1.00  0.00    -0.237 N 
HETATM   34  C11 UNL     1       3.966  -1.437   0.358  1.00  0.00     0.337 C 
HETATM   35  O2  UNL     1       3.742  -2.424   1.132  1.00  0.00    -0.245 OA
HETATM   36  N11 UNL     1       5.294  -1.174  -0.057  1.00  0.00    -0.333 N 
HETATM   37  C12 UNL     1       6.458  -1.965   0.342  1.00  0.00     0.127 C 
HETATM   38  C15 UNL     1       5.727  -0.102  -0.930  1.00  0.00     0.127 C 
HETATM   39  C13 UNL     1       7.528  -0.872   0.412  1.00  0.00     0.022 C 
HETATM   40  C14 UNL     1       7.224  -0.110  -0.863  1.00  0.00     0.022 C 
ATOM     41  H10 UNL     1       2.980   0.135  -0.657  1.00  0.00     0.192 HD
ENDBRANCH  28  33
ENDBRANCH   1  25
BRANCH   1  42
HETATM   42  C16 UNL     1      -2.260   1.573   1.651  1.00  0.00     0.226 C 
HETATM   43  O3  UNL     1      -3.393   1.310   2.104  1.00  0.00    -0.645 OA
HETATM   44  O4  UNL     1      -1.486   2.452   2.391  1.00  0.00    -0.645 OA
ENDBRANCH   1  42
TORSDOF 10
