REMARK  11 active torsions:
REMARK  status: ('A' for Active; 'I' for Inactive)
REMARK    1  A    between atoms: N1_3  and  C4_5 
REMARK    2  A    between atoms: C7_12  and  O1_13 
REMARK    3  A    between atoms: O1_13  and  C8_14 
REMARK    4  A    between atoms: C8_14  and  C9_15 
REMARK    5  A    between atoms: C11_17  and  N4_18 
REMARK       I    between atoms: N4_18  and  C12_20 
REMARK    6  A    between atoms: C15_31  and  O2_32 
REMARK    7  A    between atoms: O2_32  and  C16_33 
REMARK    8  A    between atoms: C16_33  and  C17_34 
REMARK    9  A    between atoms: C17_34  and  C18_35 
REMARK   10  A    between atoms: C18_35  and  N9_36 
REMARK       I    between atoms: N9_36  and  C19_38 
REMARK   11  A    between atoms: N12_43  and  N13_44 
ROOT
HETATM    1  C1  UNL     1      -2.792  -5.701  -0.442  1.00  0.00     0.037 C 
HETATM    2  C2  UNL     1      -2.164  -5.019   0.335  1.00  0.00     0.003 C 
HETATM    3  N1  UNL     1      -1.420  -4.237   1.215  1.00  0.00    -0.294 N 
HETATM    4  C3  UNL     1      -0.924  -4.758   2.465  1.00  0.00     0.168 C 
ENDROOT
BRANCH   3   5
HETATM    5  C4  UNL     1      -1.144  -2.892   0.877  1.00  0.00     0.166 A 
HETATM    6  C5  UNL     1      -0.049  -2.504   0.138  1.00  0.00     0.099 A 
HETATM    7  N2  UNL     1       0.972  -3.187  -0.429  1.00  0.00    -0.348 N 
HETATM    8  C14 UNL     1      -0.071  -1.154  -0.009  1.00  0.00     0.098 A 
HETATM    9  C6  UNL     1       1.955  -2.592  -1.123  1.00  0.00     0.183 A 
ATOM     10  H2  UNL     1       0.996  -4.201  -0.324  1.00  0.00     0.167 HD
HETATM   11  N3  UNL     1       1.925  -1.263  -1.262  1.00  0.00    -0.332 N 
HETATM   12  C7  UNL     1       0.920  -0.513  -0.713  1.00  0.00     0.160 A 
ATOM     13  H3  UNL     1       2.666  -0.798  -1.788  1.00  0.00     0.168 HD
HETATM   14  C15 UNL     1      -1.227  -0.709   0.670  1.00  0.00     0.182 A 
HETATM   15  N12 UNL     1      -1.844  -1.776   1.189  1.00  0.00    -0.220 N 
BRANCH  12  16
HETATM   16  O1  UNL     1       0.859   0.859  -0.837  1.00  0.00    -0.329 OA
BRANCH  16  17
HETATM   17  C8  UNL     1       1.827   1.578  -1.533  1.00  0.00     0.234 C 
BRANCH  17  18
HETATM   18  C9  UNL     1       3.184   1.449  -0.960  1.00  0.00     0.038 A 
HETATM   19  C10 UNL     1       4.266   1.910  -1.724  1.00  0.00     0.075 A 
HETATM   20  C11 UNL     1       5.552   1.828  -1.242  1.00  0.00     0.110 A 
HETATM   21  N7  UNL     1       5.742   1.296  -0.021  1.00  0.00    -0.338 N 
HETATM   22  C13 UNL     1       4.722   0.848   0.729  1.00  0.00     0.182 A 
ATOM     23  H7  UNL     1       6.691   1.231   0.347  1.00  0.00     0.168 HD
HETATM   24  N8  UNL     1       3.485   0.941   0.233  1.00  0.00    -0.354 N 
ATOM     25  H8  UNL     1       2.716   0.598   0.810  1.00  0.00     0.166 HD
BRANCH  20  26
HETATM   26  N4  UNL     1       6.529   2.270  -1.981  1.00  0.00    -0.317 N 
HETATM   27  C12 UNL     1       7.894   2.229  -1.569  1.00  0.00     0.187 C 
HETATM   28  N5  UNL     1       8.640   1.239  -1.956  1.00  0.00    -0.373 N 
HETATM   29  N6  UNL     1       8.494   3.219  -0.753  1.00  0.00    -0.064 NA
ATOM     30  H52 UNL     1       8.208   0.526  -2.544  1.00  0.00     0.158 HD
ATOM     31  H51 UNL     1       9.616   1.210  -1.661  1.00  0.00     0.158 HD
ATOM     32  H4  UNL     1       6.308   2.663  -2.896  1.00  0.00     0.170 HD
ENDBRANCH  20  26
ENDBRANCH  17  18
ENDBRANCH  16  17
ENDBRANCH  12  16
BRANCH  14  33
HETATM   33  O2  UNL     1      -1.536   0.628   0.707  1.00  0.00    -0.334 OA
BRANCH  33  34
HETATM   34  C16 UNL     1      -2.365   1.353  -0.114  1.00  0.00     0.179 C 
BRANCH  34  35
HETATM   35  C17 UNL     1      -3.818   1.080  -0.150  1.00  0.00     0.046 C 
BRANCH  35  36
HETATM   36  C18 UNL     1      -4.534   1.365   1.126  1.00  0.00     0.124 C 
BRANCH  36  37
HETATM   37  N9  UNL     1      -5.944   1.074   1.024  1.00  0.00    -0.365 N 
HETATM   38  C19 UNL     1      -6.864   1.809   0.223  1.00  0.00     0.181 C 
HETATM   39  N10 UNL     1      -7.869   1.259  -0.353  1.00  0.00    -0.374 N 
HETATM   40  N11 UNL     1      -6.661   3.209   0.053  1.00  0.00    -0.064 NA
ATOM     41 2H10 UNL     1      -8.014   0.257  -0.231  1.00  0.00     0.158 HD
ATOM     42 1H10 UNL     1      -8.528   1.785  -0.927  1.00  0.00     0.158 HD
ATOM     43  H9  UNL     1      -6.307   0.288   1.563  1.00  0.00     0.162 HD
ENDBRANCH  36  37
ENDBRANCH  35  36
ENDBRANCH  34  35
ENDBRANCH  33  34
ENDBRANCH  14  33
BRANCH  15  44
HETATM   44  N13 UNL     1      -3.015  -1.878   1.958  1.00  0.00    -0.335 N 
ATOM     45 2H13 UNL     1      -3.486  -2.692   2.354  1.00  0.00     0.177 HD
ATOM     46 1H13 UNL     1      -3.542  -1.037   2.193  1.00  0.00     0.177 HD
ENDBRANCH  15  44
ENDBRANCH   3   5
TORSDOF 11
