REMARK  9 active torsions:
REMARK  status: ('A' for Active; 'I' for Inactive)
REMARK    1  A    between atoms: C6_6  and  C7_7 
REMARK    2  A    between atoms: C7_7  and  C8_8 
REMARK    3  A    between atoms: C8_8  and  C9_9 
REMARK    4  A    between atoms: C9_9  and  N1_10 
REMARK    5  A    between atoms: N1_10  and  C10_12 
REMARK    6  A    between atoms: C13_17  and  N3_18 
REMARK    7  A    between atoms: N3_18  and  C14_20 
REMARK    8  A    between atoms: C14_20  and  C15_21 
REMARK    9  A    between atoms: C15_21  and  O1_22 
ROOT
HETATM    1  C10 UNL     1       1.973  -0.625  -0.323  1.00  0.00     0.118 A 
HETATM    2  C11 UNL     1       2.306  -1.276  -1.492  1.00  0.00     0.066 A 
HETATM    3  C12 UNL     1       3.644  -1.371  -1.856  1.00  0.00     0.110 A 
HETATM    4  N2  UNL     1       4.594  -0.830  -1.072  1.00  0.00    -0.202 N 
ATOM      5  H2  UNL     1       5.574  -0.902  -1.344  1.00  0.00     0.183 HD
HETATM    6  C13 UNL     1       4.264  -0.196   0.065  1.00  0.00     0.679 A 
HETATM    7  N4  UNL     1       2.971  -0.103   0.420  1.00  0.00    -0.177 N 
ATOM      8  H4  UNL     1       2.735   0.382   1.286  1.00  0.00     0.185 HD
ENDROOT
BRANCH   1   9
HETATM    9  N1  UNL     1       0.768  -0.483   0.102  1.00  0.00    -0.376 N 
ATOM     10  H1  UNL     1       0.642   0.019   0.981  1.00  0.00     0.161 HD
BRANCH   9  11
HETATM   11  C9  UNL     1      -0.408  -0.964  -0.545  1.00  0.00     0.121 C 
BRANCH  11  12
HETATM   12  C8  UNL     1      -1.599  -0.096  -0.110  1.00  0.00     0.024 C 
BRANCH  12  13
HETATM   13  C7  UNL     1      -2.807  -0.637  -0.813  1.00  0.00     0.040 C 
BRANCH  13  14
HETATM   14  C6  UNL     1      -4.048   0.072  -0.517  1.00  0.00    -0.058 A 
HETATM   15  C5  UNL     1      -4.497   1.146  -1.247  1.00  0.00     0.007 A 
HETATM   16  C4  UNL     1      -5.672   1.764  -0.912  1.00  0.00     0.001 A 
HETATM   17  C3  UNL     1      -6.444   1.337   0.160  1.00  0.00     0.007 A 
HETATM   18  C2  UNL     1      -5.984   0.257   0.887  1.00  0.00    -0.061 A 
HETATM   19  C1  UNL     1      -6.801  -0.214   2.042  1.00  0.00     0.048 C 
HETATM   20  C16 UNL     1      -4.802  -0.387   0.573  1.00  0.00     0.013 A 
ENDBRANCH  13  14
ENDBRANCH  12  13
ENDBRANCH  11  12
ENDBRANCH   9  11
ENDBRANCH   1   9
BRANCH   6  21
HETATM   21  N3  UNL     1       5.201   0.310   0.791  1.00  0.00    -0.224 N 
ATOM     22  H3  UNL     1       4.944   0.790   1.653  1.00  0.00     0.177 HD
BRANCH  21  23
HETATM   23  C14 UNL     1       6.596   0.228   0.439  1.00  0.00     0.164 C 
BRANCH  23  24
HETATM   24  C15 UNL     1       7.360   1.017   1.510  1.00  0.00     0.184 C 
BRANCH  24  25
HETATM   25  O1  UNL     1       6.855   2.330   1.436  1.00  0.00    -0.399 OA
ATOM     26  H1  UNL     1       7.328   2.819   2.099  1.00  0.00     0.209 HD
ENDBRANCH  24  25
ENDBRANCH  23  24
ENDBRANCH  21  23
ENDBRANCH   6  21
TORSDOF 9
