REMARK  6 active torsions:
REMARK  status: ('A' for Active; 'I' for Inactive)
REMARK    1  A    between atoms: C9_11  and  C10_12 
REMARK    2  A    between atoms: C13_17  and  C14_18 
REMARK    3  A    between atoms: C14_18  and  N3_19 
REMARK    4  A    between atoms: N3_19  and  C16_21 
REMARK    5  A    between atoms: C16_21  and  C17_22 
REMARK    6  A    between atoms: C17_22  and  O1_23 
ROOT
HETATM    1  C10 UNL     1      -1.596   0.459   0.461  1.00  0.00     0.045 C 
HETATM    2  C11 UNL     1      -0.333  -0.229   0.386  1.00  0.00     0.050 A 
HETATM    3  C12 UNL     1       0.178  -1.064   1.390  1.00  0.00     0.119 A 
HETATM    4  N2  UNL     1       1.388  -1.522   1.020  1.00  0.00    -0.352 N 
ATOM      5  H2  UNL     1       1.988  -2.148   1.558  1.00  0.00     0.166 HD
HETATM    6  C13 UNL     1       1.660  -1.003  -0.189  1.00  0.00     0.110 A 
HETATM    7  N4  UNL     1       0.635  -0.234  -0.564  1.00  0.00    -0.343 N 
ATOM      8  H4  UNL     1       0.587   0.279  -1.444  1.00  0.00     0.167 HD
ENDROOT
BRANCH   1   9
HETATM    9  C9  UNL     1      -2.783   0.114   0.032  1.00  0.00     0.004 A 
HETATM   10  C2  UNL     1      -3.182  -1.028  -0.628  1.00  0.00     0.034 A 
HETATM   11  C1  UNL     1      -2.500  -2.081  -1.011  1.00  0.00     0.044 C 
HETATM   12  N1  UNL     1      -4.529  -0.869  -0.838  1.00  0.00    -0.355 N 
HETATM   13  C3  UNL     1      -4.951   0.287  -0.347  1.00  0.00     0.043 A 
ATOM     14  H1  UNL     1      -5.125  -1.550  -1.309  1.00  0.00     0.166 HD
HETATM   15  C4  UNL     1      -6.211   0.863  -0.328  1.00  0.00     0.030 A 
HETATM   16  C8  UNL     1      -3.896   0.960   0.218  1.00  0.00     0.003 A 
HETATM   17  C5  UNL     1      -6.355   2.081   0.253  1.00  0.00     0.002 A 
HETATM   18  C6  UNL     1      -5.322   2.793   0.833  1.00  0.00     0.001 A 
HETATM   19  C7  UNL     1      -4.085   2.192   0.797  1.00  0.00     0.014 A 
ENDBRANCH   1   9
BRANCH   6  20
HETATM   20  C14 UNL     1       2.895  -1.242  -0.980  1.00  0.00     0.348 C 
BRANCH  20  21
HETATM   21  N3  UNL     1       3.921  -0.275  -0.685  1.00  0.00     0.093 N 
HETATM   22  C15 UNL     1       5.081  -0.577  -1.490  1.00  0.00     0.310 C 
BRANCH  21  23
HETATM   23  C16 UNL     1       4.309  -0.267   0.694  1.00  0.00     0.298 C 
BRANCH  23  24
HETATM   24  C17 UNL     1       5.384   0.780   0.881  1.00  0.00     0.194 C 
BRANCH  24  25
HETATM   25  O1  UNL     1       4.896   2.033   0.523  1.00  0.00    -0.399 OA
ATOM     26  H1  UNL     1       5.571   2.691   0.640  1.00  0.00     0.209 HD
ENDBRANCH  24  25
ENDBRANCH  23  24
ENDBRANCH  21  23
ENDBRANCH  20  21
ENDBRANCH   6  20
TORSDOF 6
