REMARK  8 active torsions:
REMARK  status: ('A' for Active; 'I' for Inactive)
REMARK    1  A    between atoms: C2_2  and  C3_3 
REMARK    2  A    between atoms: C3_3  and  C4_4 
REMARK    3  A    between atoms: C4_4  and  N1_5 
REMARK    4  A    between atoms: N1_5  and  C5_7 
REMARK    5  A    between atoms: C6_12  and  N4_13 
REMARK    6  A    between atoms: N4_13  and  C7_15 
REMARK    7  A    between atoms: C7_15  and  C8_16 
REMARK    8  A    between atoms: C8_16  and  C9_17 
ROOT
HETATM    1  C5  UNL     1       2.268  -0.195   0.981  1.00  0.00     0.695 A 
HETATM    2  N2  UNL     1       1.686  -0.842  -0.038  1.00  0.00    -0.130 N 
ATOM      3  H2  UNL     1       2.271  -1.216  -0.785  1.00  0.00     0.205 HD
HETATM    4  N3  UNL     1       0.365  -1.012  -0.104  1.00  0.00    -0.267 N 
ATOM      5  H3  UNL     1      -0.029  -1.513  -0.901  1.00  0.00     0.189 HD
HETATM    6  C6  UNL     1      -0.469  -0.542   0.851  1.00  0.00     0.186 A 
HETATM    7  C15 UNL     1       0.127   0.134   1.917  1.00  0.00     0.304 A 
HETATM    8  O1  UNL     1      -0.611   0.588   2.831  1.00  0.00    -0.263 OA
HETATM    9  N5  UNL     1       1.468   0.283   1.944  1.00  0.00    -0.152 N 
ATOM     10  H5  UNL     1       1.890   0.779   2.729  1.00  0.00     0.188 HD
ENDROOT
BRANCH   6  11
HETATM   11  N4  UNL     1      -1.753  -0.702   0.797  1.00  0.00    -0.370 N 
ATOM     12  H4  UNL     1      -2.364  -0.340   1.529  1.00  0.00     0.161 HD
BRANCH  11  13
HETATM   13  C7  UNL     1      -2.286  -1.415  -0.345  1.00  0.00     0.126 C 
BRANCH  13  14
HETATM   14  C8  UNL     1      -3.787  -1.569  -0.263  1.00  0.00     0.058 C 
BRANCH  14  15
HETATM   15  C9  UNL     1      -4.484  -0.279  -0.214  1.00  0.00    -0.057 A 
HETATM   16  C10 UNL     1      -4.765   0.350   0.975  1.00  0.00     0.007 A 
HETATM   17  C11 UNL     1      -5.428   1.577   1.013  1.00  0.00     0.001 A 
HETATM   18  C12 UNL     1      -5.812   2.176  -0.147  1.00  0.00     0.000 A 
HETATM   19  C13 UNL     1      -5.532   1.546  -1.345  1.00  0.00     0.001 A 
HETATM   20  C14 UNL     1      -4.873   0.328  -1.379  1.00  0.00     0.007 A 
ENDBRANCH  14  15
ENDBRANCH  13  14
ENDBRANCH  11  13
ENDBRANCH   6  11
BRANCH   1  21
HETATM   21  N1  UNL     1       3.545  -0.077   0.966  1.00  0.00    -0.224 N 
ATOM     22  H1  UNL     1       4.005   0.412   1.734  1.00  0.00     0.177 HD
BRANCH  21  23
HETATM   23  C4  UNL     1       4.342  -0.609  -0.092  1.00  0.00     0.142 C 
BRANCH  23  24
HETATM   24  C3  UNL     1       5.826  -0.506   0.180  1.00  0.00     0.046 C 
BRANCH  24  25
HETATM   25  C2  UNL     1       6.226   0.912   0.356  1.00  0.00    -0.035 C 
HETATM   26  C1  UNL     1       7.113   1.460  -0.443  1.00  0.00     0.007 C 
ENDBRANCH  24  25
ENDBRANCH  23  24
ENDBRANCH  21  23
ENDBRANCH   1  21
TORSDOF 8
