REMARK  6 active torsions:
REMARK  status: ('A' for Active; 'I' for Inactive)
REMARK    1  A    between atoms: C2_3  and  N2_4 
REMARK       I    between atoms: N2_4  and  C3_6 
REMARK    2  A    between atoms: N4_8  and  C4_10 
REMARK    3  A    between atoms: C4_10  and  C5_11 
REMARK    4  A    between atoms: C5_11  and  C6_12 
REMARK    5  A    between atoms: C11_17  and  N5_18 
REMARK    6  A    between atoms: N5_18  and  C12_20 
ROOT
HETATM    1  N1  UNL     1       4.415   2.300   1.982  1.00  0.00    -0.196 NA
HETATM    2  C1  UNL     1       4.668   1.833   0.957  1.00  0.00     0.078 C 
HETATM    3  C2  UNL     1       4.998   1.260  -0.358  1.00  0.00     0.246 C 
ENDROOT
BRANCH   3   4
HETATM    4  N2  UNL     1       3.889   0.505  -0.882  1.00  0.00    -0.352 N 
HETATM    5  C3  UNL     1       3.424  -0.707  -0.336  1.00  0.00     0.184 C 
HETATM    6  N3  UNL     1       4.280  -1.837  -0.248  1.00  0.00    -0.064 NA
HETATM    7  N4  UNL     1       2.223  -0.808   0.091  1.00  0.00    -0.364 N 
ATOM      8  H4  UNL     1       1.884  -1.684   0.488  1.00  0.00     0.162 HD
ATOM      9  H2  UNL     1       3.408   0.873  -1.703  1.00  0.00     0.163 HD
BRANCH   7  10
HETATM   10  C4  UNL     1       1.342   0.361  -0.001  1.00  0.00     0.127 C 
BRANCH  10  11
HETATM   11  C5  UNL     1       0.199  -0.041  -0.912  1.00  0.00     0.060 C 
BRANCH  11  12
HETATM   12  C6  UNL     1      -0.554  -1.198  -0.365  1.00  0.00    -0.030 A 
HETATM   13  C7  UNL     1      -0.409  -2.483  -0.846  1.00  0.00     0.009 A 
HETATM   14  C8  UNL     1      -1.105  -3.552  -0.337  1.00  0.00     0.001 A 
HETATM   15  C9  UNL     1      -1.992  -3.352   0.702  1.00  0.00     0.002 A 
HETATM   16  C10 UNL     1      -2.169  -2.073   1.217  1.00  0.00     0.030 A 
HETATM   17  C11 UNL     1      -1.453  -1.032   0.679  1.00  0.00     0.038 A 
BRANCH  17  18
HETATM   18  N5  UNL     1      -1.604   0.291   1.170  1.00  0.00    -0.356 N 
ATOM     19  H5  UNL     1      -0.958   0.647   1.875  1.00  0.00     0.166 HD
BRANCH  18  20
HETATM   20  C12 UNL     1      -2.553   1.047   0.731  1.00  0.00     0.035 A 
HETATM   21  C13 UNL     1      -3.453   0.616  -0.218  1.00  0.00     0.046 A 
HETATM   22  C14 UNL     1      -4.428   1.501  -0.624  1.00  0.00     0.090 A 
HETATM   23  N6  UNL     1      -4.515   2.744  -0.124  1.00  0.00    -0.375 N 
HETATM   24  C15 UNL     1      -3.644   3.179   0.803  1.00  0.00     0.090 A 
ATOM     25  H6  UNL     1      -5.253   3.367  -0.452  1.00  0.00     0.164 HD
HETATM   26  C16 UNL     1      -2.657   2.322   1.232  1.00  0.00     0.046 A 
ENDBRANCH  18  20
ENDBRANCH  17  18
ENDBRANCH  11  12
ENDBRANCH  10  11
ENDBRANCH   7  10
ENDBRANCH   3   4
TORSDOF 6
