REMARK  6 active torsions:
REMARK  status: ('A' for Active; 'I' for Inactive)
REMARK    1  A    between atoms: C2_2  and  O2_4 
REMARK    2  A    between atoms: O2_4  and  C3_5 
REMARK    3  A    between atoms: C9_11  and  C10_12 
REMARK    4  A    between atoms: C14_21  and  O6_22 
REMARK    5  A    between atoms: C19_28  and  O7_29 
REMARK    6  A    between atoms: O7_29  and  C20_30 
ROOT
HETATM    1  C3  UNL     1      -1.803   1.440   0.441  1.00  0.00     0.142 C 
HETATM    2  C4  UNL     1      -0.468   1.741  -0.195  1.00  0.00     0.039 C 
HETATM    3  C5  UNL     1       0.557   0.741   0.231  1.00  0.00     0.011 C 
HETATM    4  C6  UNL     1       1.772   0.958  -0.657  1.00  0.00    -0.020 C 
HETATM    5  C7  UNL     1       1.748   2.173  -1.512  1.00  0.00     0.017 C 
HETATM    6  C8  UNL     1       3.045   0.570   0.007  1.00  0.00     0.091 C 
HETATM    7  C9  UNL     1       4.306   1.089  -0.542  1.00  0.00     0.116 C 
HETATM    8  N1  UNL     1       4.877   0.134  -1.190  1.00  0.00    -0.263 N 
ATOM      9  H1  UNL     1       5.771   0.230  -1.672  1.00  0.00     0.194 HD
HETATM   10  O5  UNL     1       4.151  -1.021  -1.159  1.00  0.00    -0.267 OA
HETATM   11  C11 UNL     1       2.887  -0.799  -0.609  1.00  0.00     0.109 C 
HETATM   12  C12 UNL     1       2.416  -1.793   0.380  1.00  0.00     0.050 C 
HETATM   13  C13 UNL     1       3.403  -1.790   1.557  1.00  0.00     0.016 C 
HETATM   14  C14 UNL     1       1.066  -1.537   0.913  1.00  0.00     0.136 C 
HETATM   15  C15 UNL     1       0.158  -0.697   0.021  1.00  0.00     0.022 C 
HETATM   16  C16 UNL     1       0.502  -0.898  -1.427  1.00  0.00     0.003 C 
HETATM   17  C17 UNL     1       0.350  -2.264  -1.951  1.00  0.00     0.011 C 
HETATM   18  C18 UNL     1       1.853  -0.290  -1.547  1.00  0.00     0.038 C 
HETATM   19  C19 UNL     1      -1.241  -1.012   0.382  1.00  0.00     0.154 C 
HETATM   20  C22 UNL     1      -2.254   0.054   0.109  1.00  0.00     0.007 C 
HETATM   21  C23 UNL     1      -2.776   0.016  -1.312  1.00  0.00     0.020 C 
HETATM   22  C24 UNL     1      -3.461  -0.242   1.007  1.00  0.00     0.020 C 
ENDROOT
BRANCH   1  23
HETATM   23  O2  UNL     1      -2.744   2.338  -0.160  1.00  0.00    -0.315 OA
BRANCH  23  24
HETATM   24  C2  UNL     1      -3.451   3.238   0.589  1.00  0.00     0.255 C 
HETATM   25  C1  UNL     1      -4.414   4.138  -0.118  1.00  0.00     0.126 C 
HETATM   26  O1  UNL     1      -3.271   3.277   1.823  1.00  0.00    -0.266 OA
ENDBRANCH  23  24
ENDBRANCH   1  23
BRANCH  19  27
HETATM   27  O7  UNL     1      -1.715  -2.177  -0.253  1.00  0.00    -0.315 OA
BRANCH  27  28
HETATM   28  C20 UNL     1      -2.167  -3.293   0.384  1.00  0.00     0.255 C 
HETATM   29  C21 UNL     1      -2.635  -4.448  -0.421  1.00  0.00     0.126 C 
HETATM   30  O8  UNL     1      -2.182  -3.334   1.635  1.00  0.00    -0.266 OA
ENDBRANCH  27  28
ENDBRANCH  19  27
BRANCH  14  31
HETATM   31  O6  UNL     1       1.157  -0.844   2.136  1.00  0.00    -0.394 OA
ATOM     32  H6  UNL     1       0.287  -0.679   2.480  1.00  0.00     0.210 HD
ENDBRANCH  14  31
BRANCH   7  33
HETATM   33  C10 UNL     1       4.854   2.427  -0.406  1.00  0.00     0.225 C 
HETATM   34  O3  UNL     1       5.954   2.687  -0.948  1.00  0.00    -0.643 OA
HETATM   35  O4  UNL     1       4.189   3.414   0.305  1.00  0.00    -0.643 OA
ENDBRANCH   7  33
TORSDOF 6
