REMARK  3 active torsions:
REMARK  status: ('A' for Active; 'I' for Inactive)
REMARK    1  A    between atoms: C10_11  and  C11_12 
REMARK    2  A    between atoms: C11_12  and  C12_13 
REMARK    3  A    between atoms: C12_13  and  S1_14 
ROOT
HETATM    1  C1  UNL     1      -3.522   1.567  -2.429  1.00  0.00     0.010 C 
HETATM    2  C2  UNL     1      -2.645   1.499  -1.224  1.00  0.00    -0.011 C 
HETATM    3  C3  UNL     1      -3.433   2.196  -0.083  1.00  0.00     0.005 C 
HETATM    4  C4  UNL     1      -2.449   1.802   1.040  1.00  0.00     0.008 C 
HETATM    5  C5  UNL     1      -2.205   0.298   0.852  1.00  0.00     0.028 C 
HETATM    6  C6  UNL     1      -2.650   0.159  -0.604  1.00  0.00     0.037 C 
HETATM    7  C7  UNL     1      -1.929  -0.960  -1.109  1.00  0.00     0.134 C 
HETATM    8  C8  UNL     1      -0.589  -0.634  -1.517  1.00  0.00     0.077 C 
HETATM    9  C9  UNL     1       0.608  -0.796  -0.603  1.00  0.00     0.136 C 
HETATM   10  O1  UNL     1       1.389   0.241  -0.711  1.00  0.00    -0.377 OA
HETATM   11  C10 UNL     1       2.432   0.642  -0.028  1.00  0.00     0.157 C 
HETATM   12  C13 UNL     1       2.179   1.814   0.941  1.00  0.00     0.208 A 
HETATM   13  O5  UNL     1       1.272   2.768   0.740  1.00  0.00    -0.346 OA
HETATM   14  C14 UNL     1       0.818   1.584   1.573  1.00  0.00     0.293 A 
HETATM   15  O6  UNL     1      -0.129   1.046   0.861  1.00  0.00    -0.347 OA
HETATM   16  C15 UNL     1      -0.815  -0.133   1.214  1.00  0.00     0.074 C 
HETATM   17  C16 UNL     1      -0.912  -0.048   2.758  1.00  0.00     0.047 C 
HETATM   18  C17 UNL     1      -0.050  -1.210   0.711  1.00  0.00     0.019 C 
HETATM   19  C18 UNL     1       1.022  -1.593   1.756  1.00  0.00     0.021 C 
HETATM   20  C19 UNL     1      -0.433  -2.622   0.384  1.00  0.00     0.089 C 
HETATM   21  C20 UNL     1      -1.405  -2.967  -0.651  1.00  0.00     0.228 A 
HETATM   22  O7  UNL     1      -1.335  -2.630  -2.028  1.00  0.00    -0.197 OA
HETATM   23  O8  UNL     1      -2.368  -1.751  -2.208  1.00  0.00    -0.223 OA
HETATM   24  O9  UNL     1      -2.708  -3.339  -0.504  1.00  0.00    -0.336 OA
HETATM   25  C21 UNL     1      -2.400  -2.015  -0.172  1.00  0.00     0.228 A 
ENDROOT
BRANCH  11  26
HETATM   26  C11 UNL     1       3.434   1.232  -1.004  1.00  0.00     0.052 C 
BRANCH  26  27
HETATM   27  C12 UNL     1       3.947   0.322  -2.046  1.00  0.00     0.168 C 
BRANCH  27  28
HETATM   28  S1  UNL     1       4.854  -1.067  -1.433  1.00  0.00     0.101 S 
HETATM   29  O2  UNL     1       4.051  -1.979  -0.597  1.00  0.00    -0.595 OA
HETATM   30  O3  UNL     1       5.358  -1.863  -2.627  1.00  0.00    -0.595 OA
HETATM   31  O4  UNL     1       6.194  -0.558  -0.545  1.00  0.00    -0.595 OA
ENDBRANCH  27  28
ENDBRANCH  26  27
ENDBRANCH  11  26
TORSDOF 3
