REMARK  6 active torsions:
REMARK  status: ('A' for Active; 'I' for Inactive)
REMARK    1  A    between atoms: C3_3  and  C4_4 
REMARK    2  A    between atoms: C6_7  and  C7_8 
REMARK    3  A    between atoms: C11_14  and  C12_15 
REMARK    4  A    between atoms: C12_15  and  C13_16 
REMARK    5  A    between atoms: C18_23  and  O6_24 
REMARK    6  A    between atoms: C19_26  and  O7_27 
ROOT
HETATM    1  C1  UNL     1      -1.225   0.015  -2.129  1.00  0.00     0.015 C 
HETATM    2  C2  UNL     1      -0.827  -0.302  -0.922  1.00  0.00    -0.067 C 
HETATM    3  C3  UNL     1      -1.848  -0.121   0.139  1.00  0.00     0.113 C 
HETATM    4  C6  UNL     1      -1.757   1.321   0.550  1.00  0.00     0.150 C 
HETATM    5  O2  UNL     1      -0.471   1.768   0.770  1.00  0.00    -0.312 OA
HETATM    6  C10 UNL     1       0.713   1.123   0.941  1.00  0.00     0.296 C 
HETATM    7  O3  UNL     1       1.329   1.247   2.060  1.00  0.00    -0.262 OA
HETATM    8  C11 UNL     1       1.388   0.288  -0.017  1.00  0.00     0.169 C 
HETATM    9  O4  UNL     1       2.568  -0.295   0.568  1.00  0.00    -0.296 OA
HETATM   10  C17 UNL     1       2.706  -1.625   0.903  1.00  0.00     0.298 C 
HETATM   11  O5  UNL     1       3.803  -2.150   1.164  1.00  0.00    -0.262 OA
HETATM   12  C18 UNL     1       1.436  -2.415   0.933  1.00  0.00     0.184 C 
HETATM   13  C19 UNL     1       1.609  -3.893   0.877  1.00  0.00     0.195 C 
HETATM   14  C20 UNL     1       0.429  -4.369   0.063  1.00  0.00     0.190 A 
HETATM   15  O8  UNL     1      -0.775  -3.892   0.507  1.00  0.00    -0.366 OA
HETATM   16  C21 UNL     1      -0.285  -3.116  -0.482  1.00  0.00     0.098 A 
HETATM   17  C22 UNL     1      -0.925  -3.394  -1.854  1.00  0.00     0.050 C 
HETATM   18  C23 UNL     1       0.827  -2.148  -0.414  1.00  0.00     0.043 C 
HETATM   19  C24 UNL     1       1.887  -2.747  -1.383  1.00  0.00     0.023 C 
HETATM   20  C25 UNL     1       0.608  -0.743  -0.778  1.00  0.00     0.075 C 
ENDROOT
BRANCH   8  21
HETATM   21  C12 UNL     1       2.030   1.301  -1.016  1.00  0.00     0.077 C 
BRANCH  21  22
HETATM   22  C13 UNL     1       2.966   2.179  -0.266  1.00  0.00    -0.021 C 
HETATM   23  C14 UNL     1       2.836   3.491  -0.197  1.00  0.00    -0.091 C 
HETATM   24  C15 UNL     1       3.828   4.278   0.580  1.00  0.00     0.042 C 
HETATM   25  C16 UNL     1       1.729   4.222  -0.870  1.00  0.00     0.042 C 
ENDBRANCH  21  22
ENDBRANCH   8  21
BRANCH   4  26
HETATM   26  C7  UNL     1      -2.563   1.726   1.732  1.00  0.00     0.008 C 
HETATM   27  C8  UNL     1      -4.029   1.578   1.680  1.00  0.00     0.012 C 
HETATM   28  C9  UNL     1      -2.272   3.193   2.093  1.00  0.00     0.012 C 
ENDBRANCH   4  26
BRANCH  12  29
HETATM   29  O6  UNL     1       0.795  -2.083   2.050  1.00  0.00    -0.376 OA
ATOM     30  H6  UNL     1      -0.012  -2.585   2.069  1.00  0.00     0.211 HD
ENDBRANCH  12  29
BRANCH   3  31
HETATM   31  C4  UNL     1      -3.131  -0.647  -0.203  1.00  0.00     0.133 C 
HETATM   32  C5  UNL     1      -4.153  -0.253  -1.175  1.00  0.00     0.091 C 
HETATM   33  O1  UNL     1      -3.489  -1.677   0.455  1.00  0.00    -0.298 OA
ENDBRANCH   3  31
BRANCH  13  34
HETATM   34  O7  UNL     1       2.827  -4.353   0.473  1.00  0.00    -0.389 OA
ATOM     35  H7  UNL     1       2.937  -5.296   0.437  1.00  0.00     0.210 HD
ENDBRANCH  13  34
TORSDOF 6
