REMARK  7 active torsions:
REMARK  status: ('A' for Active; 'I' for Inactive)
REMARK    1  A    between atoms: C2_2  and  C4_4 
REMARK    2  A    between atoms: C4_4  and  O2_6 
REMARK    3  A    between atoms: O2_6  and  C5_7 
REMARK    4  A    between atoms: C8_10  and  O3_11 
REMARK    5  A    between atoms: C9_13  and  O4_14 
REMARK    6  A    between atoms: C19_27  and  O7_28 
REMARK    7  A    between atoms: O7_28  and  C20_29 
ROOT
HETATM    1  C5  UNL     1       1.581   0.590   0.168  1.00  0.00     0.166 C 
HETATM    2  C6  UNL     1       0.133   1.089   0.369  1.00  0.00     0.025 C 
HETATM    3  C7  UNL     1      -0.392   1.437  -0.963  1.00  0.00     0.042 C 
HETATM    4  C8  UNL     1      -1.716   2.064  -1.082  1.00  0.00     0.156 C 
HETATM    5  C9  UNL     1      -2.762   1.312  -1.834  1.00  0.00     0.121 A 
HETATM    6  C10 UNL     1      -4.043   1.070  -0.996  1.00  0.00     0.059 A 
HETATM    7  C11 UNL     1      -5.371   1.271  -1.747  1.00  0.00     0.016 C 
HETATM    8  C12 UNL     1      -3.166  -0.017  -1.389  1.00  0.00     0.100 A 
HETATM    9  C13 UNL     1      -3.764  -0.926  -2.489  1.00  0.00     0.050 C 
HETATM   10  O5  UNL     1      -2.228  -0.654  -0.698  1.00  0.00    -0.347 OA
HETATM   11  C14 UNL     1      -2.392  -1.163   0.518  1.00  0.00     0.266 C 
HETATM   12  O6  UNL     1      -1.784  -2.346   0.845  1.00  0.00    -0.350 OA
HETATM   13  C15 UNL     1      -0.415  -2.424   0.770  1.00  0.00     0.063 C 
HETATM   14  C16 UNL     1      -0.179  -3.424  -0.386  1.00  0.00     0.046 C 
HETATM   15  C17 UNL     1       0.203  -3.135   1.984  1.00  0.00     0.046 C 
HETATM   16  C18 UNL     1       0.201  -1.180   0.429  1.00  0.00     0.057 C 
HETATM   17  C19 UNL     1       1.607  -0.830   0.758  1.00  0.00     0.169 C 
HETATM   18  C22 UNL     1      -0.425   0.020   1.158  1.00  0.00     0.010 C 
HETATM   19  C23 UNL     1      -1.830  -0.120   1.502  1.00  0.00     0.042 C 
HETATM   20  C24 UNL     1      -2.071  -0.741   2.891  1.00  0.00     0.015 C 
ENDROOT
BRANCH   1  21
HETATM   21  O2  UNL     1       2.542   1.427   0.649  1.00  0.00    -0.309 OA
BRANCH  21  22
HETATM   22  C4  UNL     1       3.576   1.992  -0.075  1.00  0.00     0.288 C 
HETATM   23  O1  UNL     1       3.569   1.663  -1.267  1.00  0.00    -0.260 OA
BRANCH  22  24
HETATM   24  C2  UNL     1       4.576   2.884   0.499  1.00  0.00     0.004 C 
HETATM   25  C1  UNL     1       4.572   3.223   1.755  1.00  0.00     0.024 C 
HETATM   26  C3  UNL     1       5.625   3.413  -0.402  1.00  0.00     0.054 C 
ENDBRANCH  22  24
ENDBRANCH  21  22
ENDBRANCH   1  21
BRANCH  17  27
HETATM   27  O7  UNL     1       2.609  -1.624   0.346  1.00  0.00    -0.313 OA
BRANCH  27  28
HETATM   28  C20 UNL     1       3.630  -2.221   1.012  1.00  0.00     0.255 C 
HETATM   29  C21 UNL     1       4.603  -3.058   0.284  1.00  0.00     0.126 C 
HETATM   30  O8  UNL     1       3.660  -2.002   2.240  1.00  0.00    -0.266 OA
ENDBRANCH  27  28
ENDBRANCH  17  27
BRANCH   4  31
HETATM   31  O3  UNL     1      -1.559   3.273  -1.832  1.00  0.00    -0.392 OA
ATOM     32  H3  UNL     1      -2.415   3.678  -1.909  1.00  0.00     0.210 HD
ENDBRANCH   4  31
BRANCH   5  33
HETATM   33  O4  UNL     1      -3.016   1.647  -3.186  1.00  0.00    -0.384 OA
ATOM     34  H4  UNL     1      -3.682   1.168  -3.665  1.00  0.00     0.210 HD
ENDBRANCH   5  33
TORSDOF 7
