REMARK  7 active torsions:
REMARK  status: ('A' for Active; 'I' for Inactive)
REMARK    1  A    between atoms: O1_2  and  C2_3 
REMARK    2  A    between atoms: C2_3  and  C3_4 
REMARK    3  A    between atoms: C7_8  and  O2_9 
REMARK    4  A    between atoms: C16_20  and  O4_21 
REMARK    5  A    between atoms: O4_21  and  C17_22 
REMARK    6  A    between atoms: C20_26  and  O6_27 
REMARK    7  A    between atoms: C24_32  and  O8_33 
ROOT
HETATM    1  C3  UNL     1       2.655  -0.275  -0.799  1.00  0.00     0.002 C 
HETATM    2  C4  UNL     1       2.823  -1.324  -1.818  1.00  0.00     0.022 C 
HETATM    3  C5  UNL     1       3.170   1.015  -1.455  1.00  0.00     0.018 C 
HETATM    4  C6  UNL     1       2.537   2.077  -0.686  1.00  0.00     0.034 C 
HETATM    5  C7  UNL     1       1.013   2.114  -0.797  1.00  0.00     0.134 C 
HETATM    6  C8  UNL     1       0.303   0.810  -0.564  1.00  0.00     0.042 C 
HETATM    7  C9  UNL     1       0.036   0.323  -2.009  1.00  0.00     0.026 C 
HETATM    8  C10 UNL     1       1.373  -0.138  -0.056  1.00  0.00    -0.059 C 
HETATM    9  C11 UNL     1       1.077  -1.459   0.466  1.00  0.00    -0.019 C 
HETATM   10  C12 UNL     1      -0.266  -2.080   0.423  1.00  0.00     0.069 C 
HETATM   11  C13 UNL     1      -1.222  -1.400   1.313  1.00  0.00     0.108 C 
HETATM   12  O3  UNL     1      -0.677  -1.424   2.627  1.00  0.00    -0.375 OA
HETATM   13  C14 UNL     1      -0.494  -0.013   2.672  1.00  0.00     0.180 C 
HETATM   14  C15 UNL     1      -1.223   0.027   1.414  1.00  0.00     0.088 C 
HETATM   15  C16 UNL     1      -0.922   0.883   0.238  1.00  0.00     0.113 C 
HETATM   16  C19 UNL     1      -2.225   0.707  -0.585  1.00  0.00     0.048 C 
HETATM   17  C20 UNL     1      -2.925  -0.501  -0.859  1.00  0.00     0.077 C 
HETATM   18  C22 UNL     1      -3.468  -1.396   0.200  1.00  0.00     0.217 C 
HETATM   19  O7  UNL     1      -4.337  -0.820   1.127  1.00  0.00    -0.373 OA
HETATM   20  C23 UNL     1      -3.637  -1.506   2.126  1.00  0.00     0.213 C 
HETATM   21  C24 UNL     1      -2.586  -1.978   1.190  1.00  0.00     0.143 C 
ENDROOT
BRANCH   1  22
HETATM   22  C2  UNL     1       3.752  -0.524   0.264  1.00  0.00     0.180 C 
BRANCH  22  23
HETATM   23  O1  UNL     1       3.741  -1.711   0.887  1.00  0.00    -0.395 OA
HETATM   24  C1  UNL     1       4.795  -1.740   1.797  1.00  0.00     0.201 C 
ENDBRANCH  22  23
ENDBRANCH   1  22
BRANCH   5  25
HETATM   25  O2  UNL     1       0.829   2.609  -2.123  1.00  0.00    -0.394 OA
ATOM     26  H2  UNL     1      -0.118   2.632  -2.192  1.00  0.00     0.210 HD
ENDBRANCH   5  25
BRANCH  15  27
HETATM   27  O4  UNL     1      -1.077   2.109   0.919  1.00  0.00    -0.304 OA
BRANCH  27  28
HETATM   28  C17 UNL     1      -1.416   3.340   0.617  1.00  0.00     0.255 C 
HETATM   29  C18 UNL     1      -1.410   4.421   1.664  1.00  0.00     0.126 C 
HETATM   30  O5  UNL     1      -1.740   3.609  -0.528  1.00  0.00    -0.266 OA
ENDBRANCH  27  28
ENDBRANCH  15  27
BRANCH  17  31
HETATM   31  O6  UNL     1      -2.689  -1.261  -1.984  1.00  0.00    -0.358 OA
HETATM   32  C21 UNL     1      -3.623  -1.249  -2.972  1.00  0.00     0.209 C 
ENDBRANCH  17  31
BRANCH  21  33
HETATM   33  O8  UNL     1      -2.495  -3.387   1.207  1.00  0.00    -0.381 OA
ATOM     34  H8  UNL     1      -3.367  -3.756   1.128  1.00  0.00     0.211 HD
ENDBRANCH  21  33
TORSDOF 7
