REMARK  8 active torsions:
REMARK  status: ('A' for Active; 'I' for Inactive)
REMARK    1  A    between atoms: C2_2  and  O2_4 
REMARK    2  A    between atoms: O2_4  and  C3_5 
REMARK    3  A    between atoms: C9_11  and  O3_12 
REMARK    4  A    between atoms: C10_14  and  O4_15 
REMARK    5  A    between atoms: C11_17  and  O5_18 
REMARK    6  A    between atoms: O5_18  and  C12_19 
REMARK    7  A    between atoms: C14_22  and  O7_23 
REMARK    8  A    between atoms: O7_23  and  C15_24 
ROOT
HETATM    1  C3  UNL     1       2.512  -0.399   0.253  1.00  0.00     0.144 C 
HETATM    2  C4  UNL     1       1.792   0.761   0.852  1.00  0.00     0.026 C 
HETATM    3  C5  UNL     1       2.504   1.665  -0.023  1.00  0.00     0.003 C 
HETATM    4  C6  UNL     1       1.898   2.202  -1.232  1.00  0.00     0.006 C 
HETATM    5  C7  UNL     1       1.106   1.355  -2.128  1.00  0.00     0.009 C 
HETATM    6  C8  UNL     1      -0.072   0.640  -1.675  1.00  0.00     0.029 C 
HETATM    7  C9  UNL     1      -1.342   1.144  -2.383  1.00  0.00     0.160 C 
HETATM    8  C10 UNL     1      -2.357   1.399  -1.249  1.00  0.00     0.117 C 
HETATM    9  C11 UNL     1      -2.805   0.034  -0.824  1.00  0.00     0.199 C 
HETATM   10  C14 UNL     1      -1.550  -0.514  -0.196  1.00  0.00     0.174 C 
HETATM   11  C17 UNL     1      -0.488   0.586  -0.281  1.00  0.00     0.006 C 
HETATM   12  C18 UNL     1       0.327   0.619   0.861  1.00  0.00     0.005 C 
HETATM   13  C19 UNL     1      -0.348   1.635   1.806  1.00  0.00     0.006 C 
HETATM   14  C20 UNL     1      -1.736   1.871   1.185  1.00  0.00     0.009 C 
HETATM   15  C21 UNL     1      -1.410   1.823  -0.214  1.00  0.00     0.037 C 
HETATM   16  C22 UNL     1       3.594   0.615  -0.150  1.00  0.00    -0.016 C 
HETATM   17  C23 UNL     1       4.217   0.391  -1.471  1.00  0.00     0.018 C 
HETATM   18  C24 UNL     1       4.687   0.722   0.926  1.00  0.00     0.018 C 
ENDROOT
BRANCH   1  19
HETATM   19  O2  UNL     1       2.889  -1.483   0.951  1.00  0.00    -0.315 OA
BRANCH  19  20
HETATM   20  C2  UNL     1       2.764  -2.820   0.696  1.00  0.00     0.255 C 
HETATM   21  C1  UNL     1       3.246  -3.892   1.593  1.00  0.00     0.126 C 
HETATM   22  O1  UNL     1       2.195  -3.097  -0.381  1.00  0.00    -0.266 OA
ENDBRANCH  19  20
ENDBRANCH   1  19
BRANCH  10  23
HETATM   23  O7  UNL     1      -1.740  -1.043   1.066  1.00  0.00    -0.313 OA
BRANCH  23  24
HETATM   24  C15 UNL     1      -1.499  -2.356   1.345  1.00  0.00     0.255 C 
HETATM   25  C16 UNL     1      -1.737  -2.834   2.753  1.00  0.00     0.126 C 
HETATM   26  O8  UNL     1      -1.091  -3.179   0.486  1.00  0.00    -0.266 OA
ENDBRANCH  23  24
ENDBRANCH  10  23
BRANCH   7  27
HETATM   27  O3  UNL     1      -1.826   0.278  -3.324  1.00  0.00    -0.392 OA
ATOM     28  H3  UNL     1      -2.610   0.589  -3.761  1.00  0.00     0.210 HD
ENDBRANCH   7  27
BRANCH   9  29
HETATM   29  O5  UNL     1      -3.912   0.020   0.007  1.00  0.00    -0.310 OA
BRANCH  29  30
HETATM   30  C12 UNL     1      -5.086  -0.627  -0.351  1.00  0.00     0.255 C 
HETATM   31  C13 UNL     1      -6.298  -0.670   0.506  1.00  0.00     0.126 C 
HETATM   32  O6  UNL     1      -5.142  -1.215  -1.461  1.00  0.00    -0.266 OA
ENDBRANCH  29  30
ENDBRANCH   9  29
BRANCH   8  33
HETATM   33  O4  UNL     1      -3.334   2.258  -1.609  1.00  0.00    -0.384 OA
ATOM     34  H4  UNL     1      -3.959   2.415  -0.911  1.00  0.00     0.210 HD
ENDBRANCH   8  33
TORSDOF 8
