REMARK  7 active torsions:
REMARK  status: ('A' for Active; 'I' for Inactive)
REMARK    1  A    between atoms: C2_2  and  C3_3 
REMARK    2  A    between atoms: C2_2  and  C5_7 
REMARK    3  A    between atoms: C3_3  and  O2_5 
REMARK    4  A    between atoms: C9_11  and  O3_12 
REMARK    5  A    between atoms: C14_18  and  O4_19 
REMARK    6  A    between atoms: C15_21  and  O5_22 
REMARK    7  A    between atoms: O5_22  and  C16_23 
ROOT
HETATM    1  C5  UNL     1       3.458  -0.323   1.186  1.00  0.00     0.024 C 
HETATM    2  C6  UNL     1       4.341  -0.847   0.114  1.00  0.00     0.010 C 
HETATM    3  C7  UNL     1       3.636  -2.080  -0.470  1.00  0.00     0.008 C 
HETATM    4  C8  UNL     1       2.472  -1.559  -1.233  1.00  0.00     0.020 C 
HETATM    5  C9  UNL     1       1.581  -2.692  -1.780  1.00  0.00     0.127 C 
HETATM    6  C10 UNL     1       0.304  -1.968  -1.845  1.00  0.00     0.026 C 
HETATM    7  C11 UNL     1      -0.971  -2.648  -1.893  1.00  0.00     0.015 C 
HETATM    8  C12 UNL     1      -1.894  -1.742  -1.060  1.00  0.00     0.018 C 
HETATM    9  C13 UNL     1      -3.046  -1.231  -1.821  1.00  0.00     0.041 C 
HETATM   10  C14 UNL     1      -3.500   0.140  -1.616  1.00  0.00     0.151 C 
HETATM   11  C15 UNL     1      -3.123   0.897  -0.419  1.00  0.00     0.194 C 
HETATM   12  C18 UNL     1      -2.730   0.166   0.802  1.00  0.00     0.083 C 
HETATM   13  C19 UNL     1      -2.624   1.231   1.915  1.00  0.00     0.048 C 
HETATM   14  C20 UNL     1      -3.771  -0.806   1.296  1.00  0.00     0.048 C 
HETATM   15  O7  UNL     1      -1.450  -0.382   0.767  1.00  0.00    -0.372 OA
HETATM   16  C21 UNL     1      -0.980  -0.643  -0.493  1.00  0.00     0.135 C 
HETATM   17  C22 UNL     1       0.299  -1.402  -0.406  1.00  0.00    -0.007 C 
HETATM   18  C23 UNL     1       0.229  -2.461   0.619  1.00  0.00     0.019 C 
HETATM   19  C24 UNL     1       1.570  -0.634  -0.470  1.00  0.00     0.004 C 
HETATM   20  C25 UNL     1       2.014  -0.212   0.862  1.00  0.00     0.015 C 
ENDROOT
BRANCH   1  21
HETATM   21  C2  UNL     1       4.029   0.942   1.711  1.00  0.00     0.012 C 
HETATM   22  C1  UNL     1       4.584   1.052   2.897  1.00  0.00     0.025 C 
BRANCH  21  23
HETATM   23  C3  UNL     1       3.966   2.124   0.866  1.00  0.00     0.288 C 
HETATM   24  O1  UNL     1       3.445   2.099  -0.289  1.00  0.00    -0.260 OA
BRANCH  23  25
HETATM   25  O2  UNL     1       4.487   3.347   1.307  1.00  0.00    -0.323 OA
HETATM   26  C4  UNL     1       4.447   4.514   0.521  1.00  0.00     0.213 C 
ENDBRANCH  23  25
ENDBRANCH  21  23
ENDBRANCH   1  21
BRANCH   5  27
HETATM   27  O3  UNL     1       2.061  -3.122  -3.016  1.00  0.00    -0.395 OA
ATOM     28  H3  UNL     1       1.512  -3.820  -3.353  1.00  0.00     0.210 HD
ENDBRANCH   5  27
BRANCH  10  29
HETATM   29  O4  UNL     1      -3.119   0.932  -2.735  1.00  0.00    -0.393 OA
ATOM     30  H4  UNL     1      -3.415   1.825  -2.601  1.00  0.00     0.210 HD
ENDBRANCH  10  29
BRANCH  11  31
HETATM   31  O5  UNL     1      -4.217   1.737  -0.029  1.00  0.00    -0.311 OA
BRANCH  31  32
HETATM   32  C16 UNL     1      -4.174   3.101   0.014  1.00  0.00     0.255 C 
HETATM   33  C17 UNL     1      -5.402   3.827   0.443  1.00  0.00     0.126 C 
HETATM   34  O6  UNL     1      -3.121   3.686  -0.304  1.00  0.00    -0.266 OA
ENDBRANCH  31  32
ENDBRANCH  11  31
TORSDOF 7
