REMARK  3 active torsions:
REMARK  status: ('A' for Active; 'I' for Inactive)
REMARK    1  A    between atoms: C3_3  and  C4_4 
REMARK    2  A    between atoms: C7_9  and  C8_10 
REMARK    3  A    between atoms: C11_15  and  O5_17 
ROOT
HETATM    1  C1  UNL     1       2.688   2.353   1.070  1.00  0.00     0.044 C 
HETATM    2  C2  UNL     1       1.883   1.185   0.583  1.00  0.00    -0.069 C 
HETATM    3  C3  UNL     1       1.985  -0.075   0.334  1.00  0.00    -0.042 C 
HETATM    4  C9  UNL     1       0.533  -0.185   0.159  1.00  0.00     0.033 C 
HETATM    5  C10 UNL     1      -0.041  -0.878  -1.015  1.00  0.00     0.048 C 
HETATM    6  C11 UNL     1      -1.457  -1.296  -0.843  1.00  0.00     0.062 C 
HETATM    7  C12 UNL     1      -1.870  -1.952  -2.146  1.00  0.00     0.046 C 
HETATM    8  C13 UNL     1      -2.464  -0.301  -0.421  1.00  0.00    -0.005 C 
HETATM    9  C14 UNL     1      -2.934   0.660  -1.469  1.00  0.00     0.019 C 
HETATM   10  C15 UNL     1      -3.723  -1.209  -0.205  1.00  0.00     0.030 C 
HETATM   11  C16 UNL     1      -4.702  -0.362   0.539  1.00  0.00     0.116 A 
HETATM   12  C17 UNL     1      -5.209  -0.930   1.799  1.00  0.00     0.266 A 
HETATM   13  O6  UNL     1      -6.090  -1.759   2.106  1.00  0.00    -0.265 OA
HETATM   14  O7  UNL     1      -4.300  -0.158   2.491  1.00  0.00    -0.314 OA
HETATM   15  C18 UNL     1      -3.846   0.519   1.370  1.00  0.00     0.151 A 
HETATM   16  C19 UNL     1      -2.377   0.246   0.950  1.00  0.00     0.045 C 
HETATM   17  C20 UNL     1      -1.598   1.376   1.341  1.00  0.00     0.090 C 
HETATM   18 CL1  UNL     1      -0.924   1.056   2.999  1.00  0.00    -0.124 Cl
HETATM   19  C21 UNL     1      -0.534   2.027   0.575  1.00  0.00     0.035 C 
HETATM   20  C22 UNL     1       0.544   1.225  -0.040  1.00  0.00    -0.012 C 
HETATM   21  C23 UNL     1       0.816   1.685  -1.489  1.00  0.00     0.021 C 
ENDROOT
BRANCH   3  22
HETATM   22  C4  UNL     1       2.979  -1.167   0.358  1.00  0.00     0.176 C 
HETATM   23  O1  UNL     1       2.983  -1.841  -0.921  1.00  0.00    -0.310 OA
HETATM   24  C5  UNL     1       3.982  -1.244  -1.712  1.00  0.00     0.260 C 
HETATM   25  O2  UNL     1       4.140  -1.447  -2.939  1.00  0.00    -0.265 OA
HETATM   26  C6  UNL     1       4.789  -0.358  -0.861  1.00  0.00     0.129 C 
HETATM   27  C7  UNL     1       4.395  -0.896   0.536  1.00  0.00     0.130 C 
BRANCH  27  28
HETATM   28  C8  UNL     1       4.911  -0.113   1.622  1.00  0.00     0.180 C 
HETATM   29  O3  UNL     1       5.804   0.752   1.431  1.00  0.00    -0.648 OA
HETATM   30  O4  UNL     1       4.452  -0.280   2.916  1.00  0.00    -0.648 OA
ENDBRANCH  27  28
ENDBRANCH   3  22
BRANCH   6  31
HETATM   31  O5  UNL     1      -1.469  -2.344   0.111  1.00  0.00    -0.389 OA
ATOM     32  H5  UNL     1      -2.374  -2.611   0.221  1.00  0.00     0.210 HD
ENDBRANCH   6  31
TORSDOF 3
