REMARK  6 active torsions:
REMARK  status: ('A' for Active; 'I' for Inactive)
REMARK    1  A    between atoms: C2_2  and  S1_3 
REMARK    2  A    between atoms: S1_3  and  N1_6 
REMARK    3  A    between atoms: N1_6  and  C3_8 
REMARK    4  A    between atoms: C7_13  and  O3_14 
REMARK       I    between atoms: N3_20  and  C11_21 
REMARK    5  A    between atoms: C11_21  and  O5_23 
REMARK    6  A    between atoms: O5_23  and  C12_24 
ROOT
HETATM    1  C3  UNL     1      -1.956  -0.221  -0.314  1.00  0.00     0.038 C 
HETATM    2  C4  UNL     1      -2.019  -1.183  -1.446  1.00  0.00     0.018 A 
HETATM    3  C5  UNL     1      -2.760  -1.636  -2.468  1.00  0.00     0.107 A 
HETATM    4  N2  UNL     1      -2.028  -2.511  -3.228  1.00  0.00    -0.341 N 
HETATM    5  C6  UNL     1      -2.487  -3.206  -4.421  1.00  0.00     0.158 C 
HETATM    6  C7  UNL     1      -0.800  -2.660  -2.731  1.00  0.00     0.153 A 
HETATM    7  C8  UNL     1      -0.770  -1.887  -1.672  1.00  0.00     0.038 A 
HETATM    8  C9  UNL     1       0.202  -1.463  -0.694  1.00  0.00     0.001 C 
HETATM    9  C10 UNL     1       1.309  -0.979  -1.166  1.00  0.00     0.117 C 
HETATM   10 CL1  UNL     1       1.939  -0.774  -2.705  1.00  0.00    -0.064 Cl
HETATM   11  N3  UNL     1       1.631   0.044  -0.110  1.00  0.00    -0.282 N 
HETATM   12  C11 UNL     1       2.938   0.305   0.219  1.00  0.00     0.368 C 
HETATM   13  O4  UNL     1       3.904  -0.313  -0.366  1.00  0.00    -0.238 OA
HETATM   14  C16 UNL     1       0.400   0.730   0.440  1.00  0.00     0.147 C 
HETATM   15  C17 UNL     1      -0.823  -0.095   0.609  1.00  0.00     0.064 C 
HETATM   16  C18 UNL     1      -0.130  -1.530   0.750  1.00  0.00     0.030 C 
HETATM   17  C19 UNL     1      -1.124  -2.549   1.117  1.00  0.00     0.016 C 
ENDROOT
BRANCH   1  18
HETATM   18  N1  UNL     1      -2.468   1.062  -0.583  1.00  0.00    -0.287 N 
ATOM     19  H1  UNL     1      -1.881   1.668  -1.156  1.00  0.00     0.178 HD
BRANCH  18  20
HETATM   20  S1  UNL     1      -3.872   1.690  -0.094  1.00  0.00     0.230 S 
HETATM   21  O1  UNL     1      -5.140   1.031  -0.629  1.00  0.00    -0.206 OA
HETATM   22  O2  UNL     1      -3.977   3.103  -0.630  1.00  0.00    -0.206 OA
BRANCH  20  23
HETATM   23  C2  UNL     1      -4.171   1.868   1.649  1.00  0.00     0.159 C 
HETATM   24  C1  UNL     1      -5.576   2.486   1.766  1.00  0.00     0.023 C 
ENDBRANCH  20  23
ENDBRANCH  18  20
ENDBRANCH   1  18
BRANCH   6  25
HETATM   25  O3  UNL     1       0.303  -3.388  -3.098  1.00  0.00    -0.345 OA
ATOM     26  H3  UNL     1       1.178  -3.494  -2.744  1.00  0.00     0.219 HD
ENDBRANCH   6  25
BRANCH  12  27
HETATM   27  O5  UNL     1       3.377   1.198   1.151  1.00  0.00    -0.294 OA
BRANCH  27  28
HETATM   28  C12 UNL     1       4.724   1.448   1.468  1.00  0.00     0.061 C 
HETATM   29  C13 UNL     1       5.449   0.222   1.972  1.00  0.00     0.046 C 
HETATM   30  C14 UNL     1       5.518   2.056   0.370  1.00  0.00     0.046 C 
HETATM   31  C15 UNL     1       4.694   2.440   2.622  1.00  0.00     0.046 C 
ENDBRANCH  27  28
ENDBRANCH  12  27
TORSDOF 6
