REMARK  6 active torsions:
REMARK  status: ('A' for Active; 'I' for Inactive)
REMARK    1  A    between atoms: O1_2  and  C2_3 
REMARK    2  A    between atoms: C3_4  and  C4_5 
REMARK    3  A    between atoms: C9_11  and  O3_12 
REMARK    4  A    between atoms: C10_14  and  O4_15 
REMARK    5  A    between atoms: C11_17  and  C12_18 
REMARK    6  A    between atoms: C12_18  and  O5_20 
ROOT
HETATM    1  C2  UNL     1      -0.398   0.328   0.396  1.00  0.00     0.065 C 
HETATM    2  C3  UNL     1      -1.299  -0.571   0.040  1.00  0.00    -0.044 C 
HETATM    3  C7  UNL     1      -0.609  -1.725  -0.660  1.00  0.00     0.070 C 
HETATM    4  C8  UNL     1       0.674  -1.637   0.014  1.00  0.00     0.149 C 
HETATM    5  O2  UNL     1       1.844  -2.038  -0.474  1.00  0.00    -0.352 OA
HETATM    6  C9  UNL     1       2.714  -1.447   0.484  1.00  0.00     0.287 C 
HETATM    7  C10 UNL     1       2.082  -0.081   0.821  1.00  0.00     0.193 C 
HETATM    8  C11 UNL     1       0.884  -0.121  -0.049  1.00  0.00     0.091 C 
ENDROOT
BRANCH   8   9
HETATM    9  C12 UNL     1       1.136   0.341  -1.458  1.00  0.00     0.134 C 
HETATM   10  C13 UNL     1       1.088   1.856  -1.470  1.00  0.00     0.040 C 
BRANCH   9  11
HETATM   11  O5  UNL     1       2.342  -0.122  -1.984  1.00  0.00    -0.395 OA
ATOM     12  H5  UNL     1       2.501   0.170  -2.874  1.00  0.00     0.210 HD
ENDBRANCH   9  11
ENDBRANCH   8   9
BRANCH   1  13
HETATM   13  O1  UNL     1      -0.735   1.492   1.086  1.00  0.00    -0.359 OA
HETATM   14  C1  UNL     1      -0.111   1.930   2.269  1.00  0.00     0.209 C 
ENDBRANCH   1  13
BRANCH   7  15
HETATM   15  O4  UNL     1       3.006   0.902   0.537  1.00  0.00    -0.389 OA
ATOM     16  H4  UNL     1       2.617   1.743   0.745  1.00  0.00     0.210 HD
ENDBRANCH   7  15
BRANCH   2  17
HETATM   17  C4  UNL     1      -2.753  -0.557   0.265  1.00  0.00     0.009 C 
HETATM   18  C5  UNL     1      -3.281   0.608   1.021  1.00  0.00     0.014 C 
HETATM   19  C6  UNL     1      -3.441  -0.594  -1.103  1.00  0.00     0.014 C 
ENDBRANCH   2  17
BRANCH   6  20
HETATM   20  O3  UNL     1       4.003  -1.337   0.035  1.00  0.00    -0.369 OA
ATOM     21  H3  UNL     1       4.584  -0.942   0.675  1.00  0.00     0.212 HD
ENDBRANCH   6  20
TORSDOF 6
