REMARK  3 active torsions:
REMARK  status: ('A' for Active; 'I' for Inactive)
REMARK    1  A    between atoms: C2_3  and  N1_4 
REMARK    2  A    between atoms: N1_4  and  C3_6 
REMARK    3  A    between atoms: N4_15  and  C8_16 
ROOT
HETATM    1  O1  UNL     1      -0.539   0.914   1.904  1.00  0.00    -0.262 OA
HETATM    2  C1  UNL     1      -0.338   0.407   0.767  1.00  0.00     0.308 A 
HETATM    3  C2  UNL     1       0.891   0.260   0.165  1.00  0.00     0.188 A 
HETATM    4  N2  UNL     1       0.652  -0.319  -1.021  1.00  0.00    -0.266 N 
ATOM      5  H2  UNL     1       1.361  -0.564  -1.713  1.00  0.00     0.190 HD
HETATM    6  N3  UNL     1      -0.665  -0.524  -1.153  1.00  0.00    -0.235 N 
ATOM      7  H3  UNL     1      -1.120  -0.950  -1.960  1.00  0.00     0.208 HD
HETATM    8  N4  UNL     1      -1.276  -0.088  -0.076  1.00  0.00    -0.235 N 
ENDROOT
BRANCH   8   9
HETATM    9  C8  UNL     1      -2.687  -0.098   0.233  1.00  0.00     0.116 C 
HETATM   10  C9  UNL     1      -3.473  -0.931  -0.733  1.00  0.00     0.055 C 
HETATM   11  C10 UNL     1      -4.929  -0.870  -0.325  1.00  0.00     0.234 C 
HETATM   12  N5  UNL     1      -5.454   0.463  -0.318  1.00  0.00    -0.075 N 
HETATM   13  C11 UNL     1      -4.680   1.400   0.444  1.00  0.00     0.234 C 
ATOM     14  H52 UNL     1      -5.582   0.800  -1.272  1.00  0.00     0.277 HD
ATOM     15  H51 UNL     1      -6.424   0.462  -0.002  1.00  0.00     0.277 HD
HETATM   16  C12 UNL     1      -3.203   1.328   0.142  1.00  0.00     0.055 C 
ENDBRANCH   8   9
BRANCH   3  17
HETATM   17  N1  UNL     1       2.184   0.621   0.636  1.00  0.00    -0.366 N 
ATOM     18  H1  UNL     1       2.259   1.058   1.554  1.00  0.00     0.161 HD
BRANCH  17  19
HETATM   19  C3  UNL     1       3.380   0.404  -0.107  1.00  0.00     0.083 C 
HETATM   20  C4  UNL     1       3.527  -1.101  -0.368  1.00  0.00     0.025 C 
HETATM   21  C5  UNL     1       5.031  -1.219  -0.534  1.00  0.00     0.002 C 
HETATM   22  C6  UNL     1       5.513  -0.416   0.678  1.00  0.00     0.002 C 
HETATM   23  C7  UNL     1       4.579   0.788   0.706  1.00  0.00     0.025 C 
ENDBRANCH  17  19
ENDBRANCH   3  17
TORSDOF 3
