REMARK  5 active torsions:
REMARK  status: ('A' for Active; 'I' for Inactive)
REMARK    1  A    between atoms: C5_7  and  N2_8 
REMARK    2  A    between atoms: N2_8  and  C6_10 
REMARK    3  A    between atoms: C6_10  and  C7_11 
REMARK    4  A    between atoms: C7_11  and  O1_12 
REMARK    5  A    between atoms: N4_16  and  C8_17 
ROOT
HETATM    1  C1  UNL     1      -0.242   2.460   1.672  1.00  0.00     0.041 C 
HETATM    2  C2  UNL     1      -0.047   1.868   0.274  1.00  0.00     0.058 C 
HETATM    3  C3  UNL     1      -0.934   2.611  -0.700  1.00  0.00     0.041 C 
HETATM    4  C4  UNL     1       1.382   2.203  -0.101  1.00  0.00     0.170 C 
HETATM    5  N1  UNL     1       1.891   1.383  -1.152  1.00  0.00    -0.223 N 
ATOM      6  H1  UNL     1       2.414   1.788  -1.928  1.00  0.00     0.177 HD
HETATM    7  C5  UNL     1       1.647  -0.013  -1.084  1.00  0.00     0.688 C 
HETATM    8  N3  UNL     1       0.620  -0.384  -0.411  1.00  0.00    -0.134 N 
ATOM      9  H3  UNL     1       0.441  -1.387  -0.361  1.00  0.00     0.205 HD
HETATM   10  N4  UNL     1      -0.277   0.449   0.259  1.00  0.00    -0.298 N 
ENDROOT
BRANCH   7  11
HETATM   11  N2  UNL     1       2.512  -0.952  -1.741  1.00  0.00    -0.223 N 
ATOM     12  H2  UNL     1       2.095  -1.703  -2.291  1.00  0.00     0.177 HD
BRANCH  11  13
HETATM   13  C6  UNL     1       3.947  -0.871  -1.651  1.00  0.00     0.164 C 
BRANCH  13  14
HETATM   14  C7  UNL     1       4.325  -1.197  -0.207  1.00  0.00     0.184 C 
BRANCH  14  15
HETATM   15  O1  UNL     1       3.895  -2.487   0.143  1.00  0.00    -0.399 OA
ATOM     16  H1  UNL     1       4.130  -2.690   1.041  1.00  0.00     0.209 HD
ENDBRANCH  14  15
ENDBRANCH  13  14
ENDBRANCH  11  13
ENDBRANCH   7  11
BRANCH  10  17
HETATM   17  C8  UNL     1      -1.382  -0.202   0.891  1.00  0.00     0.104 C 
HETATM   18  C9  UNL     1      -2.731   0.232   0.399  1.00  0.00     0.027 C 
HETATM   19  C10 UNL     1      -3.735  -0.777   0.983  1.00  0.00     0.002 C 
HETATM   20  C11 UNL     1      -3.673  -2.082   0.224  1.00  0.00     0.000 C 
HETATM   21  C12 UNL     1      -2.249  -2.250  -0.261  1.00  0.00     0.002 C 
HETATM   22  C13 UNL     1      -1.333  -1.699   0.811  1.00  0.00     0.027 C 
ENDBRANCH  10  17
TORSDOF 5
