REMARK  5 active torsions:
REMARK  status: ('A' for Active; 'I' for Inactive)
REMARK    1  A    between atoms: C2_2  and  C3_3 
REMARK    2  A    between atoms: C4_5  and  O2_6 
REMARK    3  A    between atoms: O2_6  and  C5_7 
REMARK    4  A    between atoms: C7_9  and  O3_10 
REMARK    5  A    between atoms: C8_12  and  O4_13 
ROOT
HETATM    1  C5  UNL     1       1.490  -0.484  -0.380  1.00  0.00     0.293 C 
HETATM    2  C6  UNL     1       2.409   0.425  -1.158  1.00  0.00     0.099 C 
HETATM    3  C7  UNL     1       3.420   1.120  -0.275  1.00  0.00     0.173 C 
HETATM    4  C8  UNL     1       4.088   0.072   0.565  1.00  0.00     0.267 C 
HETATM    5  N1  UNL     1       3.113  -0.755   1.202  1.00  0.00    -0.268 N 
ATOM      6  H1  UNL     1       3.105  -0.895   2.212  1.00  0.00     0.190 HD
HETATM    7  O5  UNL     1       2.231  -1.324   0.421  1.00  0.00    -0.250 OA
ENDROOT
BRANCH   1   8
HETATM    8  O2  UNL     1       0.488   0.182   0.288  1.00  0.00    -0.328 OA
BRANCH   8   9
HETATM    9  C4  UNL     1      -0.790  -0.139  -0.153  1.00  0.00     0.273 C 
HETATM   10  O1  UNL     1      -1.532   0.980  -0.448  1.00  0.00    -0.354 OA
HETATM   11  C3  UNL     1      -2.667   0.381   0.096  1.00  0.00     0.137 C 
HETATM   12  C9  UNL     1      -1.775  -0.522   0.894  1.00  0.00     0.029 C 
HETATM   13  C10 UNL     1      -2.200  -1.973   0.902  1.00  0.00     0.022 C 
HETATM   14  C11 UNL     1      -1.395   0.014   2.244  1.00  0.00     0.022 C 
BRANCH  11  15
HETATM   15  C2  UNL     1      -3.511  -0.312  -0.961  1.00  0.00     0.028 C 
HETATM   16  C1  UNL     1      -3.933   0.760  -1.967  1.00  0.00     0.007 C 
ENDBRANCH  11  15
ENDBRANCH   8   9
ENDBRANCH   1   8
BRANCH   3  17
HETATM   17  O3  UNL     1       4.335   1.747  -1.125  1.00  0.00    -0.391 OA
ATOM     18  H3  UNL     1       4.970   2.184  -0.570  1.00  0.00     0.210 HD
ENDBRANCH   3  17
BRANCH   4  19
HETATM   19  O4  UNL     1       4.864   0.700   1.515  1.00  0.00    -0.372 OA
ATOM     20  H4  UNL     1       5.287   0.036   2.047  1.00  0.00     0.212 HD
ENDBRANCH   4  19
TORSDOF 5
