REMARK  9 active torsions:
REMARK  status: ('A' for Active; 'I' for Inactive)
REMARK    1  A    between atoms: N1_1  and  C1_4 
REMARK    2  A    between atoms: C4_11  and  N4_12 
REMARK    3  A    between atoms: N4_12  and  C5_14 
REMARK    4  A    between atoms: C5_14  and  C6_15 
REMARK    5  A    between atoms: C6_15  and  C7_16 
REMARK    6  A    between atoms: C7_16  and  C8_17 
REMARK    7  A    between atoms: C8_17  and  C9_18 
REMARK    8  A    between atoms: C9_18  and  C10_19 
REMARK    9  A    between atoms: C10_19  and  O1_20 
ROOT
HETATM    1  C1  UNL     1      -4.923   1.025   0.148  1.00  0.00     0.129 A 
HETATM    2  N2  UNL     1      -4.567   2.015  -0.687  1.00  0.00    -0.337 N 
ATOM      3  H2  UNL     1      -5.226   2.766  -0.892  1.00  0.00     0.168 HD
HETATM    4  C2  UNL     1      -3.346   2.022  -1.255  1.00  0.00     0.182 A 
HETATM    5  N3  UNL     1      -2.461   1.039  -0.997  1.00  0.00    -0.347 N 
ATOM      6  H3  UNL     1      -1.539   1.054  -1.433  1.00  0.00     0.167 HD
HETATM    7  C3  UNL     1      -2.795   0.039  -0.165  1.00  0.00     0.108 A 
HETATM    8  C4  UNL     1      -1.875  -0.970   0.095  1.00  0.00     0.131 A 
HETATM    9  N5  UNL     1      -2.266  -1.944   0.935  1.00  0.00    -0.337 N 
ATOM     10  H5  UNL     1      -1.609  -2.696   1.142  1.00  0.00     0.168 HD
HETATM   11  C11 UNL     1      -3.479  -1.979   1.518  1.00  0.00     0.182 A 
HETATM   12  N6  UNL     1      -4.378  -1.008   1.274  1.00  0.00    -0.347 N 
ATOM     13  H6  UNL     1      -5.298  -1.032   1.714  1.00  0.00     0.167 HD
HETATM   14  C12 UNL     1      -4.041   0.010   0.429  1.00  0.00     0.108 A 
ENDROOT
BRANCH   8  15
HETATM   15  N4  UNL     1      -0.714  -0.966  -0.444  1.00  0.00    -0.374 N 
ATOM     16  H4  UNL     1      -0.453  -0.210  -1.077  1.00  0.00     0.161 HD
BRANCH  15  17
HETATM   17  C5  UNL     1       0.223  -2.014  -0.166  1.00  0.00     0.121 C 
BRANCH  17  18
HETATM   18  C6  UNL     1       1.615  -1.655  -0.675  1.00  0.00     0.020 C 
BRANCH  18  19
HETATM   19  C7  UNL     1       2.034  -0.402   0.024  1.00  0.00     0.002 C 
BRANCH  19  20
HETATM   20  C8  UNL     1       3.405   0.071  -0.388  1.00  0.00     0.002 C 
BRANCH  20  21
HETATM   21  C9  UNL     1       3.746   1.331   0.361  1.00  0.00     0.026 C 
BRANCH  21  22
HETATM   22  C10 UNL     1       5.119   1.835  -0.030  1.00  0.00     0.164 C 
BRANCH  22  23
HETATM   23  O1  UNL     1       6.113   0.924   0.238  1.00  0.00    -0.401 OA
ATOM     24  H1  UNL     1       6.975   1.240  -0.007  1.00  0.00     0.209 HD
ENDBRANCH  22  23
ENDBRANCH  21  22
ENDBRANCH  20  21
ENDBRANCH  19  20
ENDBRANCH  18  19
ENDBRANCH  17  18
ENDBRANCH  15  17
ENDBRANCH   8  15
BRANCH   1  25
HETATM   25  N1  UNL     1      -6.093   0.987   0.713  1.00  0.00    -0.384 N 
ATOM     26  H12 UNL     1      -6.748   1.741   0.504  1.00  0.00     0.157 HD
ATOM     27  H11 UNL     1      -6.363   0.235   1.347  1.00  0.00     0.157 HD
ENDBRANCH   1  25
TORSDOF 9
