REMARK  7 active torsions:
REMARK  status: ('A' for Active; 'I' for Inactive)
REMARK    1  A    between atoms: O1_1  and  C1_3 
REMARK    2  A    between atoms: C1_3  and  C2_4 
REMARK    3  A    between atoms: C2_4  and  C3_5 
REMARK    4  A    between atoms: C6_8  and  C7_9 
REMARK    5  A    between atoms: C7_9  and  C8_10 
REMARK    6  A    between atoms: C9_17  and  N4_18 
REMARK    7  A    between atoms: N4_18  and  C10_20 
ROOT
HETATM    1  C8  UNL     1      -1.083  -1.588   1.372  1.00  0.00     0.076 A 
HETATM    2  N1  UNL     1      -1.182  -1.530   2.734  1.00  0.00    -0.286 N 
ATOM      3  H1  UNL     1      -0.560  -1.975   3.409  1.00  0.00     0.188 HD
HETATM    4  N2  UNL     1      -2.226  -0.796   3.003  1.00  0.00    -0.241 N 
ATOM      5  H2  UNL     1      -2.558  -0.570   3.940  1.00  0.00     0.208 HD
HETATM    6  N3  UNL     1      -2.791  -0.388   1.874  1.00  0.00    -0.270 N 
ATOM      7  H3  UNL     1      -3.623   0.200   1.814  1.00  0.00     0.190 HD
HETATM    8  C9  UNL     1      -2.108  -0.862   0.825  1.00  0.00     0.142 A 
ENDROOT
BRANCH   1   9
HETATM    9  C7  UNL     1       0.010  -2.293   0.676  1.00  0.00     0.101 C 
BRANCH   9  10
HETATM   10  C6  UNL     1       1.154  -1.470   0.290  1.00  0.00    -0.052 A 
HETATM   11  C5  UNL     1       2.188  -1.294   1.227  1.00  0.00     0.008 A 
HETATM   12  C4  UNL     1       3.282  -0.533   0.877  1.00  0.00     0.007 A 
HETATM   13  C3  UNL     1       3.393   0.064  -0.366  1.00  0.00    -0.056 A 
HETATM   14  C14 UNL     1       2.390  -0.107  -1.272  1.00  0.00     0.007 A 
HETATM   15  C13 UNL     1       1.273  -0.875  -0.940  1.00  0.00     0.008 A 
BRANCH  13  16
HETATM   16  C2  UNL     1       4.587   0.870  -0.722  1.00  0.00     0.064 C 
BRANCH  16  17
HETATM   17  C1  UNL     1       4.433   2.318  -0.323  1.00  0.00     0.168 C 
BRANCH  17  18
HETATM   18  O1  UNL     1       4.260   2.316   1.070  1.00  0.00    -0.401 OA
ATOM     19  H1  UNL     1       4.163   3.227   1.321  1.00  0.00     0.209 HD
ENDBRANCH  17  18
ENDBRANCH  16  17
ENDBRANCH  13  16
ENDBRANCH   9  10
ENDBRANCH   1   9
BRANCH   8  20
HETATM   20  N4  UNL     1      -2.407  -0.677  -0.530  1.00  0.00    -0.366 N 
ATOM     21  H4  UNL     1      -1.781  -1.142  -1.187  1.00  0.00     0.161 HD
BRANCH  20  22
HETATM   22  C10 UNL     1      -3.468   0.073  -1.116  1.00  0.00     0.134 C 
HETATM   23  C11 UNL     1      -3.628   1.498  -0.723  1.00  0.00     0.259 C 
HETATM   24  N5  UNL     1      -5.053   1.307  -0.610  1.00  0.00    -0.071 N 
HETATM   25  C12 UNL     1      -4.864  -0.123  -0.681  1.00  0.00     0.259 C 
ATOM     26  H52 UNL     1      -5.563   1.717   0.173  1.00  0.00     0.277 HD
ATOM     27  H51 UNL     1      -5.684   1.772  -1.263  1.00  0.00     0.277 HD
ENDBRANCH  20  22
ENDBRANCH   8  20
TORSDOF 7
