REMARK  4 active torsions:
REMARK  status: ('A' for Active; 'I' for Inactive)
REMARK    1  A    between atoms: C2_2  and  C3_3 
REMARK    2  A    between atoms: C3_3  and  O1_4 
REMARK    3  A    between atoms: O1_4  and  C4_5 
REMARK    4  A    between atoms: C4_5  and  C5_6 
ROOT
HETATM    1  C5  UNL     1      -1.581   0.293   0.145  1.00  0.00     0.050 A 
HETATM    2  C6  UNL     1      -2.874   0.251  -0.305  1.00  0.00     0.047 A 
HETATM    3  C7  UNL     1      -3.673   0.996   0.538  1.00  0.00     0.109 A 
HETATM    4  N1  UNL     1      -2.847   1.474   1.483  1.00  0.00    -0.312 N 
ATOM      5  H1  UNL     1      -3.130   2.068   2.262  1.00  0.00     0.186 HD
HETATM    6  N2  UNL     1      -1.603   1.057   1.251  1.00  0.00    -0.303 N 
ATOM      7  H2  UNL     1      -0.791   1.283   1.825  1.00  0.00     0.186 HD
ENDROOT
BRANCH   1   8
HETATM    8  C4  UNL     1      -0.445  -0.381  -0.494  1.00  0.00     0.226 C 
BRANCH   8   9
HETATM    9  O1  UNL     1       0.747  -0.150   0.204  1.00  0.00    -0.382 OA
BRANCH   9  10
HETATM   10  C3  UNL     1       1.747  -0.830  -0.486  1.00  0.00     0.194 C 
BRANCH  10  11
HETATM   11  C2  UNL     1       3.071  -0.683   0.129  1.00  0.00    -0.011 C 
HETATM   12  C1  UNL     1       3.306   0.021   1.226  1.00  0.00     0.009 C 
ENDBRANCH  10  11
ENDBRANCH   9  10
ENDBRANCH   8   9
ENDBRANCH   1   8
TORSDOF 4
