REMARK  3 active torsions:
REMARK  status: ('A' for Active; 'I' for Inactive)
REMARK    1  A    between atoms: C3_3  and  C4_4 
REMARK    2  A    between atoms: C4_4  and  C5_5 
REMARK    3  A    between atoms: C5_5  and  C6_6 
ROOT
HETATM    1  C1  UNL     1       4.453   0.644  -0.742  1.00  0.00     0.012 C 
HETATM    2  C2  UNL     1       3.613  -0.072  -0.271  1.00  0.00    -0.117 C 
HETATM    3  C3  UNL     1       2.574  -0.937   0.301  1.00  0.00     0.093 C 
ENDROOT
BRANCH   3   4
HETATM    4  C4  UNL     1       1.261  -0.268   0.096  1.00  0.00     0.020 C 
BRANCH   4   5
HETATM    5  C5  UNL     1       0.092  -1.056   0.643  1.00  0.00     0.076 C 
BRANCH   5   6
HETATM    6  C6  UNL     1      -1.176  -0.322   0.399  1.00  0.00     0.072 C 
HETATM    7  N1  UNL     1      -2.023   0.105   1.265  1.00  0.00    -0.378 N 
HETATM    8  C7  UNL     1      -3.146   0.777   0.697  1.00  0.00     0.140 C 
ATOM      9  H1  UNL     1      -1.903  -0.025   2.270  1.00  0.00     0.160 HD
HETATM   10  C8  UNL     1      -2.708   1.047  -0.726  1.00  0.00     0.140 C 
HETATM   11  N2  UNL     1      -1.670   0.040  -0.888  1.00  0.00    -0.378 N 
ATOM     12  H2  UNL     1      -1.349  -0.344  -1.777  1.00  0.00     0.160 HD
ENDBRANCH   5   6
ENDBRANCH   4   5
ENDBRANCH   3   4
TORSDOF 3
