REMARK  3 active torsions:
REMARK  status: ('A' for Active; 'I' for Inactive)
REMARK    1  A    between atoms: C3_3  and  C4_4 
REMARK    2  A    between atoms: C4_4  and  C5_5 
REMARK    3  A    between atoms: C5_5  and  C6_6 
ROOT
HETATM    1  C1  UNL     1       3.698   1.071  -1.335  1.00  0.00     0.012 C 
HETATM    2  C2  UNL     1       2.675   0.500  -1.030  1.00  0.00    -0.117 C 
HETATM    3  C3  UNL     1       1.438  -0.190  -0.663  1.00  0.00     0.093 C 
ENDROOT
BRANCH   3   4
HETATM    4  C4  UNL     1       1.035   0.107   0.761  1.00  0.00     0.020 C 
BRANCH   4   5
HETATM    5  C5  UNL     1      -0.227  -0.586   1.161  1.00  0.00     0.079 C 
BRANCH   5   6
HETATM    6  C6  UNL     1      -1.387  -0.214   0.335  1.00  0.00     0.096 A 
HETATM    7  N1  UNL     1      -1.770  -0.831  -0.789  1.00  0.00    -0.288 N 
HETATM    8  N2  UNL     1      -2.840  -0.228  -1.252  1.00  0.00    -0.295 N 
ATOM      9  H1  UNL     1      -1.308  -1.635  -1.214  1.00  0.00     0.188 HD
HETATM   10  C7  UNL     1      -3.174   0.791  -0.443  1.00  0.00     0.198 A 
ATOM     11  H2  UNL     1      -3.342  -0.493  -2.099  1.00  0.00     0.187 HD
HETATM   12  N3  UNL     1      -2.252   0.782   0.545  1.00  0.00    -0.340 N 
ATOM     13  H3  UNL     1      -2.221   1.434   1.329  1.00  0.00     0.168 HD
ENDBRANCH   5   6
ENDBRANCH   4   5
ENDBRANCH   3   4
TORSDOF 3
