REMARK  3 active torsions:
REMARK  status: ('A' for Active; 'I' for Inactive)
REMARK    1  A    between atoms: C3_3  and  C4_4 
REMARK    2  A    between atoms: C4_4  and  O1_5 
REMARK    3  A    between atoms: O1_5  and  C5_6 
ROOT
HETATM    1  C5  UNL     1      -1.574   0.212  -0.302  1.00  0.00     0.172 C 
HETATM    2  C6  UNL     1      -2.778   0.590   0.554  1.00  0.00     0.265 C 
HETATM    3  N1  UNL     1      -3.058  -0.850   0.655  1.00  0.00    -0.070 N 
ATOM      4  H11 UNL     1      -3.994  -1.197   0.862  1.00  0.00     0.277 HD
ATOM      5  H12 UNL     1      -2.712  -1.406   1.437  1.00  0.00     0.277 HD
HETATM    6  C7  UNL     1      -2.475  -0.969  -0.689  1.00  0.00     0.265 C 
ENDROOT
BRANCH   1   7
HETATM    7  O1  UNL     1      -0.459  -0.155   0.423  1.00  0.00    -0.382 OA
BRANCH   7   8
HETATM    8  C4  UNL     1       0.654   0.467  -0.120  1.00  0.00     0.172 C 
BRANCH   8   9
HETATM    9  C3  UNL     1       1.923   0.132   0.600  1.00  0.00     0.009 A 
HETATM   10  C1  UNL     1       3.210   0.714   0.148  1.00  0.00     0.007 A 
HETATM   11  C2  UNL     1       2.911  -0.709  -0.179  1.00  0.00     0.007 A 
ENDBRANCH   8   9
ENDBRANCH   7   8
ENDBRANCH   1   7
TORSDOF 3
