REMARK  3 active torsions:
REMARK  status: ('A' for Active; 'I' for Inactive)
REMARK    1  A    between atoms: C2_2  and  O1_3 
REMARK    2  A    between atoms: O1_3  and  C3_4 
REMARK    3  A    between atoms: C3_4  and  C4_5 
ROOT
HETATM    1  C4  UNL     1       0.228   0.092   0.006  1.00  0.00     0.210 C 
HETATM    2  C5  UNL     1       1.401   1.063   0.189  1.00  0.00     0.037 C 
HETATM    3  C6  UNL     1       2.620   0.219   0.015  1.00  0.00     0.029 C 
HETATM    4  C7  UNL     1       2.134  -1.214  -0.076  1.00  0.00     0.233 C 
HETATM    5  N1  UNL     1       0.755  -1.176   0.403  1.00  0.00    -0.069 N 
ATOM      6  H11 UNL     1       0.194  -1.966   0.085  1.00  0.00     0.277 HD
ATOM      7  H12 UNL     1       0.668  -1.356   1.403  1.00  0.00     0.277 HD
ENDROOT
BRANCH   1   8
HETATM    8  C3  UNL     1      -0.891   0.591   0.887  1.00  0.00     0.207 C 
BRANCH   8   9
HETATM    9  O1  UNL     1      -1.998  -0.252   0.930  1.00  0.00    -0.362 OA
BRANCH   9  10
HETATM   10  C2  UNL     1      -2.691  -0.552  -0.225  1.00  0.00     0.124 C 
HETATM   11  C1  UNL     1      -3.597   0.250  -0.722  1.00  0.00     0.037 C 
ENDBRANCH   9  10
ENDBRANCH   8   9
ENDBRANCH   1   8
TORSDOF 3
