REMARK  4 active torsions:
REMARK  status: ('A' for Active; 'I' for Inactive)
REMARK    1  A    between atoms: N1_2  and  C2_5 
REMARK    2  A    between atoms: C2_5  and  C3_6 
REMARK    3  A    between atoms: C3_6  and  C4_7 
REMARK    4  A    between atoms: C4_7  and  N2_8 
ROOT
HETATM    1  N2  UNL     1      -0.238  -0.141   0.175  1.00  0.00     0.093 N 
HETATM    2  C5  UNL     1      -0.976  -1.151  -0.557  1.00  0.00     0.277 C 
HETATM    3  C6  UNL     1      -2.450  -0.858  -0.454  1.00  0.00     0.014 C 
HETATM    4  C7  UNL     1      -2.875  -0.956   1.010  1.00  0.00     0.008 C 
HETATM    5  C8  UNL     1      -1.926  -0.113   1.868  1.00  0.00     0.036 C 
HETATM    6  C9  UNL     1      -1.109   0.728   0.903  1.00  0.00     0.223 C 
HETATM    7  C10 UNL     1      -2.017   1.499  -0.023  1.00  0.00     0.036 C 
HETATM    8  C11 UNL     1      -2.776   0.551  -0.908  1.00  0.00     0.008 C 
ENDROOT
BRANCH   1   9
HETATM    9  C4  UNL     1       0.678   0.584  -0.695  1.00  0.00     0.274 C 
BRANCH   9  10
HETATM   10  C3  UNL     1       1.785  -0.328  -1.145  1.00  0.00     0.057 C 
BRANCH  10  11
HETATM   11  C2  UNL     1       2.598  -0.882  -0.006  1.00  0.00     0.233 C 
BRANCH  11  12
HETATM   12  N1  UNL     1       3.245   0.163   0.766  1.00  0.00    -0.079 N 
HETATM   13  C1  UNL     1       4.289   0.821  -0.006  1.00  0.00     0.266 C 
ATOM     14  H12 UNL     1       3.603  -0.193   1.652  1.00  0.00     0.276 HD
ATOM     15  H11 UNL     1       2.568   0.834   1.129  1.00  0.00     0.276 HD
ENDBRANCH  11  12
ENDBRANCH  10  11
ENDBRANCH   9  10
ENDBRANCH   1   9
TORSDOF 4
