REMARK  3 active torsions:
REMARK  status: ('A' for Active; 'I' for Inactive)
REMARK    1  A    between atoms: C7_7  and  N1_8 
REMARK    2  A    between atoms: N1_8  and  C8_11 
REMARK    3  A    between atoms: C8_11  and  C9_12 
ROOT
HETATM    1  C1  UNL     1      -4.161   0.511   2.256  1.00  0.00     0.013 C 
HETATM    2  C2  UNL     1      -3.375   0.303   1.366  1.00  0.00    -0.108 C 
HETATM    3  C3  UNL     1      -2.425   0.058   0.261  1.00  0.00     0.021 C 
HETATM    4  C4  UNL     1      -2.798  -1.177  -0.522  1.00  0.00     0.029 C 
HETATM    5  C5  UNL     1      -2.421   1.267  -0.635  1.00  0.00     0.024 C 
HETATM    6  C6  UNL     1      -1.065   1.115  -1.339  1.00  0.00     0.034 C 
HETATM    7  C7  UNL     1      -0.151   0.733  -0.195  1.00  0.00     0.187 C 
HETATM    8  C12 UNL     1      -1.020   0.006   0.777  1.00  0.00     0.055 C 
ENDROOT
BRANCH   7   9
HETATM    9  N1  UNL     1       1.013   0.020  -0.629  1.00  0.00    -0.070 N 
ATOM     10  H12 UNL     1       0.773  -0.836  -1.129  1.00  0.00     0.277 HD
ATOM     11  H11 UNL     1       1.498   0.503  -1.385  1.00  0.00     0.277 HD
BRANCH   9  12
HETATM   12  C8  UNL     1       1.881  -0.235   0.494  1.00  0.00     0.237 C 
BRANCH  12  13
HETATM   13  C9  UNL     1       3.123  -0.974   0.130  1.00  0.00     0.011 A 
HETATM   14  C10 UNL     1       4.105  -0.438  -0.840  1.00  0.00     0.007 A 
HETATM   15  C11 UNL     1       4.409  -0.359   0.660  1.00  0.00     0.007 A 
ENDBRANCH  12  13
ENDBRANCH   9  12
ENDBRANCH   7   9
TORSDOF 3
