REMARK  3 active torsions:
REMARK  status: ('A' for Active; 'I' for Inactive)
REMARK    1  A    between atoms: C3_4  and  C4_5 
REMARK    2  A    between atoms: C4_5  and  N1_6 
REMARK    3  A    between atoms: N1_6  and  C5_9 
ROOT
HETATM    1  N1  UNL     1       0.564  -0.706  -0.245  1.00  0.00    -0.070 N 
ATOM      2  H11 UNL     1       0.496  -1.593  -0.745  1.00  0.00     0.277 HD
ATOM      3  H12 UNL     1       0.567  -0.081  -1.051  1.00  0.00     0.277 HD
ENDROOT
BRANCH   1   4
HETATM    4  C4  UNL     1       1.795  -0.607   0.527  1.00  0.00     0.240 C 
BRANCH   4   5
HETATM    5  C3  UNL     1       2.983  -0.389  -0.381  1.00  0.00     0.048 A 
HETATM    6  C1  UNL     1       4.328  -0.231   0.218  1.00  0.00     0.176 A 
HETATM    7  F1  UNL     1       5.430  -0.697  -0.482  1.00  0.00    -0.249 F 
HETATM    8  C2  UNL     1       3.616   0.976  -0.371  1.00  0.00     0.046 A 
ENDBRANCH   4   5
ENDBRANCH   1   4
BRANCH   1   9
HETATM    9  C5  UNL     1      -0.555  -0.483   0.597  1.00  0.00     0.190 C 
HETATM   10  C6  UNL     1      -1.748  -1.377   0.448  1.00  0.00     0.038 C 
HETATM   11  C7  UNL     1      -2.972  -0.481   0.577  1.00  0.00    -0.012 C 
HETATM   12  C8  UNL     1      -3.194   0.134  -0.781  1.00  0.00     0.005 C 
HETATM   13  C11 UNL     1      -2.361   0.736   1.296  1.00  0.00     0.011 C 
HETATM   14  C9  UNL     1      -1.883   0.884  -0.991  1.00  0.00     0.007 C 
HETATM   15  C10 UNL     1      -1.187   0.894   0.346  1.00  0.00     0.016 C 
ENDBRANCH   1   9
TORSDOF 3
