REMARK  4 active torsions:
REMARK  status: ('A' for Active; 'I' for Inactive)
REMARK    1  A    between atoms: C2_2  and  N1_4 
REMARK    2  A    between atoms: N1_4  and  C4_6 
REMARK    3  A    between atoms: C4_6  and  S1_9 
REMARK    4  A    between atoms: S1_9  and  C6_11 
ROOT
HETATM    1  C4  UNL     1      -0.314   0.587  -0.502  1.00  0.00     0.250 C 
HETATM    2  C5  UNL     1       0.118   1.798  -1.315  1.00  0.00     0.092 C 
HETATM    3  F1  UNL     1      -0.239  -0.502  -1.350  1.00  0.00    -0.204 F 
ENDROOT
BRANCH   1   4
HETATM    4  N1  UNL     1      -1.683   0.762  -0.118  1.00  0.00    -0.349 N 
ATOM      5  H1  UNL     1      -2.167   1.610  -0.413  1.00  0.00     0.163 HD
BRANCH   4   6
HETATM    6  C2  UNL     1      -2.399  -0.193   0.656  1.00  0.00    -0.005 C 
HETATM    7  C1  UNL     1      -2.473  -0.020   1.957  1.00  0.00     0.037 C 
HETATM    8  C3  UNL     1      -3.061  -1.372   0.041  1.00  0.00     0.067 C 
ENDBRANCH   4   6
ENDBRANCH   1   4
BRANCH   1   9
HETATM    9  S1  UNL     1       0.769   0.303   0.849  1.00  0.00     0.080 S 
HETATM   10  O1  UNL     1       0.794   1.537   1.957  1.00  0.00    -0.252 OA
BRANCH   9  11
HETATM   11  C6  UNL     1       2.385  -0.042   0.197  1.00  0.00     0.085 A 
HETATM   12  C7  UNL     1       3.509  -0.323   1.121  1.00  0.00     0.019 A 
HETATM   13  C8  UNL     1       2.848  -1.465   0.406  1.00  0.00     0.019 A 
ENDBRANCH   9  11
ENDBRANCH   1   9
TORSDOF 4
