REMARK  2 active torsions:
REMARK  status: ('A' for Active; 'I' for Inactive)
REMARK    1  A    between atoms: C2_2  and  C3_3 
REMARK    2  A    between atoms: C5_5  and  C6_7 
ROOT
HETATM    1  C3  UNL     1       2.088  -0.066   0.006  1.00  0.00     0.013 C 
HETATM    2  C4  UNL     1       1.287  -1.108   0.801  1.00  0.00     0.052 C 
HETATM    3  C5  UNL     1       0.318  -1.099  -0.365  1.00  0.00     0.108 C 
HETATM    4  F1  UNL     1      -0.135  -2.362  -0.606  1.00  0.00    -0.243 F 
HETATM    5  C11 UNL     1       1.475  -0.691  -1.230  1.00  0.00     0.052 C 
ENDROOT
BRANCH   3   6
HETATM    6  C6  UNL     1      -0.729  -0.050  -0.133  1.00  0.00     0.028 C 
HETATM    7  C7  UNL     1      -1.495  -0.323   1.116  1.00  0.00     0.027 C 
HETATM    8  C8  UNL     1      -2.911   0.159   1.132  1.00  0.00     0.114 C 
HETATM    9  N1  UNL     1      -3.205   1.254   0.276  1.00  0.00    -0.421 N 
HETATM   10  C9  UNL     1      -2.549   1.278  -0.985  1.00  0.00     0.114 C 
ATOM     11  H1  UNL     1      -3.856   1.989   0.553  1.00  0.00     0.153 HD
HETATM   12  C10 UNL     1      -1.753   0.002  -1.260  1.00  0.00     0.027 C 
ENDBRANCH   3   6
BRANCH   1  13
HETATM   13  C2  UNL     1       3.549  -0.230   0.130  1.00  0.00    -0.032 C 
HETATM   14  C1  UNL     1       4.307   0.851   0.180  1.00  0.00     0.007 C 
ENDBRANCH   1  13
TORSDOF 2
