REMARK  3 active torsions:
REMARK  status: ('A' for Active; 'I' for Inactive)
REMARK    1  A    between atoms: C2_3  and  C3_4 
REMARK    2  A    between atoms: C3_4  and  C4_5 
REMARK    3  A    between atoms: C4_5  and  C5_6 
ROOT
HETATM    1  N1  UNL     1       4.341   1.837   0.297  1.00  0.00    -0.197 NA
HETATM    2  C1  UNL     1       3.620   0.944   0.135  1.00  0.00     0.059 C 
HETATM    3  C2  UNL     1       2.724  -0.189  -0.089  1.00  0.00     0.124 C 
ENDROOT
BRANCH   3   4
HETATM    4  C3  UNL     1       1.287   0.277   0.146  1.00  0.00     0.019 C 
BRANCH   4   5
HETATM    5  C4  UNL     1       0.316  -0.864  -0.072  1.00  0.00     0.044 C 
BRANCH   5   6
HETATM    6  C5  UNL     1      -1.066  -0.380   0.163  1.00  0.00    -0.001 A 
HETATM    7  C6  UNL     1      -1.977  -0.100  -0.826  1.00  0.00     0.029 A 
HETATM    8  C7  UNL     1      -3.134   0.319  -0.174  1.00  0.00     0.091 A 
HETATM    9  N2  UNL     1      -2.953   0.302   1.145  1.00  0.00    -0.343 N 
HETATM   10  C8  UNL     1      -1.677  -0.130   1.347  1.00  0.00     0.194 A 
ATOM     11  H2  UNL     1      -3.633   0.560   1.860  1.00  0.00     0.167 HD
HETATM   12  F1  UNL     1      -1.109  -0.284   2.567  1.00  0.00    -0.186 F 
ENDBRANCH   5   6
ENDBRANCH   4   5
ENDBRANCH   3   4
TORSDOF 3
