REMARK  3 active torsions:
REMARK  status: ('A' for Active; 'I' for Inactive)
REMARK    1  A    between atoms: C1_2  and  C2_3 
REMARK    2  A    between atoms: C2_3  and  C3_4 
REMARK    3  A    between atoms: C3_4  and  C4_5 
ROOT
HETATM    1  C3  UNL     1       0.306  -0.229   0.092  1.00  0.00     0.138 C 
HETATM    2  C7  UNL     1       0.435   1.058   0.811  1.00  0.00     0.041 C 
HETATM    3  C8  UNL     1      -0.881   1.779   0.471  1.00  0.00     0.030 C 
HETATM    4  C9  UNL     1      -1.393   1.119  -0.777  1.00  0.00     0.233 C 
HETATM    5  N1  UNL     1      -0.434   0.119  -1.106  1.00  0.00    -0.065 N 
ATOM      6  H11 UNL     1      -0.857  -0.694  -1.554  1.00  0.00     0.278 HD
ATOM      7  H12 UNL     1       0.176   0.401  -1.873  1.00  0.00     0.278 HD
ENDROOT
BRANCH   1   8
HETATM    8  C2  UNL     1       1.538  -0.953  -0.287  1.00  0.00     0.071 C 
BRANCH   8   9
HETATM    9  C1  UNL     1       2.528  -0.296  -1.158  1.00  0.00     0.224 C 
HETATM   10  F1  UNL     1       3.097   0.858  -0.678  1.00  0.00    -0.255 F 
ENDBRANCH   8   9
ENDBRANCH   1   8
BRANCH   1  11
HETATM   11  C4  UNL     1      -0.488  -1.192   0.974  1.00  0.00     0.066 A 
HETATM   12  C5  UNL     1      -1.755  -0.877   1.531  1.00  0.00    -0.019 A 
HETATM   13  C6  UNL     1      -1.755  -1.653   0.342  1.00  0.00    -0.019 A 
ENDBRANCH   1  11
TORSDOF 3
