REMARK  3 active torsions:
REMARK  status: ('A' for Active; 'I' for Inactive)
REMARK    1  A    between atoms: C2_2  and  C3_3 
REMARK    2  A    between atoms: C5_5  and  N1_6 
REMARK    3  A    between atoms: N1_6  and  C6_8 
ROOT
HETATM    1  N1  UNL     1      -0.641  -0.916   0.688  1.00  0.00    -0.411 N 
ATOM      2  H1  UNL     1      -0.830  -1.292   1.617  1.00  0.00     0.154 HD
ENDROOT
BRANCH   1   3
HETATM    3  C5  UNL     1       0.674  -0.645   0.248  1.00  0.00     0.085 A 
HETATM    4  C3  UNL     1       1.095   0.735  -0.070  1.00  0.00     0.032 A 
HETATM    5  C4  UNL     1       0.909  -0.304  -1.174  1.00  0.00     0.036 A 
BRANCH   4   6
HETATM    6  C2  UNL     1       2.496   1.187   0.072  1.00  0.00    -0.030 C 
HETATM    7  C1  UNL     1       3.479   0.426   0.486  1.00  0.00     0.007 C 
ENDBRANCH   4   6
ENDBRANCH   1   3
BRANCH   1   8
HETATM    8  C6  UNL     1      -1.676  -0.639  -0.226  1.00  0.00     0.097 A 
HETATM    9  C7  UNL     1      -3.102  -0.885   0.160  1.00  0.00     0.048 A 
HETATM   10  C8  UNL     1      -2.619   0.538   0.029  1.00  0.00     0.106 A 
HETATM   11 CL1  UNL     1      -2.430   1.498   1.508  1.00  0.00    -0.123 Cl
ENDBRANCH   1   8
TORSDOF 3
