REMARK  3 active torsions:
REMARK  status: ('A' for Active; 'I' for Inactive)
REMARK    1  A    between atoms: C2_3  and  C3_4 
REMARK    2  A    between atoms: C3_4  and  N1_5 
REMARK    3  A    between atoms: N1_5  and  C4_7 
ROOT
HETATM    1  C4  UNL     1       0.739  -0.212   0.323  1.00  0.00     0.028 A 
HETATM    2  C5  UNL     1       1.845  -0.529   1.088  1.00  0.00     0.029 A 
HETATM    3  C6  UNL     1       3.123  -0.198   0.695  1.00  0.00     0.002 A 
HETATM    4  C7  UNL     1       3.308   0.470  -0.497  1.00  0.00     0.000 A 
HETATM    5  C8  UNL     1       2.245   0.808  -1.294  1.00  0.00     0.002 A 
HETATM    6  C9  UNL     1       0.986   0.463  -0.872  1.00  0.00     0.029 A 
ENDROOT
BRANCH   1   7
HETATM    7  N1  UNL     1      -0.561  -0.557   0.738  1.00  0.00    -0.386 N 
ATOM      8  H1  UNL     1      -0.699  -1.051   1.620  1.00  0.00     0.160 HD
BRANCH   7   9
HETATM    9  C3  UNL     1      -1.691  -0.216  -0.074  1.00  0.00     0.149 C 
BRANCH   9  10
HETATM   10  C2  UNL     1      -2.979  -0.645   0.497  1.00  0.00     0.022 C 
HETATM   11  C1  UNL     1      -3.915   0.254   0.777  1.00  0.00     0.186 C 
HETATM   12  F1  UNL     1      -3.689   1.570   0.539  1.00  0.00    -0.220 F 
ENDBRANCH   9  10
ENDBRANCH   7   9
ENDBRANCH   1   7
TORSDOF 3
