REMARK  3 active torsions:
REMARK  status: ('A' for Active; 'I' for Inactive)
REMARK    1  A    between atoms: O1_2  and  C2_3 
REMARK    2  A    between atoms: C8_11  and  O4_12 
REMARK    3  A    between atoms: C15_20  and  C17_22 
ROOT
HETATM    1  C2  UNL     1      -2.175   1.154   0.080  1.00  0.00     0.278 C 
HETATM    2  O2  UNL     1      -0.811   1.503   0.235  1.00  0.00    -0.353 OA
HETATM    3  C3  UNL     1      -0.264   0.851  -0.841  1.00  0.00     0.146 C 
HETATM    4  C4  UNL     1      -0.749  -0.585  -0.546  1.00  0.00     0.073 C 
HETATM    5  C5  UNL     1       0.059  -1.197   0.474  1.00  0.00     0.065 C 
HETATM    6  C6  UNL     1       0.349  -2.659   0.064  1.00  0.00     0.046 C 
HETATM    7  C7  UNL     1      -0.451  -1.294   1.872  1.00  0.00     0.046 C 
HETATM    8  O3  UNL     1       1.354  -0.642   0.617  1.00  0.00    -0.343 OA
HETATM    9  C8  UNL     1       1.933  -0.245  -0.533  1.00  0.00     0.182 C 
HETATM   10  C9  UNL     1       1.182   0.952  -1.051  1.00  0.00     0.101 C 
HETATM   11  C10 UNL     1       1.737   2.121  -0.331  1.00  0.00    -0.017 C 
HETATM   12  C11 UNL     1       2.908   1.812   0.171  1.00  0.00    -0.016 C 
HETATM   13  C12 UNL     1       3.262   0.426  -0.150  1.00  0.00     0.027 C 
HETATM   14  C13 UNL     1       3.870  -0.262   1.058  1.00  0.00     0.025 C 
HETATM   15  C14 UNL     1       4.253   0.330  -1.280  1.00  0.00     0.025 C 
HETATM   16  C15 UNL     1      -2.175  -0.292  -0.411  1.00  0.00     0.103 C 
HETATM   17  C16 UNL     1      -3.010  -1.184   0.434  1.00  0.00     0.033 C 
ENDROOT
BRANCH  16  18
HETATM   18  C17 UNL     1      -2.803  -0.266  -1.753  1.00  0.00     0.187 C 
HETATM   19  O5  UNL     1      -2.166  -0.671  -2.739  1.00  0.00    -0.647 OA
HETATM   20  O6  UNL     1      -4.084   0.203  -1.915  1.00  0.00    -0.647 OA
ENDBRANCH  16  18
BRANCH   1  21
HETATM   21  O1  UNL     1      -2.903   1.339   1.223  1.00  0.00    -0.365 OA
HETATM   22  C1  UNL     1      -3.878   2.329   1.109  1.00  0.00     0.204 C 
ENDBRANCH   1  21
BRANCH   9  23
HETATM   23  O4  UNL     1       2.205  -1.201  -1.470  1.00  0.00    -0.364 OA
ATOM     24  H4  UNL     1       2.613  -0.921  -2.281  1.00  0.00     0.213 HD
ENDBRANCH   9  23
TORSDOF 3
