REMARK  5 active torsions:
REMARK  status: ('A' for Active; 'I' for Inactive)
REMARK    1  A    between atoms: C2_2  and  O2_4 
REMARK    2  A    between atoms: O2_4  and  C3_5 
REMARK    3  A    between atoms: C10_12  and  O3_13 
REMARK    4  A    between atoms: C16_21  and  C18_23 
REMARK    5  A    between atoms: C18_23  and  O5_24 
ROOT
HETATM    1  C3  UNL     1       3.037   0.674  -0.877  1.00  0.00     0.132 C 
HETATM    2  C4  UNL     1       2.575   1.791   0.051  1.00  0.00     0.033 C 
HETATM    3  C5  UNL     1       1.098   2.059  -0.126  1.00  0.00     0.012 C 
HETATM    4  C6  UNL     1       0.274   0.874   0.397  1.00  0.00    -0.034 C 
HETATM    5  C7  UNL     1       0.229   1.098   1.891  1.00  0.00     0.016 C 
HETATM    6  C8  UNL     1       1.075  -0.352   0.131  1.00  0.00     0.025 C 
HETATM    7  C9  UNL     1       1.802  -0.158  -1.189  1.00  0.00     0.040 C 
HETATM    8  C10 UNL     1       0.329  -1.629   0.141  1.00  0.00     0.123 C 
HETATM    9  C11 UNL     1      -1.144  -1.524   0.345  1.00  0.00     0.040 C 
HETATM   10  C12 UNL     1      -1.665  -0.415  -0.542  1.00  0.00     0.029 C 
HETATM   11  C13 UNL     1      -1.063   0.912  -0.254  1.00  0.00     0.003 C 
HETATM   12  C14 UNL     1      -1.956   1.825   0.565  1.00  0.00     0.032 C 
HETATM   13  C15 UNL     1      -3.416   1.674   0.175  1.00  0.00     0.169 C 
HETATM   14  O4  UNL     1      -3.736   0.340   0.448  1.00  0.00    -0.378 OA
HETATM   15  C16 UNL     1      -3.162  -0.454  -0.531  1.00  0.00     0.082 C 
HETATM   16  C17 UNL     1      -3.717   0.018  -1.874  1.00  0.00     0.049 C 
ENDROOT
BRANCH   1  17
HETATM   17  O2  UNL     1       3.914  -0.217  -0.174  1.00  0.00    -0.316 OA
BRANCH  17  18
HETATM   18  C2  UNL     1       5.204  -0.471  -0.596  1.00  0.00     0.255 C 
HETATM   19  C1  UNL     1       6.081  -1.406   0.168  1.00  0.00     0.126 C 
HETATM   20  O1  UNL     1       5.592   0.115  -1.637  1.00  0.00    -0.266 OA
ENDBRANCH  17  18
ENDBRANCH   1  17
BRANCH   8  21
HETATM   21  O3  UNL     1       0.528  -2.312  -1.082  1.00  0.00    -0.395 OA
ATOM     22  H3  UNL     1       0.049  -3.132  -1.076  1.00  0.00     0.210 HD
ENDBRANCH   8  21
BRANCH  15  23
HETATM   23  C18 UNL     1      -3.695  -1.859  -0.327  1.00  0.00     0.202 C 
BRANCH  23  24
HETATM   24  O5  UNL     1      -5.099  -1.756  -0.467  1.00  0.00    -0.398 OA
ATOM     25  H5  UNL     1      -5.433  -2.636  -0.339  1.00  0.00     0.209 HD
ENDBRANCH  23  24
ENDBRANCH  15  23
TORSDOF 5
