REMARK  4 active torsions:
REMARK  status: ('A' for Active; 'I' for Inactive)
REMARK    1  A    between atoms: C2_2  and  C3_3 
REMARK    2  A    between atoms: C3_3  and  O1_4 
REMARK    3  A    between atoms: C13_16  and  C14_17 
REMARK    4  A    between atoms: C14_17  and  O3_18 
ROOT
HETATM    1  C1  UNL     1      -3.485  -1.161  -1.200  1.00  0.00     0.018 C 
HETATM    2  C2  UNL     1      -2.304  -0.728  -0.308  1.00  0.00    -0.014 C 
HETATM    3  C4  UNL     1      -2.749  -0.055   0.953  1.00  0.00     0.044 C 
HETATM    4  C5  UNL     1      -2.736   1.440   0.900  1.00  0.00     0.187 C 
HETATM    5  C6  UNL     1      -3.268   1.919  -0.419  1.00  0.00     0.033 C 
HETATM    6  C7  UNL     1      -2.533   1.298  -1.565  1.00  0.00     0.010 C 
HETATM    7  C8  UNL     1      -1.484   0.269  -1.100  1.00  0.00     0.035 C 
HETATM    8  C9  UNL     1      -0.389   0.816  -0.360  1.00  0.00     0.128 A 
HETATM    9  O2  UNL     1       0.166   0.117   0.735  1.00  0.00    -0.335 OA
HETATM   10  C10 UNL     1       1.535   0.316   0.560  1.00  0.00     0.184 C 
HETATM   11  C11 UNL     1       2.330  -0.162   1.704  1.00  0.00     0.037 C 
HETATM   12  C12 UNL     1       3.437  -0.864   1.582  1.00  0.00    -0.019 C 
HETATM   13  C13 UNL     1       4.014  -1.257   0.274  1.00  0.00     0.032 C 
HETATM   14  C15 UNL     1       2.880  -1.389  -0.713  1.00  0.00     0.016 C 
HETATM   15  C16 UNL     1       2.015  -0.172  -0.767  1.00  0.00     0.074 C 
HETATM   16  O4  UNL     1       1.530   1.731   0.492  1.00  0.00    -0.341 OA
HETATM   17  C17 UNL     1       0.525   1.906  -0.465  1.00  0.00     0.196 A 
HETATM   18  C18 UNL     1      -0.773   2.293   0.005  1.00  0.00     0.255 A 
HETATM   19  N1  UNL     1      -1.451   2.053   1.238  1.00  0.00    -0.061 N 
ATOM     20  H11 UNL     1      -0.903   1.501   1.898  1.00  0.00     0.278 HD
ATOM     21  H12 UNL     1      -1.543   2.889   1.816  1.00  0.00     0.278 HD
ENDROOT
BRANCH  13  22
HETATM   22  C14 UNL     1       4.999  -0.227  -0.238  1.00  0.00     0.172 C 
BRANCH  22  23
HETATM   23  O3  UNL     1       6.059  -0.046   0.633  1.00  0.00    -0.400 OA
ATOM     24  H3  UNL     1       6.677   0.600   0.312  1.00  0.00     0.209 HD
ENDBRANCH  22  23
ENDBRANCH  13  22
BRANCH   2  25
HETATM   25  C3  UNL     1      -1.592  -2.029  -0.008  1.00  0.00     0.173 C 
BRANCH  25  26
HETATM   26  O1  UNL     1      -2.486  -2.926   0.651  1.00  0.00    -0.400 OA
ATOM     27  H1  UNL     1      -2.039  -3.743   0.839  1.00  0.00     0.209 HD
ENDBRANCH  25  26
ENDBRANCH   2  25
TORSDOF 4
