REMARK  9 active torsions:
REMARK  status: ('A' for Active; 'I' for Inactive)
REMARK    1  A    between atoms: C4_4  and  C5_5 
REMARK    2  A    between atoms: C5_5  and  O1_6 
REMARK    3  A    between atoms: O1_6  and  C6_7 
REMARK    4  A    between atoms: C8_9  and  N1_10 
REMARK    5  A    between atoms: N1_10  and  C9_12 
REMARK    6  A    between atoms: C9_12  and  N2_14 
REMARK    7  A    between atoms: N2_14  and  C10_16 
REMARK    8  A    between atoms: C10_16  and  C11_17 
REMARK    9  A    between atoms: C11_17  and  N3_19 
ROOT
HETATM    1  C6  UNL     1       3.450  -1.852   0.657  1.00  0.00     0.091 A 
HETATM    2  C7  UNL     1       2.327  -1.046   0.452  1.00  0.00     0.067 A 
HETATM    3  C8  UNL     1       1.124  -1.568   0.074  1.00  0.00     0.040 A 
HETATM    4  C17 UNL     1       0.960  -2.938  -0.128  1.00  0.00     0.073 A 
HETATM    5  C18 UNL     1       2.044  -3.759   0.065  1.00  0.00     0.138 A 
HETATM    6  F1  UNL     1       1.855  -5.086  -0.138  1.00  0.00    -0.204 F 
HETATM    7  C19 UNL     1       3.245  -3.223   0.446  1.00  0.00     0.083 A 
HETATM    8 BR1  UNL     1       4.730  -4.390   0.707  1.00  0.00    -0.045 Br
ENDROOT
BRANCH   3   9
HETATM    9  N1  UNL     1      -0.009  -0.729  -0.094  1.00  0.00    -0.333 N 
ATOM     10  H1  UNL     1      -0.582  -0.864  -0.927  1.00  0.00     0.168 HD
BRANCH   9  11
HETATM   11  C9  UNL     1      -0.393   0.275   0.810  1.00  0.00     0.172 C 
HETATM   12  S1  UNL     1       0.499   0.478   2.205  1.00  0.00    -0.041 SA
BRANCH  11  13
HETATM   13  N2  UNL     1      -1.523   1.079   0.608  1.00  0.00    -0.365 N 
ATOM     14  H2  UNL     1      -1.646   1.810   1.309  1.00  0.00     0.161 HD
BRANCH  13  15
HETATM   15  C10 UNL     1      -2.533   1.061  -0.400  1.00  0.00     0.157 C 
BRANCH  15  16
HETATM   16  C11 UNL     1      -3.653   0.112  -0.223  1.00  0.00     0.236 C 
HETATM   17  C12 UNL     1      -3.322  -1.333  -0.132  1.00  0.00     0.044 C 
BRANCH  16  18
HETATM   18  N3  UNL     1      -4.771   0.371  -1.107  1.00  0.00     0.094 N 
HETATM   19  C13 UNL     1      -5.854  -0.534  -0.968  1.00  0.00     0.273 C 
HETATM   20  C14 UNL     1      -7.083   0.272  -1.431  1.00  0.00     0.032 C 
HETATM   21  C15 UNL     1      -6.705   1.645  -0.977  1.00  0.00     0.032 C 
HETATM   22  C16 UNL     1      -5.215   1.704  -1.198  1.00  0.00     0.273 C 
ENDBRANCH  16  18
ENDBRANCH  15  16
ENDBRANCH  13  15
ENDBRANCH  11  13
ENDBRANCH   9  11
ENDBRANCH   3   9
BRANCH   1  23
HETATM   23  O1  UNL     1       4.653  -1.375   1.035  1.00  0.00    -0.346 OA
BRANCH  23  24
HETATM   24  C5  UNL     1       5.048  -0.080   1.267  1.00  0.00     0.203 C 
BRANCH  24  25
HETATM   25  C4  UNL     1       5.027   0.844   0.105  1.00  0.00     0.001 C 
HETATM   26  C2  UNL     1       6.156   1.455  -0.310  1.00  0.00    -0.089 C 
HETATM   27  C1  UNL     1       6.075   2.358  -1.466  1.00  0.00     0.042 C 
HETATM   28  C3  UNL     1       7.443   1.213   0.396  1.00  0.00     0.042 C 
ENDBRANCH  24  25
ENDBRANCH  23  24
ENDBRANCH   1  23
TORSDOF 9
