REMARK  14 active torsions:
REMARK  status: ('A' for Active; 'I' for Inactive)
REMARK    1  A    between atoms: C2_2  and  N1_3 
REMARK    2  A    between atoms: N1_3  and  C3_4 
REMARK       I    between atoms: N1_3  and  C14_23 
REMARK    3  A    between atoms: C3_4  and  C4_5 
REMARK    4  A    between atoms: C7_8  and  O1_9 
REMARK    5  A    between atoms: C9_13  and  O2_14 
REMARK    6  A    between atoms: N3_18  and  C11_19 
REMARK    7  A    between atoms: C14_23  and  C15_25 
REMARK    8  A    between atoms: C15_25  and  C16_26 
REMARK    9  A    between atoms: C17_27  and  C18_28 
REMARK       I    between atoms: C18_28  and  N4_30 
REMARK   10  A    between atoms: N5_33  and  C21_34 
REMARK   11  A    between atoms: C21_34  and  C22_35 
REMARK   12  A    between atoms: C23_36  and  C25_38 
REMARK   13  A    between atoms: C25_38  and  C26_39 
REMARK   14  A    between atoms: C26_39  and  C27_40 
ROOT
HETATM    1  N1  UNL     1      -4.968  -1.155  -1.662  1.00  0.00    -0.330 N 
HETATM    2  C14 UNL     1      -3.726  -0.662  -2.122  1.00  0.00     0.226 C 
HETATM    3  O5  UNL     1      -3.206  -1.123  -3.157  1.00  0.00    -0.273 OA
ENDROOT
BRANCH   2   4
HETATM    4  C15 UNL     1      -3.024   0.410  -1.384  1.00  0.00     0.130 C 
BRANCH   4   5
HETATM    5  C16 UNL     1      -1.737   0.707  -2.022  1.00  0.00    -0.012 C 
HETATM    6  C17 UNL     1      -0.565   0.625  -1.513  1.00  0.00     0.070 C 
BRANCH   6   7
HETATM    7  C18 UNL     1      -0.072   0.242  -0.224  1.00  0.00     0.243 C 
HETATM    8  O6  UNL     1      -0.861  -0.118   0.683  1.00  0.00    -0.268 OA
HETATM    9  N4  UNL     1       1.319   0.249   0.100  1.00  0.00    -0.345 N 
HETATM   10  C19 UNL     1       2.325   0.648  -0.874  1.00  0.00     0.146 C 
HETATM   11  C33 UNL     1       1.760  -0.127   1.414  1.00  0.00     0.151 C 
HETATM   12  C20 UNL     1       3.693   0.656  -0.141  1.00  0.00     0.142 C 
HETATM   13  N5  UNL     1       3.855  -0.650   0.354  1.00  0.00    -0.383 N 
HETATM   14  C31 UNL     1       3.022  -0.943   1.455  1.00  0.00     0.097 C 
HETATM   15  C32 UNL     1       2.621  -2.412   1.518  1.00  0.00     0.034 C 
BRANCH  13  16
HETATM   16  C21 UNL     1       5.155  -1.227   0.335  1.00  0.00     0.086 C 
BRANCH  16  17
HETATM   17  C22 UNL     1       6.128  -0.627   1.226  1.00  0.00     0.019 C 
HETATM   18  C23 UNL     1       7.264  -0.087   0.749  1.00  0.00    -0.082 C 
HETATM   19  C24 UNL     1       7.508  -0.114  -0.724  1.00  0.00     0.043 C 
BRANCH  18  20
HETATM   20  C25 UNL     1       8.226   0.558   1.659  1.00  0.00     0.037 C 
BRANCH  20  21
HETATM   21  C26 UNL     1       9.559  -0.066   1.733  1.00  0.00     0.031 C 
BRANCH  21  22
HETATM   22  C27 UNL     1      10.331  -0.138   0.479  1.00  0.00    -0.024 C 
HETATM   23  C28 UNL     1      11.451   0.524   0.256  1.00  0.00    -0.091 C 
HETATM   24  C29 UNL     1      12.063   1.430   1.266  1.00  0.00     0.042 C 
HETATM   25  C30 UNL     1      12.147   0.373  -1.048  1.00  0.00     0.042 C 
ENDBRANCH  21  22
ENDBRANCH  20  21
ENDBRANCH  18  20
ENDBRANCH  16  17
ENDBRANCH  13  16
ENDBRANCH   6   7
ENDBRANCH   4   5
ENDBRANCH   2   4
BRANCH   1  26
HETATM   26  C2  UNL     1      -5.570  -2.202  -2.501  1.00  0.00     0.126 C 
HETATM   27  C1  UNL     1      -6.398  -1.725  -3.628  1.00  0.00     0.027 C 
ENDBRANCH   1  26
BRANCH   1  28
HETATM   28  C3  UNL     1      -5.543  -0.849  -0.414  1.00  0.00     0.097 C 
BRANCH  28  29
HETATM   29  C4  UNL     1      -6.309   0.356  -0.119  1.00  0.00     0.165 C 
HETATM   30  C5  UNL     1      -6.752   0.243   1.335  1.00  0.00     0.041 A 
HETATM   31  C6  UNL     1      -8.097   0.231   1.340  1.00  0.00     0.096 A 
HETATM   32  C9  UNL     1      -6.299   0.051   2.625  1.00  0.00     0.153 A 
HETATM   33  C7  UNL     1      -8.466   0.018   2.674  1.00  0.00     0.160 A 
HETATM   34  C10 UNL     1      -8.601   0.541   0.003  1.00  0.00     0.260 C 
HETATM   35  N2  UNL     1      -7.369  -0.090   3.450  1.00  0.00    -0.312 N 
HETATM   36  C8  UNL     1      -7.339  -0.314   4.894  1.00  0.00     0.160 C 
HETATM   37  O3  UNL     1      -9.839   0.571  -0.244  1.00  0.00    -0.267 OA
HETATM   38  N3  UNL     1      -7.461   0.763  -0.808  1.00  0.00    -0.325 N 
BRANCH  33  39
HETATM   39  O1  UNL     1      -9.784  -0.067   3.108  1.00  0.00    -0.345 OA
ATOM     40  H1  UNL     1     -10.034  -0.211   4.013  1.00  0.00     0.219 HD
ENDBRANCH  33  39
BRANCH  38  41
HETATM   41  C11 UNL     1      -7.548   1.420  -2.119  1.00  0.00     0.136 C 
HETATM   42  C12 UNL     1      -8.149   2.824  -2.042  1.00  0.00     0.195 C 
HETATM   43  O4  UNL     1      -8.593   2.600  -3.369  1.00  0.00    -0.387 OA
HETATM   44  C13 UNL     1      -8.730   1.247  -2.959  1.00  0.00     0.195 C 
ENDBRANCH  38  41
BRANCH  32  45
HETATM   45  O2  UNL     1      -4.964   0.004   3.040  1.00  0.00    -0.345 OA
ATOM     46  H2  UNL     1      -4.652  -0.128   3.928  1.00  0.00     0.219 HD
ENDBRANCH  32  45
ENDBRANCH  28  29
ENDBRANCH   1  28
TORSDOF 14
