REMARK  13 active torsions:
REMARK  status: ('A' for Active; 'I' for Inactive)
REMARK    1  A    between atoms: C3_3  and  C4_4 
REMARK    2  A    between atoms: N1_7  and  C7_8 
REMARK    3  A    between atoms: C7_8  and  C8_9 
REMARK    4  A    between atoms: C8_9  and  C9_10 
REMARK    5  A    between atoms: C9_10  and  N2_11 
REMARK    6  A    between atoms: C15_20  and  N4_21 
REMARK    7  A    between atoms: N4_21  and  C16_23 
REMARK    8  A    between atoms: C18_25  and  C19_26 
REMARK       I    between atoms: C19_26  and  N5_28 
REMARK    9  A    between atoms: N5_28  and  C20_30 
REMARK   10  A    between atoms: C20_30  and  C21_31 
REMARK   11  A    between atoms: C21_31  and  C22_32 
REMARK   12  A    between atoms: C22_32  and  N6_33 
REMARK   13  A    between atoms: C26_37  and  N7_38 
ROOT
HETATM    1  C1  UNL     1       3.267   1.352  -4.841  1.00  0.00     0.051 C 
HETATM    2  C2  UNL     1       3.248   0.529  -3.589  1.00  0.00    -0.023 A 
HETATM    3  C3  UNL     1       4.280  -0.349  -3.133  1.00  0.00     0.028 A 
HETATM    4  N1  UNL     1       3.914  -0.917  -1.984  1.00  0.00    -0.314 N 
HETATM    5  C14 UNL     1       2.648  -0.403  -1.682  1.00  0.00     0.139 A 
HETATM    6  N3  UNL     1       1.801  -0.589  -0.660  1.00  0.00    -0.175 N 
ATOM      7  H3  UNL     1       2.068  -1.234   0.083  1.00  0.00     0.186 HD
HETATM    8  C15 UNL     1       0.607   0.042  -0.571  1.00  0.00     0.684 A 
HETATM    9  N8  UNL     1       0.235   0.888  -1.531  1.00  0.00    -0.201 N 
ATOM     10  H8  UNL     1      -0.666   1.360  -1.460  1.00  0.00     0.183 HD
HETATM   11  C32 UNL     1       1.040   1.135  -2.611  1.00  0.00     0.122 A 
HETATM   12  C33 UNL     1       2.268   0.457  -2.655  1.00  0.00     0.033 A 
ENDROOT
BRANCH   8  13
HETATM   13  N4  UNL     1      -0.117  -0.183   0.441  1.00  0.00    -0.192 N 
ATOM     14  H4  UNL     1       0.285  -0.839   1.111  1.00  0.00     0.184 HD
BRANCH  13  15
HETATM   15  C16 UNL     1      -1.374   0.313   0.800  1.00  0.00     0.052 A 
HETATM   16  C17 UNL     1      -2.380  -0.623   1.090  1.00  0.00     0.047 A 
HETATM   17  C18 UNL     1      -3.646  -0.238   1.464  1.00  0.00     0.036 A 
HETATM   18  C25 UNL     1      -3.930   1.128   1.554  1.00  0.00     0.046 A 
HETATM   19  C26 UNL     1      -2.985   2.090   1.281  1.00  0.00     0.033 A 
HETATM   20  C31 UNL     1      -1.730   1.642   0.910  1.00  0.00     0.059 A 
BRANCH  17  21
HETATM   21  C19 UNL     1      -4.707  -1.191   1.751  1.00  0.00     0.251 C 
HETATM   22  O2  UNL     1      -5.539  -0.896   2.671  1.00  0.00    -0.268 OA
HETATM   23  N5  UNL     1      -4.795  -2.400   1.019  1.00  0.00    -0.357 N 
ATOM     24  H5  UNL     1      -4.100  -2.584   0.296  1.00  0.00     0.162 HD
BRANCH  23  25
HETATM   25  C20 UNL     1      -5.808  -3.367   1.248  1.00  0.00     0.124 C 
BRANCH  25  26
HETATM   26  C21 UNL     1      -7.188  -2.903   0.983  1.00  0.00     0.050 C 
BRANCH  26  27
HETATM   27  C22 UNL     1      -7.554  -2.531  -0.396  1.00  0.00     0.273 C 
BRANCH  27  28
HETATM   28  N6  UNL     1      -6.899  -1.445  -1.042  1.00  0.00     0.080 N 
HETATM   29  C23 UNL     1      -7.364  -1.521  -2.464  1.00  0.00     0.309 C 
HETATM   30  C24 UNL     1      -7.406  -0.140  -0.548  1.00  0.00     0.309 C 
ENDBRANCH  27  28
ENDBRANCH  26  27
ENDBRANCH  25  26
ENDBRANCH  23  25
ENDBRANCH  17  21
BRANCH  19  31
HETATM   31  N7  UNL     1      -3.306   3.470   1.353  1.00  0.00    -0.377 N 
HETATM   32  C27 UNL     1      -2.247   4.444   1.356  1.00  0.00     0.149 C 
HETATM   33  C28 UNL     1      -2.641   5.561   2.330  1.00  0.00     0.187 C 
HETATM   34  O3  UNL     1      -3.860   6.064   1.936  1.00  0.00    -0.388 OA
HETATM   35  C29 UNL     1      -4.843   5.145   2.322  1.00  0.00     0.187 C 
HETATM   36  C30 UNL     1      -4.671   3.934   1.387  1.00  0.00     0.149 C 
ENDBRANCH  19  31
ENDBRANCH  13  15
ENDBRANCH   8  13
BRANCH   4  37
HETATM   37  C7  UNL     1       4.452  -1.927  -1.155  1.00  0.00     0.073 C 
BRANCH  37  38
HETATM   38  C8  UNL     1       5.271  -1.722   0.027  1.00  0.00     0.065 C 
BRANCH  38  39
HETATM   39  C9  UNL     1       4.719  -0.923   1.156  1.00  0.00     0.132 C 
BRANCH  39  40
HETATM   40  N2  UNL     1       5.601  -0.986   2.294  1.00  0.00    -0.369 N 
HETATM   41  C10 UNL     1       5.596  -2.189   3.025  1.00  0.00     0.089 C 
HETATM   42  C11 UNL     1       6.889  -2.342   3.800  1.00  0.00     0.212 C 
HETATM   43  O1  UNL     1       7.978  -2.148   3.004  1.00  0.00    -0.381 OA
HETATM   44  C12 UNL     1       8.016  -1.017   2.251  1.00  0.00     0.212 C 
HETATM   45  C13 UNL     1       6.759  -0.201   2.237  1.00  0.00     0.089 C 
ENDBRANCH  39  40
ENDBRANCH  38  39
ENDBRANCH  37  38
ENDBRANCH   4  37
BRANCH   3  46
HETATM   46  C4  UNL     1       5.419  -0.545  -4.041  1.00  0.00     0.037 A 
HETATM   47  C5  UNL     1       6.747   0.092  -3.832  1.00  0.00     0.011 A 
HETATM   48  C6  UNL     1       6.612  -1.338  -3.574  1.00  0.00     0.011 A 
ENDBRANCH   3  46
TORSDOF 13
