REMARK  13 active torsions:
REMARK  status: ('A' for Active; 'I' for Inactive)
REMARK    1  A    between atoms: C2_2  and  O1_3 
REMARK    2  A    between atoms: O1_3  and  C3_4 
REMARK       I    between atoms: C3_4  and  N1_6 
REMARK       I    between atoms: N2_9  and  C6_10 
REMARK    3  A    between atoms: C6_10  and  C7_12 
REMARK    4  A    between atoms: C7_12  and  C8_13 
REMARK    5  A    between atoms: C8_13  and  C9_14 
REMARK    6  A    between atoms: C12_17  and  O4_18 
REMARK    7  A    between atoms: O4_18  and  C13_19 
REMARK    8  A    between atoms: C13_19  and  C14_20 
REMARK    9  A    between atoms: C14_20  and  C15_21 
REMARK   10  A    between atoms: C15_21  and  N3_22 
REMARK   11  A    between atoms: N4_25  and  C18_26 
REMARK   12  A    between atoms: C26_34  and  C27_35 
REMARK   13  A    between atoms: N7_41  and  O5_43 
ROOT
HETATM    1  C9  UNL     1       2.017  -0.761  -1.658  1.00  0.00    -0.051 A 
HETATM    2  C10 UNL     1       1.337   0.402  -1.455  1.00  0.00     0.010 A 
HETATM    3  C11 UNL     1       0.266   0.423  -0.571  1.00  0.00     0.038 A 
HETATM    4  C12 UNL     1      -0.149  -0.708   0.122  1.00  0.00     0.082 A 
HETATM    5  C26 UNL     1       0.531  -1.910  -0.073  1.00  0.00     0.038 A 
HETATM    6  C28 UNL     1       1.604  -1.891  -0.968  1.00  0.00     0.025 A 
ENDROOT
BRANCH   1   7
HETATM    7  C8  UNL     1       3.189  -0.853  -2.587  1.00  0.00     0.103 C 
BRANCH   7   8
HETATM    8  C7  UNL     1       4.488  -0.674  -1.902  1.00  0.00     0.104 C 
HETATM    9  N7  UNL     1       5.220  -1.764  -1.808  1.00  0.00    -0.266 N 
ATOM     10  H7  UNL     1       6.116  -1.702  -1.325  1.00  0.00     0.194 HD
BRANCH   8  11
HETATM   11  C6  UNL     1       4.976   0.537  -1.329  1.00  0.00     0.268 C 
HETATM   12  N2  UNL     1       6.192   0.661  -0.637  1.00  0.00    -0.344 N 
HETATM   13  C5  UNL     1       7.125  -0.402  -0.352  1.00  0.00     0.146 C 
HETATM   14  C30 UNL     1       6.605   2.008  -0.150  1.00  0.00     0.146 C 
HETATM   15  C4  UNL     1       8.300   0.090   0.514  1.00  0.00     0.148 C 
HETATM   16  N1  UNL     1       8.878   1.283  -0.092  1.00  0.00    -0.325 N 
HETATM   17  C3  UNL     1      10.260   1.591  -0.006  1.00  0.00     0.362 C 
HETATM   18  C31 UNL     1       7.988   2.205  -0.802  1.00  0.00     0.148 C 
HETATM   19  O2  UNL     1      10.705   2.621  -0.565  1.00  0.00    -0.238 OA
HETATM   20  O3  UNL     1       4.284   1.608  -1.432  1.00  0.00    -0.266 OA
BRANCH  17  21
HETATM   21  O1  UNL     1      11.147   0.762   0.697  1.00  0.00    -0.304 OA
BRANCH  21  22
HETATM   22  C2  UNL     1      12.511   1.182   0.711  1.00  0.00     0.176 C 
HETATM   23  C1  UNL     1      12.582   2.556   1.323  1.00  0.00     0.034 C 
ENDBRANCH  21  22
ENDBRANCH  17  21
ENDBRANCH   8  11
BRANCH   9  24
HETATM   24  O5  UNL     1       4.847  -2.969  -2.320  1.00  0.00    -0.285 OA
HETATM   25  C29 UNL     1       4.937  -4.189  -1.603  1.00  0.00     0.237 C 
ENDBRANCH   9  24
ENDBRANCH   7   8
ENDBRANCH   1   7
BRANCH   5  26
HETATM   26  C27 UNL     1       0.167  -3.138   0.593  1.00  0.00     0.123 C 
HETATM   27  N5  UNL     1      -0.753  -3.301   1.394  1.00  0.00    -0.387 N 
ATOM     28  H52 UNL     1      -1.318  -2.481   1.616  1.00  0.00     0.157 HD
ATOM     29  H51 UNL     1      -1.010  -4.169   1.865  1.00  0.00     0.157 HD
HETATM   30  N6  UNL     1       0.968  -4.300   0.279  1.00  0.00    -0.082 NA
ENDBRANCH   5  26
BRANCH   4  31
HETATM   31  O4  UNL     1      -1.187  -0.679   0.978  1.00  0.00    -0.350 OA
BRANCH  31  32
HETATM   32  C13 UNL     1      -2.086   0.213   1.452  1.00  0.00     0.177 C 
BRANCH  32  33
HETATM   33  C14 UNL     1      -3.023   0.865   0.502  1.00  0.00     0.057 C 
BRANCH  33  34
HETATM   34  C15 UNL     1      -3.945  -0.042  -0.252  1.00  0.00     0.275 C 
BRANCH  34  35
HETATM   35  N3  UNL     1      -4.842  -0.822   0.558  1.00  0.00     0.097 N 
HETATM   36  C16 UNL     1      -5.759  -1.550  -0.270  1.00  0.00     0.317 C 
HETATM   37  C17 UNL     1      -7.192  -1.120  -0.142  1.00  0.00     0.093 C 
HETATM   38  N4  UNL     1      -7.436   0.245   0.087  1.00  0.00    -0.366 N 
HETATM   39  C24 UNL     1      -6.438   0.942   0.792  1.00  0.00     0.093 C 
HETATM   40  C25 UNL     1      -5.529  -0.034   1.517  1.00  0.00     0.317 C 
BRANCH  38  41
HETATM   41  C18 UNL     1      -8.788   0.591   0.352  1.00  0.00     0.088 C 
HETATM   42  C19 UNL     1      -9.714   0.322  -0.805  1.00  0.00     0.026 C 
HETATM   43  C20 UNL     1     -11.132   0.259  -0.272  1.00  0.00     0.002 C 
HETATM   44  C21 UNL     1     -11.409   1.457   0.592  1.00  0.00     0.000 C 
HETATM   45  C22 UNL     1     -10.342   2.514   0.458  1.00  0.00     0.002 C 
HETATM   46  C23 UNL     1      -8.969   2.023   0.789  1.00  0.00     0.026 C 
ENDBRANCH  38  41
ENDBRANCH  34  35
ENDBRANCH  33  34
ENDBRANCH  32  33
ENDBRANCH  31  32
ENDBRANCH   4  31
TORSDOF 13
