REMARK  14 active torsions:
REMARK  status: ('A' for Active; 'I' for Inactive)
REMARK    1  A    between atoms: C4_4  and  C5_5 
REMARK    2  A    between atoms: C5_5  and  N1_6 
REMARK    3  A    between atoms: N1_6  and  C7_8 
REMARK    4  A    between atoms: C7_8  and  C8_9 
REMARK    5  A    between atoms: C8_9  and  N2_10 
REMARK    6  A    between atoms: N4_18  and  C15_19 
REMARK    7  A    between atoms: C16_22  and  N6_23 
REMARK    8  A    between atoms: N6_23  and  C17_24 
REMARK    9  A    between atoms: C17_24  and  C18_25 
REMARK   10  A    between atoms: C18_25  and  C19_26 
REMARK   11  A    between atoms: C24_33  and  C25_34 
REMARK   12  A    between atoms: C25_34  and  C26_35 
REMARK   13  A    between atoms: C26_35  and  N8_38 
REMARK   14  A    between atoms: C29_42  and  N9_43 
ROOT
HETATM    1  C15 UNL     1      -1.150   0.685   0.415  1.00  0.00     0.128 A 
HETATM    2  N5  UNL     1      -1.269   2.015   0.397  1.00  0.00    -0.301 N 
ATOM      3  H5  UNL     1      -0.424   2.575   0.511  1.00  0.00     0.171 HD
HETATM    4  C16 UNL     1      -2.465   2.671   0.234  1.00  0.00     0.255 A 
HETATM    5  N7  UNL     1      -3.562   1.864   0.086  1.00  0.00    -0.316 N 
ATOM      6  H7  UNL     1      -4.469   2.313  -0.038  1.00  0.00     0.170 HD
HETATM    7  C22 UNL     1      -3.525   0.528   0.093  1.00  0.00     0.050 A 
HETATM    8  C23 UNL     1      -4.659  -0.222  -0.067  1.00  0.00     0.040 A 
HETATM    9  C24 UNL     1      -4.626  -1.578  -0.069  1.00  0.00    -0.027 A 
HETATM   10  C29 UNL     1      -3.421  -2.220   0.094  1.00  0.00     0.037 A 
HETATM   11  C34 UNL     1      -2.261  -1.434   0.260  1.00  0.00     0.047 A 
HETATM   12  C35 UNL     1      -2.302  -0.068   0.260  1.00  0.00     0.038 A 
ENDROOT
BRANCH   1  13
HETATM   13  N4  UNL     1       0.152   0.083   0.579  1.00  0.00    -0.311 N 
HETATM   14  C2  UNL     1       0.936   0.293   1.650  1.00  0.00     0.014 A 
HETATM   15  C1  UNL     1       0.599   1.162   2.829  1.00  0.00     0.068 C 
HETATM   16  C3  UNL     1       2.095  -0.411   1.470  1.00  0.00     0.035 A 
HETATM   17  C4  UNL     1       2.003  -1.059   0.266  1.00  0.00    -0.012 A 
HETATM   18  C14 UNL     1       0.786  -0.727  -0.254  1.00  0.00     0.107 A 
BRANCH  17  19
HETATM   19  C5  UNL     1       2.998  -1.959  -0.371  1.00  0.00     0.311 C 
BRANCH  19  20
HETATM   20  N1  UNL     1       3.772  -1.398  -1.409  1.00  0.00     0.090 N 
HETATM   21  C6  UNL     1       2.989  -0.933  -2.539  1.00  0.00     0.310 C 
BRANCH  20  22
HETATM   22  C7  UNL     1       4.809  -0.478  -1.048  1.00  0.00     0.302 C 
BRANCH  22  23
HETATM   23  C8  UNL     1       5.895  -1.201  -0.321  1.00  0.00     0.302 C 
BRANCH  23  24
HETATM   24  N2  UNL     1       7.009  -0.409   0.097  1.00  0.00     0.093 N 
HETATM   25  C9  UNL     1       7.929  -1.161   0.926  1.00  0.00     0.302 C 
HETATM   26  C10 UNL     1       9.255  -1.453   0.347  1.00  0.00     0.302 C 
HETATM   27  N3  UNL     1       9.822  -0.443  -0.497  1.00  0.00     0.087 N 
HETATM   28  C11 UNL     1      10.023   0.804   0.213  1.00  0.00     0.310 C 
HETATM   29  C12 UNL     1       8.833  -0.227  -1.563  1.00  0.00     0.302 C 
HETATM   30  C13 UNL     1       7.642   0.403  -0.871  1.00  0.00     0.302 C 
ENDBRANCH  23  24
ENDBRANCH  22  23
ENDBRANCH  20  22
ENDBRANCH  19  20
ENDBRANCH  17  19
ENDBRANCH   1  13
BRANCH   4  31
HETATM   31  N6  UNL     1      -2.483   3.847   0.235  1.00  0.00    -0.416 NA
BRANCH  31  32
HETATM   32  C17 UNL     1      -2.728   5.159   0.206  1.00  0.00     0.222 C 
BRANCH  32  33
HETATM   33  C18 UNL     1      -2.019   5.944   1.343  1.00  0.00     0.037 C 
BRANCH  33  34
HETATM   34  C19 UNL     1      -2.413   7.392   1.137  1.00  0.00    -0.020 C 
HETATM   35  C20 UNL     1      -1.942   7.832  -0.208  1.00  0.00     0.009 C 
HETATM   36  C21 UNL     1      -1.905   8.249   2.281  1.00  0.00     0.009 C 
ENDBRANCH  33  34
ENDBRANCH  32  33
ENDBRANCH  31  32
ENDBRANCH   4  31
BRANCH  10  37
HETATM   37  N9  UNL     1      -3.213  -3.620   0.071  1.00  0.00    -0.376 N 
HETATM   38  C30 UNL     1      -3.259  -4.367  -1.156  1.00  0.00     0.149 C 
HETATM   39  C31 UNL     1      -3.680  -5.796  -0.829  1.00  0.00     0.187 C 
HETATM   40  O1  UNL     1      -2.675  -6.296  -0.006  1.00  0.00    -0.388 OA
HETATM   41  C32 UNL     1      -2.711  -5.739   1.259  1.00  0.00     0.187 C 
HETATM   42  C33 UNL     1      -2.941  -4.274   1.315  1.00  0.00     0.149 C 
ENDBRANCH  10  37
BRANCH   9  43
HETATM   43  C25 UNL     1      -5.836  -2.381  -0.234  1.00  0.00     0.078 C 
BRANCH  43  44
HETATM   44  C26 UNL     1      -6.976  -1.780  -0.977  1.00  0.00     0.120 C 
HETATM   45  C27 UNL     1      -6.673  -1.333  -2.375  1.00  0.00     0.046 C 
HETATM   46  C28 UNL     1      -7.951  -2.993  -1.206  1.00  0.00     0.046 C 
BRANCH  44  47
HETATM   47  N8  UNL     1      -7.764  -0.816  -0.264  1.00  0.00    -0.071 N 
ATOM     48  H83 UNL     1      -8.099  -1.224   0.609  1.00  0.00     0.275 HD
ATOM     49  H82 UNL     1      -7.160  -0.077   0.096  1.00  0.00     0.275 HD
ATOM     50  H81 UNL     1      -8.546  -0.404  -0.773  1.00  0.00     0.275 HD
ENDBRANCH  44  47
ENDBRANCH  43  44
ENDBRANCH   9  43
TORSDOF 14
