REMARK  18 active torsions:
REMARK  status: ('A' for Active; 'I' for Inactive)
REMARK    1  A    between atoms: C2_2  and  C3_3 
REMARK    2  A    between atoms: C3_3  and  C4_4 
REMARK    3  A    between atoms: C4_4  and  C5_5 
REMARK    4  A    between atoms: C5_5  and  C6_6 
REMARK    5  A    between atoms: C6_6  and  N1_7 
REMARK    6  A    between atoms: N1_7  and  C7_9 
REMARK    7  A    between atoms: C7_9  and  C8_10 
REMARK    8  A    between atoms: C7_9  and  C21_29 
REMARK    9  A    between atoms: C8_10  and  N2_11 
REMARK   10  A    between atoms: N3_14  and  C11_15 
REMARK   11  A    between atoms: C11_15  and  O1_16 
REMARK   12  A    between atoms: C11_15  and  N4_18 
REMARK   13  A    between atoms: C16_23  and  C17_24 
REMARK   14  A    between atoms: N6_33  and  C23_34 
REMARK       I    between atoms: N7_37  and  C26_38 
REMARK   15  A    between atoms: C26_38  and  O4_40 
REMARK   16  A    between atoms: O4_40  and  C27_41 
REMARK   17  A    between atoms: C27_41  and  C28_42 
REMARK   18  A    between atoms: C28_42  and  O5_43 
ROOT
HETATM    1  C7  UNL     1       0.672   0.822   0.016  1.00  0.00     0.152 C 
ENDROOT
BRANCH   1   2
HETATM    2  N1  UNL     1       0.213   1.894   0.809  1.00  0.00    -0.409 N 
ATOM      3  H1  UNL     1      -0.514   1.769   1.513  1.00  0.00     0.154 HD
BRANCH   2   4
HETATM    4  C6  UNL     1       0.817   3.154   0.574  1.00  0.00     0.115 C 
BRANCH   4   5
HETATM    5  C5  UNL     1       0.456   3.690  -0.804  1.00  0.00     0.019 C 
BRANCH   5   6
HETATM    6  C4  UNL     1       1.108   5.038  -1.041  1.00  0.00     0.002 C 
BRANCH   6   7
HETATM    7  C3  UNL     1       0.686   6.067  -0.042  1.00  0.00    -0.000 C 
BRANCH   7   8
HETATM    8  C2  UNL     1      -0.805   6.332  -0.038  1.00  0.00    -0.005 C 
HETATM    9  C1  UNL     1      -1.103   7.382   1.004  1.00  0.00     0.005 C 
ENDBRANCH   7   8
ENDBRANCH   6   7
ENDBRANCH   5   6
ENDBRANCH   4   5
ENDBRANCH   2   4
ENDBRANCH   1   2
BRANCH   1  10
HETATM   10  C8  UNL     1      -0.058  -0.471   0.330  1.00  0.00     0.096 C 
BRANCH  10  11
HETATM   11  N2  UNL     1      -1.445  -0.466   0.137  1.00  0.00    -0.327 N 
HETATM   12  C9  UNL     1      -2.035  -0.836  -1.135  1.00  0.00     0.151 C 
HETATM   13  C10 UNL     1      -3.199  -1.752  -0.769  1.00  0.00     0.147 C 
HETATM   14  N3  UNL     1      -4.224  -0.883  -0.154  1.00  0.00    -0.337 N 
HETATM   15  C19 UNL     1      -3.783   0.125   0.741  1.00  0.00     0.229 C 
HETATM   16  C20 UNL     1      -2.341  -0.109   1.173  1.00  0.00     0.241 C 
HETATM   17  O2  UNL     1      -2.045   0.025   2.377  1.00  0.00    -0.271 OA
BRANCH  14  18
HETATM   18  C11 UNL     1      -5.544  -1.151  -0.504  1.00  0.00     0.218 C 
BRANCH  18  19
HETATM   19  O1  UNL     1      -5.704  -2.172  -1.343  1.00  0.00    -0.332 OA
ATOM     20  H1  UNL     1      -6.605  -2.355  -1.582  1.00  0.00     0.220 HD
ENDBRANCH  18  19
BRANCH  18  21
HETATM   21  N4  UNL     1      -6.767  -0.573  -0.161  1.00  0.00    -0.343 N 
HETATM   22  C12 UNL     1      -6.915   0.554   0.691  1.00  0.00     0.127 C 
HETATM   23  C13 UNL     1      -8.177   1.342   0.607  1.00  0.00     0.020 C 
HETATM   24  C14 UNL     1      -9.195   0.957  -0.388  1.00  0.00     0.004 C 
HETATM   25  C15 UNL     1      -8.773  -0.104  -1.366  1.00  0.00     0.025 C 
HETATM   26  C16 UNL     1      -7.990  -1.191  -0.700  1.00  0.00     0.087 C 
BRANCH  26  27
HETATM   27  C17 UNL     1      -8.803  -1.815   0.414  1.00  0.00     0.021 C 
HETATM   28  C18 UNL     1      -7.951  -2.888   1.103  1.00  0.00     0.007 C 
ENDBRANCH  26  27
ENDBRANCH  18  21
ENDBRANCH  14  18
ENDBRANCH  10  11
ENDBRANCH   1  10
BRANCH   1  29
HETATM   29  C21 UNL     1       2.122   0.513   0.098  1.00  0.00     0.003 A 
HETATM   30  C22 UNL     1       3.233   1.244  -0.251  1.00  0.00     0.118 A 
HETATM   31  N5  UNL     1       4.329   0.507   0.049  1.00  0.00    -0.309 N 
HETATM   32  N6  UNL     1       4.009  -0.642   0.562  1.00  0.00    -0.298 N 
ATOM     33  H5  UNL     1       5.288   0.817  -0.109  1.00  0.00     0.186 HD
HETATM   34  C31 UNL     1       2.671  -0.681   0.611  1.00  0.00     0.121 A 
BRANCH  32  35
HETATM   35  C23 UNL     1       4.884  -1.708   1.009  1.00  0.00     0.110 C 
HETATM   36  C24 UNL     1       4.914  -2.832   0.001  1.00  0.00     0.047 C 
HETATM   37  C25 UNL     1       6.228  -3.550  -0.077  1.00  0.00     0.130 C 
HETATM   38  N7  UNL     1       7.357  -2.676  -0.060  1.00  0.00    -0.328 N 
HETATM   39  C26 UNL     1       8.647  -3.229  -0.384  1.00  0.00     0.362 C 
HETATM   40  C29 UNL     1       7.250  -1.283   0.264  1.00  0.00     0.130 C 
HETATM   41  O3  UNL     1       9.671  -2.498  -0.379  1.00  0.00    -0.238 OA
HETATM   42  C30 UNL     1       6.212  -1.135   1.353  1.00  0.00     0.047 C 
BRANCH  39  43
HETATM   43  O4  UNL     1       8.784  -4.548  -0.700  1.00  0.00    -0.302 OA
BRANCH  43  44
HETATM   44  C27 UNL     1       9.879  -5.303  -1.027  1.00  0.00     0.206 C 
BRANCH  44  45
HETATM   45  C28 UNL     1      10.934  -5.490   0.004  1.00  0.00     0.191 C 
BRANCH  45  46
HETATM   46  O5  UNL     1      11.536  -4.345   0.454  1.00  0.00    -0.399 OA
ATOM     47  H5  UNL     1      12.210  -4.464   1.113  1.00  0.00     0.209 HD
ENDBRANCH  45  46
ENDBRANCH  44  45
ENDBRANCH  43  44
ENDBRANCH  39  43
ENDBRANCH  32  35
ENDBRANCH   1  29
TORSDOF 18
