REMARK  16 active torsions:
REMARK  status: ('A' for Active; 'I' for Inactive)
REMARK    1  A    between atoms: C2_2  and  C3_3 
REMARK    2  A    between atoms: C3_3  and  N1_4 
REMARK    3  A    between atoms: N1_4  and  C4_6 
REMARK    4  A    between atoms: C5_9  and  N3_10 
REMARK    5  A    between atoms: N3_10  and  C6_12 
REMARK    6  A    between atoms: C6_12  and  C7_13 
REMARK    7  A    between atoms: C7_13  and  O1_14 
REMARK    8  A    between atoms: O1_14  and  C8_15 
REMARK    9  A    between atoms: C8_15  and  C9_16 
REMARK   10  A    between atoms: C9_16  and  N4_17 
REMARK       I    between atoms: N5_20  and  C12_21 
REMARK   11  A    between atoms: C12_21  and  C13_23 
REMARK   12  A    between atoms: C13_23  and  C14_24 
REMARK   13  A    between atoms: N7_34  and  C22_35 
REMARK   14  A    between atoms: C26_39  and  O3_40 
REMARK   15  A    between atoms: O3_40  and  C27_41 
REMARK   16  A    between atoms: C27_41  and  C28_43 
ROOT
HETATM    1  C4  UNL     1      -2.824  -0.010  -4.788  1.00  0.00     0.681 A 
HETATM    2  N2  UNL     1      -1.596   0.537  -4.547  1.00  0.00    -0.175 N 
ATOM      3  H2  UNL     1      -0.993   0.786  -5.331  1.00  0.00     0.186 HD
HETATM    4  C5  UNL     1      -1.171   0.752  -3.287  1.00  0.00     0.147 A 
HETATM    5  C20 UNL     1      -1.955   0.430  -2.206  1.00  0.00     0.123 A 
HETATM    6  N6  UNL     1      -1.842   0.506  -0.891  1.00  0.00    -0.346 N 
ATOM      7  H6  UNL     1      -1.036   0.872  -0.384  1.00  0.00     0.167 HD
HETATM    8  C21 UNL     1      -2.943   0.031  -0.344  1.00  0.00     0.185 A 
HETATM    9  N7  UNL     1      -3.846  -0.385  -1.291  1.00  0.00    -0.322 N 
HETATM   10  C32 UNL     1      -3.216  -0.131  -2.468  1.00  0.00     0.155 A 
HETATM   11  N8  UNL     1      -3.612  -0.334  -3.746  1.00  0.00    -0.174 N 
ATOM     12  H8  UNL     1      -4.530  -0.742  -3.924  1.00  0.00     0.186 HD
ENDROOT
BRANCH   4  13
HETATM   13  N3  UNL     1      -0.016   1.263  -3.114  1.00  0.00    -0.372 N 
ATOM     14  H3  UNL     1       0.535   1.487  -3.943  1.00  0.00     0.161 HD
BRANCH  13  15
HETATM   15  C6  UNL     1       0.562   1.545  -1.826  1.00  0.00     0.147 C 
BRANCH  15  16
HETATM   16  C7  UNL     1       1.978   2.100  -2.020  1.00  0.00     0.187 C 
BRANCH  16  17
HETATM   17  O1  UNL     1       2.606   2.399  -0.843  1.00  0.00    -0.388 OA
BRANCH  17  18
HETATM   18  C8  UNL     1       2.805   1.335   0.021  1.00  0.00     0.198 C 
BRANCH  18  19
HETATM   19  C9  UNL     1       3.528   1.874   1.238  1.00  0.00     0.298 C 
BRANCH  19  20
HETATM   20  N4  UNL     1       3.798   0.867   2.214  1.00  0.00     0.093 N 
HETATM   21  C10 UNL     1       4.390   1.417   3.396  1.00  0.00     0.292 C 
HETATM   22  C11 UNL     1       5.860   1.719   3.284  1.00  0.00     0.156 C 
HETATM   23  N5  UNL     1       6.490   0.614   2.555  1.00  0.00    -0.349 N 
HETATM   24  C12 UNL     1       7.750   0.794   1.936  1.00  0.00     0.220 C 
HETATM   25  C18 UNL     1       5.726  -0.622   2.532  1.00  0.00     0.156 C 
HETATM   26  O2  UNL     1       8.298   1.933   2.057  1.00  0.00    -0.273 OA
HETATM   27  C19 UNL     1       4.474  -0.284   1.703  1.00  0.00     0.292 C 
BRANCH  24  28
HETATM   28  C13 UNL     1       8.437  -0.258   1.173  1.00  0.00     0.111 C 
BRANCH  28  29
HETATM   29  C14 UNL     1       9.739   0.199   0.566  1.00  0.00    -0.043 C 
HETATM   30  C15 UNL     1      10.389  -0.961  -0.205  1.00  0.00     0.015 C 
HETATM   31  C16 UNL     1       9.530   1.294  -0.457  1.00  0.00     0.015 C 
HETATM   32  C17 UNL     1      10.713   0.687   1.610  1.00  0.00     0.015 C 
ENDBRANCH  28  29
ENDBRANCH  24  28
ENDBRANCH  19  20
ENDBRANCH  18  19
ENDBRANCH  17  18
ENDBRANCH  16  17
ENDBRANCH  15  16
ENDBRANCH  13  15
ENDBRANCH   4  13
BRANCH   1  33
HETATM   33  N1  UNL     1      -3.205  -0.208  -5.989  1.00  0.00    -0.223 N 
ATOM     34  H1  UNL     1      -2.561   0.057  -6.735  1.00  0.00     0.178 HD
BRANCH  33  35
HETATM   35  C3  UNL     1      -4.448  -0.765  -6.370  1.00  0.00     0.164 C 
BRANCH  35  36
HETATM   36  C2  UNL     1      -4.386  -2.240  -6.571  1.00  0.00    -0.017 C 
HETATM   37  C1  UNL     1      -5.133  -3.058  -5.865  1.00  0.00     0.008 C 
ENDBRANCH  35  36
ENDBRANCH  33  35
ENDBRANCH   1  33
BRANCH   9  38
HETATM   38  C22 UNL     1      -5.150  -0.958  -1.026  1.00  0.00     0.095 C 
HETATM   39  C23 UNL     1      -6.195  -0.334  -1.858  1.00  0.00     0.026 C 
HETATM   40  C24 UNL     1      -7.544  -0.113  -1.235  1.00  0.00     0.004 C 
HETATM   41  C25 UNL     1      -7.538   0.202   0.227  1.00  0.00     0.033 C 
HETATM   42  C26 UNL     1      -6.812  -0.994   0.882  1.00  0.00     0.134 C 
HETATM   43  C31 UNL     1      -5.384  -0.837   0.462  1.00  0.00     0.058 C 
BRANCH  42  44
HETATM   44  O3  UNL     1      -6.855  -0.830   2.291  1.00  0.00    -0.316 OA
BRANCH  44  45
HETATM   45  C27 UNL     1      -7.506  -1.779   3.095  1.00  0.00     0.262 C 
HETATM   46  O4  UNL     1      -8.022  -2.742   2.477  1.00  0.00    -0.265 OA
BRANCH  45  47
HETATM   47  C28 UNL     1      -7.578  -1.652   4.577  1.00  0.00     0.077 C 
HETATM   48  C29 UNL     1      -6.237  -1.606   5.239  1.00  0.00     0.020 C 
HETATM   49  C30 UNL     1      -8.434  -0.482   5.001  1.00  0.00     0.020 C 
ENDBRANCH  45  47
ENDBRANCH  44  45
ENDBRANCH  42  44
ENDBRANCH   9  38
TORSDOF 16
