REMARK  14 active torsions:
REMARK  status: ('A' for Active; 'I' for Inactive)
REMARK    1  A    between atoms: C3_3  and  N1_4 
REMARK    2  A    between atoms: N1_4  and  C4_6 
REMARK    3  A    between atoms: C4_6  and  C5_7 
REMARK    4  A    between atoms: C10_15  and  N3_16 
REMARK    5  A    between atoms: N3_16  and  C11_18 
REMARK    6  A    between atoms: C13_20  and  C14_21 
REMARK    7  A    between atoms: C14_21  and  C15_22 
REMARK    8  A    between atoms: C15_22  and  C16_23 
REMARK    9  A    between atoms: C18_27  and  O2_28 
REMARK   10  A    between atoms: O2_28  and  C19_29 
REMARK   11  A    between atoms: C19_29  and  C20_30 
REMARK   12  A    between atoms: C20_30  and  C21_31 
REMARK   13  A    between atoms: C21_31  and  N5_32 
REMARK   14  A    between atoms: N7_43  and  C29_44 
ROOT
HETATM    1  C11 UNL     1      -2.735  -2.402  -0.235  1.00  0.00     0.337 C 
HETATM    2  C12 UNL     1      -1.371  -1.690  -0.214  1.00  0.00     0.062 C 
HETATM    3  C13 UNL     1      -0.375  -2.577   0.453  1.00  0.00    -0.009 C 
HETATM    4  C27 UNL     1      -0.301  -3.856  -0.331  1.00  0.00     0.035 C 
HETATM    5  C28 UNL     1      -1.674  -4.464  -0.503  1.00  0.00     0.276 C 
HETATM    6  N7  UNL     1      -2.596  -3.520  -1.148  1.00  0.00     0.116 N 
ENDROOT
BRANCH   3   7
HETATM    7  C14 UNL     1       0.971  -1.948   0.590  1.00  0.00     0.009 C 
BRANCH   7   8
HETATM    8  C15 UNL     1       1.598  -1.570  -0.712  1.00  0.00     0.042 C 
BRANCH   8   9
HETATM    9  C16 UNL     1       2.932  -0.951  -0.531  1.00  0.00    -0.027 A 
HETATM   10  C17 UNL     1       4.050  -1.770  -0.500  1.00  0.00     0.100 A 
HETATM   11  N4  UNL     1       5.279  -1.215  -0.344  1.00  0.00    -0.332 N 
HETATM   12  C18 UNL     1       5.447   0.122  -0.218  1.00  0.00     0.223 A 
ATOM     13  H4  UNL     1       6.098  -1.822  -0.321  1.00  0.00     0.168 HD
HETATM   14  N6  UNL     1       4.357   0.901  -0.250  1.00  0.00    -0.332 N 
HETATM   15  C26 UNL     1       3.122   0.402  -0.402  1.00  0.00     0.100 A 
ATOM     16  H6  UNL     1       4.471   1.910  -0.155  1.00  0.00     0.168 HD
BRANCH  12  17
HETATM   17  O2  UNL     1       6.708   0.683  -0.060  1.00  0.00    -0.322 OA
BRANCH  17  18
HETATM   18  C19 UNL     1       7.883  -0.108  -0.020  1.00  0.00     0.180 C 
BRANCH  18  19
HETATM   19  C20 UNL     1       9.104   0.778   0.147  1.00  0.00     0.046 C 
BRANCH  19  20
HETATM   20  C21 UNL     1       9.057   1.596   1.419  1.00  0.00     0.119 C 
BRANCH  20  21
HETATM   21  N5  UNL     1      10.235   2.392   1.506  1.00  0.00    -0.408 N 
HETATM   22  C22 UNL     1      11.452   1.682   1.722  1.00  0.00     0.143 C 
HETATM   23  C23 UNL     1      12.493   2.213   0.759  1.00  0.00     0.187 C 
HETATM   24  O3  UNL     1      12.677   3.567   1.028  1.00  0.00    -0.388 OA
HETATM   25  C24 UNL     1      11.542   4.315   0.730  1.00  0.00     0.187 C 
HETATM   26  C25 UNL     1      10.320   3.445   0.553  1.00  0.00     0.143 C 
ENDBRANCH  20  21
ENDBRANCH  19  20
ENDBRANCH  18  19
ENDBRANCH  17  18
ENDBRANCH  12  17
ENDBRANCH   8   9
ENDBRANCH   7   8
ENDBRANCH   3   7
BRANCH   1  27
HETATM   27  N3  UNL     1      -3.649  -1.422  -0.685  1.00  0.00    -0.194 N 
ATOM     28  H3  UNL     1      -3.679  -1.281  -1.695  1.00  0.00     0.180 HD
BRANCH  27  29
HETATM   29  C10 UNL     1      -4.431  -0.699  -0.014  1.00  0.00     0.681 A 
HETATM   30  N2  UNL     1      -5.222   0.181  -0.692  1.00  0.00    -0.177 N 
HETATM   31  C3  UNL     1      -6.104   0.995  -0.060  1.00  0.00     0.118 A 
ATOM     32  H2  UNL     1      -5.148   0.229  -1.708  1.00  0.00     0.185 HD
HETATM   33  C2  UNL     1      -6.164   0.891   1.314  1.00  0.00     0.066 A 
HETATM   34  C1  UNL     1      -5.355  -0.009   2.012  1.00  0.00     0.110 A 
HETATM   35  N8  UNL     1      -4.504  -0.785   1.318  1.00  0.00    -0.202 N 
ATOM     36  H8  UNL     1      -3.907  -1.447   1.814  1.00  0.00     0.183 HD
BRANCH  31  37
HETATM   37  N1  UNL     1      -6.830   1.805  -0.748  1.00  0.00    -0.376 N 
ATOM     38  H1  UNL     1      -6.692   1.790  -1.758  1.00  0.00     0.161 HD
BRANCH  37  39
HETATM   39  C4  UNL     1      -7.797   2.713  -0.262  1.00  0.00     0.126 C 
BRANCH  39  40
HETATM   40  C5  UNL     1      -7.385   4.168  -0.276  1.00  0.00     0.007 C 
HETATM   41  C6  UNL     1      -8.540   4.982   0.268  1.00  0.00     0.032 C 
HETATM   42  C7  UNL     1      -8.810   4.685   1.704  1.00  0.00     0.168 C 
HETATM   43  O1  UNL     1      -7.737   4.195   2.407  1.00  0.00    -0.391 OA
HETATM   44  C8  UNL     1      -6.526   4.724   2.019  1.00  0.00     0.168 C 
HETATM   45  C9  UNL     1      -6.191   4.481   0.560  1.00  0.00     0.032 C 
ENDBRANCH  39  40
ENDBRANCH  37  39
ENDBRANCH  31  37
ENDBRANCH  27  29
ENDBRANCH   1  27
BRANCH   6  46
HETATM   46  C29 UNL     1      -3.825  -4.266  -1.327  1.00  0.00     0.225 C 
HETATM   47  C30 UNL     1      -3.544  -5.498  -2.119  1.00  0.00     0.036 C 
HETATM   48  C31 UNL     1      -4.922  -5.894  -2.653  1.00  0.00     0.002 C 
HETATM   49  C32 UNL     1      -5.541  -4.561  -2.992  1.00  0.00     0.002 C 
HETATM   50  C33 UNL     1      -4.866  -3.546  -2.095  1.00  0.00     0.036 C 
ENDBRANCH   6  46
TORSDOF 14
