REMARK  13 active torsions:
REMARK  status: ('A' for Active; 'I' for Inactive)
REMARK    1  A    between atoms: C2_2  and  C3_3 
REMARK    2  A    between atoms: C3_3  and  N1_4 
REMARK    3  A    between atoms: C6_7  and  N2_8 
REMARK    4  A    between atoms: N2_8  and  C8_10 
REMARK    5  A    between atoms: C10_12  and  O1_13 
REMARK    6  A    between atoms: C12_15  and  N3_16 
REMARK    7  A    between atoms: N3_16  and  C13_18 
REMARK    8  A    between atoms: N6_25  and  C16_27 
REMARK    9  A    between atoms: C16_27  and  C17_28 
REMARK   10  A    between atoms: C17_28  and  C18_29 
REMARK   11  A    between atoms: C18_29  and  N7_30 
REMARK   12  A    between atoms: C29_44  and  O2_45 
REMARK   13  A    between atoms: O2_45  and  C30_46 
ROOT
HETATM    1  C13 UNL     1       0.253   1.337   2.488  1.00  0.00     0.684 A 
HETATM    2  N4  UNL     1       0.929   1.295   1.346  1.00  0.00    -0.175 N 
ATOM      3  H4  UNL     1       0.411   1.038   0.506  1.00  0.00     0.186 HD
HETATM    4  C14 UNL     1       2.229   1.560   1.204  1.00  0.00     0.134 A 
HETATM    5  N5  UNL     1       2.882   1.527   0.054  1.00  0.00    -0.327 N 
ATOM      6  H5  UNL     1       2.357   1.269  -0.782  1.00  0.00     0.169 HD
HETATM    7  C15 UNL     1       4.208   1.814  -0.093  1.00  0.00     0.106 A 
HETATM    8  N6  UNL     1       4.686   1.745  -1.238  1.00  0.00    -0.356 N 
ATOM      9  H6  UNL     1       3.961   1.470  -1.901  1.00  0.00     0.166 HD
HETATM   10  C24 UNL     1       4.947   2.166   1.018  1.00  0.00     0.049 A 
HETATM   11  C25 UNL     1       4.304   2.211   2.235  1.00  0.00     0.020 A 
HETATM   12  C26 UNL     1       2.966   1.914   2.334  1.00  0.00     0.025 A 
HETATM   13  C27 UNL     1       2.269   1.960   3.541  1.00  0.00     0.121 A 
HETATM   14  N9  UNL     1       0.962   1.680   3.595  1.00  0.00    -0.201 N 
ATOM     15  H9  UNL     1       0.483   1.725   4.495  1.00  0.00     0.183 HD
ENDROOT
BRANCH   1  16
HETATM   16  N3  UNL     1      -0.993   1.113   2.648  1.00  0.00    -0.189 N 
ATOM     17  H3  UNL     1      -1.345   1.190   3.602  1.00  0.00     0.184 HD
BRANCH  16  18
HETATM   18  C12 UNL     1      -1.943   0.770   1.657  1.00  0.00     0.085 A 
HETATM   19  C10 UNL     1      -2.192   1.518   0.529  1.00  0.00     0.097 A 
HETATM   20  C9  UNL     1      -3.135   1.145  -0.403  1.00  0.00     0.071 A 
HETATM   21  C8  UNL     1      -3.886  -0.003  -0.254  1.00  0.00     0.067 A 
HETATM   22  C29 UNL     1      -3.647  -0.772   0.881  1.00  0.00     0.098 A 
HETATM   23  C28 UNL     1      -2.704  -0.399   1.810  1.00  0.00     0.072 A 
BRANCH  19  24
HETATM   24  O1  UNL     1      -1.460   2.690   0.336  1.00  0.00    -0.354 OA
HETATM   25  C11 UNL     1      -1.599   3.551  -0.755  1.00  0.00     0.210 C 
ENDBRANCH  19  24
BRANCH  21  26
HETATM   26  N2  UNL     1      -4.878  -0.369  -1.227  1.00  0.00    -0.376 N 
HETATM   27  C7  UNL     1      -4.490  -0.871  -2.532  1.00  0.00     0.150 C 
BRANCH  26  28
HETATM   28  C6  UNL     1      -6.277  -0.242  -0.920  1.00  0.00     0.107 C 
HETATM   29  C5  UNL     1      -6.990   0.667  -1.904  1.00  0.00     0.071 C 
HETATM   30  C4  UNL     1      -8.371   0.066  -2.026  1.00  0.00     0.065 C 
HETATM   31  N1  UNL     1      -8.393  -1.183  -1.398  1.00  0.00    -0.372 N 
HETATM   32  C33 UNL     1      -7.063  -1.496  -0.910  1.00  0.00     0.152 C 
BRANCH  31  33
HETATM   33  C3  UNL     1      -9.448  -1.579  -0.565  1.00  0.00     0.062 C 
BRANCH  33  34
HETATM   34  C2  UNL     1      -9.616  -0.933   0.758  1.00  0.00     0.040 C 
HETATM   35  C1  UNL     1      -9.866   0.549   0.758  1.00  0.00     0.010 C 
ENDBRANCH  33  34
ENDBRANCH  31  33
ENDBRANCH  26  28
ENDBRANCH  21  26
BRANCH  22  36
HETATM   36  O2  UNL     1      -4.376  -1.916   1.051  1.00  0.00    -0.344 OA
BRANCH  36  37
HETATM   37  C30 UNL     1      -4.294  -2.841   2.083  1.00  0.00     0.129 A 
HETATM   38  C31 UNL     1      -5.553  -3.522   2.496  1.00  0.00     0.035 A 
HETATM   39  C32 UNL     1      -4.480  -4.297   1.786  1.00  0.00     0.035 A 
ENDBRANCH  36  37
ENDBRANCH  22  36
ENDBRANCH  16  18
ENDBRANCH   1  16
BRANCH   8  40
HETATM   40  C16 UNL     1       5.881   1.921  -1.896  1.00  0.00     0.064 C 
BRANCH  40  41
HETATM   41  C17 UNL     1       7.104   1.178  -1.469  1.00  0.00     0.064 C 
BRANCH  41  42
HETATM   42  C18 UNL     1       6.953  -0.329  -1.500  1.00  0.00     0.122 C 
BRANCH  42  43
HETATM   43  N7  UNL     1       8.169  -0.937  -1.108  1.00  0.00    -0.409 N 
HETATM   44  C19 UNL     1       9.267  -0.832  -1.988  1.00  0.00     0.147 C 
HETATM   45  C20 UNL     1      10.538  -1.464  -1.484  1.00  0.00     0.291 C 
HETATM   46  N8  UNL     1      10.775  -1.051  -0.129  1.00  0.00     0.087 N 
HETATM   47  C21 UNL     1      10.920   0.370  -0.005  1.00  0.00     0.310 C 
HETATM   48  C22 UNL     1       9.717  -1.617   0.677  1.00  0.00     0.291 C 
HETATM   49  C23 UNL     1       8.416  -1.015   0.279  1.00  0.00     0.147 C 
ENDBRANCH  42  43
ENDBRANCH  41  42
ENDBRANCH  40  41
ENDBRANCH   8  40
TORSDOF 13
