REMARK  16 active torsions:
REMARK  status: ('A' for Active; 'I' for Inactive)
REMARK    1  A    between atoms: C2_2  and  C4_4 
REMARK    2  A    between atoms: C6_7  and  S2_8 
REMARK       I    between atoms: N1_13  and  C10_15 
REMARK    3  A    between atoms: C10_15  and  C11_17 
REMARK    4  A    between atoms: C11_17  and  C12_18 
REMARK    5  A    between atoms: C12_18  and  C14_20 
REMARK    6  A    between atoms: C14_20  and  C15_21 
REMARK    7  A    between atoms: C15_21  and  C16_23 
REMARK    8  A    between atoms: C16_23  and  C17_24 
REMARK    9  A    between atoms: C16_23  and  C21_28 
REMARK   10  A    between atoms: C17_24  and  C18_25 
REMARK   11  A    between atoms: C18_25  and  C19_26 
REMARK   12  A    between atoms: C21_28  and  O4_29 
REMARK   13  A    between atoms: O4_29  and  N2_30 
REMARK   14  A    between atoms: C22_32  and  O5_33 
REMARK   15  A    between atoms: C22_32  and  N3_35 
REMARK   16  A    between atoms: N3_35  and  C23_37 
ROOT
HETATM    1  C14 UNL     1       1.311   0.632  -0.290  1.00  0.00     0.083 C 
ENDROOT
BRANCH   1   2
HETATM    2  C12 UNL     1       0.056   0.376  -1.120  1.00  0.00    -0.003 C 
HETATM    3  C13 UNL     1       0.336  -0.641  -2.208  1.00  0.00     0.011 C 
BRANCH   2   4
HETATM    4  C11 UNL     1      -0.466   1.655  -1.716  1.00  0.00     0.108 C 
BRANCH   4   5
HETATM    5  C10 UNL     1      -1.728   1.455  -2.465  1.00  0.00     0.222 C 
HETATM    6  N1  UNL     1      -2.330   0.177  -2.472  1.00  0.00    -0.319 N 
HETATM    7  C9  UNL     1      -3.387  -0.063  -1.782  1.00  0.00     0.154 C 
ATOM      8  H1  UNL     1      -1.919  -0.568  -3.034  1.00  0.00     0.169 HD
HETATM    9  C8  UNL     1      -4.057  -1.356  -1.746  1.00  0.00     0.231 C 
HETATM   10  C26 UNL     1      -4.142   0.843  -0.909  1.00  0.00     0.277 C 
HETATM   11  C6  UNL     1      -5.319  -1.159  -1.044  1.00  0.00     0.202 C 
HETATM   12  O1  UNL     1      -3.622  -2.422  -2.229  1.00  0.00    -0.286 OA
HETATM   13  S1  UNL     1      -5.513  -2.256   0.412  1.00  0.00    -0.116 SA
HETATM   14  N5  UNL     1      -5.229   0.122  -0.367  1.00  0.00    -0.303 N 
HETATM   15  C5  UNL     1      -6.051  -0.956   1.603  1.00  0.00     0.107 C 
HETATM   16  C4  UNL     1      -6.285   0.176   0.607  1.00  0.00     0.128 C 
HETATM   17  O6  UNL     1      -3.832   2.066  -0.706  1.00  0.00    -0.266 OA
HETATM   18  O2  UNL     1      -2.258   2.420  -3.090  1.00  0.00    -0.273 OA
BRANCH  11  19
HETATM   19  S2  UNL     1      -6.776  -1.233  -2.116  1.00  0.00    -0.123 SA
HETATM   20  C7  UNL     1      -6.974  -2.844  -2.872  1.00  0.00     0.093 C 
ENDBRANCH  11  19
BRANCH  16  21
HETATM   21  C2  UNL     1      -6.386   1.489   1.282  1.00  0.00    -0.070 C 
HETATM   22  C1  UNL     1      -7.504   2.193   1.149  1.00  0.00     0.016 C 
HETATM   23  C3  UNL     1      -5.300   2.052   2.096  1.00  0.00     0.044 C 
ENDBRANCH  16  21
ENDBRANCH   4   5
ENDBRANCH   2   4
ENDBRANCH   1   2
BRANCH   1  24
HETATM   24  C15 UNL     1       1.829  -0.611   0.305  1.00  0.00     0.133 C 
HETATM   25  O3  UNL     1       1.284  -1.679   0.055  1.00  0.00    -0.297 OA
BRANCH  24  26
HETATM   26  C16 UNL     1       2.993  -0.612   1.202  1.00  0.00     0.081 C 
BRANCH  26  27
HETATM   27  C17 UNL     1       2.728   0.289   2.417  1.00  0.00     0.014 C 
BRANCH  27  28
HETATM   28  C18 UNL     1       1.540  -0.190   3.187  1.00  0.00     0.000 C 
BRANCH  28  29
HETATM   29  C19 UNL     1       1.705  -1.592   3.713  1.00  0.00    -0.005 C 
HETATM   30  C20 UNL     1       2.872  -1.737   4.634  1.00  0.00     0.005 C 
ENDBRANCH  28  29
ENDBRANCH  27  28
ENDBRANCH  26  27
BRANCH  26  31
HETATM   31  C21 UNL     1       4.231  -0.178   0.481  1.00  0.00     0.213 C 
BRANCH  31  32
HETATM   32  O4  UNL     1       4.175   1.120  -0.053  1.00  0.00    -0.276 OA
BRANCH  32  33
HETATM   33  N2  UNL     1       5.199   1.700  -0.746  1.00  0.00    -0.230 N 
HETATM   34  C22 UNL     1       5.346   1.422  -1.991  1.00  0.00     0.243 C 
ATOM     35  H2  UNL     1       5.838   2.345  -0.281  1.00  0.00     0.198 HD
BRANCH  34  36
HETATM   36  O5  UNL     1       4.457   0.530  -2.617  1.00  0.00    -0.331 OA
ATOM     37  H5  UNL     1       4.566   0.324  -3.538  1.00  0.00     0.221 HD
ENDBRANCH  34  36
BRANCH  34  38
HETATM   38  N3  UNL     1       6.408   2.028  -2.699  1.00  0.00    -0.301 N 
ATOM     39  H3  UNL     1       6.273   2.894  -3.221  1.00  0.00     0.171 HD
BRANCH  38  40
HETATM   40  C23 UNL     1       7.579   1.427  -2.657  1.00  0.00     0.151 A 
HETATM   41  N4  UNL     1       7.908   0.302  -2.027  1.00  0.00    -0.346 N 
HETATM   42  C24 UNL     1       9.134  -0.131  -2.110  1.00  0.00     0.097 A 
ATOM     43  H4  UNL     1       7.212  -0.213  -1.488  1.00  0.00     0.167 HD
HETATM   44  C25 UNL     1      10.023   0.604  -2.851  1.00  0.00     0.070 A 
HETATM   45  S3  UNL     1       9.049   1.893  -3.396  1.00  0.00    -0.064 SA
ENDBRANCH  38  40
ENDBRANCH  34  38
ENDBRANCH  32  33
ENDBRANCH  31  32
ENDBRANCH  26  31
ENDBRANCH  24  26
ENDBRANCH   1  24
TORSDOF 16
