REMARK  12 active torsions:
REMARK  status: ('A' for Active; 'I' for Inactive)
REMARK    1  A    between atoms: C3_4  and  N2_5 
REMARK       I    between atoms: N2_5  and  C4_7 
REMARK    2  A    between atoms: C4_7  and  C5_9 
REMARK    3  A    between atoms: C10_18  and  C11_19 
REMARK       I    between atoms: C11_19  and  N5_21 
REMARK    4  A    between atoms: N5_21  and  C12_23 
REMARK    5  A    between atoms: N6_26  and  C15_27 
REMARK    6  A    between atoms: C15_27  and  C16_28 
REMARK       I    between atoms: C16_28  and  N7_30 
REMARK    7  A    between atoms: N8_33  and  C19_34 
REMARK    8  A    between atoms: C19_34  and  C20_35 
REMARK    9  A    between atoms: C20_35  and  C21_36 
REMARK   10  A    between atoms: C21_36  and  C22_37 
REMARK   11  A    between atoms: C22_37  and  C23_38 
REMARK   12  A    between atoms: C23_38  and  N9_39 
ROOT
HETATM    1  C12 UNL     1       3.787  -0.387  -0.752  1.00  0.00     0.052 A 
HETATM    2  C13 UNL     1       3.273  -0.231  -2.044  1.00  0.00     0.048 A 
HETATM    3  C14 UNL     1       1.906  -0.360  -1.976  1.00  0.00     0.093 A 
HETATM    4  N6  UNL     1       1.542  -0.588  -0.711  1.00  0.00    -0.355 N 
HETATM    5  C31 UNL     1       2.682  -0.604   0.029  1.00  0.00     0.120 A 
ENDROOT
BRANCH   1   6
HETATM    6  N5  UNL     1       5.160  -0.307  -0.480  1.00  0.00    -0.320 N 
HETATM    7  C11 UNL     1       5.724  -0.525   0.804  1.00  0.00     0.273 C 
HETATM    8  O2  UNL     1       5.003  -0.809   1.791  1.00  0.00    -0.266 OA
ATOM      9  H5  UNL     1       5.790  -0.079  -1.249  1.00  0.00     0.169 HD
BRANCH   7  10
HETATM   10  C10 UNL     1       7.179  -0.418   0.990  1.00  0.00     0.105 A 
HETATM   11  N1  UNL     1       7.888  -0.615   2.105  1.00  0.00    -0.354 N 
HETATM   12  C1  UNL     1       7.298  -0.991   3.390  1.00  0.00     0.156 C 
HETATM   13  C2  UNL     1       9.218  -0.411   1.841  1.00  0.00     0.120 A 
HETATM   14  C3  UNL     1       9.357  -0.077   0.535  1.00  0.00     0.053 A 
HETATM   15  C9  UNL     1       8.060  -0.083   0.001  1.00  0.00     0.066 A 
BRANCH  14  16
HETATM   16  N2  UNL     1      10.531   0.216  -0.183  1.00  0.00    -0.320 N 
HETATM   17  C4  UNL     1      11.818   0.098   0.363  1.00  0.00     0.274 C 
HETATM   18  O1  UNL     1      12.002  -0.292   1.562  1.00  0.00    -0.266 OA
ATOM     19  H2  UNL     1      10.442   0.530  -1.149  1.00  0.00     0.169 HD
BRANCH  17  20
HETATM   20  C5  UNL     1      13.008   0.419  -0.426  1.00  0.00     0.116 A 
HETATM   21  C6  UNL     1      12.968   0.869  -1.706  1.00  0.00     0.122 A 
HETATM   22  N3  UNL     1      14.126   1.134  -2.352  1.00  0.00    -0.372 N 
HETATM   23  C7  UNL     1      15.309   0.957  -1.746  1.00  0.00     0.104 A 
ATOM     24  H3  UNL     1      14.099   1.473  -3.314  1.00  0.00     0.164 HD
HETATM   25  C8  UNL     1      15.352   0.506  -0.463  1.00  0.00     0.105 A 
HETATM   26  N4  UNL     1      14.215   0.240   0.189  1.00  0.00    -0.359 N 
ATOM     27  H4  UNL     1      14.249  -0.098   1.151  1.00  0.00     0.165 HD
ENDBRANCH  17  20
ENDBRANCH  14  16
ENDBRANCH   7  10
ENDBRANCH   1   6
BRANCH   4  28
HETATM   28  C15 UNL     1       0.240  -0.790  -0.153  1.00  0.00     0.230 C 
BRANCH  28  29
HETATM   29  C16 UNL     1      -0.322   0.527   0.241  1.00  0.00     0.238 C 
HETATM   30  O3  UNL     1       0.357   1.585   0.042  1.00  0.00    -0.272 OA
HETATM   31  N7  UNL     1      -1.599   0.591   0.831  1.00  0.00    -0.341 N 
HETATM   32  C17 UNL     1      -2.363  -0.607   1.063  1.00  0.00     0.146 C 
HETATM   33  C30 UNL     1      -2.162   1.853   1.210  1.00  0.00     0.228 C 
HETATM   34  C18 UNL     1      -3.743  -0.530   0.485  1.00  0.00     0.145 C 
HETATM   35  N8  UNL     1      -4.356   0.715   0.837  1.00  0.00    -0.349 N 
HETATM   36  C29 UNL     1      -3.628   1.711   1.513  1.00  0.00     0.237 C 
HETATM   37  O4  UNL     1      -4.177   2.466   2.349  1.00  0.00    -0.272 OA
BRANCH  35  38
HETATM   38  C19 UNL     1      -5.779   1.024   0.504  1.00  0.00     0.129 C 
BRANCH  38  39
HETATM   39  C20 UNL     1      -5.799   1.646  -0.836  1.00  0.00     0.047 C 
BRANCH  39  40
HETATM   40  C21 UNL     1      -7.034   2.183  -1.371  1.00  0.00    -0.024 C 
BRANCH  40  41
HETATM   41  C22 UNL     1      -8.263   1.484  -1.684  1.00  0.00     0.007 C 
BRANCH  41  42
HETATM   42  C23 UNL     1      -9.156   0.812  -0.757  1.00  0.00     0.059 C 
BRANCH  42  43
HETATM   43  N9  UNL     1      -8.786  -0.325  -0.031  1.00  0.00    -0.293 NA
HETATM   44  C24 UNL     1      -8.604  -1.521  -0.827  1.00  0.00     0.095 C 
HETATM   45  C25 UNL     1      -9.519  -2.624  -0.347  1.00  0.00     0.015 C 
HETATM   46  C26 UNL     1     -10.915  -2.054  -0.259  1.00  0.00     0.002 C 
HETATM   47  C27 UNL     1     -10.919  -1.092   0.912  1.00  0.00     0.015 C 
HETATM   48  C28 UNL     1      -9.535  -0.546   1.184  1.00  0.00     0.095 C 
ENDBRANCH  42  43
ENDBRANCH  41  42
ENDBRANCH  40  41
ENDBRANCH  39  40
ENDBRANCH  38  39
ENDBRANCH  35  38
ENDBRANCH  28  29
ENDBRANCH   4  28
TORSDOF 12
