REMARK  14 active torsions:
REMARK  status: ('A' for Active; 'I' for Inactive)
REMARK    1  A    between atoms: C2_2  and  C3_3 
REMARK    2  A    between atoms: C3_3  and  C4_4 
REMARK    3  A    between atoms: C4_4  and  O1_5 
REMARK    4  A    between atoms: O1_5  and  C5_6 
REMARK    5  A    between atoms: C7_8  and  C8_9 
REMARK    6  A    between atoms: C8_9  and  C9_10 
REMARK       I    between atoms: C9_10  and  N1_12 
REMARK    7  A    between atoms: N1_12  and  C10_14 
REMARK    8  A    between atoms: C11_19  and  C12_20 
REMARK    9  A    between atoms: C12_20  and  C13_21 
REMARK   10  A    between atoms: C14_22  and  C15_23 
REMARK   11  A    between atoms: C15_23  and  C16_24 
REMARK   12  A    between atoms: C19_27  and  N4_28 
REMARK       I    between atoms: N4_28  and  C20_30 
REMARK   13  A    between atoms: C20_30  and  C21_32 
REMARK   14  A    between atoms: C21_32  and  C22_33 
ROOT
HETATM    1  C13 UNL     1       0.613  -2.830  -1.519  1.00  0.00    -0.019 C 
HETATM    2  C14 UNL     1      -0.439  -3.803  -1.674  1.00  0.00    -0.001 C 
ENDROOT
BRANCH   1   3
HETATM    3  C12 UNL     1       0.414  -1.472  -0.947  1.00  0.00     0.105 C 
BRANCH   3   4
HETATM    4  C11 UNL     1       1.805  -0.815  -0.895  1.00  0.00     0.117 A 
HETATM    5  N3  UNL     1       2.406  -0.080  -1.821  1.00  0.00    -0.274 N 
HETATM    6  N2  UNL     1       3.643   0.235  -1.405  1.00  0.00    -0.130 N 
ATOM      7  H3  UNL     1       1.993   0.202  -2.710  1.00  0.00     0.189 HD
HETATM    8  C10 UNL     1       3.796  -0.324  -0.188  1.00  0.00     0.702 A 
ATOM      9  H2  UNL     1       4.333   0.790  -1.912  1.00  0.00     0.205 HD
HETATM   10  N8  UNL     1       2.627  -0.988   0.134  1.00  0.00    -0.173 N 
HETATM   11  C31 UNL     1       2.403  -1.717   1.354  1.00  0.00     0.177 C 
BRANCH   8  12
HETATM   12  N1  UNL     1       4.807  -0.369   0.586  1.00  0.00    -0.158 N 
HETATM   13  C9  UNL     1       6.050   0.185   0.310  1.00  0.00     0.242 C 
HETATM   14  O2  UNL     1       6.665  -0.098  -0.770  1.00  0.00    -0.272 OA
ATOM     15  H1  UNL     1       4.694  -0.850   1.479  1.00  0.00     0.187 HD
BRANCH  13  16
HETATM   16  C8  UNL     1       6.677   1.117   1.291  1.00  0.00     0.170 C 
BRANCH  16  17
HETATM   17  C7  UNL     1       8.096   1.335   0.817  1.00  0.00     0.089 A 
HETATM   18  C6  UNL     1       9.137   0.437   1.080  1.00  0.00     0.093 A 
HETATM   19  C5  UNL     1      10.302   0.964   0.489  1.00  0.00     0.165 A 
HETATM   20  N9  UNL     1       9.884   2.108  -0.070  1.00  0.00    -0.239 N 
HETATM   21  O4  UNL     1       8.606   2.296   0.135  1.00  0.00    -0.240 OA
ATOM     22  H9  UNL     1      10.485   2.749  -0.588  1.00  0.00     0.197 HD
BRANCH  19  23
HETATM   23  O1  UNL     1      11.545   0.350   0.534  1.00  0.00    -0.334 OA
BRANCH  23  24
HETATM   24  C4  UNL     1      12.701   0.872  -0.046  1.00  0.00     0.177 C 
BRANCH  24  25
HETATM   25  C3  UNL     1      13.106   2.218   0.537  1.00  0.00     0.026 C 
BRANCH  25  26
HETATM   26  C2  UNL     1      13.366   2.083   2.026  1.00  0.00    -0.002 C 
HETATM   27  C1  UNL     1      13.789   3.401   2.633  1.00  0.00     0.005 C 
ENDBRANCH  25  26
ENDBRANCH  24  25
ENDBRANCH  23  24
ENDBRANCH  19  23
ENDBRANCH  16  17
ENDBRANCH  13  16
ENDBRANCH   8  12
ENDBRANCH   3   4
ENDBRANCH   1   3
BRANCH   2  28
HETATM   28  C15 UNL     1      -1.604  -3.667  -2.523  1.00  0.00     0.030 C 
BRANCH  28  29
HETATM   29  C16 UNL     1      -2.621  -2.647  -2.324  1.00  0.00     0.048 A 
HETATM   30  C17 UNL     1      -2.630  -1.460  -2.997  1.00  0.00     0.035 A 
HETATM   31  C18 UNL     1      -3.648  -0.561  -2.813  1.00  0.00     0.052 A 
HETATM   32  C19 UNL     1      -4.711  -0.847  -1.920  1.00  0.00     0.122 A 
HETATM   33  N6  UNL     1      -4.636  -2.023  -1.294  1.00  0.00    -0.285 N 
HETATM   34  N7  UNL     1      -3.662  -2.894  -1.463  1.00  0.00    -0.299 N 
ATOM     35  H6  UNL     1      -5.382  -2.264  -0.641  1.00  0.00     0.188 HD
ATOM     36  H7  UNL     1      -3.682  -3.771  -0.943  1.00  0.00     0.187 HD
BRANCH  32  37
HETATM   37  N4  UNL     1      -5.606  -0.008  -1.833  1.00  0.00    -0.312 N 
HETATM   38  C20 UNL     1      -6.787   0.231  -1.187  1.00  0.00     0.228 C 
HETATM   39  O3  UNL     1      -6.948   1.362  -0.633  1.00  0.00    -0.273 OA
ATOM     40  H4  UNL     1      -5.396   0.775  -2.453  1.00  0.00     0.170 HD
BRANCH  38  41
HETATM   41  C21 UNL     1      -7.873  -0.763  -1.114  1.00  0.00     0.160 C 
BRANCH  41  42
HETATM   42  C22 UNL     1      -9.034  -0.163  -0.371  1.00  0.00     0.018 A 
HETATM   43  C23 UNL     1     -10.081   0.425  -1.069  1.00  0.00     0.033 A 
HETATM   44  C24 UNL     1     -11.176   0.960  -0.377  1.00  0.00    -0.048 A 
HETATM   45  C25 UNL     1     -11.226   0.912   0.987  1.00  0.00    -0.030 A 
HETATM   46  C30 UNL     1     -12.402   1.613  -0.910  1.00  0.00     0.039 C 
HETATM   47  C26 UNL     1     -10.158   0.315   1.665  1.00  0.00     0.012 A 
HETATM   48  C28 UNL     1     -12.476   1.538   1.479  1.00  0.00     0.041 C 
HETATM   49  C27 UNL     1     -10.226   0.265   3.143  1.00  0.00     0.068 C 
HETATM   50  N5  UNL     1      -9.134  -0.184   0.966  1.00  0.00    -0.362 N 
ATOM     51  H5  UNL     1      -8.371  -0.613   1.489  1.00  0.00     0.165 HD
HETATM   52  C29 UNL     1     -12.874   2.420   0.285  1.00  0.00     0.009 C 
ENDBRANCH  41  42
ENDBRANCH  38  41
ENDBRANCH  32  37
ENDBRANCH  28  29
ENDBRANCH   2  28
TORSDOF 14
