REMARK  15 active torsions:
REMARK  status: ('A' for Active; 'I' for Inactive)
REMARK    1  A    between atoms: C3_3  and  C4_4 
REMARK    2  A    between atoms: C4_4  and  O1_5 
REMARK    3  A    between atoms: O1_5  and  C5_6 
REMARK    4  A    between atoms: C6_7  and  C7_8 
REMARK    5  A    between atoms: C8_9  and  C9_10 
REMARK    6  A    between atoms: N2_17  and  C14_18 
REMARK    7  A    between atoms: C16_20  and  N3_21 
REMARK    8  A    between atoms: C17_23  and  C18_24 
REMARK    9  A    between atoms: C18_24  and  O2_25 
REMARK   10  A    between atoms: C21_34  and  C22_35 
REMARK   11  A    between atoms: C27_40  and  C28_41 
REMARK       I    between atoms: C28_41  and  N7_43 
REMARK   12  A    between atoms: N7_43  and  C29_45 
REMARK   13  A    between atoms: C29_45  and  C30_46 
REMARK   14  A    between atoms: C30_46  and  C31_47 
REMARK   15  A    between atoms: C31_47  and  N8_48 
ROOT
HETATM    1  C1  UNL     1      -0.791   3.431   2.828  1.00  0.00     0.112 C 
HETATM    2  C2  UNL     1      -0.481   2.326   1.900  1.00  0.00    -0.109 C 
HETATM    3  C3  UNL     1      -0.244   1.411   1.158  1.00  0.00    -0.080 C 
ENDROOT
BRANCH   3   4
HETATM    4  C4  UNL     1       0.014   0.280   0.246  1.00  0.00     0.269 C 
BRANCH   4   5
HETATM    5  O1  UNL     1       0.033   0.689  -1.082  1.00  0.00    -0.334 OA
BRANCH   5   6
HETATM    6  C5  UNL     1       0.243  -0.170  -2.130  1.00  0.00     0.133 A 
HETATM    7  C6  UNL     1      -0.895  -0.899  -2.579  1.00  0.00     0.124 A 
HETATM    8  N5  UNL     1      -0.762  -1.743  -3.600  1.00  0.00    -0.343 N 
HETATM    9  C20 UNL     1       0.423  -1.913  -4.204  1.00  0.00     0.182 A 
ATOM     10  H5  UNL     1      -1.573  -2.268  -3.927  1.00  0.00     0.167 HD
HETATM   11  N6  UNL     1       1.484  -1.229  -3.780  1.00  0.00    -0.349 N 
HETATM   12  C21 UNL     1       1.442  -0.331  -2.728  1.00  0.00     0.080 A 
ATOM     13  H6  UNL     1       2.374  -1.375  -4.256  1.00  0.00     0.166 HD
BRANCH   7  14
HETATM   14  C7  UNL     1      -2.170  -0.710  -1.904  1.00  0.00    -0.039 C 
HETATM   15  C8  UNL     1      -3.219  -0.582  -1.323  1.00  0.00    -0.042 C 
BRANCH  15  16
HETATM   16  C9  UNL     1      -4.462  -0.450  -0.591  1.00  0.00     0.090 A 
HETATM   17  C10 UNL     1      -4.371  -0.590   0.787  1.00  0.00     0.071 A 
HETATM   18  C11 UNL     1      -5.506  -0.484   1.546  1.00  0.00     0.069 A 
HETATM   19  C12 UNL     1      -6.685  -0.246   0.923  1.00  0.00     0.105 A 
HETATM   20  N2  UNL     1      -5.702  -0.577   2.896  1.00  0.00    -0.341 N 
HETATM   21  N1  UNL     1      -7.631  -0.188   1.892  1.00  0.00    -0.347 N 
HETATM   22  C16 UNL     1      -6.819  -0.097  -0.477  1.00  0.00     0.135 A 
HETATM   23  C13 UNL     1      -7.014  -0.391   3.076  1.00  0.00     0.184 A 
ATOM     24  H1  UNL     1      -8.628  -0.021   1.752  1.00  0.00     0.167 HD
HETATM   25  N4  UNL     1      -5.638  -0.216  -1.164  1.00  0.00    -0.333 N 
ATOM     26  H4  UNL     1      -5.664  -0.119  -2.179  1.00  0.00     0.168 HD
BRANCH  22  27
HETATM   27  N3  UNL     1      -7.902   0.118  -0.991  1.00  0.00    -0.352 N 
HETATM   28  C17 UNL     1      -8.735   0.339  -2.025  1.00  0.00     0.088 C 
ATOM     29  H3  UNL     1      -8.530   0.147  -0.187  1.00  0.00     0.166 HD
BRANCH  28  30
HETATM   30  C18 UNL     1     -10.216   0.063  -1.733  1.00  0.00     0.211 C 
BRANCH  30  31
HETATM   31  O2  UNL     1     -10.360  -1.269  -1.370  1.00  0.00    -0.391 OA
HETATM   32  C19 UNL     1     -11.690  -1.555  -1.088  1.00  0.00     0.201 C 
ENDBRANCH  30  31
ENDBRANCH  28  30
ENDBRANCH  22  27
BRANCH  20  33
HETATM   33  C14 UNL     1      -4.663  -0.821   3.861  1.00  0.00     0.125 C 
HETATM   34  C15 UNL     1      -4.503  -2.312   4.074  1.00  0.00     0.027 C 
ENDBRANCH  20  33
ENDBRANCH  15  16
ENDBRANCH   7  14
BRANCH  12  35
HETATM   35  C22 UNL     1       2.630   0.423  -2.419  1.00  0.00    -0.005 A 
HETATM   36  C23 UNL     1       3.186   1.168  -3.480  1.00  0.00     0.020 A 
HETATM   37  C24 UNL     1       4.336   1.903  -3.368  1.00  0.00    -0.060 A 
HETATM   38  C25 UNL     1       4.869   2.680  -4.559  1.00  0.00     0.048 C 
HETATM   39  C26 UNL     1       5.006   1.937  -2.171  1.00  0.00     0.024 A 
HETATM   40  C27 UNL     1       4.516   1.233  -1.099  1.00  0.00     0.033 A 
HETATM   41  C34 UNL     1       3.335   0.495  -1.263  1.00  0.00     0.030 A 
BRANCH  40  42
HETATM   42  C28 UNL     1       5.167   1.249   0.199  1.00  0.00     0.251 C 
HETATM   43  O3  UNL     1       5.145   2.313   0.886  1.00  0.00    -0.268 OA
HETATM   44  N7  UNL     1       5.822   0.080   0.699  1.00  0.00    -0.357 N 
ATOM     45  H7  UNL     1       5.828  -0.764   0.126  1.00  0.00     0.162 HD
BRANCH  44  46
HETATM   46  C29 UNL     1       6.471   0.054   1.978  1.00  0.00     0.124 C 
BRANCH  46  47
HETATM   47  C30 UNL     1       7.079  -1.303   2.229  1.00  0.00     0.050 C 
BRANCH  47  48
HETATM   48  C31 UNL     1       8.097  -1.590   1.168  1.00  0.00     0.273 C 
BRANCH  48  49
HETATM   49  N8  UNL     1       9.163  -0.576   1.181  1.00  0.00     0.080 N 
HETATM   50  C32 UNL     1      10.100  -0.897   0.098  1.00  0.00     0.309 C 
HETATM   51  C33 UNL     1       9.924  -0.738   2.424  1.00  0.00     0.309 C 
ENDBRANCH  48  49
ENDBRANCH  47  48
ENDBRANCH  46  47
ENDBRANCH  44  46
ENDBRANCH  40  42
ENDBRANCH  12  35
ENDBRANCH   5   6
ENDBRANCH   4   5
ENDBRANCH   3   4
TORSDOF 15
