REMARK  12 active torsions:
REMARK  status: ('A' for Active; 'I' for Inactive)
REMARK    1  A    between atoms: C2_2  and  C3_3 
REMARK    2  A    between atoms: C2_2  and  C12_14 
REMARK    3  A    between atoms: C3_3  and  C4_4 
REMARK    4  A    between atoms: C4_4  and  C5_5 
REMARK    5  A    between atoms: C5_5  and  N1_6 
REMARK       I    between atoms: C12_14  and  N3_16 
REMARK    6  A    between atoms: C14_23  and  C15_24 
REMARK    7  A    between atoms: C15_24  and  C16_25 
REMARK    8  A    between atoms: C16_25  and  S1_26 
REMARK    9  A    between atoms: S1_26  and  C17_27 
REMARK   10  A    between atoms: C17_27  and  C18_28 
REMARK   11  A    between atoms: C18_28  and  C19_29 
REMARK       I    between atoms: N8_35  and  C21_37 
REMARK   12  A    between atoms: C21_37  and  C22_39 
ROOT
HETATM    1  C12 UNL     1      -4.134  -0.944   3.123  1.00  0.00     0.227 C 
HETATM    2  O1  UNL     1      -4.265   0.275   2.924  1.00  0.00    -0.273 OA
HETATM    3  N3  UNL     1      -2.859  -1.445   3.375  1.00  0.00    -0.306 N 
ATOM      4  H3  UNL     1      -2.811  -2.202   4.057  1.00  0.00     0.171 HD
HETATM    5  C13 UNL     1      -1.735  -1.085   2.867  1.00  0.00     0.167 A 
HETATM    6  N4  UNL     1      -1.452  -0.139   1.960  1.00  0.00    -0.279 N 
ATOM      7  H4  UNL     1      -2.197   0.427   1.554  1.00  0.00     0.189 HD
HETATM    8  N5  UNL     1      -0.251   0.042   1.615  1.00  0.00    -0.296 N 
ATOM      9  H5  UNL     1      -0.030   0.759   0.924  1.00  0.00     0.187 HD
HETATM   10  C14 UNL     1       0.722  -0.681   2.133  1.00  0.00     0.070 A 
HETATM   11  S3  UNL     1      -0.148  -1.700   3.194  1.00  0.00    -0.038 SA
ENDROOT
BRANCH  10  12
HETATM   12  C15 UNL     1       2.222  -0.639   1.871  1.00  0.00     0.076 C 
BRANCH  12  13
HETATM   13  C16 UNL     1       2.438  -1.609   0.740  1.00  0.00     0.080 C 
BRANCH  13  14
HETATM   14  S1  UNL     1       4.108  -1.766   0.183  1.00  0.00    -0.168 SA
BRANCH  14  15
HETATM   15  C17 UNL     1       5.199  -2.579   1.302  1.00  0.00     0.080 C 
BRANCH  15  16
HETATM   16  C18 UNL     1       5.534  -1.814   2.547  1.00  0.00     0.076 C 
BRANCH  16  17
HETATM   17  C19 UNL     1       6.173  -0.516   2.110  1.00  0.00     0.070 A 
HETATM   18  N6  UNL     1       6.641   0.463   2.867  1.00  0.00    -0.296 N 
HETATM   19  N7  UNL     1       7.151   1.496   2.339  1.00  0.00    -0.279 N 
ATOM     20  H6  UNL     1       6.591   0.386   3.883  1.00  0.00     0.187 HD
HETATM   21  C20 UNL     1       7.204   1.576   1.003  1.00  0.00     0.167 A 
ATOM     22  H7  UNL     1       7.514   2.252   2.920  1.00  0.00     0.189 HD
HETATM   23  N8  UNL     1       7.687   2.549   0.258  1.00  0.00    -0.306 N 
HETATM   24  S2  UNL     1       6.488   0.094   0.539  1.00  0.00    -0.038 SA
HETATM   25  C21 UNL     1       7.596   2.331  -1.136  1.00  0.00     0.227 C 
ATOM     26  H8  UNL     1       8.095   3.395   0.656  1.00  0.00     0.171 HD
HETATM   27  O2  UNL     1       6.715   2.926  -1.789  1.00  0.00    -0.273 OA
BRANCH  25  28
HETATM   28  C22 UNL     1       8.525   1.414  -1.818  1.00  0.00     0.078 C 
HETATM   29  C23 UNL     1       8.122   1.317  -3.276  1.00  0.00     0.014 C 
HETATM   30  C24 UNL     1       9.269   1.329  -4.222  1.00  0.00     0.001 C 
HETATM   31  C25 UNL     1      10.450   0.524  -3.760  1.00  0.00     0.000 C 
HETATM   32  C26 UNL     1      10.865   0.853  -2.341  1.00  0.00     0.001 C 
HETATM   33  C27 UNL     1       9.964   1.910  -1.738  1.00  0.00     0.014 C 
ENDBRANCH  25  28
ENDBRANCH  16  17
ENDBRANCH  15  16
ENDBRANCH  14  15
ENDBRANCH  13  14
ENDBRANCH  12  13
ENDBRANCH  10  12
BRANCH   1  34
HETATM   34  C2  UNL     1      -5.344  -1.819   3.087  1.00  0.00     0.074 C 
HETATM   35  C1  UNL     1      -5.389  -2.572   4.458  1.00  0.00     0.020 C 
BRANCH  34  36
HETATM   36  C3  UNL     1      -6.585  -1.032   3.048  1.00  0.00     0.015 C 
BRANCH  36  37
HETATM   37  C4  UNL     1      -6.923  -0.210   1.874  1.00  0.00     0.031 C 
BRANCH  37  38
HETATM   38  C5  UNL     1      -7.037  -1.000   0.590  1.00  0.00     0.272 C 
BRANCH  38  39
HETATM   39  N1  UNL     1      -7.422  -0.168  -0.529  1.00  0.00     0.090 N 
HETATM   40  C6  UNL     1      -7.548  -0.910  -1.751  1.00  0.00     0.274 C 
HETATM   41  C7  UNL     1      -6.765  -0.187  -2.823  1.00  0.00     0.060 C 
HETATM   42  C8  UNL     1      -7.486   1.027  -3.349  1.00  0.00     0.273 C 
HETATM   43  N2  UNL     1      -7.827   1.915  -2.253  1.00  0.00     0.086 N 
HETATM   44  C9  UNL     1      -8.007   3.282  -2.713  1.00  0.00     0.309 C 
HETATM   45  C10 UNL     1      -8.949   1.418  -1.487  1.00  0.00     0.302 C 
HETATM   46  C11 UNL     1      -8.479   0.735  -0.228  1.00  0.00     0.302 C 
ENDBRANCH  38  39
ENDBRANCH  37  38
ENDBRANCH  36  37
ENDBRANCH  34  36
ENDBRANCH   1  34
TORSDOF 12
