REMARK  16 active torsions:
REMARK  status: ('A' for Active; 'I' for Inactive)
REMARK    1  A    between atoms: C2_2  and  O1_3 
REMARK    2  A    between atoms: O1_3  and  C3_4 
REMARK    3  A    between atoms: C3_4  and  C4_6 
REMARK    4  A    between atoms: C4_6  and  C5_7 
REMARK    5  A    between atoms: C4_6  and  C20_30 
REMARK    6  A    between atoms: C5_7  and  C6_8 
REMARK    7  A    between atoms: C6_8  and  C7_9 
REMARK       I    between atoms: C7_9  and  N1_11 
REMARK    8  A    between atoms: C10_14  and  C11_15 
REMARK    9  A    between atoms: C10_14  and  C17_25 
REMARK   10  A    between atoms: C11_15  and  O4_16 
REMARK   11  A    between atoms: O4_16  and  C12_17 
REMARK   12  A    between atoms: C12_17  and  C13_19 
REMARK   13  A    between atoms: C13_19  and  C14_20 
REMARK   14  A    between atoms: C14_20  and  O6_23 
REMARK   15  A    between atoms: C20_30  and  O9_32 
REMARK   16  A    between atoms: O9_32  and  C21_33 
ROOT
HETATM    1  C5  UNL     1      -0.872  -1.156  -0.934  1.00  0.00     0.034 C 
ENDROOT
BRANCH   1   2
HETATM    2  C4  UNL     1      -1.519  -1.881   0.190  1.00  0.00     0.185 C 
BRANCH   2   3
HETATM    3  C3  UNL     1      -1.341  -3.330   0.215  1.00  0.00     0.272 C 
HETATM    4  O2  UNL     1      -0.764  -3.938  -0.702  1.00  0.00    -0.264 OA
BRANCH   3   5
HETATM    5  O1  UNL     1      -1.824  -4.074   1.281  1.00  0.00    -0.321 OA
BRANCH   5   6
HETATM    6  C2  UNL     1      -1.684  -5.479   1.358  1.00  0.00     0.174 C 
HETATM    7  C1  UNL     1      -2.323  -5.921   2.651  1.00  0.00     0.034 C 
ENDBRANCH   5   6
ENDBRANCH   3   5
ENDBRANCH   2   3
BRANCH   2   8
HETATM    8  C20 UNL     1      -2.950  -1.482   0.219  1.00  0.00     0.273 C 
HETATM    9  O8  UNL     1      -3.803  -2.394   0.306  1.00  0.00    -0.264 OA
BRANCH   8  10
HETATM   10  O9  UNL     1      -3.424  -0.209   0.160  1.00  0.00    -0.314 OA
BRANCH  10  11
HETATM   11  C21 UNL     1      -4.799   0.176   0.190  1.00  0.00     0.144 C 
HETATM   12  C22 UNL     1      -5.275   0.723  -1.106  1.00  0.00     0.016 C 
HETATM   13  C23 UNL     1      -6.023  -0.305  -1.961  1.00  0.00     0.013 C 
HETATM   14  C24 UNL     1      -6.202   1.904  -1.005  1.00  0.00    -0.004 C 
HETATM   15  C25 UNL     1      -7.617   1.536  -0.726  1.00  0.00     0.038 C 
HETATM   16  C30 UNL     1      -5.717   2.905  -0.014  1.00  0.00     0.014 C 
HETATM   17  C26 UNL     1      -8.085   1.822   0.654  1.00  0.00    -0.087 C 
HETATM   18  C27 UNL     1      -9.568   1.741   0.950  1.00  0.00     0.043 C 
HETATM   19  C28 UNL     1      -7.261   2.149   1.641  1.00  0.00    -0.019 C 
HETATM   20  C29 UNL     1      -5.804   2.225   1.327  1.00  0.00     0.019 C 
HETATM   21  C31 UNL     1      -5.154   0.911   1.429  1.00  0.00    -0.014 C 
HETATM   22  C32 UNL     1      -3.857   1.106   2.238  1.00  0.00     0.018 C 
HETATM   23  C33 UNL     1      -6.039   0.079   2.381  1.00  0.00     0.018 C 
ENDBRANCH  10  11
ENDBRANCH   8  10
ENDBRANCH   2   8
ENDBRANCH   1   2
BRANCH   1  24
HETATM   24  C6  UNL     1       0.607  -1.275  -1.031  1.00  0.00     0.104 C 
BRANCH  24  25
HETATM   25  C7  UNL     1       1.138  -0.506  -2.181  1.00  0.00     0.219 C 
HETATM   26  O3  UNL     1       0.383   0.197  -2.886  1.00  0.00    -0.273 OA
HETATM   27  N1  UNL     1       2.522  -0.539  -2.521  1.00  0.00    -0.352 N 
HETATM   28  C8  UNL     1       3.439  -1.341  -1.738  1.00  0.00     0.127 C 
HETATM   29  C19 UNL     1       3.056   0.205  -3.640  1.00  0.00     0.127 C 
HETATM   30  C9  UNL     1       4.573  -0.498  -1.265  1.00  0.00     0.041 C 
HETATM   31  C10 UNL     1       5.145   0.414  -2.316  1.00  0.00     0.063 C 
HETATM   32  C18 UNL     1       4.134   1.124  -3.143  1.00  0.00     0.041 C 
BRANCH  31  33
HETATM   33  C11 UNL     1       5.912   1.501  -1.542  1.00  0.00     0.197 C 
BRANCH  33  34
HETATM   34  O4  UNL     1       6.937   0.900  -0.773  1.00  0.00    -0.320 OA
BRANCH  34  35
HETATM   35  C12 UNL     1       7.735   1.724   0.009  1.00  0.00     0.261 C 
HETATM   36  O5  UNL     1       7.551   2.968   0.036  1.00  0.00    -0.265 OA
BRANCH  35  37
HETATM   37  C13 UNL     1       8.841   1.196   0.851  1.00  0.00     0.148 C 
BRANCH  37  38
HETATM   38  C14 UNL     1       8.552   1.375   2.307  1.00  0.00     0.059 C 
HETATM   39  C15 UNL     1       8.361   2.804   2.719  1.00  0.00     0.045 C 
HETATM   40  C16 UNL     1       7.292   0.594   2.631  1.00  0.00     0.045 C 
BRANCH  38  41
HETATM   41  O6  UNL     1       9.591   0.825   3.062  1.00  0.00    -0.390 OA
ATOM     42  H6  UNL     1       9.407   0.939   3.987  1.00  0.00     0.210 HD
ENDBRANCH  38  41
ENDBRANCH  37  38
ENDBRANCH  35  37
ENDBRANCH  34  35
ENDBRANCH  33  34
ENDBRANCH  31  33
BRANCH  31  43
HETATM   43  C17 UNL     1       6.128  -0.253  -3.175  1.00  0.00     0.242 C 
HETATM   44  N2  UNL     1       7.308  -0.882  -2.674  1.00  0.00    -0.061 NA
HETATM   45  O7  UNL     1       5.947  -0.287  -4.411  1.00  0.00    -0.276 OA
ENDBRANCH  31  43
ENDBRANCH  24  25
ENDBRANCH   1  24
TORSDOF 16
