REMARK  15 active torsions:
REMARK  status: ('A' for Active; 'I' for Inactive)
REMARK    1  A    between atoms: C2_2  and  C3_3 
REMARK    2  A    between atoms: C3_3  and  C4_4 
REMARK    3  A    between atoms: C4_4  and  C5_5 
REMARK    4  A    between atoms: C5_5  and  C6_6 
REMARK    5  A    between atoms: C6_6  and  C7_7 
REMARK    6  A    between atoms: C7_7  and  C8_8 
REMARK    7  A    between atoms: C8_8  and  C9_9 
REMARK    8  A    between atoms: C9_9  and  C10_10 
REMARK    9  A    between atoms: C10_10  and  O1_11 
REMARK   10  A    between atoms: C10_10  and  N1_13 
REMARK       I    between atoms: N2_16  and  C13_17 
REMARK   11  A    between atoms: C13_17  and  C14_19 
REMARK   12  A    between atoms: C14_19  and  C15_20 
REMARK   13  A    between atoms: N3_23  and  C18_24 
REMARK   14  A    between atoms: N6_35  and  C23_36 
REMARK   15  A    between atoms: N7_42  and  N8_43 
ROOT
HETATM    1  C15 UNL     1      -1.923  -0.977   0.197  1.00  0.00    -0.003 C 
HETATM    2  C16 UNL     1      -2.473  -1.001  -1.220  1.00  0.00     0.025 C 
HETATM    3  C17 UNL     1      -3.608   0.007  -1.222  1.00  0.00     0.141 C 
HETATM    4  N3  UNL     1      -4.421  -0.045  -0.038  1.00  0.00    -0.216 N 
HETATM    5  C28 UNL     1      -4.146  -0.798   1.160  1.00  0.00     0.141 C 
HETATM    6  C29 UNL     1      -2.958  -1.725   1.024  1.00  0.00     0.025 C 
ENDROOT
BRANCH   4   7
HETATM    7  C18 UNL     1      -5.614   0.724  -0.066  1.00  0.00     0.703 A 
HETATM    8  N4  UNL     1      -6.826   0.233  -0.270  1.00  0.00    -0.172 N 
HETATM    9  C19 UNL     1      -7.743   1.243  -0.244  1.00  0.00     0.164 A 
ATOM     10  H4  UNL     1      -7.042  -0.752  -0.424  1.00  0.00     0.186 HD
HETATM   11  C20 UNL     1      -7.032   2.402  -0.011  1.00  0.00     0.186 A 
HETATM   12  N6  UNL     1      -9.078   1.262  -0.395  1.00  0.00    -0.255 N 
HETATM   13  C21 UNL     1      -7.735   3.577   0.059  1.00  0.00     0.282 A 
HETATM   14  N7  UNL     1      -5.743   2.062   0.093  1.00  0.00    -0.084 N 
HETATM   15  O3  UNL     1      -7.107   4.627   0.266  1.00  0.00    -0.265 OA
HETATM   16  N5  UNL     1      -9.093   3.582  -0.097  1.00  0.00    -0.273 N 
HETATM   17  C22 UNL     1      -9.748   2.413  -0.324  1.00  0.00     0.333 A 
ATOM     18  H5  UNL     1      -9.612   4.458  -0.043  1.00  0.00     0.173 HD
HETATM   19  O4  UNL     1     -11.010   2.374  -0.476  1.00  0.00    -0.246 OA
BRANCH  14  20
HETATM   20  N8  UNL     1      -4.674   2.912   0.329  1.00  0.00    -0.323 N 
ATOM     21  H82 UNL     1      -3.691   2.653   0.408  1.00  0.00     0.178 HD
ATOM     22  H81 UNL     1      -4.771   3.920   0.449  1.00  0.00     0.178 HD
ENDBRANCH  14  20
BRANCH  12  23
HETATM   23  C23 UNL     1      -9.723  -0.041  -0.620  1.00  0.00     0.234 C 
HETATM   24  C24 UNL     1      -9.930  -0.602   0.793  1.00  0.00     0.054 C 
HETATM   25  C25 UNL     1      -9.662  -2.091   0.855  1.00  0.00     0.006 C 
HETATM   26  C26 UNL     1     -10.095  -2.652  -0.483  1.00  0.00     0.026 C 
HETATM   27  C27 UNL     1      -9.157  -2.117  -1.515  1.00  0.00     0.170 C 
HETATM   28  O5  UNL     1      -8.827  -0.798  -1.354  1.00  0.00    -0.366 OA
ENDBRANCH  12  23
ENDBRANCH   4   7
BRANCH   1  29
HETATM   29  C14 UNL     1      -0.555  -1.543   0.333  1.00  0.00     0.107 C 
BRANCH  29  30
HETATM   30  C13 UNL     1       0.405  -0.800  -0.507  1.00  0.00     0.220 C 
HETATM   31  N2  UNL     1       1.025   0.398  -0.110  1.00  0.00    -0.349 N 
HETATM   32  C12 UNL     1       1.971   1.037  -1.049  1.00  0.00     0.145 C 
HETATM   33  C30 UNL     1       0.807   1.058   1.133  1.00  0.00     0.145 C 
HETATM   34  C11 UNL     1       3.006   1.818  -0.225  1.00  0.00     0.144 C 
HETATM   35  N1  UNL     1       3.241   1.094   0.982  1.00  0.00    -0.362 N 
HETATM   36  C31 UNL     1       2.067   1.183   1.936  1.00  0.00     0.144 C 
HETATM   37  O2  UNL     1       0.648  -1.311  -1.638  1.00  0.00    -0.273 OA
BRANCH  35  38
HETATM   38  C10 UNL     1       4.289   0.332   1.450  1.00  0.00     0.113 C 
BRANCH  38  39
HETATM   39  C9  UNL     1       5.557  -0.032   0.839  1.00  0.00     0.084 C 
BRANCH  39  40
HETATM   40  C8  UNL     1       6.025   0.835  -0.254  1.00  0.00     0.008 C 
BRANCH  40  41
HETATM   41  C7  UNL     1       7.431   0.472  -0.764  1.00  0.00     0.000 C 
BRANCH  41  42
HETATM   42  C6  UNL     1       8.432   0.633   0.340  1.00  0.00     0.000 C 
BRANCH  42  43
HETATM   43  C5  UNL     1       9.852   0.326  -0.048  1.00  0.00     0.000 C 
BRANCH  43  44
HETATM   44  C4  UNL     1       9.956  -1.098  -0.500  1.00  0.00     0.000 C 
BRANCH  44  45
HETATM   45  C3  UNL     1      11.370  -1.493  -0.880  1.00  0.00    -0.000 C 
BRANCH  45  46
HETATM   46  C2  UNL     1      12.312  -1.348   0.294  1.00  0.00    -0.005 C 
HETATM   47  C1  UNL     1      13.724  -1.752  -0.107  1.00  0.00     0.005 C 
ENDBRANCH  45  46
ENDBRANCH  44  45
ENDBRANCH  43  44
ENDBRANCH  42  43
ENDBRANCH  41  42
ENDBRANCH  40  41
ENDBRANCH  39  40
ENDBRANCH  38  39
BRANCH  38  48
HETATM   48  O1  UNL     1       4.098  -0.160   2.680  1.00  0.00    -0.349 OA
ATOM     49  H1  UNL     1       3.269   0.078   3.079  1.00  0.00     0.219 HD
ENDBRANCH  38  48
ENDBRANCH  35  38
ENDBRANCH  29  30
ENDBRANCH   1  29
TORSDOF 15
