REMARK  12 active torsions:
REMARK  status: ('A' for Active; 'I' for Inactive)
REMARK    1  A    between atoms: S1_2  and  N1_5 
REMARK    2  A    between atoms: N2_8  and  C4_9 
REMARK    3  A    between atoms: C4_9  and  C5_10 
REMARK    4  A    between atoms: C5_10  and  C6_11 
REMARK    5  A    between atoms: C6_11  and  C7_12 
REMARK    6  A    between atoms: C8_15  and  C9_16 
REMARK    7  A    between atoms: C9_16  and  C10_17 
REMARK    8  A    between atoms: C10_17  and  C11_18 
REMARK    9  A    between atoms: C11_18  and  C12_19 
REMARK   10  A    between atoms: C12_19  and  C13_20 
REMARK   11  A    between atoms: N6_38  and  C25_39 
REMARK   12  A    between atoms: C25_39  and  C26_40 
ROOT
HETATM    1  C7  UNL     1       0.990  -0.174  -0.915  1.00  0.00     0.084 A 
HETATM    2  N3  UNL     1       0.078   0.803  -1.002  1.00  0.00    -0.348 N 
ATOM      3  H3  UNL     1       0.282   1.778  -1.222  1.00  0.00     0.167 HD
HETATM    4  C8  UNL     1      -1.170   0.298  -0.751  1.00  0.00     0.029 A 
HETATM    5  C24 UNL     1      -0.958  -1.020  -0.508  1.00  0.00     0.118 A 
HETATM    6  N6  UNL     1       0.361  -1.316  -0.607  1.00  0.00    -0.335 N 
ENDROOT
BRANCH   4   7
HETATM    7  C9  UNL     1      -2.423   1.090  -0.755  1.00  0.00     0.085 C 
BRANCH   7   8
HETATM    8  C10 UNL     1      -3.059   1.253  -2.060  1.00  0.00    -0.021 C 
BRANCH   8   9
HETATM    9  C11 UNL     1      -3.610   0.218  -2.884  1.00  0.00    -0.001 C 
BRANCH   9  10
HETATM   10  C12 UNL     1      -4.790  -0.636  -2.609  1.00  0.00     0.031 C 
BRANCH  10  11
HETATM   11  C13 UNL     1      -4.879  -1.500  -1.469  1.00  0.00     0.060 A 
HETATM   12  N4  UNL     1      -4.180  -2.677  -1.601  1.00  0.00    -0.297 N 
HETATM   13  N5  UNL     1      -3.996  -3.610  -0.737  1.00  0.00    -0.265 N 
ATOM     14  H4  UNL     1      -3.747  -2.831  -2.512  1.00  0.00     0.187 HD
HETATM   15  C14 UNL     1      -4.564  -3.420   0.477  1.00  0.00     0.277 A 
ATOM     16  H5  UNL     1      -3.453  -4.446  -0.953  1.00  0.00     0.190 HD
HETATM   17  O3  UNL     1      -4.446  -4.270   1.403  1.00  0.00    -0.265 OA
HETATM   18  C15 UNL     1      -5.287  -2.260   0.684  1.00  0.00     0.087 A 
HETATM   19  S2  UNL     1      -6.171  -1.761   2.078  1.00  0.00    -0.088 SA
HETATM   20  C18 UNL     1      -5.492  -1.258  -0.229  1.00  0.00     0.022 A 
HETATM   21  C16 UNL     1      -6.784  -0.291   1.450  1.00  0.00    -0.009 A 
HETATM   22  C17 UNL     1      -6.272  -0.245   0.177  1.00  0.00    -0.031 A 
HETATM   23  C23 UNL     1      -7.688   0.603   2.233  1.00  0.00     0.046 C 
HETATM   24  C19 UNL     1      -6.658   0.903  -0.722  1.00  0.00     0.040 C 
HETATM   25  C20 UNL     1      -7.397   1.997   0.028  1.00  0.00     0.005 C 
HETATM   26  C21 UNL     1      -6.618   2.589   1.157  1.00  0.00     0.001 C 
HETATM   27  C22 UNL     1      -7.182   1.988   2.430  1.00  0.00     0.005 C 
ENDBRANCH  10  11
ENDBRANCH   9  10
ENDBRANCH   8   9
ENDBRANCH   7   8
ENDBRANCH   4   7
BRANCH   1  28
HETATM   28  C6  UNL     1       2.449  -0.076  -1.116  1.00  0.00     0.081 C 
BRANCH  28  29
HETATM   29  C5  UNL     1       3.244   0.161   0.145  1.00  0.00     0.052 C 
BRANCH  29  30
HETATM   30  C4  UNL     1       4.700   0.174  -0.299  1.00  0.00     0.058 C 
BRANCH  30  31
HETATM   31  N2  UNL     1       5.656   0.331   0.701  1.00  0.00    -0.391 N 
HETATM   32  C3  UNL     1       5.797   1.544   1.395  1.00  0.00     0.137 C 
HETATM   33  C2  UNL     1       7.274   1.970   1.292  1.00  0.00     0.127 C 
HETATM   34  N1  UNL     1       8.044   1.060   2.083  1.00  0.00    -0.208 NA
HETATM   35  C28 UNL     1       7.678  -0.337   1.884  1.00  0.00     0.127 C 
HETATM   36  C27 UNL     1       6.830  -0.489   0.637  1.00  0.00     0.137 C 
BRANCH  34  37
HETATM   37  S1  UNL     1       9.753   1.267   1.881  1.00  0.00     0.207 S 
HETATM   38  C1  UNL     1      10.243   0.972   0.211  1.00  0.00     0.180 C 
HETATM   39  O1  UNL     1      10.075   2.667   2.307  1.00  0.00    -0.212 OA
HETATM   40  O2  UNL     1      10.452   0.314   2.797  1.00  0.00    -0.212 OA
ENDBRANCH  34  37
ENDBRANCH  30  31
ENDBRANCH  29  30
ENDBRANCH  28  29
ENDBRANCH   1  28
BRANCH   6  41
HETATM   41  C25 UNL     1       0.868  -2.648  -0.376  1.00  0.00     0.242 C 
BRANCH  41  42
HETATM   42  C26 UNL     1       0.956  -3.483  -1.594  1.00  0.00     0.191 C 
HETATM   43  O4  UNL     1      -0.050  -4.091  -2.065  1.00  0.00    -0.647 OA
HETATM   44  O5  UNL     1       2.155  -3.623  -2.258  1.00  0.00    -0.647 OA
ENDBRANCH  41  42
ENDBRANCH   6  41
TORSDOF 12
