REMARK  9 active torsions:
REMARK  status: ('A' for Active; 'I' for Inactive)
REMARK    1  A    between atoms: C2_2  and  C3_3 
REMARK    2  A    between atoms: C6_9  and  C7_10 
REMARK    3  A    between atoms: C7_10  and  C8_12 
REMARK    4  A    between atoms: C9_13  and  O3_14 
REMARK    5  A    between atoms: C11_16  and  O4_17 
REMARK    6  A    between atoms: C14_20  and  O5_21 
REMARK    7  A    between atoms: C15_23  and  C16_24 
REMARK    8  A    between atoms: C17_26  and  C18_27 
REMARK    9  A    between atoms: C22_31  and  O7_32 
ROOT
HETATM    1  C8  UNL     1      -1.453   0.818   0.097  1.00  0.00     0.067 A 
HETATM    2  C9  UNL     1      -2.353   1.869  -0.219  1.00  0.00     0.116 A 
HETATM    3  C11 UNL     1      -1.978   3.158  -0.455  1.00  0.00     0.105 A 
HETATM    4  C13 UNL     1      -0.630   3.410  -0.369  1.00  0.00     0.077 A 
HETATM    5  C14 UNL     1       0.261   2.435  -0.069  1.00  0.00     0.082 A 
HETATM    6  C15 UNL     1      -0.124   1.086   0.179  1.00  0.00     0.049 A 
ENDROOT
BRANCH   6   7
HETATM    7  C16 UNL     1       0.963   0.210   0.571  1.00  0.00     0.098 A 
HETATM    8  O6  UNL     1       2.100   0.294  -0.155  1.00  0.00    -0.310 OA
HETATM    9  C17 UNL     1       3.009  -0.504   0.249  1.00  0.00     0.095 A 
HETATM   10  C22 UNL     1       2.505  -1.188   1.309  1.00  0.00     0.104 A 
HETATM   11  C23 UNL     1       1.181  -0.713   1.506  1.00  0.00     0.009 A 
HETATM   12  C24 UNL     1       0.369  -1.206   2.647  1.00  0.00     0.054 C 
BRANCH   9  13
HETATM   13  C18 UNL     1       4.364  -0.639  -0.361  1.00  0.00     0.001 C 
HETATM   14  C19 UNL     1       5.463  -0.362   0.612  1.00  0.00     0.021 C 
HETATM   15  C20 UNL     1       4.450   0.418  -1.478  1.00  0.00     0.021 C 
HETATM   16  C21 UNL     1       4.552  -1.961  -1.030  1.00  0.00     0.021 C 
ENDBRANCH   9  13
BRANCH  10  17
HETATM   17  O7  UNL     1       3.112  -2.154   2.074  1.00  0.00    -0.357 OA
ATOM     18  H7  UNL     1       2.760  -2.632   2.815  1.00  0.00     0.217 HD
ENDBRANCH  10  17
ENDBRANCH   6   7
BRANCH   1  19
HETATM   19  C7  UNL     1      -2.080  -0.482   0.232  1.00  0.00     0.200 C 
HETATM   20  O2  UNL     1      -2.648  -0.665   1.364  1.00  0.00    -0.286 OA
BRANCH  19  21
HETATM   21  C6  UNL     1      -2.140  -1.539  -0.741  1.00  0.00     0.071 A 
HETATM   22  C3  UNL     1      -2.868  -2.724  -0.606  1.00  0.00     0.049 A 
HETATM   23  N1  UNL     1      -2.703  -3.444  -1.743  1.00  0.00    -0.264 N 
HETATM   24  O1  UNL     1      -1.942  -2.793  -2.543  1.00  0.00    -0.242 OA
ATOM     25  H1  UNL     1      -3.118  -4.357  -1.931  1.00  0.00     0.194 HD
HETATM   26  C4  UNL     1      -1.572  -1.628  -1.988  1.00  0.00     0.088 A 
HETATM   27  C5  UNL     1      -0.695  -0.639  -2.668  1.00  0.00     0.080 C 
BRANCH  22  28
HETATM   28  C2  UNL     1      -3.691  -3.100   0.564  1.00  0.00     0.056 C 
HETATM   29  C1  UNL     1      -2.947  -3.645   1.733  1.00  0.00     0.011 C 
ENDBRANCH  22  28
ENDBRANCH  19  21
ENDBRANCH   1  19
BRANCH   5  30
HETATM   30  O5  UNL     1       1.640   2.737   0.013  1.00  0.00    -0.360 OA
ATOM     31  H5  UNL     1       2.265   2.053   0.223  1.00  0.00     0.217 HD
ENDBRANCH   5  30
BRANCH   2  32
HETATM   32  O3  UNL     1      -3.719   1.593  -0.301  1.00  0.00    -0.352 OA
HETATM   33  C10 UNL     1      -4.475   1.755   0.883  1.00  0.00     0.210 C 
ENDBRANCH   2  32
BRANCH   3  34
HETATM   34  O4  UNL     1      -2.935   4.102  -0.756  1.00  0.00    -0.353 OA
HETATM   35  C12 UNL     1      -2.806   5.435  -1.033  1.00  0.00     0.210 C 
ENDBRANCH   3  34
TORSDOF 9
