REMARK  9 active torsions:
REMARK  status: ('A' for Active; 'I' for Inactive)
REMARK    1  A    between atoms: C2_2  and  C3_3 
REMARK    2  A    between atoms: C3_3  and  N1_4 
REMARK    3  A    between atoms: C6_9  and  C7_10 
REMARK    4  A    between atoms: C8_11  and  C9_12 
REMARK    5  A    between atoms: C9_12  and  C10_14 
REMARK    6  A    between atoms: C13_17  and  O2_18 
REMARK    7  A    between atoms: C14_20  and  O3_21 
REMARK    8  A    between atoms: N3_23  and  C15_24 
REMARK    9  A    between atoms: C16_26  and  C17_27 
ROOT
HETATM    1  C15 UNL     1       1.330   0.081  -1.068  1.00  0.00     0.177 A 
HETATM    2  O4  UNL     1       2.531  -0.284  -0.668  1.00  0.00    -0.295 OA
HETATM    3  C16 UNL     1       2.955  -1.373  -1.207  1.00  0.00     0.064 A 
HETATM    4  C21 UNL     1       1.996  -1.827  -2.054  1.00  0.00     0.060 A 
HETATM    5  C22 UNL     1       0.960  -0.921  -1.980  1.00  0.00     0.099 A 
HETATM    6  C23 UNL     1      -0.243  -1.035  -2.728  1.00  0.00     0.104 C 
HETATM    7  N4  UNL     1      -1.222  -1.109  -3.353  1.00  0.00    -0.191 NA
ENDROOT
BRANCH   1   8
HETATM    8  N3  UNL     1       0.554   1.204  -0.706  1.00  0.00    -0.266 N 
HETATM    9  C7  UNL     1      -0.610   1.274   0.027  1.00  0.00     0.074 A 
HETATM   10  C8  UNL     1      -0.985   2.596  -0.031  1.00  0.00     0.076 A 
HETATM   11  C13 UNL     1      -0.108   3.346  -0.779  1.00  0.00     0.133 A 
HETATM   12  C14 UNL     1       0.850   2.465  -1.190  1.00  0.00     0.184 A 
BRANCH   9  13
HETATM   13  C6  UNL     1      -1.408   0.076   0.248  1.00  0.00     0.040 A 
HETATM   14  C4  UNL     1      -2.773  -0.155   0.112  1.00  0.00     0.036 A 
HETATM   15  N2  UNL     1      -3.136  -1.250   0.784  1.00  0.00    -0.302 N 
HETATM   16  C5  UNL     1      -3.689   0.624  -0.821  1.00  0.00     0.070 C 
HETATM   17  N1  UNL     1      -2.111  -1.785   1.368  1.00  0.00    -0.296 N 
ATOM     18  H2  UNL     1      -4.088  -1.614   0.831  1.00  0.00     0.186 HD
HETATM   19  C24 UNL     1      -1.028  -1.014   1.076  1.00  0.00     0.039 A 
HETATM   20  C25 UNL     1       0.271  -1.261   1.693  1.00  0.00     0.071 C 
BRANCH  17  21
HETATM   21  C3  UNL     1      -2.107  -2.982   2.170  1.00  0.00     0.148 C 
BRANCH  21  22
HETATM   22  C2  UNL     1      -1.865  -4.161   1.211  1.00  0.00     0.017 C 
HETATM   23  C1  UNL     1      -3.012  -4.126   0.234  1.00  0.00     0.007 C 
ENDBRANCH  21  22
ENDBRANCH  17  21
ENDBRANCH   9  13
BRANCH  10  24
HETATM   24  C9  UNL     1      -2.068   3.199   0.782  1.00  0.00     0.168 C 
HETATM   25  O1  UNL     1      -2.859   2.552   1.491  1.00  0.00    -0.292 OA
BRANCH  24  26
HETATM   26  C10 UNL     1      -2.270   4.671   0.800  1.00  0.00     0.053 C 
HETATM   27  C11 UNL     1      -3.595   4.918   1.560  1.00  0.00     0.018 C 
HETATM   28  C12 UNL     1      -1.147   5.249   1.673  1.00  0.00     0.018 C 
ENDBRANCH  24  26
ENDBRANCH  10  24
BRANCH  11  29
HETATM   29  O2  UNL     1      -0.142   4.688  -1.083  1.00  0.00    -0.356 OA
ATOM     30  H2  UNL     1       0.464   5.206  -1.600  1.00  0.00     0.218 HD
ENDBRANCH  11  29
BRANCH  12  31
HETATM   31  O3  UNL     1       1.985   2.720  -1.979  1.00  0.00    -0.344 OA
ATOM     32  H3  UNL     1       2.652   2.107  -2.265  1.00  0.00     0.219 HD
ENDBRANCH  12  31
ENDBRANCH   1   8
BRANCH   3  33
HETATM   33  C17 UNL     1       4.300  -1.968  -0.892  1.00  0.00    -0.002 C 
HETATM   34  C18 UNL     1       5.241  -0.819  -0.630  1.00  0.00     0.021 C 
HETATM   35  C19 UNL     1       4.137  -2.759   0.374  1.00  0.00     0.021 C 
HETATM   36  C20 UNL     1       4.777  -2.814  -2.050  1.00  0.00     0.021 C 
ENDBRANCH   3  33
TORSDOF 9
