REMARK  9 active torsions:
REMARK  status: ('A' for Active; 'I' for Inactive)
REMARK    1  A    between atoms: O1_2  and  C2_3 
REMARK    2  A    between atoms: C6_7  and  O2_8 
REMARK    3  A    between atoms: C8_11  and  O3_12 
REMARK    4  A    between atoms: C11_15  and  O4_16 
REMARK    5  A    between atoms: O4_16  and  C12_17 
REMARK    6  A    between atoms: C12_17  and  C13_19 
REMARK    7  A    between atoms: C19_26  and  O6_27 
REMARK    8  A    between atoms: C21_29  and  C22_30 
REMARK    9  A    between atoms: C22_30  and  C23_31 
ROOT
HETATM    1  C2  UNL     1      -3.205   1.275   1.151  1.00  0.00     0.078 A 
HETATM    2  C3  UNL     1      -3.218   2.586   0.758  1.00  0.00     0.050 A 
HETATM    3  C4  UNL     1      -2.084   3.212   0.280  1.00  0.00    -0.015 A 
HETATM    4  C5  UNL     1      -2.129   4.549  -0.101  1.00  0.00     0.049 A 
HETATM    5  C6  UNL     1      -1.012   5.201  -0.571  1.00  0.00     0.069 A 
HETATM    6  C7  UNL     1       0.173   4.522  -0.667  1.00  0.00     0.074 A 
HETATM    7  C8  UNL     1       0.209   3.177  -0.282  1.00  0.00     0.084 A 
HETATM    8  C10 UNL     1      -0.899   2.513   0.188  1.00  0.00     0.042 A 
HETATM    9  C11 UNL     1      -0.858   1.170   0.582  1.00  0.00     0.102 A 
HETATM   10  C21 UNL     1      -2.001   0.569   1.056  1.00  0.00     0.014 A 
ENDROOT
BRANCH   9  11
HETATM   11  O4  UNL     1       0.333   0.463   0.486  1.00  0.00    -0.273 OA
BRANCH  11  12
HETATM   12  C12 UNL     1       0.597  -0.266  -0.646  1.00  0.00     0.301 C 
HETATM   13  O5  UNL     1      -0.296  -0.248  -1.568  1.00  0.00    -0.259 OA
BRANCH  12  14
HETATM   14  C13 UNL     1       1.768  -1.048  -0.912  1.00  0.00     0.073 A 
HETATM   15  C14 UNL     1       1.944  -1.732  -2.107  1.00  0.00     0.022 A 
HETATM   16  C15 UNL     1       3.066  -2.479  -2.391  1.00  0.00     0.028 A 
HETATM   17  C16 UNL     1       4.071  -2.549  -1.428  1.00  0.00     0.055 A 
HETATM   18  N1  UNL     1       5.234  -3.301  -1.675  1.00  0.00    -0.102 NA
HETATM   19  C17 UNL     1       3.931  -1.887  -0.236  1.00  0.00    -0.003 A 
HETATM   20  C18 UNL     1       4.977  -1.936   0.815  1.00  0.00     0.053 C 
HETATM   21  C19 UNL     1       2.778  -1.145   0.003  1.00  0.00     0.092 A 
BRANCH  21  22
HETATM   22  O6  UNL     1       2.683  -0.501   1.214  1.00  0.00    -0.354 OA
HETATM   23  C20 UNL     1       2.136  -1.098   2.383  1.00  0.00     0.210 C 
ENDBRANCH  21  22
ENDBRANCH  12  14
ENDBRANCH  11  12
ENDBRANCH   9  11
BRANCH  10  24
HETATM   24  C22 UNL     1      -2.062  -0.836   1.542  1.00  0.00     0.072 C 
BRANCH  24  25
HETATM   25  C23 UNL     1      -2.792  -1.730   0.623  1.00  0.00    -0.020 C 
HETATM   26  C24 UNL     1      -2.431  -2.875   0.125  1.00  0.00    -0.091 C 
HETATM   27  C25 UNL     1      -3.317  -3.631  -0.798  1.00  0.00     0.042 C 
HETATM   28  C26 UNL     1      -1.141  -3.499   0.473  1.00  0.00     0.042 C 
ENDBRANCH  24  25
ENDBRANCH  10  24
BRANCH   7  29
HETATM   29  O3  UNL     1       1.418   2.558  -0.398  1.00  0.00    -0.355 OA
HETATM   30  C9  UNL     1       2.563   3.204  -0.872  1.00  0.00     0.210 C 
ENDBRANCH   7  29
BRANCH   1  31
HETATM   31  O1  UNL     1      -4.364   0.644   1.638  1.00  0.00    -0.355 OA
HETATM   32  C1  UNL     1      -5.584   1.329   1.743  1.00  0.00     0.210 C 
ENDBRANCH   1  31
BRANCH   5  33
HETATM   33  O2  UNL     1      -1.037   6.540  -0.958  1.00  0.00    -0.361 OA
ATOM     34  H2  UNL     1      -0.266   6.990  -1.282  1.00  0.00     0.217 HD
ENDBRANCH   5  33
TORSDOF 9
