REMARK  9 active torsions:
REMARK  status: ('A' for Active; 'I' for Inactive)
REMARK    1  A    between atoms: O1_2  and  C2_3 
REMARK    2  A    between atoms: C4_5  and  C5_6 
REMARK    3  A    between atoms: C11_13  and  O3_14 
REMARK    4  A    between atoms: C12_16  and  C13_17 
REMARK    5  A    between atoms: C15_19  and  C16_20 
REMARK    6  A    between atoms: C20_24  and  O4_25 
REMARK    7  A    between atoms: C22_29  and  N1_30 
REMARK    8  A    between atoms: N1_30  and  C23_32 
REMARK    9  A    between atoms: C24_34  and  O7_35 
ROOT
HETATM    1  C5  UNL     1      -2.063  -1.406  -1.468  1.00  0.00     0.169 C 
HETATM    2  C6  UNL     1      -1.401  -2.588  -0.864  1.00  0.00     0.121 C 
HETATM    3  C7  UNL     1      -0.599  -2.242   0.341  1.00  0.00     0.167 C 
HETATM    4  O2  UNL     1      -0.692  -2.797   1.440  1.00  0.00    -0.292 OA
HETATM    5  C8  UNL     1       0.373  -1.139   0.171  1.00  0.00     0.077 A 
HETATM    6  C9  UNL     1      -0.013  -0.190  -0.750  1.00  0.00     0.089 A 
HETATM    7  C10 UNL     1       0.834   0.866  -0.962  1.00  0.00     0.075 A 
HETATM    8  C11 UNL     1       2.038   0.934  -0.242  1.00  0.00     0.082 A 
HETATM    9  C12 UNL     1       2.433   0.011   0.659  1.00  0.00     0.037 A 
HETATM   10  C20 UNL     1       1.538  -1.086   0.871  1.00  0.00     0.095 A 
HETATM   11  O5  UNL     1      -1.196  -0.309  -1.419  1.00  0.00    -0.340 OA
ENDROOT
BRANCH   1  12
HETATM   12  C4  UNL     1      -3.342  -1.000  -0.880  1.00  0.00    -0.024 A 
HETATM   13  C3  UNL     1      -3.835   0.242  -1.301  1.00  0.00     0.049 A 
HETATM   14  C2  UNL     1      -5.030   0.724  -0.811  1.00  0.00     0.104 A 
HETATM   15  C24 UNL     1      -5.711  -0.056   0.098  1.00  0.00     0.128 A 
HETATM   16  C22 UNL     1      -5.220  -1.278   0.508  1.00  0.00     0.071 A 
HETATM   17  C21 UNL     1      -4.021  -1.780   0.028  1.00  0.00     0.042 A 
BRANCH  14  18
HETATM   18  O1  UNL     1      -5.591   1.940  -1.173  1.00  0.00    -0.353 OA
HETATM   19  C1  UNL     1      -4.878   2.743  -2.116  1.00  0.00     0.210 C 
ENDBRANCH  14  18
BRANCH  15  20
HETATM   20  O7  UNL     1      -6.919   0.396   0.614  1.00  0.00    -0.351 OA
HETATM   21  C25 UNL     1      -6.871   1.172   1.800  1.00  0.00     0.210 C 
ENDBRANCH  15  20
BRANCH  16  22
HETATM   22  N1  UNL     1      -5.918  -2.092   1.448  1.00  0.00    -0.332 N 
ATOM     23  H1  UNL     1      -6.052  -1.795   2.415  1.00  0.00     0.168 HD
BRANCH  22  24
HETATM   24  C23 UNL     1      -6.365  -3.203   1.026  1.00  0.00     0.353 C 
HETATM   25  O6  UNL     1      -6.698  -4.390   0.783  1.00  0.00    -0.283 OA
ENDBRANCH  22  24
ENDBRANCH  16  22
ENDBRANCH   1  12
BRANCH  10  26
HETATM   26  O4  UNL     1       1.891  -2.037   1.764  1.00  0.00    -0.359 OA
ATOM     27  H4  UNL     1       2.705  -2.000   2.253  1.00  0.00     0.217 HD
ENDBRANCH  10  26
BRANCH   8  28
HETATM   28  O3  UNL     1       2.800   2.063  -0.530  1.00  0.00    -0.360 OA
ATOM     29  H3  UNL     1       3.614   2.109  -0.043  1.00  0.00     0.217 HD
ENDBRANCH   8  28
BRANCH   9  30
HETATM   30  C13 UNL     1       3.709  -0.048   1.318  1.00  0.00    -0.046 C 
HETATM   31  C14 UNL     1       3.630  -0.464   2.821  1.00  0.00     0.049 C 
HETATM   32  C15 UNL     1       4.905   0.194   0.933  1.00  0.00     0.008 C 
BRANCH  32  33
HETATM   33  C16 UNL     1       5.392   0.608  -0.350  1.00  0.00     0.002 C 
HETATM   34  C17 UNL     1       6.720   0.835  -0.532  1.00  0.00    -0.088 C 
HETATM   35  C18 UNL     1       7.251   1.265  -1.849  1.00  0.00     0.043 C 
HETATM   36  C19 UNL     1       7.593   0.629   0.649  1.00  0.00     0.043 C 
ENDBRANCH  32  33
ENDBRANCH   9  30
TORSDOF 9
