REMARK  15 active torsions:
REMARK  status: ('A' for Active; 'I' for Inactive)
REMARK    1  A    between atoms: N2_4  and  C3_5 
REMARK    2  A    between atoms: N2_4  and  C18_26 
REMARK    3  A    between atoms: C3_5  and  C4_6 
REMARK    4  A    between atoms: C5_7  and  C6_8 
REMARK    5  A    between atoms: C6_8  and  C7_9 
REMARK    6  A    between atoms: C9_11  and  C10_12 
REMARK    7  A    between atoms: C11_13  and  C12_14 
REMARK    8  A    between atoms: C12_14  and  O1_17 
REMARK    9  A    between atoms: C15_19  and  O2_20 
REMARK   10  A    between atoms: C17_23  and  O3_24 
REMARK   11  A    between atoms: C18_26  and  C19_27 
REMARK   12  A    between atoms: C19_27  and  N3_28 
REMARK       I    between atoms: N3_28  and  C20_30 
REMARK   13  A    between atoms: C20_30  and  C21_32 
REMARK   14  A    between atoms: C21_32  and  N4_33 
REMARK   15  A    between atoms: C24_36  and  C25_37 
ROOT
HETATM    1  C1  UNL     1       3.098  -0.445  -2.561  1.00  0.00     0.135 C 
HETATM    2  N1  UNL     1       2.026   0.315  -1.987  1.00  0.00    -0.184 NA
HETATM    3  C2  UNL     1       2.295   0.641  -0.573  1.00  0.00     0.373 C 
HETATM    4  N2  UNL     1       0.979   0.229  -0.245  1.00  0.00     0.043 N 
HETATM    5  N7  UNL     1       0.969  -0.483  -1.457  1.00  0.00     0.050 NA
ENDROOT
BRANCH   4   6
HETATM    6  C3  UNL     1       0.103   1.427  -0.326  1.00  0.00     0.290 C 
BRANCH   6   7
HETATM    7  C4  UNL     1      -1.229   1.124  -0.876  1.00  0.00    -0.001 C 
HETATM    8  C5  UNL     1      -1.631   1.718  -1.981  1.00  0.00    -0.024 C 
BRANCH   8   9
HETATM    9  C6  UNL     1      -2.955   1.450  -2.571  1.00  0.00     0.068 C 
BRANCH   9  10
HETATM   10  C7  UNL     1      -3.675   0.427  -1.820  1.00  0.00    -0.020 A 
HETATM   11  C8  UNL     1      -4.653   0.870  -0.932  1.00  0.00     0.033 A 
HETATM   12  C9  UNL     1      -5.389  -0.016  -0.176  1.00  0.00     0.051 A 
HETATM   13  C15 UNL     1      -5.111  -1.355  -0.340  1.00  0.00     0.087 A 
HETATM   14  C16 UNL     1      -4.147  -1.812  -1.215  1.00  0.00     0.075 A 
HETATM   15  C17 UNL     1      -3.418  -0.920  -1.965  1.00  0.00     0.075 A 
BRANCH  12  16
HETATM   16  C10 UNL     1      -6.399   0.474   0.736  1.00  0.00    -0.061 C 
HETATM   17  C11 UNL     1      -7.232   0.901   1.497  1.00  0.00    -0.064 C 
BRANCH  17  18
HETATM   18  C12 UNL     1      -8.233   1.437   2.442  1.00  0.00     0.114 C 
HETATM   19  C13 UNL     1      -9.335   2.171   1.723  1.00  0.00     0.060 C 
HETATM   20  C14 UNL     1      -8.806   0.284   3.205  1.00  0.00     0.060 C 
BRANCH  18  21
HETATM   21  O1  UNL     1      -7.584   2.338   3.280  1.00  0.00    -0.378 OA
ATOM     22  H1  UNL     1      -8.228   2.683   3.888  1.00  0.00     0.211 HD
ENDBRANCH  18  21
ENDBRANCH  17  18
ENDBRANCH  12  16
BRANCH  13  23
HETATM   23  O2  UNL     1      -5.838  -2.269   0.409  1.00  0.00    -0.359 OA
ATOM     24  H2  UNL     1      -5.646  -3.193   0.296  1.00  0.00     0.217 HD
ENDBRANCH  13  23
BRANCH  15  25
HETATM   25  O3  UNL     1      -2.437  -1.332  -2.858  1.00  0.00    -0.360 OA
ATOM     26  H3  UNL     1      -2.260  -2.260  -2.958  1.00  0.00     0.217 HD
ENDBRANCH  15  25
ENDBRANCH   9  10
ENDBRANCH   8   9
ENDBRANCH   6   7
ENDBRANCH   4   6
BRANCH   4  27
HETATM   27  C18 UNL     1       0.652  -0.464   0.924  1.00  0.00     0.283 C 
BRANCH  27  28
HETATM   28  C19 UNL     1       1.006  -1.856   1.158  1.00  0.00     0.152 C 
BRANCH  28  29
HETATM   29  N3  UNL     1       2.398  -2.220   1.225  1.00  0.00    -0.358 N 
HETATM   30  C20 UNL     1       3.282  -1.702   2.215  1.00  0.00     0.235 C 
HETATM   31  O4  UNL     1       2.857  -0.893   3.076  1.00  0.00    -0.272 OA
ATOM     32  H3  UNL     1       2.766  -2.875   0.535  1.00  0.00     0.162 HD
BRANCH  30  33
HETATM   33  C21 UNL     1       4.703  -2.111   2.239  1.00  0.00     0.230 C 
BRANCH  33  34
HETATM   34  N4  UNL     1       5.546  -1.290   1.408  1.00  0.00    -0.358 N 
HETATM   35  C22 UNL     1       6.134  -0.184   1.893  1.00  0.00     0.092 A 
HETATM   36  C23 UNL     1       6.946   0.615   1.106  1.00  0.00     0.032 A 
HETATM   37  C24 UNL     1       7.180   0.295  -0.219  1.00  0.00     0.007 A 
HETATM   38  C26 UNL     1       6.573  -0.838  -0.701  1.00  0.00     0.032 A 
HETATM   39  C27 UNL     1       5.772  -1.601   0.124  1.00  0.00     0.092 A 
BRANCH  37  40
HETATM   40  C25 UNL     1       8.038   1.140  -1.051  1.00  0.00     0.120 C 
HETATM   41  N5  UNL     1       8.278   0.878  -2.280  1.00  0.00    -0.387 N 
ATOM     42  H52 UNL     1       7.854   0.047  -2.692  1.00  0.00     0.157 HD
ATOM     43  H51 UNL     1       8.876   1.467  -2.860  1.00  0.00     0.157 HD
HETATM   44  N6  UNL     1       8.628   2.297  -0.477  1.00  0.00    -0.082 NA
ENDBRANCH  37  40
ENDBRANCH  33  34
ENDBRANCH  30  33
ENDBRANCH  28  29
ENDBRANCH  27  28
ENDBRANCH   4  27
TORSDOF 15
