REMARK  10 active torsions:
REMARK  status: ('A' for Active; 'I' for Inactive)
REMARK    1  A    between atoms: C6_8  and  C7_9 
REMARK    2  A    between atoms: C7_9  and  C8_10 
REMARK    3  A    between atoms: C9_11  and  C10_12 
REMARK    4  A    between atoms: C10_12  and  O1_13 
REMARK    5  A    between atoms: C12_21  and  C13_22 
REMARK    6  A    between atoms: C13_22  and  C14_23 
REMARK    7  A    between atoms: C14_23  and  C15_24 
REMARK       I    between atoms: C15_24  and  N4_26 
REMARK    8  A    between atoms: N4_26  and  C16_28 
REMARK    9  A    between atoms: C16_28  and  C17_29 
REMARK       I    between atoms: C17_29  and  N5_31 
REMARK   10  A    between atoms: C22_36  and  C23_37 
ROOT
HETATM    1  C1  UNL     1      -6.342  -2.211   0.191  1.00  0.00     0.068 C 
HETATM    2  C2  UNL     1      -5.056  -1.496  -0.085  1.00  0.00     0.002 C 
HETATM    3  C3  UNL     1      -5.101  -0.794  -1.206  1.00  0.00     0.026 C 
HETATM    4  C4  UNL     1      -4.142   0.051  -1.897  1.00  0.00     0.032 C 
HETATM    5  C5  UNL     1      -2.853   0.365  -1.762  1.00  0.00     0.043 A 
HETATM    6  N1  UNL     1      -2.355   1.214  -2.651  1.00  0.00    -0.358 N 
ATOM      7  H1  UNL     1      -2.867   1.646  -3.420  1.00  0.00     0.166 HD
HETATM    8  C6  UNL     1      -1.034   1.409  -2.355  1.00  0.00     0.021 A 
HETATM    9  C12 UNL     1      -0.695   0.651  -1.245  1.00  0.00    -0.022 A 
HETATM   10  C20 UNL     1      -1.855  -0.018  -0.857  1.00  0.00    -0.003 A 
HETATM   11  C21 UNL     1      -1.829  -0.819   0.193  1.00  0.00     0.017 C 
HETATM   12  C22 UNL     1      -2.623  -1.707   1.023  1.00  0.00     0.140 C 
HETATM   13  N7  UNL     1      -4.036  -1.692   0.885  1.00  0.00    -0.381 N 
ATOM     14  H7  UNL     1      -4.465  -1.889   1.789  1.00  0.00     0.160 HD
ENDROOT
BRANCH   8  15
HETATM   15  C7  UNL     1      -0.256   2.406  -3.129  1.00  0.00     0.104 C 
BRANCH  15  16
HETATM   16  C8  UNL     1      -0.566   3.803  -2.720  1.00  0.00     0.043 A 
HETATM   17  C9  UNL     1      -0.184   4.602  -1.704  1.00  0.00     0.061 A 
HETATM   18  N2  UNL     1      -0.827   5.799  -1.853  1.00  0.00    -0.299 N 
HETATM   19  N3  UNL     1      -1.581   5.747  -2.922  1.00  0.00    -0.266 N 
ATOM     20  H2  UNL     1      -0.734   6.603  -1.232  1.00  0.00     0.186 HD
HETATM   21  C11 UNL     1      -1.467   4.548  -3.501  1.00  0.00     0.268 A 
ATOM     22  H3  UNL     1      -2.168   6.508  -3.262  1.00  0.00     0.190 HD
HETATM   23  O2  UNL     1      -2.051   4.163  -4.542  1.00  0.00    -0.266 OA
BRANCH  17  24
HETATM   24  C10 UNL     1       0.758   4.301  -0.605  1.00  0.00     0.223 C 
BRANCH  24  25
HETATM   25  O1  UNL     1       0.857   5.432   0.204  1.00  0.00    -0.395 OA
ATOM     26  H1  UNL     1       1.462   5.239   0.910  1.00  0.00     0.209 HD
ENDBRANCH  24  25
ENDBRANCH  17  24
ENDBRANCH  15  16
ENDBRANCH   8  15
BRANCH   9  27
HETATM   27  C13 UNL     1       0.627   0.468  -0.668  1.00  0.00     0.051 C 
BRANCH  27  28
HETATM   28  C14 UNL     1       1.410  -0.661  -1.384  1.00  0.00     0.107 C 
BRANCH  28  29
HETATM   29  C15 UNL     1       2.756  -0.757  -0.720  1.00  0.00     0.218 C 
HETATM   30  O3  UNL     1       3.100   0.059   0.175  1.00  0.00    -0.274 OA
HETATM   31  N4  UNL     1       3.599  -1.815  -1.165  1.00  0.00    -0.352 N 
ATOM     32  H4  UNL     1       3.276  -2.449  -1.896  1.00  0.00     0.162 HD
BRANCH  31  33
HETATM   33  C16 UNL     1       4.895  -1.990  -0.591  1.00  0.00     0.225 C 
BRANCH  33  34
HETATM   34  C17 UNL     1       4.868  -2.256   0.866  1.00  0.00     0.236 C 
HETATM   35  O4  UNL     1       3.797  -2.333   1.548  1.00  0.00    -0.272 OA
HETATM   36  N5  UNL     1       6.094  -2.439   1.559  1.00  0.00    -0.359 N 
HETATM   37  C18 UNL     1       6.115  -2.705   3.005  1.00  0.00     0.152 C 
HETATM   38  C19 UNL     1       7.339  -2.364   0.847  1.00  0.00     0.152 C 
ENDBRANCH  33  34
ENDBRANCH  31  33
ENDBRANCH  28  29
ENDBRANCH  27  28
ENDBRANCH   9  27
BRANCH  12  39
HETATM   39  C23 UNL     1      -2.296  -1.578   2.485  1.00  0.00    -0.017 A 
HETATM   40  C24 UNL     1      -2.892  -2.457   3.338  1.00  0.00     0.012 A 
HETATM   41  C25 UNL     1      -2.652  -2.401   4.718  1.00  0.00     0.018 A 
HETATM   42  C26 UNL     1      -1.794  -1.423   5.153  1.00  0.00     0.087 A 
HETATM   43  N6  UNL     1      -1.208  -0.559   4.318  1.00  0.00    -0.375 N 
HETATM   44  C27 UNL     1      -1.453  -0.632   2.996  1.00  0.00     0.097 A 
ATOM     45  H6  UNL     1      -0.576   0.154   4.682  1.00  0.00     0.164 HD
ENDBRANCH  12  39
TORSDOF 10
