REMARK  11 active torsions:
REMARK  status: ('A' for Active; 'I' for Inactive)
REMARK    1  A    between atoms: C2_2  and  C4_4 
REMARK    2  A    between atoms: C4_4  and  C5_5 
REMARK    3  A    between atoms: C7_10  and  C8_11 
REMARK    4  A    between atoms: C8_11  and  C9_12 
REMARK    5  A    between atoms: C12_17  and  O2_18 
REMARK    6  A    between atoms: C13_20  and  C14_21 
REMARK    7  A    between atoms: C17_26  and  O3_27 
REMARK    8  A    between atoms: C19_31  and  C20_32 
REMARK    9  A    between atoms: C20_32  and  C21_33 
REMARK   10  A    between atoms: C21_33  and  C22_34 
REMARK   11  A    between atoms: C22_34  and  N4_35 
ROOT
HETATM    1  C5  UNL     1       0.275  -2.338   0.210  1.00  0.00     0.177 C 
HETATM    2  N1  UNL     1      -0.816  -2.207   1.149  1.00  0.00    -0.346 N 
ATOM      3  H1  UNL     1      -0.998  -3.030   1.723  1.00  0.00     0.163 HD
HETATM    4  C6  UNL     1      -1.662  -1.110   1.386  1.00  0.00     0.241 C 
HETATM    5  O1  UNL     1      -1.833  -0.774   2.629  1.00  0.00    -0.271 OA
HETATM    6  C7  UNL     1      -2.432  -0.215   0.510  1.00  0.00     0.175 C 
HETATM    7  N2  UNL     1      -2.582   1.116   1.075  1.00  0.00    -0.359 N 
ATOM      8  H2  UNL     1      -3.374   1.206   1.712  1.00  0.00     0.162 HD
HETATM    9  C12 UNL     1      -1.861   2.280   0.916  1.00  0.00     0.135 C 
HETATM   10  C13 UNL     1      -1.401   3.039  -0.258  1.00  0.00     0.161 C 
HETATM   11  N3  UNL     1      -0.485   2.376  -1.131  1.00  0.00    -0.356 N 
ATOM     12  H3  UNL     1      -0.943   1.630  -1.655  1.00  0.00     0.162 HD
HETATM   13  C17 UNL     1       0.856   2.474  -1.457  1.00  0.00     0.185 C 
HETATM   14  C18 UNL     1       2.095   2.214  -0.769  1.00  0.00     0.222 C 
HETATM   15  O4  UNL     1       2.956   3.095  -0.630  1.00  0.00    -0.286 OA
HETATM   16  C19 UNL     1       2.456   0.846  -0.156  1.00  0.00     0.163 C 
HETATM   17  N7  UNL     1       1.209   0.116  -0.035  1.00  0.00    -0.347 N 
ATOM     18  H7  UNL     1       0.577   0.638   0.571  1.00  0.00     0.163 HD
HETATM   19  C24 UNL     1       0.593  -1.012  -0.444  1.00  0.00     0.241 C 
HETATM   20  O5  UNL     1       0.130  -1.077  -1.653  1.00  0.00    -0.271 OA
ENDROOT
BRANCH  16  21
HETATM   21  C20 UNL     1       2.939   1.169   1.241  1.00  0.00     0.035 C 
BRANCH  21  22
HETATM   22  C21 UNL     1       3.341  -0.079   1.998  1.00  0.00     0.022 C 
BRANCH  22  23
HETATM   23  C22 UNL     1       4.459  -0.821   1.305  1.00  0.00     0.122 C 
BRANCH  23  24
HETATM   24  N4  UNL     1       5.647  -0.022   1.164  1.00  0.00    -0.367 N 
HETATM   25  C23 UNL     1       6.366  -0.169   0.095  1.00  0.00     0.196 C 
HETATM   26  N5  UNL     1       6.040  -1.078  -0.943  1.00  0.00    -0.067 NA
HETATM   27  N6  UNL     1       7.538   0.654   0.011  1.00  0.00    -0.067 NA
ATOM     28  H4  UNL     1       5.917   0.644   1.888  1.00  0.00     0.161 HD
ENDBRANCH  23  24
ENDBRANCH  22  23
ENDBRANCH  21  22
ENDBRANCH  16  21
BRANCH  13  29
HETATM   29  O3  UNL     1       1.079   2.901  -2.680  1.00  0.00    -0.344 OA
ATOM     30  H3  UNL     1       2.000   2.968  -2.904  1.00  0.00     0.219 HD
ENDBRANCH  13  29
BRANCH   1  31
HETATM   31  C4  UNL     1       0.010  -3.345  -0.860  1.00  0.00     0.038 C 
BRANCH  31  32
HETATM   32  C2  UNL     1      -0.234  -4.749  -0.526  1.00  0.00    -0.020 C 
HETATM   33  C1  UNL     1      -1.426  -5.090   0.316  1.00  0.00     0.009 C 
HETATM   34  C3  UNL     1       1.018  -5.462  -0.005  1.00  0.00     0.009 C 
ENDBRANCH  31  32
ENDBRANCH   1  31
BRANCH  10  35
HETATM   35  C14 UNL     1      -0.945   4.443   0.159  1.00  0.00     0.008 C 
HETATM   36  C15 UNL     1      -0.503   5.173  -1.061  1.00  0.00     0.012 C 
HETATM   37  C16 UNL     1      -2.115   5.163   0.752  1.00  0.00     0.012 C 
ENDBRANCH  10  35
BRANCH   9  38
HETATM   38  O2  UNL     1      -1.506   2.836   2.043  1.00  0.00    -0.348 OA
ATOM     39  H2  UNL     1      -1.009   3.638   1.933  1.00  0.00     0.219 HD
ENDBRANCH   9  38
BRANCH   6  40
HETATM   40  C8  UNL     1      -3.876  -0.794   0.456  1.00  0.00     0.038 C 
BRANCH  40  41
HETATM   41  C9  UNL     1      -4.658   0.146  -0.457  1.00  0.00    -0.020 C 
HETATM   42  C10 UNL     1      -6.096  -0.309  -0.593  1.00  0.00     0.009 C 
HETATM   43  C11 UNL     1      -4.075   0.115  -1.869  1.00  0.00     0.009 C 
ENDBRANCH  40  41
ENDBRANCH   6  40
TORSDOF 11
