REMARK  4 active torsions:
REMARK  status: ('A' for Active; 'I' for Inactive)
REMARK    1  A    between atoms: C3_5  and  C4_6 
REMARK    2  A    between atoms: C4_6  and  N2_7 
REMARK    3  A    between atoms: C8_13  and  N4_14 
REMARK    4  A    between atoms: N4_14  and  C9_16 
ROOT
HETATM    1  N2  UNL     1       2.778  -1.503  -0.092  1.00  0.00    -0.371 N 
HETATM    2  C5  UNL     1       2.719  -1.595   1.352  1.00  0.00     0.130 C 
HETATM    3  C6  UNL     1       1.564  -0.683   1.726  1.00  0.00     0.080 C 
HETATM    4  C7  UNL     1       0.679  -0.781   0.512  1.00  0.00     0.056 A 
HETATM    5  N3  UNL     1      -0.612  -0.498   0.293  1.00  0.00    -0.193 N 
ATOM      6  H3  UNL     1      -1.176  -0.136   1.062  1.00  0.00     0.184 HD
HETATM    7  C8  UNL     1      -1.188  -0.676  -0.910  1.00  0.00     0.678 A 
HETATM    8  N5  UNL     1      -0.464  -1.153  -1.946  1.00  0.00    -0.200 N 
ATOM      9  H5  UNL     1      -0.900  -1.288  -2.858  1.00  0.00     0.183 HD
HETATM   10  C15 UNL     1       0.834  -1.449  -1.768  1.00  0.00     0.137 A 
HETATM   11  C16 UNL     1       1.444  -1.268  -0.521  1.00  0.00     0.070 A 
ENDROOT
BRANCH   1  12
HETATM   12  C4  UNL     1       3.917  -1.619  -0.949  1.00  0.00     0.201 C 
BRANCH  12  13
HETATM   13  C3  UNL     1       4.957  -0.619  -0.692  1.00  0.00     0.121 A 
HETATM   14  N1  UNL     1       4.947   0.351   0.226  1.00  0.00    -0.326 N 
HETATM   15  C2  UNL     1       6.110   1.065   0.134  1.00  0.00     0.144 A 
ATOM     16  H1  UNL     1       4.193   0.531   0.889  1.00  0.00     0.169 HD
HETATM   17  C1  UNL     1       6.494   2.228   0.976  1.00  0.00     0.100 C 
HETATM   18  O1  UNL     1       6.777   0.496  -0.839  1.00  0.00    -0.223 OA
HETATM   19  N6  UNL     1       6.116  -0.508  -1.349  1.00  0.00    -0.245 N 
ATOM     20  H6  UNL     1       6.429  -1.104  -2.115  1.00  0.00     0.196 HD
ENDBRANCH  12  13
ENDBRANCH   1  12
BRANCH   7  21
HETATM   21  N4  UNL     1      -2.431  -0.404  -1.123  1.00  0.00    -0.221 N 
ATOM     22  H4  UNL     1      -2.821  -0.556  -2.053  1.00  0.00     0.178 HD
BRANCH  21  23
HETATM   23  C9  UNL     1      -3.289   0.112  -0.073  1.00  0.00     0.099 C 
HETATM   24  C10 UNL     1      -3.547   1.590  -0.211  1.00  0.00     0.027 C 
HETATM   25  C11 UNL     1      -4.876   1.891  -0.852  1.00  0.00     0.022 C 
HETATM   26  C12 UNL     1      -6.033   1.315  -0.080  1.00  0.00     0.082 C 
HETATM   27 CL1  UNL     1      -7.351   1.007  -1.238  1.00  0.00    -0.125 Cl
HETATM   28  C13 UNL     1      -5.674   0.052   0.654  1.00  0.00     0.022 C 
HETATM   29  C14 UNL     1      -4.574  -0.681  -0.086  1.00  0.00     0.027 C 
ENDBRANCH  21  23
ENDBRANCH   7  21
TORSDOF 4
