REMARK  5 active torsions:
REMARK  status: ('A' for Active; 'I' for Inactive)
REMARK    1  A    between atoms: C2_2  and  O1_3 
REMARK    2  A    between atoms: O1_3  and  C3_4 
REMARK    3  A    between atoms: C3_4  and  C4_6 
REMARK    4  A    between atoms: C8_14  and  C9_15 
REMARK    5  A    between atoms: N3_19  and  C12_20 
ROOT
HETATM    1  C4  UNL     1       1.932   2.325  -1.454  1.00  0.00     0.201 C 
HETATM    2  C5  UNL     1       2.059   1.430  -0.254  1.00  0.00     0.019 C 
HETATM    3  N1  UNL     1       2.782   1.775   0.740  1.00  0.00    -0.403 N 
ATOM      4  H11 UNL     1       2.868   1.167   1.555  1.00  0.00     0.155 HD
ATOM      5  H12 UNL     1       3.279   2.665   0.723  1.00  0.00     0.155 HD
HETATM    6  C6  UNL     1       1.328   0.121  -0.229  1.00  0.00     0.148 C 
HETATM    7  C7  UNL     1       1.348  -0.477   1.085  1.00  0.00     0.070 C 
HETATM    8  N2  UNL     1       1.386  -0.961   2.135  1.00  0.00    -0.197 NA
HETATM    9  C8  UNL     1      -0.045   0.324  -0.762  1.00  0.00     0.050 C 
HETATM   10  C17 UNL     1      -0.436   1.811  -0.740  1.00  0.00     0.090 C 
HETATM   11  C18 UNL     1       0.476   2.492  -1.692  1.00  0.00     0.146 C 
HETATM   12  O3  UNL     1      -0.006   3.136  -2.596  1.00  0.00    -0.297 OA
ENDROOT
BRANCH   9  13
HETATM   13  C9  UNL     1      -1.101  -0.487  -0.134  1.00  0.00    -0.032 A 
HETATM   14  C10 UNL     1      -1.767  -1.519  -0.742  1.00  0.00     0.070 A 
HETATM   15  C11 UNL     1      -2.676  -2.006   0.174  1.00  0.00     0.191 A 
HETATM   16  F1  UNL     1      -3.518  -3.033  -0.069  1.00  0.00    -0.186 F 
HETATM   17  N3  UNL     1      -2.585  -1.305   1.317  1.00  0.00    -0.325 N 
HETATM   18  C16 UNL     1      -1.610  -0.362   1.130  1.00  0.00     0.102 A 
BRANCH  17  19
HETATM   19  C12 UNL     1      -3.390  -1.549   2.480  1.00  0.00     0.028 C 
HETATM   20  C13 UNL     1      -3.253  -0.441   3.489  1.00  0.00     0.038 C 
HETATM   21  C14 UNL     1      -4.864  -1.698   2.159  1.00  0.00     0.038 C 
HETATM   22  C15 UNL     1      -2.938  -2.875   3.084  1.00  0.00     0.038 C 
ENDBRANCH  17  19
ENDBRANCH   9  13
BRANCH   1  23
HETATM   23  C3  UNL     1       2.632   1.757  -2.623  1.00  0.00     0.275 C 
HETATM   24  O2  UNL     1       2.025   1.483  -3.688  1.00  0.00    -0.264 OA
BRANCH  23  25
HETATM   25  O1  UNL     1       3.993   1.504  -2.588  1.00  0.00    -0.321 OA
BRANCH  25  26
HETATM   26  C2  UNL     1       4.696   0.953  -3.710  1.00  0.00     0.174 C 
HETATM   27  C1  UNL     1       6.153   0.839  -3.246  1.00  0.00     0.034 C 
ENDBRANCH  25  26
ENDBRANCH  23  25
ENDBRANCH   1  23
TORSDOF 5
