REMARK  6 active torsions:
REMARK  status: ('A' for Active; 'I' for Inactive)
REMARK    1  A    between atoms: C2_2  and  S1_3 
REMARK    2  A    between atoms: S1_3  and  C3_4 
REMARK    3  A    between atoms: C3_4  and  N1_5 
REMARK    4  A    between atoms: C4_7  and  C5_8 
REMARK    5  A    between atoms: C7_11  and  C9_13 
REMARK    6  A    between atoms: N2_23  and  O4_25 
ROOT
HETATM    1  C5  UNL     1      -0.161   0.023  -0.738  1.00  0.00     0.180 C 
HETATM    2  C6  UNL     1      -0.281  -1.387  -1.290  1.00  0.00     0.063 C 
HETATM    3  O1  UNL     1      -1.054   0.188   0.317  1.00  0.00    -0.324 OA
HETATM    4  C7  UNL     1      -2.095   0.973  -0.112  1.00  0.00     0.200 C 
HETATM    5  C8  UNL     1      -2.238   2.246   0.724  1.00  0.00     0.085 C 
HETATM    6  O2  UNL     1      -1.888   1.312  -1.468  1.00  0.00    -0.276 OA
HETATM    7  C15 UNL     1      -0.577   0.997  -1.763  1.00  0.00     0.302 C 
HETATM    8  O3  UNL     1       0.154   1.415  -2.689  1.00  0.00    -0.261 OA
ENDROOT
BRANCH   1   9
HETATM    9  C4  UNL     1       1.199   0.249  -0.219  1.00  0.00     0.111 C 
HETATM   10  N1  UNL     1       2.080  -0.659  -0.358  1.00  0.00    -0.346 N 
ATOM     11  H1  UNL     1       1.842  -1.534  -0.826  1.00  0.00     0.167 HD
BRANCH  10  12
HETATM   12  C3  UNL     1       3.378  -0.457   0.132  1.00  0.00     0.163 C 
HETATM   13  N2  UNL     1       4.078  -1.436   0.630  1.00  0.00    -0.247 N 
ATOM     14  H2  UNL     1       5.019  -1.260   0.981  1.00  0.00     0.196 HD
BRANCH  12  15
HETATM   15  S1  UNL     1       4.098   1.172   0.082  1.00  0.00    -0.093 SA
BRANCH  15  16
HETATM   16  C2  UNL     1       5.804   1.134   0.751  1.00  0.00     0.078 C 
HETATM   17  C1  UNL     1       6.615   0.305  -0.232  1.00  0.00     0.016 C 
ENDBRANCH  15  16
ENDBRANCH  12  15
BRANCH  13  18
HETATM   18  O4  UNL     1       3.549  -2.717   0.685  1.00  0.00    -0.288 OA
ATOM     19  H4  UNL     1       4.060  -3.431   1.048  1.00  0.00     0.244 HD
ENDBRANCH  13  18
ENDBRANCH  10  12
ENDBRANCH   1   9
BRANCH   4  20
HETATM   20  C9  UNL     1      -3.361   0.218   0.085  1.00  0.00     0.004 A 
HETATM   21  C10 UNL     1      -3.425  -0.716   1.101  1.00  0.00     0.015 A 
HETATM   22  C11 UNL     1      -4.595  -1.429   1.302  1.00  0.00     0.043 A 
HETATM   23  C12 UNL     1      -5.699  -1.222   0.502  1.00  0.00     0.116 A 
HETATM   24  F1  UNL     1      -6.867  -1.920   0.685  1.00  0.00    -0.206 F 
HETATM   25  C13 UNL     1      -5.595  -0.272  -0.511  1.00  0.00     0.043 A 
HETATM   26  C14 UNL     1      -4.446   0.453  -0.735  1.00  0.00     0.015 A 
ENDBRANCH   4  20
TORSDOF 6
