REMARK  5 active torsions:
REMARK  status: ('A' for Active; 'I' for Inactive)
REMARK    1  A    between atoms: C3_5  and  S1_6 
REMARK    2  A    between atoms: S1_6  and  C4_7 
REMARK    3  A    between atoms: C4_7  and  C6_9 
REMARK    4  A    between atoms: C6_9  and  N4_14 
REMARK    5  A    between atoms: N4_14  and  C8_16 
ROOT
HETATM    1  C6  UNL     1       1.794  -1.633   0.965  1.00  0.00     0.106 C 
HETATM    2  N2  UNL     1       1.497  -1.156   2.114  1.00  0.00    -0.282 N 
ATOM      3  H2  UNL     1       0.660  -1.525   2.566  1.00  0.00     0.179 HD
HETATM    4  C7  UNL     1       2.207  -0.185   2.800  1.00  0.00     0.183 C 
HETATM    5  N3  UNL     1       2.796   0.616   3.393  1.00  0.00    -0.172 NA
ENDROOT
BRANCH   1   6
HETATM    6  C4  UNL     1       0.916  -2.668   0.388  1.00  0.00     0.118 C 
HETATM    7  C5  UNL     1       0.042  -3.328   1.450  1.00  0.00     0.030 C 
BRANCH   6   8
HETATM    8  S1  UNL     1       0.027  -2.209  -1.081  1.00  0.00    -0.093 SA
BRANCH   8   9
HETATM    9  C3  UNL     1      -1.205  -0.941  -0.728  1.00  0.00     0.113 A 
HETATM   10  N1  UNL     1      -2.046  -0.360  -1.568  1.00  0.00    -0.348 N 
HETATM   11  C2  UNL     1      -2.868   0.535  -1.140  1.00  0.00     0.019 A 
ATOM     12  H1  UNL     1      -2.044  -0.621  -2.554  1.00  0.00     0.167 HD
HETATM   13  C1  UNL     1      -3.862   1.244  -2.044  1.00  0.00     0.069 C 
HETATM   14  C11 UNL     1      -2.835   0.854   0.194  1.00  0.00     0.003 A 
HETATM   15  S3  UNL     1      -1.591  -0.183   0.757  1.00  0.00    -0.068 SA
HETATM   16  C12 UNL     1      -3.674   1.852   0.946  1.00  0.00     0.058 C 
ENDBRANCH   8   9
ENDBRANCH   6   8
ENDBRANCH   1   6
BRANCH   1  17
HETATM   17  N4  UNL     1       2.932  -1.173   0.291  1.00  0.00    -0.325 N 
ATOM     18  H4  UNL     1       3.722  -1.812   0.201  1.00  0.00     0.169 HD
BRANCH  17  19
HETATM   19  C8  UNL     1       3.052   0.027  -0.234  1.00  0.00     0.151 A 
HETATM   20  N5  UNL     1       4.114   0.508  -0.885  1.00  0.00    -0.344 N 
HETATM   21  C9  UNL     1       4.061   1.725  -1.342  1.00  0.00     0.121 A 
ATOM     22  H5  UNL     1       4.947  -0.065  -1.021  1.00  0.00     0.167 HD
HETATM   23  C10 UNL     1       2.918   2.445  -1.130  1.00  0.00     0.093 A 
HETATM   24 CL1  UNL     1       2.591   4.110  -1.645  1.00  0.00    -0.075 Cl
HETATM   25  S2  UNL     1       1.955   1.330  -0.273  1.00  0.00    -0.040 SA
ENDBRANCH  17  19
ENDBRANCH   1  17
TORSDOF 5
