REMARK  12 active torsions:
REMARK  status: ('A' for Active; 'I' for Inactive)
REMARK    1  A    between atoms: N1_1  and  N2_4 
REMARK    2  A    between atoms: N2_4  and  C1_5 
REMARK    3  A    between atoms: N3_10  and  C3_11 
REMARK    4  A    between atoms: N7_18  and  O3_19 
REMARK    5  A    between atoms: O3_19  and  C5_20 
REMARK    6  A    between atoms: C5_20  and  C6_21 
REMARK    7  A    between atoms: C6_21  and  N8_22 
REMARK    8  A    between atoms: N8_22  and  C7_24 
REMARK    9  A    between atoms: C7_24  and  C8_25 
REMARK   10  A    between atoms: C8_25  and  O4_26 
REMARK   11  A    between atoms: O4_26  and  S2_27 
REMARK   12  A    between atoms: C10_33  and  C11_34 
ROOT
HETATM    1  C3  UNL     1      -2.155   0.719   0.545  1.00  0.00     0.204 A 
HETATM    2  N4  UNL     1      -2.515   1.541   1.571  1.00  0.00    -0.278 N 
ATOM      3  H4  UNL     1      -3.478   1.531   1.908  1.00  0.00     0.189 HD
HETATM    4  N5  UNL     1      -1.640   2.347   2.133  1.00  0.00    -0.270 N 
ATOM      5  H5  UNL     1      -1.942   2.948   2.899  1.00  0.00     0.189 HD
HETATM    6  C4  UNL     1      -0.358   2.402   1.727  1.00  0.00     0.237 A 
HETATM    7  N6  UNL     1       0.478   3.314   2.415  1.00  0.00    -0.060 NA
HETATM    8  N7  UNL     1       0.063   1.633   0.737  1.00  0.00    -0.150 N 
HETATM    9  C9  UNL     1      -0.843   0.790   0.147  1.00  0.00     0.320 A 
HETATM   10  O8  UNL     1      -0.417   0.070  -0.790  1.00  0.00    -0.261 OA
ENDROOT
BRANCH   1  11
HETATM   11  N3  UNL     1      -3.097  -0.146  -0.056  1.00  0.00    -0.238 N 
HETATM   12  S1  UNL     1      -2.869  -1.223  -1.359  1.00  0.00     0.236 S 
HETATM   13  C2  UNL     1      -4.573  -1.807  -1.539  1.00  0.00     0.189 C 
HETATM   14  O1  UNL     1      -1.969  -2.381  -1.011  1.00  0.00    -0.205 OA
HETATM   15  O2  UNL     1      -2.445  -0.548  -2.638  1.00  0.00    -0.205 OA
HETATM   16  C1  UNL     1      -5.307  -0.707  -0.803  1.00  0.00     0.149 C 
HETATM   17  C10 UNL     1      -4.471  -0.293   0.349  1.00  0.00     0.226 C 
BRANCH  16  18
HETATM   18  N2  UNL     1      -5.752   0.356  -1.648  1.00  0.00    -0.140 NA
BRANCH  18  19
HETATM   19  N1  UNL     1      -6.398   1.303  -0.851  1.00  0.00    -0.348 N 
ATOM     20  H12 UNL     1      -6.523   1.234   0.159  1.00  0.00     0.172 HD
ATOM     21  H11 UNL     1      -6.716   2.062  -1.454  1.00  0.00     0.172 HD
ENDBRANCH  18  19
ENDBRANCH  16  18
BRANCH  17  22
HETATM   22  C11 UNL     1      -4.619  -1.319   1.425  1.00  0.00     0.199 C 
HETATM   23  O9  UNL     1      -5.753  -1.581   1.889  1.00  0.00    -0.646 OA
HETATM   24  O10 UNL     1      -3.471  -1.951   1.873  1.00  0.00    -0.646 OA
ENDBRANCH  17  22
ENDBRANCH   1  11
BRANCH   8  25
HETATM   25  O3  UNL     1       1.347   1.645   0.275  1.00  0.00    -0.266 OA
BRANCH  25  26
HETATM   26  C5  UNL     1       2.495   1.292   0.991  1.00  0.00     0.221 C 
BRANCH  26  27
HETATM   27  C6  UNL     1       3.743   1.422   0.119  1.00  0.00     0.147 C 
BRANCH  27  28
HETATM   28  N8  UNL     1       3.691   0.590  -1.023  1.00  0.00    -0.398 N 
ATOM     29  H8  UNL     1       3.605   0.993  -1.956  1.00  0.00     0.158 HD
BRANCH  28  30
HETATM   30  C7  UNL     1       3.760  -0.805  -0.849  1.00  0.00     0.083 C 
BRANCH  30  31
HETATM   31  C8  UNL     1       5.104  -1.308  -0.368  1.00  0.00     0.237 C 
BRANCH  31  32
HETATM   32  O4  UNL     1       6.111  -0.981  -1.276  1.00  0.00    -0.252 OA
BRANCH  32  33
HETATM   33  S2  UNL     1       7.613  -1.504  -0.812  1.00  0.00     0.251 S 
HETATM   34  O5  UNL     1       8.259  -0.448   0.048  1.00  0.00    -0.572 OA
HETATM   35  O6  UNL     1       8.421  -1.699  -2.086  1.00  0.00    -0.572 OA
HETATM   36  O7  UNL     1       7.524  -2.930   0.056  1.00  0.00    -0.572 OA
ENDBRANCH  32  33
ENDBRANCH  31  32
ENDBRANCH  30  31
ENDBRANCH  28  30
ENDBRANCH  27  28
ENDBRANCH  26  27
ENDBRANCH  25  26
ENDBRANCH   8  25
TORSDOF 12
