REMARK  13 active torsions:
REMARK  status: ('A' for Active; 'I' for Inactive)
REMARK       I    between atoms: C2_2  and  N1_4 
REMARK    1  A    between atoms: N1_4  and  N2_6 
REMARK    2  A    between atoms: C4_9  and  N3_10 
REMARK       I    between atoms: N3_10  and  C5_12 
REMARK    3  A    between atoms: C5_12  and  C6_14 
REMARK    4  A    between atoms: C6_14  and  N4_15 
REMARK    5  A    between atoms: C6_14  and  C7_19 
REMARK    6  A    between atoms: C7_19  and  S1_20 
REMARK    7  A    between atoms: S1_20  and  N5_23 
REMARK       I    between atoms: N5_23  and  C8_25 
REMARK    8  A    between atoms: C8_25  and  C9_27 
REMARK    9  A    between atoms: C9_27  and  C10_28 
REMARK   10  A    between atoms: C10_28  and  O7_29 
REMARK   11  A    between atoms: C10_28  and  N7_33 
REMARK   12  A    between atoms: C12_38  and  C13_39 
REMARK   13  A    between atoms: C13_39  and  N10_40 
ROOT
HETATM    1  C10 UNL     1      -3.580  -0.227  -1.586  1.00  0.00     0.268 C 
HETATM    2  C11 UNL     1      -2.587   0.175  -2.601  1.00  0.00     0.125 C 
HETATM    3  N6  UNL     1      -1.822   0.472  -3.387  1.00  0.00    -0.192 NA
ENDROOT
BRANCH   1   4
HETATM    4  C9  UNL     1      -2.923  -0.606  -0.312  1.00  0.00     0.184 C 
BRANCH   4   5
HETATM    5  C8  UNL     1      -2.116  -1.848  -0.344  1.00  0.00     0.236 C 
HETATM    6  N5  UNL     1      -1.400  -2.345   0.742  1.00  0.00    -0.254 N 
ATOM      7  H5  UNL     1      -1.415  -1.836   1.626  1.00  0.00     0.181 HD
HETATM    8  O6  UNL     1      -2.096  -2.478  -1.443  1.00  0.00    -0.272 OA
BRANCH   6   9
HETATM    9  S1  UNL     1      -0.497  -3.790   0.625  1.00  0.00     0.235 S 
HETATM   10  O4  UNL     1      -0.988  -4.847   1.607  1.00  0.00    -0.205 OA
HETATM   11  O5  UNL     1      -0.684  -4.398  -0.755  1.00  0.00    -0.205 OA
BRANCH   9  12
HETATM   12  C7  UNL     1       1.224  -3.586   0.935  1.00  0.00     0.206 C 
BRANCH  12  13
HETATM   13  C6  UNL     1       1.811  -2.655  -0.074  1.00  0.00     0.290 C 
BRANCH  13  14
HETATM   14  C5  UNL     1       3.262  -2.407   0.107  1.00  0.00     0.251 C 
HETATM   15  N3  UNL     1       3.770  -1.114  -0.113  1.00  0.00    -0.329 N 
ATOM     16  H3  UNL     1       3.119  -0.381  -0.394  1.00  0.00     0.165 HD
HETATM   17  O3  UNL     1       4.007  -3.346   0.448  1.00  0.00    -0.271 OA
BRANCH  15  18
HETATM   18  C4  UNL     1       5.174  -0.766   0.039  1.00  0.00     0.306 A 
HETATM   19  N2  UNL     1       5.479   0.637   0.215  1.00  0.00    -0.222 N 
HETATM   20  C3  UNL     1       5.779  -0.026  -1.074  1.00  0.00     0.285 A 
HETATM   21  O2  UNL     1       6.212  -0.010  -2.235  1.00  0.00    -0.267 OA
BRANCH  19  22
HETATM   22  N1  UNL     1       5.560   1.858   0.878  1.00  0.00    -0.263 N 
HETATM   23  C2  UNL     1       6.146   1.969   2.158  1.00  0.00     0.232 C 
HETATM   24  C1  UNL     1       6.202   3.315   2.803  1.00  0.00     0.119 C 
HETATM   25  O1  UNL     1       6.622   0.992   2.778  1.00  0.00    -0.272 OA
ATOM     26  H1  UNL     1       5.187   2.694   0.428  1.00  0.00     0.190 HD
ENDBRANCH  19  22
ENDBRANCH  15  18
ENDBRANCH  13  14
BRANCH  13  27
HETATM   27  N4  UNL     1       1.060  -1.432  -0.137  1.00  0.00    -0.066 N 
ATOM     28  H43 UNL     1       1.237  -0.847   0.680  1.00  0.00     0.275 HD
ATOM     29  H42 UNL     1       1.423  -0.812  -0.861  1.00  0.00     0.275 HD
ATOM     30  H41 UNL     1       0.062  -1.603  -0.261  1.00  0.00     0.275 HD
ENDBRANCH  13  27
ENDBRANCH  12  13
ENDBRANCH   9  12
ENDBRANCH   6   9
ENDBRANCH   4   5
ENDBRANCH   1   4
BRANCH   1  31
HETATM   31  O7  UNL     1      -4.467  -1.159  -2.089  1.00  0.00    -0.356 OA
ATOM     32  H7  UNL     1      -4.888  -0.916  -2.905  1.00  0.00     0.213 HD
ENDBRANCH   1  31
BRANCH   1  33
HETATM   33  N7  UNL     1      -4.367   0.974  -1.297  1.00  0.00    -0.166 N 
HETATM   34  N8  UNL     1      -3.839   2.181  -1.248  1.00  0.00    -0.221 N 
HETATM   35  N9  UNL     1      -4.759   3.047  -0.963  1.00  0.00    -0.271 N 
ATOM     36  H8  UNL     1      -2.856   2.400  -1.410  1.00  0.00     0.210 HD
HETATM   37  C12 UNL     1      -5.935   2.418  -0.816  1.00  0.00     0.139 A 
ATOM     38  H9  UNL     1      -4.612   4.052  -0.865  1.00  0.00     0.190 HD
HETATM   39  N11 UNL     1      -5.648   1.097  -1.037  1.00  0.00    -0.265 N 
ATOM     40  H11 UNL     1      -6.321   0.332  -1.005  1.00  0.00     0.190 HD
BRANCH  37  41
HETATM   41  C13 UNL     1      -7.241   3.032  -0.478  1.00  0.00     0.308 C 
BRANCH  41  42
HETATM   42  N10 UNL     1      -7.014   4.445  -0.221  1.00  0.00    -0.073 N 
ATOM     43 3H10 UNL     1      -6.303   4.609   0.492  1.00  0.00     0.274 HD
ATOM     44 2H10 UNL     1      -6.542   4.917  -0.993  1.00  0.00     0.274 HD
ATOM     45 1H10 UNL     1      -7.913   4.868   0.012  1.00  0.00     0.274 HD
ENDBRANCH  41  42
ENDBRANCH  37  41
ENDBRANCH   1  33
TORSDOF 13
