REMARK  13 active torsions:
REMARK  status: ('A' for Active; 'I' for Inactive)
REMARK    1  A    between atoms: N1_1  and  C1_4 
REMARK    2  A    between atoms: N3_9  and  C3_10 
REMARK    3  A    between atoms: C4_12  and  C5_13 
REMARK    4  A    between atoms: C5_13  and  O3_14 
REMARK    5  A    between atoms: O3_14  and  S1_15 
REMARK    6  A    between atoms: S1_15  and  N4_16 
REMARK    7  A    between atoms: C6_21  and  O6_22 
REMARK    8  A    between atoms: O6_22  and  C7_23 
REMARK    9  A    between atoms: C7_23  and  C8_24 
REMARK   10  A    between atoms: C8_24  and  N5_25 
REMARK   11  A    between atoms: N5_25  and  C9_27 
REMARK   12  A    between atoms: C10_29  and  O8_30 
REMARK   13  A    between atoms: O8_30  and  S2_31 
ROOT
HETATM    1  C3  UNL     1      -1.401  -0.552   1.000  1.00  0.00     0.271 C 
HETATM    2  O2  UNL     1      -1.053   0.653   1.542  1.00  0.00    -0.353 OA
HETATM    3  C4  UNL     1       0.276   0.842   1.261  1.00  0.00     0.181 C 
HETATM    4  C6  UNL     1       0.663   0.002   0.081  1.00  0.00     0.187 C 
HETATM    5  C10 UNL     1      -0.655  -0.616  -0.308  1.00  0.00     0.226 C 
ENDROOT
BRANCH   1   6
HETATM    6  N3  UNL     1      -2.813  -0.757   0.856  1.00  0.00    -0.220 N 
HETATM    7  C2  UNL     1      -3.256  -2.022   0.796  1.00  0.00     0.347 A 
HETATM    8  N2  UNL     1      -4.574  -2.258   0.661  1.00  0.00    -0.141 N 
HETATM    9  O1  UNL     1      -2.444  -3.012   0.866  1.00  0.00    -0.246 OA
HETATM   10  C1  UNL     1      -5.491  -1.276   0.581  1.00  0.00     0.683 A 
ATOM     11  H2  UNL     1      -4.893  -3.226   0.617  1.00  0.00     0.189 HD
HETATM   12  N6  UNL     1      -5.002  -0.011   0.645  1.00  0.00    -0.141 N 
HETATM   13  C11 UNL     1      -3.693   0.248   0.779  1.00  0.00     0.347 A 
ATOM     14  H6  UNL     1      -5.654   0.771   0.589  1.00  0.00     0.189 HD
HETATM   15  O12 UNL     1      -3.296   1.452   0.834  1.00  0.00    -0.246 OA
BRANCH  10  16
HETATM   16  N1  UNL     1      -6.758  -1.496   0.451  1.00  0.00    -0.234 N 
ATOM     17  H12 UNL     1      -7.125  -2.446   0.403  1.00  0.00     0.174 HD
ATOM     18  H11 UNL     1      -7.453  -0.752   0.390  1.00  0.00     0.174 HD
ENDBRANCH  10  16
ENDBRANCH   1   6
BRANCH   5  19
HETATM   19  O8  UNL     1      -1.271  -0.087  -1.371  1.00  0.00    -0.244 OA
BRANCH  19  20
HETATM   20  S2  UNL     1      -1.608  -0.978  -2.674  1.00  0.00     0.252 S 
HETATM   21  O9  UNL     1      -1.391  -2.437  -2.340  1.00  0.00    -0.572 OA
HETATM   22  O10 UNL     1      -3.010  -0.879  -3.190  1.00  0.00    -0.572 OA
HETATM   23  O11 UNL     1      -0.588  -0.682  -3.999  1.00  0.00    -0.572 OA
ENDBRANCH  19  20
ENDBRANCH   5  19
BRANCH   3  24
HETATM   24  C5  UNL     1       0.598   2.325   1.043  1.00  0.00     0.226 C 
BRANCH  24  25
HETATM   25  O3  UNL     1       1.935   2.465   0.767  1.00  0.00    -0.257 OA
BRANCH  25  26
HETATM   26  S1  UNL     1       2.353   4.061   0.519  1.00  0.00     0.355 S 
HETATM   27  O4  UNL     1       2.054   4.823   1.773  1.00  0.00    -0.176 OA
HETATM   28  O5  UNL     1       3.828   4.095   0.196  1.00  0.00    -0.176 OA
BRANCH  26  29
HETATM   29  N4  UNL     1       1.443   4.691  -0.823  1.00  0.00    -0.306 N 
ATOM     30  H42 UNL     1       0.764   4.156  -1.364  1.00  0.00     0.171 HD
ATOM     31  H41 UNL     1       1.699   5.667  -0.975  1.00  0.00     0.171 HD
ENDBRANCH  26  29
ENDBRANCH  25  26
ENDBRANCH  24  25
ENDBRANCH   3  24
BRANCH   4  32
HETATM   32  O6  UNL     1       1.556  -0.987   0.540  1.00  0.00    -0.379 OA
BRANCH  32  33
HETATM   33  C7  UNL     1       2.755  -0.965  -0.190  1.00  0.00     0.188 C 
BRANCH  33  34
HETATM   34  C8  UNL     1       3.636  -2.054   0.375  1.00  0.00     0.148 C 
BRANCH  34  35
HETATM   35  N5  UNL     1       4.911  -2.172  -0.262  1.00  0.00    -0.366 N 
ATOM     36  H5  UNL     1       5.148  -3.054  -0.716  1.00  0.00     0.161 HD
BRANCH  35  37
HETATM   37  C9  UNL     1       5.867  -1.113  -0.292  1.00  0.00     0.348 C 
HETATM   38  O7  UNL     1       5.672  -0.005   0.229  1.00  0.00    -0.284 OA
ENDBRANCH  35  37
ENDBRANCH  34  35
ENDBRANCH  33  34
ENDBRANCH  32  33
ENDBRANCH   4  32
TORSDOF 13
