REMARK  15 active torsions:
REMARK  status: ('A' for Active; 'I' for Inactive)
REMARK    1  A    between atoms: C2_2  and  C3_3 
REMARK    2  A    between atoms: C3_3  and  C4_4 
REMARK    3  A    between atoms: C4_4  and  O1_5 
REMARK    4  A    between atoms: C4_4  and  C7_8 
REMARK    5  A    between atoms: O1_5  and  C5_6 
REMARK       I    between atoms: C7_8  and  N1_10 
REMARK    6  A    between atoms: N1_10  and  C8_12 
REMARK    7  A    between atoms: C8_12  and  O3_13 
REMARK    8  A    between atoms: C8_12  and  N2_15 
REMARK    9  A    between atoms: C13_22  and  C14_23 
REMARK   10  A    between atoms: C14_23  and  C15_24 
REMARK   11  A    between atoms: C14_23  and  N5_32 
REMARK   12  A    between atoms: C15_24  and  C16_25 
REMARK   13  A    between atoms: C16_25  and  C17_26 
REMARK   14  A    between atoms: C17_26  and  N4_27 
REMARK       I    between atoms: N4_27  and  C18_29 
REMARK   15  A    between atoms: N5_32  and  C20_34 
ROOT
HETATM    1  N2  UNL     1       2.226   1.583  -0.138  1.00  0.00    -0.235 N 
HETATM    2  C9  UNL     1       2.685   2.711  -0.895  1.00  0.00     0.156 C 
HETATM    3  C10 UNL     1       2.078   2.642  -2.276  1.00  0.00     0.044 C 
HETATM    4  C11 UNL     1       1.410   1.264  -2.467  1.00  0.00     0.156 C 
HETATM    5  N3  UNL     1       0.368   1.107  -1.485  1.00  0.00    -0.236 N 
HETATM    6  C12 UNL     1      -0.929   0.857  -1.403  1.00  0.00     0.277 A 
HETATM    7  O4  UNL     1      -1.694   0.608  -2.389  1.00  0.00    -0.266 OA
HETATM    8  C13 UNL     1      -1.343   0.911  -0.057  1.00  0.00     0.075 A 
HETATM    9  C28 UNL     1      -0.199   1.199   0.649  1.00  0.00     0.156 A 
HETATM   10  N7  UNL     1       0.794   1.311  -0.225  1.00  0.00    -0.197 N 
ENDROOT
BRANCH   8  11
HETATM   11  C14 UNL     1      -2.706   0.613   0.382  1.00  0.00     0.028 C 
BRANCH  11  12
HETATM   12  C15 UNL     1      -3.220   1.843   1.166  1.00  0.00     0.060 C 
BRANCH  12  13
HETATM   13  C16 UNL     1      -4.582   1.737   1.662  1.00  0.00     0.026 C 
BRANCH  13  14
HETATM   14  C17 UNL     1      -5.226   2.942   2.288  1.00  0.00     0.123 C 
BRANCH  14  15
HETATM   15  N4  UNL     1      -5.299   4.103   1.466  1.00  0.00    -0.361 N 
HETATM   16  C18 UNL     1      -4.294   5.007   1.141  1.00  0.00     0.213 C 
HETATM   17  C19 UNL     1      -4.463   6.142   0.217  1.00  0.00     0.117 C 
HETATM   18  O5  UNL     1      -3.123   4.890   1.649  1.00  0.00    -0.274 OA
ATOM     19  H4  UNL     1      -6.214   4.298   1.060  1.00  0.00     0.162 HD
ENDBRANCH  14  15
ENDBRANCH  13  14
ENDBRANCH  12  13
ENDBRANCH  11  12
BRANCH  11  20
HETATM   20  N5  UNL     1      -3.610  -0.028  -0.449  1.00  0.00    -0.349 N 
ATOM     21  H5  UNL     1      -3.858   0.420  -1.331  1.00  0.00     0.167 HD
BRANCH  20  22
HETATM   22  C20 UNL     1      -4.225  -1.311  -0.127  1.00  0.00     0.077 C 
HETATM   23  N6  UNL     1      -4.392  -2.239  -0.972  1.00  0.00    -0.370 N 
HETATM   24  C21 UNL     1      -5.030  -3.418  -0.382  1.00  0.00     0.032 C 
ATOM     25  H6  UNL     1      -4.114  -2.173  -1.951  1.00  0.00     0.161 HD
HETATM   26  C22 UNL     1      -4.467  -4.712  -0.879  1.00  0.00     0.031 C 
HETATM   27  C25 UNL     1      -6.513  -3.430  -0.580  1.00  0.00     0.031 C 
HETATM   28  C26 UNL     1      -4.712  -3.236   1.125  1.00  0.00     0.038 C 
HETATM   29  C23 UNL     1      -5.675  -5.599  -1.161  1.00  0.00     0.002 C 
HETATM   30  C24 UNL     1      -6.791  -4.612  -1.468  1.00  0.00     0.002 C 
HETATM   31  C27 UNL     1      -4.735  -1.751   1.216  1.00  0.00     0.078 C 
ENDBRANCH  20  22
ENDBRANCH  11  20
ENDBRANCH   8  11
BRANCH   1  32
HETATM   32  C8  UNL     1       2.889   0.737   0.745  1.00  0.00     0.242 C 
BRANCH  32  33
HETATM   33  N1  UNL     1       4.187   0.271   0.724  1.00  0.00    -0.289 N 
HETATM   34  C7  UNL     1       5.226   0.367  -0.190  1.00  0.00     0.253 C 
HETATM   35  O2  UNL     1       5.125   1.037  -1.264  1.00  0.00    -0.270 OA
ATOM     36  H1  UNL     1       4.436  -0.258   1.560  1.00  0.00     0.172 HD
BRANCH  34  37
HETATM   37  C4  UNL     1       6.568  -0.271  -0.061  1.00  0.00     0.213 C 
BRANCH  37  38
HETATM   38  C3  UNL     1       7.530   0.856   0.332  1.00  0.00     0.041 C 
BRANCH  38  39
HETATM   39  C2  UNL     1       8.967   0.567   0.234  1.00  0.00    -0.002 C 
HETATM   40  C1  UNL     1       9.500   0.296  -1.142  1.00  0.00     0.005 C 
ENDBRANCH  38  39
ENDBRANCH  37  38
BRANCH  37  41
HETATM   41  O1  UNL     1       6.689  -1.342   0.768  1.00  0.00    -0.377 OA
BRANCH  41  42
HETATM   42  C5  UNL     1       7.203  -2.493   0.251  1.00  0.00     0.164 C 
HETATM   43  C6  UNL     1       7.219  -3.613   1.289  1.00  0.00     0.033 C 
ENDBRANCH  41  42
ENDBRANCH  37  41
ENDBRANCH  34  37
ENDBRANCH  32  33
BRANCH  32  44
HETATM   44  O3  UNL     1       2.207   0.264   1.779  1.00  0.00    -0.331 OA
ATOM     45  H3  UNL     1       1.313   0.585   1.793  1.00  0.00     0.221 HD
ENDBRANCH  32  44
ENDBRANCH   1  32
TORSDOF 15
