REMARK  12 active torsions:
REMARK  status: ('A' for Active; 'I' for Inactive)
REMARK    1  A    between atoms: C2_2  and  C3_3 
REMARK    2  A    between atoms: C5_5  and  N1_6 
REMARK    3  A    between atoms: N1_6  and  C6_8 
REMARK    4  A    between atoms: C7_9  and  C8_10 
REMARK    5  A    between atoms: C12_18  and  O3_19 
REMARK    6  A    between atoms: O3_19  and  C13_20 
REMARK    7  A    between atoms: C13_20  and  C14_21 
REMARK    8  A    between atoms: C14_21  and  N3_22 
REMARK    9  A    between atoms: C20_28  and  O4_29 
REMARK   10  A    between atoms: O4_29  and  C21_30 
REMARK   11  A    between atoms: C21_30  and  C22_31 
REMARK   12  A    between atoms: C22_31  and  N4_32 
REMARK       I    between atoms: C23_34  and  N6_36 
ROOT
HETATM    1  C6  UNL     1       3.191  -1.402   0.866  1.00  0.00     0.065 A 
HETATM    2  C7  UNL     1       3.466  -2.398   1.867  1.00  0.00     0.083 A 
HETATM    3  C9  UNL     1       2.462  -3.201   2.287  1.00  0.00     0.109 A 
HETATM    4  N2  UNL     1       1.202  -3.141   1.832  1.00  0.00    -0.364 N 
ATOM      5  H2  UNL     1       0.490  -3.777   2.190  1.00  0.00     0.165 HD
HETATM    6  C10 UNL     1       0.895  -2.227   0.896  1.00  0.00     0.047 A 
HETATM    7  C11 UNL     1      -0.432  -2.185   0.472  1.00  0.00     0.070 A 
HETATM    8  C12 UNL     1      -0.809  -1.275  -0.447  1.00  0.00     0.104 A 
HETATM    9  C20 UNL     1       0.172  -0.377  -0.960  1.00  0.00     0.103 A 
HETATM   10  C26 UNL     1       1.486  -0.443  -0.521  1.00  0.00     0.055 A 
HETATM   11  C27 UNL     1       1.861  -1.376   0.420  1.00  0.00     0.021 A 
ENDROOT
BRANCH   1  12
HETATM   12  N1  UNL     1       4.096  -0.695   0.559  1.00  0.00    -0.341 N 
ATOM     13  H1  UNL     1       4.863  -1.027   1.143  1.00  0.00     0.167 HD
BRANCH  12  14
HETATM   14  C5  UNL     1       4.648   0.300  -0.139  1.00  0.00     0.108 A 
HETATM   15  C4  UNL     1       5.464   0.076  -1.275  1.00  0.00     0.073 A 
HETATM   16  C3  UNL     1       6.072   1.065  -1.989  1.00  0.00     0.013 A 
HETATM   17  N8  UNL     1       5.885   2.313  -1.594  1.00  0.00    -0.356 N 
HETATM   18  C28 UNL     1       5.113   2.621  -0.508  1.00  0.00     0.182 A 
ATOM     19  H8  UNL     1       6.330   3.069  -2.115  1.00  0.00     0.166 HD
HETATM   20  N7  UNL     1       4.522   1.635   0.184  1.00  0.00    -0.339 N 
ATOM     21  H7  UNL     1       3.950   1.886   0.991  1.00  0.00     0.168 HD
BRANCH  16  22
HETATM   22  C2  UNL     1       6.945   0.711  -3.164  1.00  0.00     0.052 C 
HETATM   23  C1  UNL     1       7.482   1.942  -3.822  1.00  0.00     0.011 C 
ENDBRANCH  16  22
ENDBRANCH  12  14
ENDBRANCH   1  12
BRANCH   2  24
HETATM   24  C8  UNL     1       4.832  -2.474   2.366  1.00  0.00     0.213 C 
HETATM   25  O1  UNL     1       5.755  -1.750   1.927  1.00  0.00    -0.644 OA
HETATM   26  O2  UNL     1       5.156  -3.373   3.362  1.00  0.00    -0.644 OA
ENDBRANCH   2  24
BRANCH   9  27
HETATM   27  O4  UNL     1      -0.203   0.535  -1.875  1.00  0.00    -0.347 OA
BRANCH  27  28
HETATM   28  C21 UNL     1       0.268   1.527  -2.640  1.00  0.00     0.195 C 
BRANCH  28  29
HETATM   29  C22 UNL     1       0.874   2.676  -1.823  1.00  0.00     0.149 C 
BRANCH  29  30
HETATM   30  N4  UNL     1      -0.137   3.188  -0.960  1.00  0.00    -0.363 N 
HETATM   31  C23 UNL     1      -0.690   4.326  -0.999  1.00  0.00     0.185 C 
HETATM   32  N5  UNL     1      -0.426   5.360  -1.923  1.00  0.00    -0.064 NA
HETATM   33  N6  UNL     1      -1.688   4.598  -0.003  1.00  0.00    -0.364 N 
HETATM   34  C24 UNL     1      -3.015   4.927  -0.436  1.00  0.00     0.151 C 
HETATM   35  C25 UNL     1      -1.348   4.537   1.424  1.00  0.00     0.151 C 
ATOM     36  H4  UNL     1      -0.454   2.561  -0.220  1.00  0.00     0.162 HD
ENDBRANCH  29  30
ENDBRANCH  28  29
ENDBRANCH  27  28
ENDBRANCH   9  27
BRANCH   8  37
HETATM   37  O3  UNL     1      -2.060  -1.153  -0.920  1.00  0.00    -0.346 OA
BRANCH  37  38
HETATM   38  C13 UNL     1      -3.264  -1.761  -0.695  1.00  0.00     0.206 C 
BRANCH  38  39
HETATM   39  C14 UNL     1      -3.763  -1.551   0.690  1.00  0.00     0.299 C 
BRANCH  39  40
HETATM   40  N3  UNL     1      -5.062  -2.224   0.903  1.00  0.00     0.090 N 
HETATM   41  C15 UNL     1      -4.871  -3.665   0.891  1.00  0.00     0.272 C 
HETATM   42  C16 UNL     1      -5.970  -4.392   1.609  1.00  0.00     0.030 C 
HETATM   43  C17 UNL     1      -7.168  -3.527   1.886  1.00  0.00     0.003 C 
HETATM   44  C18 UNL     1      -6.865  -2.231   2.564  1.00  0.00     0.030 C 
HETATM   45  C19 UNL     1      -5.459  -1.821   2.250  1.00  0.00     0.272 C 
ENDBRANCH  39  40
ENDBRANCH  38  39
ENDBRANCH  37  38
ENDBRANCH   8  37
TORSDOF 12
