REMARK  13 active torsions:
REMARK  status: ('A' for Active; 'I' for Inactive)
REMARK    1  A    between atoms: C3_5  and  N2_6 
REMARK       I    between atoms: N2_6  and  C4_8 
REMARK    2  A    between atoms: C4_8  and  C5_10 
REMARK    3  A    between atoms: C5_10  and  N3_11 
REMARK    4  A    between atoms: C9_15  and  C10_16 
REMARK    5  A    between atoms: C10_16  and  C11_17 
REMARK    6  A    between atoms: C11_17  and  O2_18 
REMARK    7  A    between atoms: C12_21  and  C13_22 
REMARK    8  A    between atoms: C13_22  and  C14_23 
REMARK    9  A    between atoms: C14_23  and  C15_24 
REMARK   10  A    between atoms: C15_24  and  C16_25 
REMARK   11  A    between atoms: C16_25  and  C17_26 
REMARK       I    between atoms: N6_32  and  C19_34 
REMARK   12  A    between atoms: C19_34  and  C20_36 
REMARK   13  A    between atoms: C20_36  and  C21_37 
ROOT
HETATM    1  C1  UNL     1      -0.031  -4.586  -1.823  1.00  0.00     0.069 C 
HETATM    2  C2  UNL     1      -0.870  -3.465  -1.222  1.00  0.00     0.020 A 
HETATM    3  N1  UNL     1      -2.087  -3.639  -0.798  1.00  0.00    -0.339 N 
ATOM      4  H1  UNL     1      -2.531  -4.556  -0.855  1.00  0.00     0.168 HD
HETATM    5  C3  UNL     1      -2.743  -2.597  -0.288  1.00  0.00     0.151 A 
HETATM    6  S1  UNL     1      -1.607  -1.329  -0.411  1.00  0.00    -0.057 SA
HETATM    7  C12 UNL     1      -0.330  -2.212  -1.120  1.00  0.00     0.008 A 
ENDROOT
BRANCH   7   8
HETATM    8  C13 UNL     1       1.035  -1.726  -1.527  1.00  0.00     0.048 C 
BRANCH   8   9
HETATM    9  C14 UNL     1       2.103  -2.149  -0.573  1.00  0.00     0.006 C 
BRANCH   9  10
HETATM   10  C15 UNL     1       1.905  -1.659   0.824  1.00  0.00     0.007 C 
BRANCH  10  11
HETATM   11  C16 UNL     1       1.865  -0.172   0.979  1.00  0.00     0.066 C 
BRANCH  11  12
HETATM   12  C17 UNL     1       3.190   0.368   0.496  1.00  0.00     0.069 A 
HETATM   13  N4  UNL     1       4.299   0.559   1.198  1.00  0.00    -0.296 N 
HETATM   14  N5  UNL     1       5.335   1.034   0.639  1.00  0.00    -0.279 N 
ATOM     15  H4  UNL     1       4.319   0.323   2.190  1.00  0.00     0.187 HD
HETATM   16  C18 UNL     1       5.281   1.333  -0.662  1.00  0.00     0.167 A 
ATOM     17  H5  UNL     1       6.191   1.184   1.172  1.00  0.00     0.189 HD
HETATM   18  N6  UNL     1       6.229   1.831  -1.424  1.00  0.00    -0.306 N 
HETATM   19  S3  UNL     1       3.676   0.903  -1.052  1.00  0.00    -0.038 SA
HETATM   20  C19 UNL     1       7.508   2.127  -0.907  1.00  0.00     0.227 C 
ATOM     21  H6  UNL     1       6.036   2.007  -2.410  1.00  0.00     0.171 HD
HETATM   22  O3  UNL     1       7.717   3.254  -0.392  1.00  0.00    -0.273 OA
BRANCH  20  23
HETATM   23  C20 UNL     1       8.612   1.142  -0.958  1.00  0.00     0.142 C 
BRANCH  23  24
HETATM   24  C21 UNL     1       9.866   1.755  -0.341  1.00  0.00    -0.043 A 
HETATM   25  C22 UNL     1      10.766   2.441  -1.058  1.00  0.00     0.015 A 
HETATM   26  C23 UNL     1      11.853   2.943  -0.398  1.00  0.00     0.050 A 
HETATM   27  S2  UNL     1      11.588   2.442   1.209  1.00  0.00    -0.113 SA
HETATM   28  C24 UNL     1      10.113   1.614   1.001  1.00  0.00     0.057 A 
ENDBRANCH  23  24
ENDBRANCH  20  23
ENDBRANCH  11  12
ENDBRANCH  10  11
ENDBRANCH   9  10
ENDBRANCH   8   9
ENDBRANCH   7   8
BRANCH   5  29
HETATM   29  N2  UNL     1      -3.974  -2.575   0.189  1.00  0.00    -0.306 N 
HETATM   30  C4  UNL     1      -4.520  -1.371   0.696  1.00  0.00     0.252 C 
HETATM   31  O1  UNL     1      -4.704  -1.271   1.927  1.00  0.00    -0.271 OA
ATOM     32  H2  UNL     1      -4.533  -3.428   0.192  1.00  0.00     0.171 HD
BRANCH  30  33
HETATM   33  C5  UNL     1      -4.861  -0.275  -0.197  1.00  0.00     0.375 C 
BRANCH  33  34
HETATM   34  N3  UNL     1      -5.416   0.897   0.440  1.00  0.00     0.102 N 
HETATM   35  C6  UNL     1      -5.649   1.869  -0.642  1.00  0.00     0.273 C 
HETATM   36  C7  UNL     1      -6.931   1.482  -1.311  1.00  0.00     0.032 C 
HETATM   37  C8  UNL     1      -7.627   0.570  -0.324  1.00  0.00     0.037 C 
HETATM   38  C9  UNL     1      -6.775   0.668   0.900  1.00  0.00     0.225 C 
BRANCH  38  39
HETATM   39  C10 UNL     1      -7.182   1.869   1.718  1.00  0.00     0.062 C 
BRANCH  39  40
HETATM   40  C11 UNL     1      -8.571   1.787   2.278  1.00  0.00     0.166 C 
BRANCH  40  41
HETATM   41  O2  UNL     1      -8.695   0.685   3.100  1.00  0.00    -0.401 OA
ATOM     42  H2  UNL     1      -9.575   0.633   3.455  1.00  0.00     0.209 HD
ENDBRANCH  40  41
ENDBRANCH  39  40
ENDBRANCH  38  39
ENDBRANCH  33  34
ENDBRANCH  30  33
ENDBRANCH   5  29
TORSDOF 13
