REMARK  13 active torsions:
REMARK  status: ('A' for Active; 'I' for Inactive)
REMARK    1  A    between atoms: C2_2  and  C3_3 
REMARK    2  A    between atoms: C3_3  and  C4_4 
REMARK    3  A    between atoms: C4_4  and  C5_5 
REMARK    4  A    between atoms: C5_5  and  N1_6 
REMARK    5  A    between atoms: C5_5  and  C24_35 
REMARK       I    between atoms: N1_6  and  C6_8 
REMARK    6  A    between atoms: C6_8  and  C7_10 
REMARK    7  A    between atoms: C9_12  and  C10_13 
REMARK    8  A    between atoms: C11_14  and  C12_15 
REMARK    9  A    between atoms: C19_24  and  C20_25 
REMARK   10  A    between atoms: C20_25  and  C21_26 
REMARK       I    between atoms: C21_26  and  N3_28 
REMARK   11  A    between atoms: N3_28  and  S1_30 
REMARK       I    between atoms: C24_35  and  N4_37 
REMARK   12  A    between atoms: N4_37  and  C25_39 
REMARK   13  A    between atoms: C25_39  and  C26_40 
ROOT
HETATM    1  C26 UNL     1      -8.715   0.438   0.479  1.00  0.00     0.143 C 
HETATM    2  C27 UNL     1      -9.769   0.107   1.439  1.00  0.00     0.060 C 
HETATM    3  N5  UNL     1     -10.607  -0.144   2.186  1.00  0.00    -0.197 NA
ENDROOT
BRANCH   1   4
HETATM    4  C25 UNL     1      -7.346   0.160   1.057  1.00  0.00     0.136 C 
BRANCH   4   5
HETATM    5  N4  UNL     1      -6.312   0.496   0.098  1.00  0.00    -0.358 N 
HETATM    6  C24 UNL     1      -4.939   0.337   0.363  1.00  0.00     0.240 C 
HETATM    7  O5  UNL     1      -4.559  -0.104   1.463  1.00  0.00    -0.271 OA
ATOM      8  H4  UNL     1      -6.593   0.865  -0.811  1.00  0.00     0.162 HD
BRANCH   6   9
HETATM    9  C5  UNL     1      -3.922   0.694  -0.672  1.00  0.00     0.177 C 
BRANCH   9  10
HETATM   10  C4  UNL     1      -4.039   2.119  -1.090  1.00  0.00     0.035 C 
BRANCH  10  11
HETATM   11  C3  UNL     1      -3.803   3.096   0.030  1.00  0.00     0.002 C 
BRANCH  11  12
HETATM   12  C2  UNL     1      -3.969   4.509  -0.503  1.00  0.00    -0.004 C 
HETATM   13  C1  UNL     1      -5.402   4.612  -1.028  1.00  0.00     0.005 C 
ENDBRANCH  11  12
ENDBRANCH  10  11
ENDBRANCH   9  10
BRANCH   9  14
HETATM   14  N1  UNL     1      -2.583   0.437  -0.165  1.00  0.00    -0.342 N 
HETATM   15  C6  UNL     1      -1.949  -0.770  -0.562  1.00  0.00     0.269 C 
HETATM   16  O1  UNL     1      -2.524  -1.571  -1.314  1.00  0.00    -0.266 OA
ATOM     17  H1  UNL     1      -2.116   1.100   0.454  1.00  0.00     0.163 HD
BRANCH  15  18
HETATM   18  C7  UNL     1      -0.616  -1.054  -0.072  1.00  0.00     0.102 A 
HETATM   19  C8  UNL     1      -0.076  -2.292  -0.279  1.00  0.00     0.058 A 
HETATM   20  C9  UNL     1       1.183  -2.631   0.153  1.00  0.00     0.055 A 
HETATM   21  C16 UNL     1       1.937  -1.681   0.824  1.00  0.00     0.110 A 
HETATM   22  C17 UNL     1       1.398  -0.445   1.028  1.00  0.00     0.047 A 
HETATM   23  O4  UNL     1       3.216  -1.704   1.379  1.00  0.00    -0.342 OA
HETATM   24  N2  UNL     1       0.142  -0.154   0.582  1.00  0.00    -0.353 N 
HETATM   25  C18 UNL     1       2.407   0.397   1.745  1.00  0.00     0.093 C 
ATOM     26  H2  UNL     1      -0.236   0.778   0.750  1.00  0.00     0.166 HD
HETATM   27  C19 UNL     1       3.673  -0.402   1.655  1.00  0.00     0.143 C 
BRANCH  20  28
HETATM   28  C10 UNL     1       1.706  -3.950  -0.076  1.00  0.00    -0.063 C 
HETATM   29  C11 UNL     1       2.125  -5.065  -0.255  1.00  0.00    -0.092 C 
BRANCH  29  30
HETATM   30  C12 UNL     1       2.627  -6.427  -0.447  1.00  0.00     0.013 C 
HETATM   31  C13 UNL     1       1.525  -7.434  -0.227  1.00  0.00     0.028 C 
HETATM   32  C14 UNL     1       3.721  -6.647   0.593  1.00  0.00     0.028 C 
HETATM   33  C15 UNL     1       3.181  -6.607  -1.855  1.00  0.00     0.028 C 
ENDBRANCH  29  30
ENDBRANCH  20  28
BRANCH  27  34
HETATM   34  C20 UNL     1       4.580   0.126   0.597  1.00  0.00     0.136 C 
BRANCH  34  35
HETATM   35  C21 UNL     1       5.001   1.498   0.853  1.00  0.00     0.231 C 
HETATM   36  O2  UNL     1       4.646   2.083   1.925  1.00  0.00    -0.273 OA
HETATM   37  N3  UNL     1       5.820   2.194  -0.106  1.00  0.00    -0.287 N 
ATOM     38  H3  UNL     1       6.085   1.697  -0.956  1.00  0.00     0.178 HD
BRANCH  37  39
HETATM   39  S1  UNL     1       6.378   3.804   0.088  1.00  0.00     0.019 S 
HETATM   40  C22 UNL     1       7.269   5.294   0.598  1.00  0.00     0.136 C 
HETATM   41  C23 UNL     1       4.692   4.500   0.455  1.00  0.00     0.136 C 
HETATM   42  O3  UNL     1       7.210   3.088   1.894  1.00  0.00    -0.250 OA
ENDBRANCH  37  39
ENDBRANCH  34  35
ENDBRANCH  27  34
ENDBRANCH  15  18
ENDBRANCH   9  14
ENDBRANCH   6   9
ENDBRANCH   4   5
ENDBRANCH   1   4
TORSDOF 13
