REMARK  15 active torsions:
REMARK  status: ('A' for Active; 'I' for Inactive)
REMARK    1  A    between atoms: N1_1  and  C1_5 
REMARK    2  A    between atoms: C1_5  and  C2_6 
REMARK    3  A    between atoms: C2_6  and  C3_7 
REMARK    4  A    between atoms: C3_7  and  C4_8 
REMARK    5  A    between atoms: C4_8  and  C5_9 
REMARK    6  A    between atoms: C6_12  and  O1_13 
REMARK    7  A    between atoms: C8_17  and  C9_18 
REMARK    8  A    between atoms: C9_18  and  N3_19 
REMARK    9  A    between atoms: C11_26  and  C12_27 
REMARK   10  A    between atoms: C12_27  and  O5_28 
REMARK   11  A    between atoms: C14_34  and  N5_35 
REMARK   12  A    between atoms: N5_35  and  C15_36 
REMARK   13  A    between atoms: C16_38  and  N6_39 
REMARK   14  A    between atoms: C17_43  and  O8_44 
REMARK   15  A    between atoms: C18_48  and  N8_49 
ROOT
HETATM    1  C5  UNL     1       3.178  -0.495  -0.328  1.00  0.00     0.177 C 
HETATM    2  N2  UNL     1       1.748  -0.552   0.037  1.00  0.00    -0.337 N 
ATOM      3  H2  UNL     1       1.088  -0.301  -0.699  1.00  0.00     0.164 HD
HETATM    4  C6  UNL     1       1.189  -0.907   1.266  1.00  0.00     0.258 C 
HETATM    5  O2  UNL     1       1.220  -2.122   1.908  1.00  0.00    -0.314 OA
HETATM    6  C7  UNL     1       0.779  -3.365   1.399  1.00  0.00     0.213 C 
HETATM    7  C8  UNL     1      -0.285  -3.247   0.332  1.00  0.00     0.181 C 
HETATM    8  O3  UNL     1      -1.528  -3.536   0.804  1.00  0.00    -0.310 OA
HETATM    9  C10 UNL     1      -2.384  -3.193   1.758  1.00  0.00     0.284 C 
HETATM   10  O4  UNL     1      -2.711  -4.057   2.655  1.00  0.00    -0.263 OA
HETATM   11  C11 UNL     1      -3.080  -1.881   1.977  1.00  0.00     0.207 C 
HETATM   12  N4  UNL     1      -2.886  -0.989   0.882  1.00  0.00    -0.343 N 
ATOM     13  H4  UNL     1      -1.905  -0.881   0.626  1.00  0.00     0.163 HD
HETATM   14  C13 UNL     1      -3.733  -0.241   0.093  1.00  0.00     0.257 C 
HETATM   15  O6  UNL     1      -3.887  -0.584  -1.151  1.00  0.00    -0.270 OA
HETATM   16  C14 UNL     1      -4.556   0.969   0.426  1.00  0.00     0.296 C 
HETATM   17  C16 UNL     1      -4.612   1.875  -0.831  1.00  0.00     0.301 C 
HETATM   18  C17 UNL     1      -3.380   1.887  -1.612  1.00  0.00     0.149 C 
HETATM   19  N7  UNL     1      -2.048   1.836  -1.221  1.00  0.00    -0.323 N 
ATOM     20  H7  UNL     1      -1.533   1.031  -1.578  1.00  0.00     0.165 HD
HETATM   21  C18 UNL     1      -1.268   2.730  -0.394  1.00  0.00     0.484 C 
HETATM   22  N9  UNL     1      -0.212   3.389  -1.159  1.00  0.00    -0.027 N 
ATOM     23  H91 UNL     1      -0.249   4.400  -1.030  1.00  0.00     0.281 HD
ATOM     24  H92 UNL     1      -0.405   3.339  -2.159  1.00  0.00     0.281 HD
HETATM   25  C19 UNL     1       1.109   2.884  -0.867  1.00  0.00     0.256 C 
HETATM   26  C20 UNL     1       1.588   2.071  -2.044  1.00  0.00     0.150 C 
HETATM   27  N10 UNL     1       2.914   1.535  -1.906  1.00  0.00    -0.358 N 
ATOM     28  H10 UNL     1       3.663   2.209  -2.065  1.00  0.00     0.162 HD
HETATM   29  C21 UNL     1       3.350   0.241  -1.589  1.00  0.00     0.240 C 
HETATM   30  O9  UNL     1       3.986  -0.395  -2.527  1.00  0.00    -0.271 OA
ENDROOT
BRANCH   1  31
HETATM   31  C4  UNL     1       4.022  -0.134   0.830  1.00  0.00     0.035 C 
BRANCH  31  32
HETATM   32  C3  UNL     1       5.472  -0.021   0.646  1.00  0.00     0.004 C 
BRANCH  32  33
HETATM   33  C2  UNL     1       6.042   1.055  -0.185  1.00  0.00     0.027 C 
BRANCH  33  34
HETATM   34  C1  UNL     1       7.593   0.951  -0.178  1.00  0.00     0.229 C 
BRANCH  34  35
HETATM   35  N1  UNL     1       7.874  -0.362  -0.741  1.00  0.00    -0.079 N 
ATOM     36  H13 UNL     1       7.403  -1.130  -0.262  1.00  0.00     0.274 HD
ATOM     37  H12 UNL     1       7.450  -0.522  -1.655  1.00  0.00     0.274 HD
ATOM     38  H11 UNL     1       8.892  -0.430  -0.736  1.00  0.00     0.274 HD
ENDBRANCH  34  35
ENDBRANCH  33  34
ENDBRANCH  32  33
ENDBRANCH  31  32
ENDBRANCH   1  31
BRANCH   4  39
HETATM   39  O1  UNL     1       0.552   0.044   1.890  1.00  0.00    -0.327 OA
ATOM     40  H1  UNL     1       0.172  -0.198   2.726  1.00  0.00     0.221 HD
ENDBRANCH   4  39
BRANCH   7  41
HETATM   41  C9  UNL     1       0.164  -4.237  -0.776  1.00  0.00     0.264 C 
BRANCH  41  42
HETATM   42  N3  UNL     1      -0.822  -4.092  -1.815  1.00  0.00    -0.077 N 
ATOM     43  H33 UNL     1      -1.782  -4.230  -1.499  1.00  0.00     0.274 HD
ATOM     44  H32 UNL     1      -0.945  -3.133  -2.140  1.00  0.00     0.274 HD
ATOM     45  H31 UNL     1      -0.527  -4.743  -2.543  1.00  0.00     0.274 HD
ENDBRANCH  41  42
ENDBRANCH   7  41
BRANCH  21  46
HETATM   46  N8  UNL     1      -2.018   3.738   0.257  1.00  0.00    -0.033 N 
ATOM     47  H83 UNL     1      -2.562   4.269  -0.423  1.00  0.00     0.278 HD
ATOM     48  H82 UNL     1      -2.774   3.321   0.801  1.00  0.00     0.278 HD
ATOM     49  H81 UNL     1      -1.468   4.369   0.840  1.00  0.00     0.278 HD
ENDBRANCH  21  46
BRANCH  11  50
HETATM   50  C12 UNL     1      -2.662  -1.331   3.324  1.00  0.00     0.199 C 
BRANCH  50  51
HETATM   51  O5  UNL     1      -2.927  -2.349   4.274  1.00  0.00    -0.398 OA
ATOM     52  H5  UNL     1      -2.665  -2.004   5.119  1.00  0.00     0.209 HD
ENDBRANCH  50  51
ENDBRANCH  11  50
BRANCH  18  53
HETATM   53  O8  UNL     1      -3.568   1.960  -2.899  1.00  0.00    -0.348 OA
ATOM     54  H8  UNL     1      -2.766   1.968  -3.408  1.00  0.00     0.219 HD
ENDBRANCH  18  53
BRANCH  17  55
HETATM   55  N6  UNL     1      -5.086   3.156  -0.377  1.00  0.00    -0.064 N 
ATOM     56  H63 UNL     1      -5.971   3.107   0.128  1.00  0.00     0.275 HD
ATOM     57  H62 UNL     1      -4.531   3.549   0.383  1.00  0.00     0.275 HD
ATOM     58  H61 UNL     1      -5.123   3.752  -1.204  1.00  0.00     0.275 HD
ENDBRANCH  17  55
BRANCH  16  59
HETATM   59  N5  UNL     1      -5.884   0.549   0.632  1.00  0.00    -0.405 NA
BRANCH  59  60
HETATM   60  C15 UNL     1      -7.141   0.154   0.829  1.00  0.00     0.436 C 
HETATM   61  O7  UNL     1      -8.063   0.806   1.429  1.00  0.00    -0.269 OA
ENDBRANCH  59  60
ENDBRANCH  16  59
TORSDOF 15
