REMARK  13 active torsions:
REMARK  status: ('A' for Active; 'I' for Inactive)
REMARK    1  A    between atoms: N1_1  and  C1_5 
REMARK    2  A    between atoms: C1_5  and  C2_6 
REMARK    3  A    between atoms: C2_6  and  N2_7 
REMARK    4  A    between atoms: C2_6  and  C3_11 
REMARK       I    between atoms: C3_11  and  N3_13 
REMARK    5  A    between atoms: N3_13  and  C4_15 
REMARK       I    between atoms: N4_18  and  C7_19 
REMARK    6  A    between atoms: C7_19  and  C8_21 
REMARK    7  A    between atoms: C8_21  and  N5_22 
REMARK       I    between atoms: N5_22  and  C9_24 
REMARK    8  A    between atoms: C9_24  and  C10_26 
REMARK    9  A    between atoms: C10_26  and  N6_27 
REMARK       I    between atoms: N6_27  and  C11_29 
REMARK   10  A    between atoms: C11_29  and  C12_31 
REMARK   11  A    between atoms: C15_38  and  N9_39 
REMARK       I    between atoms: N9_39  and  C16_40 
REMARK       I    between atoms: C16_40  and  N10_42 
REMARK   12  A    between atoms: N10_42  and  N11_44 
REMARK   13  A    between atoms: C19_55  and  O7_56 
ROOT
HETATM    1  N5  UNL     1      -0.455   0.757  -0.331  1.00  0.00    -0.351 N 
ATOM      2  H5  UNL     1       0.510   0.702  -0.656  1.00  0.00     0.163 HD
HETATM    3  C9  UNL     1      -0.808   1.737   0.597  1.00  0.00     0.235 C 
HETATM    4  O3  UNL     1      -2.008   1.825   0.988  1.00  0.00    -0.272 OA
ENDROOT
BRANCH   3   5
HETATM    5  C10 UNL     1       0.140   2.696   1.160  1.00  0.00     0.225 C 
BRANCH   5   6
HETATM    6  N6  UNL     1       1.520   2.542   0.776  1.00  0.00    -0.347 N 
HETATM    7  C11 UNL     1       2.306   1.419   1.112  1.00  0.00     0.270 C 
HETATM    8  O4  UNL     1       1.791   0.503   1.792  1.00  0.00    -0.266 OA
ATOM      9  H6  UNL     1       1.954   3.287   0.230  1.00  0.00     0.163 HD
BRANCH   7  10
HETATM   10  C12 UNL     1       3.685   1.317   0.683  1.00  0.00     0.117 A 
HETATM   11  C13 UNL     1       4.349   2.264  -0.066  1.00  0.00     0.125 A 
HETATM   12  N7  UNL     1       5.639   2.046  -0.401  1.00  0.00    -0.348 N 
HETATM   13  C14 UNL     1       6.287   0.929  -0.020  1.00  0.00     0.141 A 
ATOM     14  H7  UNL     1       6.134   2.744  -0.956  1.00  0.00     0.167 HD
HETATM   15  N8  UNL     1       7.553   0.699  -0.339  1.00  0.00    -0.300 N 
HETATM   16  C18 UNL     1       5.619  -0.006   0.725  1.00  0.00     0.146 A 
HETATM   17  C15 UNL     1       8.258  -0.416   0.020  1.00  0.00     0.268 A 
ATOM     18  H8  UNL     1       8.037   1.406  -0.893  1.00  0.00     0.171 HD
HETATM   19  N12 UNL     1       7.581  -1.335   0.760  1.00  0.00    -0.281 N 
HETATM   20  C17 UNL     1       6.314  -1.141   1.099  1.00  0.00     0.279 A 
ATOM     21  H12 UNL     1       8.056  -2.187   1.059  1.00  0.00     0.173 HD
HETATM   22  O6  UNL     1       5.663  -1.984   1.788  1.00  0.00    -0.265 OA
HETATM   23  N13 UNL     1       4.343   0.177   1.074  1.00  0.00    -0.343 N 
ATOM     24  H13 UNL     1       3.859  -0.528   1.629  1.00  0.00     0.166 HD
BRANCH  17  25
HETATM   25  N9  UNL     1       9.395  -0.560  -0.302  1.00  0.00    -0.315 NA
HETATM   26  C16 UNL     1      10.642  -0.800  -0.610  1.00  0.00     0.415 C 
HETATM   27  O5  UNL     1      11.018  -1.988  -0.960  1.00  0.00    -0.228 OA
HETATM   28  N10 UNL     1      11.733   0.159  -0.610  1.00  0.00    -0.246 N 
ATOM     29  H10 UNL     1      11.549   1.128  -0.349  1.00  0.00     0.192 HD
BRANCH  28  30
HETATM   30  N11 UNL     1      13.005  -0.216  -0.955  1.00  0.00    -0.340 N 
ATOM     31 2H11 UNL     1      13.172  -1.189  -1.214  1.00  0.00     0.177 HD
ATOM     32 1H11 UNL     1      13.771   0.457  -0.955  1.00  0.00     0.177 HD
ENDBRANCH  28  30
ENDBRANCH  17  25
ENDBRANCH   7  10
ENDBRANCH   5   6
ENDBRANCH   3   5
BRANCH   1  33
HETATM   33  C8  UNL     1      -1.418  -0.174  -0.837  1.00  0.00     0.227 C 
BRANCH  33  34
HETATM   34  C7  UNL     1      -1.945  -1.021   0.246  1.00  0.00     0.253 C 
HETATM   35  N4  UNL     1      -2.934  -1.985  -0.064  1.00  0.00    -0.261 N 
HETATM   36  C6  UNL     1      -3.406  -2.127  -1.409  1.00  0.00     0.150 C 
HETATM   37  N14 UNL     1      -3.443  -2.791   0.942  1.00  0.00    -0.102 NA
HETATM   38  C5  UNL     1      -4.699  -2.913  -1.372  1.00  0.00     0.051 C 
HETATM   39  C4  UNL     1      -5.535  -2.408  -0.214  1.00  0.00     0.132 C 
HETATM   40  C19 UNL     1      -4.867  -2.657   1.107  1.00  0.00     0.254 C 
HETATM   41  O2  UNL     1      -1.510  -0.874   1.421  1.00  0.00    -0.270 OA
BRANCH  39  42
HETATM   42  N3  UNL     1      -5.778  -1.009  -0.422  1.00  0.00    -0.351 N 
HETATM   43  C3  UNL     1      -7.093  -0.480  -0.590  1.00  0.00     0.250 C 
HETATM   44  O1  UNL     1      -8.059  -1.290  -0.552  1.00  0.00    -0.271 OA
ATOM     45  H3  UNL     1      -4.983  -0.370  -0.451  1.00  0.00     0.163 HD
BRANCH  43  46
HETATM   46  C2  UNL     1      -7.368   0.942  -0.803  1.00  0.00     0.299 C 
BRANCH  46  47
HETATM   47  C1  UNL     1      -6.858   1.820   0.318  1.00  0.00     0.272 C 
BRANCH  47  48
HETATM   48  N1  UNL     1      -7.165   3.198  -0.044  1.00  0.00    -0.077 N 
ATOM     49  H13 UNL     1      -6.798   3.463  -0.958  1.00  0.00     0.274 HD
ATOM     50  H12 UNL     1      -8.153   3.347  -0.251  1.00  0.00     0.274 HD
ATOM     51  H11 UNL     1      -6.821   3.790   0.712  1.00  0.00     0.274 HD
ENDBRANCH  47  48
ENDBRANCH  46  47
BRANCH  46  52
HETATM   52  N2  UNL     1      -8.796   1.139  -0.933  1.00  0.00    -0.065 N 
ATOM     53  H23 UNL     1      -9.293   0.981  -0.056  1.00  0.00     0.275 HD
ATOM     54  H22 UNL     1      -9.045   2.120  -1.061  1.00  0.00     0.275 HD
ATOM     55  H21 UNL     1      -9.140   0.547  -1.689  1.00  0.00     0.275 HD
ENDBRANCH  46  52
ENDBRANCH  43  46
ENDBRANCH  39  42
BRANCH  40  56
HETATM   56  O7  UNL     1      -5.350  -3.852   1.634  1.00  0.00    -0.376 OA
ATOM     57  H7  UNL     1      -4.927  -4.010   2.470  1.00  0.00     0.211 HD
ENDBRANCH  40  56
ENDBRANCH  33  34
ENDBRANCH   1  33
TORSDOF 13
