REMARK  14 active torsions:
REMARK  status: ('A' for Active; 'I' for Inactive)
REMARK    1  A    between atoms: C2_2  and  O1_3 
REMARK    2  A    between atoms: C2_2  and  C3_5 
REMARK    3  A    between atoms: C3_5  and  N1_6 
REMARK    4  A    between atoms: C3_5  and  C19_51 
REMARK    5  A    between atoms: N1_6  and  C4_8 
REMARK    6  A    between atoms: C4_8  and  O2_9 
REMARK    7  A    between atoms: C5_11  and  N2_12 
REMARK    8  A    between atoms: C5_11  and  C14_36 
REMARK       I    between atoms: N2_12  and  C6_14 
REMARK       I    between atoms: C6_14  and  N3_16 
REMARK    9  A    between atoms: C9_20  and  O4_21 
REMARK   10  A    between atoms: O4_21  and  C10_22 
REMARK   11  A    between atoms: C13_31  and  N6_32 
REMARK   12  A    between atoms: C17_40  and  C18_41 
REMARK   13  A    between atoms: N9_43  and  N10_45 
REMARK       I    between atoms: C19_51  and  N12_53 
REMARK   14  A    between atoms: N12_53  and  N13_55 
ROOT
HETATM    1  C4  UNL     1      -1.895  -0.635   1.447  1.00  0.00     0.162 C 
HETATM    2  C5  UNL     1      -0.815   0.021   0.749  1.00  0.00     0.097 C 
ENDROOT
BRANCH   2   3
HETATM    3  N2  UNL     1       0.469  -0.333   1.347  1.00  0.00    -0.306 N 
HETATM    4  C6  UNL     1       1.476   0.618   1.655  1.00  0.00     0.325 C 
HETATM    5  O3  UNL     1       1.204   1.835   1.359  1.00  0.00    -0.247 OA
HETATM    6  N3  UNL     1       2.689   0.225   2.248  1.00  0.00    -0.297 N 
HETATM    7  C7  UNL     1       3.012  -1.115   2.678  1.00  0.00     0.204 C 
HETATM    8  C9  UNL     1       3.829   1.110   2.516  1.00  0.00     0.240 C 
HETATM    9  S1  UNL     1       3.848  -0.721   4.283  1.00  0.00    -0.145 SA
HETATM   10  C8  UNL     1       3.976   1.113   4.003  1.00  0.00     0.129 C 
ATOM     11  H2  UNL     1       0.652  -1.315   1.554  1.00  0.00     0.170 HD
BRANCH   8  12
HETATM   12  O4  UNL     1       3.781   2.246   1.823  1.00  0.00    -0.330 OA
BRANCH  12  13
HETATM   13  C10 UNL     1       4.717   2.426   0.835  1.00  0.00     0.373 C 
HETATM   14  N4  UNL     1       5.637   3.478   1.316  1.00  0.00    -0.037 N 
HETATM   15  C11 UNL     1       6.633   3.833   0.352  1.00  0.00     0.337 C 
ATOM     16  H42 UNL     1       5.120   4.301   1.625  1.00  0.00     0.280 HD
ATOM     17  H41 UNL     1       6.066   3.209   2.201  1.00  0.00     0.280 HD
HETATM   18  C12 UNL     1       6.539   3.125  -0.945  1.00  0.00     0.245 C 
HETATM   19  O5  UNL     1       7.585   2.852  -1.570  1.00  0.00    -0.272 OA
HETATM   20  N5  UNL     1       5.259   2.777  -1.429  1.00  0.00    -0.329 N 
HETATM   21  C13 UNL     1       4.151   2.951  -0.460  1.00  0.00     0.341 C 
ATOM     22  H5  UNL     1       5.108   2.431  -2.377  1.00  0.00     0.164 HD
BRANCH  21  23
HETATM   23  N6  UNL     1       3.893   4.358  -0.369  1.00  0.00    -0.054 N 
ATOM     24  H63 UNL     1       3.291   4.581   0.424  1.00  0.00     0.277 HD
ATOM     25  H62 UNL     1       4.723   4.876  -0.082  1.00  0.00     0.277 HD
ATOM     26  H61 UNL     1       3.510   4.713  -1.245  1.00  0.00     0.277 HD
ENDBRANCH  21  23
ENDBRANCH  12  13
ENDBRANCH   8  12
ENDBRANCH   2   3
BRANCH   2  27
HETATM   27  C14 UNL     1      -0.820   0.180  -0.708  1.00  0.00     0.271 C 
HETATM   28  C15 UNL     1      -2.047   1.026  -1.092  1.00  0.00     0.314 C 
HETATM   29  N7  UNL     1      -2.306   0.686  -2.442  1.00  0.00     0.124 N 
HETATM   30  C16 UNL     1      -3.659   0.786  -2.887  1.00  0.00     0.313 C 
HETATM   31  C17 UNL     1      -1.756  -0.654  -2.657  1.00  0.00     0.485 C 
HETATM   32  N11 UNL     1      -0.996  -1.000  -1.463  1.00  0.00    -0.025 N 
ATOM     33 2H11 UNL     1      -0.116  -1.469  -1.676  1.00  0.00     0.281 HD
ATOM     34 1H11 UNL     1      -1.424  -1.754  -0.926  1.00  0.00     0.281 HD
BRANCH  31  35
HETATM   35  C18 UNL     1      -0.980  -0.602  -3.896  1.00  0.00     0.168 C 
HETATM   36  N8  UNL     1       0.235   0.137  -4.002  1.00  0.00    -0.082 NA
HETATM   37  N9  UNL     1      -1.398  -1.233  -4.939  1.00  0.00    -0.294 N 
ATOM     38  H9  UNL     1      -2.270  -1.754  -4.847  1.00  0.00     0.187 HD
BRANCH  37  39
HETATM   39  N10 UNL     1      -0.774  -1.268  -6.166  1.00  0.00    -0.344 N 
ATOM     40 2H10 UNL     1       0.097  -0.742  -6.239  1.00  0.00     0.176 HD
ATOM     41 1H10 UNL     1      -1.105  -1.767  -6.992  1.00  0.00     0.176 HD
ENDBRANCH  37  39
ENDBRANCH  31  35
ENDBRANCH   2  27
BRANCH   1  42
HETATM   42  N1  UNL     1      -3.018  -1.316   0.965  1.00  0.00    -0.354 N 
ATOM     43  H1  UNL     1      -3.124  -1.384  -0.047  1.00  0.00     0.162 HD
BRANCH  42  44
HETATM   44  C3  UNL     1      -4.063  -1.945   1.797  1.00  0.00     0.206 C 
BRANCH  44  45
HETATM   45  C2  UNL     1      -5.418  -1.700   1.254  1.00  0.00     0.146 C 
HETATM   46  C1  UNL     1      -5.641  -2.381  -0.090  1.00  0.00     0.042 C 
BRANCH  45  47
HETATM   47  O1  UNL     1      -6.373  -2.237   2.106  1.00  0.00    -0.393 OA
ATOM     48  H1  UNL     1      -6.234  -1.812   2.944  1.00  0.00     0.210 HD
ENDBRANCH  45  47
ENDBRANCH  44  45
BRANCH  44  49
HETATM   49  C19 UNL     1      -3.692  -3.334   2.096  1.00  0.00     0.261 C 
HETATM   50  O6  UNL     1      -2.460  -3.647   1.830  1.00  0.00    -0.269 OA
HETATM   51  N12 UNL     1      -4.458  -4.369   2.618  1.00  0.00    -0.275 N 
ATOM     52  H12 UNL     1      -5.437  -4.184   2.837  1.00  0.00     0.189 HD
BRANCH  51  53
HETATM   53  N13 UNL     1      -3.946  -5.674   2.862  1.00  0.00    -0.343 N 
ATOM     54 2H13 UNL     1      -2.965  -5.841   2.637  1.00  0.00     0.176 HD
ATOM     55 1H13 UNL     1      -4.508  -6.434   3.245  1.00  0.00     0.176 HD
ENDBRANCH  51  53
ENDBRANCH  44  49
ENDBRANCH  42  44
ENDBRANCH   1  42
BRANCH   1  56
HETATM   56  O2  UNL     1      -1.852  -0.621   2.767  1.00  0.00    -0.345 OA
ATOM     57  H2  UNL     1      -1.089  -0.159   3.094  1.00  0.00     0.219 HD
ENDBRANCH   1  56
TORSDOF 14
