REMARK  5 active torsions:
REMARK  status: ('A' for Active; 'I' for Inactive)
REMARK    1  A    between atoms: O1_1  and  C1_3 
REMARK    2  A    between atoms: C1_3  and  C2_4 
REMARK    3  A    between atoms: N1_6  and  C4_7 
REMARK    4  A    between atoms: C9_16  and  C10_17 
REMARK    5  A    between atoms: N4_20  and  C11_21 
ROOT
HETATM    1  C2  UNL     1      -0.160  -1.261  -0.402  1.00  0.00     0.122 C 
HETATM    2  C3  UNL     1       1.374  -1.352  -0.477  1.00  0.00     0.168 C 
HETATM    3  N1  UNL     1       2.020  -0.094  -0.287  1.00  0.00    -0.213 N 
HETATM    4  C8  UNL     1       1.538   1.046  -1.001  1.00  0.00     0.171 C 
HETATM    5  C9  UNL     1       0.355   0.550  -1.835  1.00  0.00     0.163 C 
HETATM    6  N4  UNL     1      -0.626  -0.134  -1.105  1.00  0.00    -0.389 N 
ENDROOT
BRANCH   3   7
HETATM    7  C4  UNL     1       3.120   0.027   0.593  1.00  0.00     0.679 A 
HETATM    8  N2  UNL     1       3.588  -1.039   1.296  1.00  0.00    -0.202 N 
HETATM    9  C5  UNL     1       4.629  -0.938   2.131  1.00  0.00     0.107 A 
ATOM     10  H2  UNL     1       3.131  -1.944   1.183  1.00  0.00     0.183 HD
HETATM   11  C6  UNL     1       5.277   0.271   2.316  1.00  0.00     0.035 A 
HETATM   12  C7  UNL     1       4.797   1.331   1.606  1.00  0.00     0.107 A 
HETATM   13  N3  UNL     1       3.762   1.196   0.785  1.00  0.00    -0.202 N 
ATOM     14  H3  UNL     1       3.437   2.017   0.275  1.00  0.00     0.183 HD
ENDBRANCH   3   7
BRANCH   1  15
HETATM   15  C1  UNL     1      -0.627  -2.607  -0.906  1.00  0.00     0.190 C 
BRANCH  15  16
HETATM   16  O1  UNL     1      -0.212  -2.766  -2.220  1.00  0.00    -0.399 OA
ATOM     17  H1  UNL     1      -0.506  -3.612  -2.537  1.00  0.00     0.209 HD
ENDBRANCH  15  16
ENDBRANCH   1  15
BRANCH   5  18
HETATM   18  C10 UNL     1      -0.109   1.708  -2.665  1.00  0.00     0.377 C 
HETATM   19  F1  UNL     1       0.978   2.087  -3.466  1.00  0.00    -0.212 F 
HETATM   20  F2  UNL     1      -1.103   1.345  -3.563  1.00  0.00    -0.212 F 
ENDBRANCH   5  18
BRANCH   6  21
HETATM   21  C11 UNL     1      -1.762   0.552  -0.627  1.00  0.00     0.080 C 
HETATM   22  C12 UNL     1      -1.571   1.153   0.774  1.00  0.00     0.030 C 
HETATM   23  C13 UNL     1      -2.929   1.674   1.205  1.00  0.00     0.081 C 
HETATM   24  C14 UNL     1      -3.804   0.494   1.567  1.00  0.00     0.243 C 
HETATM   25  F3  UNL     1      -3.620   0.132   2.887  1.00  0.00    -0.206 F 
HETATM   26  F4  UNL     1      -5.133   0.803   1.400  1.00  0.00    -0.206 F 
HETATM   27  C15 UNL     1      -3.485  -0.713   0.711  1.00  0.00     0.081 C 
HETATM   28  C16 UNL     1      -3.052  -0.239  -0.677  1.00  0.00     0.030 C 
ENDBRANCH   6  21
TORSDOF 5
