REMARK  6 active torsions:
REMARK  status: ('A' for Active; 'I' for Inactive)
REMARK    1  A    between atoms: C2_2  and  O1_3 
REMARK    2  A    between atoms: O1_3  and  C3_4 
REMARK    3  A    between atoms: C3_4  and  C4_6 
REMARK    4  A    between atoms: C4_6  and  O3_7 
REMARK    5  A    between atoms: N1_10  and  C6_11 
REMARK    6  A    between atoms: C7_14  and  C9_16 
ROOT
HETATM    1  C4  UNL     1       2.107   0.487  -0.108  1.00  0.00     0.180 C 
HETATM    2  C5  UNL     1       0.805   0.195   0.598  1.00  0.00     0.174 C 
HETATM    3  N1  UNL     1      -0.190   0.230  -0.456  1.00  0.00    -0.361 N 
HETATM    4  C12 UNL     1       0.449   0.262  -1.756  1.00  0.00     0.103 C 
HETATM    5  C13 UNL     1      -0.225  -0.666  -2.740  1.00  0.00     0.034 C 
HETATM    6  C14 UNL     1       1.866  -0.121  -1.476  1.00  0.00     0.151 C 
HETATM    7 CL1  UNL     1       3.003   0.515  -2.676  1.00  0.00    -0.119 Cl
ENDROOT
BRANCH   3   8
HETATM    8  C6  UNL     1      -1.628   0.236  -0.323  1.00  0.00     0.076 C 
HETATM    9  N2  UNL     1      -2.314  -0.432   0.528  1.00  0.00    -0.363 N 
HETATM   10  C7  UNL     1      -3.717  -0.255   0.457  1.00  0.00     0.126 C 
ATOM     11  H2  UNL     1      -1.878  -1.051   1.212  1.00  0.00     0.162 HD
HETATM   12  C8  UNL     1      -4.448  -1.412  -0.206  1.00  0.00     0.048 C 
HETATM   13  C10 UNL     1      -3.884   0.969  -0.419  1.00  0.00     0.047 C 
HETATM   14  C11 UNL     1      -2.583   1.017  -1.147  1.00  0.00     0.079 C 
BRANCH  10  15
HETATM   15  C9  UNL     1      -4.376   0.019   1.783  1.00  0.00     0.412 C 
HETATM   16  F1  UNL     1      -3.901   1.155   2.384  1.00  0.00    -0.168 F 
HETATM   17  F2  UNL     1      -4.206  -1.061   2.641  1.00  0.00    -0.168 F 
HETATM   18  F3  UNL     1      -5.736   0.165   1.579  1.00  0.00    -0.168 F 
ENDBRANCH  10  15
ENDBRANCH   3   8
BRANCH   1  19
HETATM   19  C3  UNL     1       3.247  -0.264   0.483  1.00  0.00     0.297 C 
HETATM   20  O2  UNL     1       3.125  -1.511   0.594  1.00  0.00    -0.262 OA
BRANCH  19  21
HETATM   21  O1  UNL     1       4.418   0.297   0.915  1.00  0.00    -0.319 OA
BRANCH  21  22
HETATM   22  C2  UNL     1       5.507  -0.356   1.471  1.00  0.00     0.174 C 
HETATM   23  C1  UNL     1       5.222  -1.107   2.732  1.00  0.00     0.034 C 
ENDBRANCH  21  22
ENDBRANCH  19  21
ENDBRANCH   1  19
BRANCH   1  24
HETATM   24  O3  UNL     1       2.367   1.847  -0.173  1.00  0.00    -0.376 OA
ATOM     25  H3  UNL     1       1.639   2.327  -0.550  1.00  0.00     0.211 HD
ENDBRANCH   1  24
TORSDOF 6
