REMARK  3 active torsions:
REMARK  status: ('A' for Active; 'I' for Inactive)
REMARK    1  A    between atoms: C3_6  and  N3_7 
REMARK       I    between atoms: N3_7  and  C4_9 
REMARK    2  A    between atoms: C4_9  and  C5_11 
REMARK    3  A    between atoms: C9_16  and  N4_17 
ROOT
HETATM    1  C1  UNL     1      -2.992  -3.303  -0.093  1.00  0.00     0.179 C 
HETATM    2  N1  UNL     1      -1.634  -2.807  -0.016  1.00  0.00    -0.280 N 
HETATM    3  N2  UNL     1      -0.596  -3.673  -0.141  1.00  0.00    -0.306 N 
ATOM      4  H2  UNL     1      -0.681  -4.681  -0.269  1.00  0.00     0.186 HD
HETATM    5  C2  UNL     1       0.536  -3.008  -0.071  1.00  0.00     0.141 A 
HETATM    6  C3  UNL     1       0.260  -1.645   0.109  1.00  0.00     0.098 A 
HETATM    7  C9  UNL     1      -1.152  -1.559   0.136  1.00  0.00     0.152 A 
ENDROOT
BRANCH   7   8
HETATM    8  N4  UNL     1      -1.869  -0.348   0.382  1.00  0.00    -0.315 N 
HETATM    9  C10 UNL     1      -1.156   0.930   0.177  1.00  0.00     0.135 C 
HETATM   10  C11 UNL     1      -2.145   1.933  -0.450  1.00  0.00     0.099 C 
HETATM   11  C12 UNL     1      -3.228   2.309   0.501  1.00  0.00     0.251 C 
HETATM   12  F1  UNL     1      -4.421   2.593  -0.114  1.00  0.00    -0.206 F 
HETATM   13  F2  UNL     1      -2.875   3.459   1.227  1.00  0.00    -0.206 F 
HETATM   14  C13 UNL     1      -3.335   1.182   1.502  1.00  0.00     0.163 C 
HETATM   15  C14 UNL     1      -3.243  -0.179   0.684  1.00  0.00     0.263 C 
HETATM   16  F3  UNL     1      -3.726  -1.053   1.646  1.00  0.00    -0.200 F 
HETATM   17 CL1  UNL     1      -4.339   0.102  -0.658  1.00  0.00    -0.059 Cl
ENDBRANCH   7   8
BRANCH   6  18
HETATM   18  N3  UNL     1       1.238  -0.667   0.369  1.00  0.00    -0.322 N 
HETATM   19  C4  UNL     1       2.569  -0.846  -0.080  1.00  0.00     0.228 C 
HETATM   20  O1  UNL     1       3.030  -1.800  -0.718  1.00  0.00    -0.273 OA
ATOM     21  H3  UNL     1       0.986   0.176   0.884  1.00  0.00     0.169 HD
BRANCH  19  22
HETATM   22  C5  UNL     1       3.561   0.243   0.248  1.00  0.00     0.104 C 
HETATM   23  C6  UNL     1       3.007   1.501  -0.404  1.00  0.00     0.042 C 
HETATM   24  C7  UNL     1       4.248   2.085  -1.034  1.00  0.00     0.168 C 
HETATM   25  O2  UNL     1       5.078   1.031  -1.341  1.00  0.00    -0.390 OA
HETATM   26  C8  UNL     1       4.885   0.035  -0.404  1.00  0.00     0.181 C 
ENDBRANCH  19  22
ENDBRANCH   6  18
TORSDOF 3
