REMARK  4 active torsions:
REMARK  status: ('A' for Active; 'I' for Inactive)
REMARK    1  A    between atoms: C2_3  and  N2_4 
REMARK    2  A    between atoms: C5_7  and  N3_8 
REMARK    3  A    between atoms: N3_8  and  C6_10 
REMARK    4  A    between atoms: C8_13  and  C9_14 
ROOT
HETATM    1  N2  UNL     1      -1.755   0.259  -0.228  1.00  0.00    -0.345 N 
HETATM    2  C3  UNL     1      -1.072   0.691  -1.380  1.00  0.00     0.068 C 
HETATM    3  C4  UNL     1       0.408   0.440  -1.228  1.00  0.00     0.071 C 
HETATM    4  C5  UNL     1       0.601   0.302   0.248  1.00  0.00     0.100 C 
HETATM    5  C11 UNL     1      -0.761   0.348   0.865  1.00  0.00     0.154 C 
ENDROOT
BRANCH   4   6
HETATM    6  N3  UNL     1       1.349  -0.817   0.645  1.00  0.00    -0.409 N 
ATOM      7  H3  UNL     1       0.869  -1.571   1.137  1.00  0.00     0.154 HD
BRANCH   6   8
HETATM    8  C6  UNL     1       2.696  -0.948   0.404  1.00  0.00     0.103 C 
HETATM    9  C7  UNL     1       3.272  -0.974  -0.952  1.00  0.00     0.193 C 
HETATM   10  O1  UNL     1       4.651  -0.789  -0.790  1.00  0.00    -0.375 OA
HETATM   11  C8  UNL     1       4.920  -0.330   0.462  1.00  0.00     0.230 C 
HETATM   12  C10 UNL     1       3.604   0.049   1.104  1.00  0.00     0.068 C 
BRANCH  11  13
HETATM   13  C9  UNL     1       5.812   0.906   0.451  1.00  0.00     0.413 C 
HETATM   14  F1  UNL     1       5.204   1.919  -0.238  1.00  0.00    -0.168 F 
HETATM   15  F2  UNL     1       5.847   1.340   1.793  1.00  0.00    -0.168 F 
HETATM   16  F3  UNL     1       7.098   0.644   0.106  1.00  0.00    -0.168 F 
ENDBRANCH  11  13
ENDBRANCH   6   8
ENDBRANCH   4   6
BRANCH   1  17
HETATM   17  C2  UNL     1      -3.067  -0.167   0.083  1.00  0.00     0.111 A 
HETATM   18  N1  UNL     1      -4.120   0.400  -0.501  1.00  0.00    -0.303 N 
HETATM   19  C1  UNL     1      -3.932   1.486  -1.420  1.00  0.00     0.161 C 
HETATM   20  C15 UNL     1      -5.389  -0.033  -0.206  1.00  0.00     0.270 A 
HETATM   21  C14 UNL     1      -5.614  -1.058   0.694  1.00  0.00     0.102 A 
HETATM   22  O2  UNL     1      -6.350   0.532  -0.778  1.00  0.00    -0.266 OA
HETATM   23  C13 UNL     1      -4.537  -1.651   1.300  1.00  0.00     0.033 A 
HETATM   24 CL1  UNL     1      -7.219  -1.628   1.092  1.00  0.00    -0.078 Cl
HETATM   25  C12 UNL     1      -3.272  -1.214   1.002  1.00  0.00     0.051 A 
ENDBRANCH   1  17
TORSDOF 4
