REMARK  4 active torsions:
REMARK  status: ('A' for Active; 'I' for Inactive)
REMARK    1  A    between atoms: C2_3  and  C3_4 
REMARK    2  A    between atoms: C9_13  and  C10_14 
REMARK       I    between atoms: C10_14  and  N2_16 
REMARK    3  A    between atoms: N2_16  and  C11_18 
REMARK    4  A    between atoms: C11_18  and  C12_19 
ROOT
HETATM    1  N1  UNL     1      -1.517   3.491   0.085  1.00  0.00    -0.193 NA
HETATM    2  C1  UNL     1      -1.539   2.333  -0.035  1.00  0.00     0.118 C 
HETATM    3  C2  UNL     1      -1.549   0.881  -0.166  1.00  0.00     0.259 C 
HETATM    4  O1  UNL     1      -0.689   0.330   0.786  1.00  0.00    -0.197 OA
HETATM    5  O2  UNL     1      -0.201  -0.816   0.458  1.00  0.00    -0.222 OA
HETATM    6  C9  UNL     1       0.998  -0.781  -0.215  1.00  0.00     0.261 C 
HETATM    7  C13 UNL     1       0.964   0.195  -1.398  1.00  0.00     0.123 C 
HETATM    8  S1  UNL     1      -0.809   0.449  -1.770  1.00  0.00    -0.105 SA
ENDROOT
BRANCH   3   9
HETATM    9  C3  UNL     1      -2.927   0.349  -0.033  1.00  0.00     0.004 A 
HETATM   10  C4  UNL     1      -3.295  -0.577   0.923  1.00  0.00     0.014 A 
HETATM   11  C5  UNL     1      -4.593  -1.052   1.019  1.00  0.00     0.024 A 
HETATM   12  C6  UNL     1      -5.527  -0.562   0.111  1.00  0.00     0.034 A 
HETATM   13 CL1  UNL     1      -7.188  -1.097   0.148  1.00  0.00    -0.084 Cl
HETATM   14  C7  UNL     1      -5.170   0.366  -0.850  1.00  0.00     0.024 A 
HETATM   15  C8  UNL     1      -3.869   0.822  -0.923  1.00  0.00     0.014 A 
ENDBRANCH   3   9
BRANCH   6  16
HETATM   16  C10 UNL     1       2.153  -0.515   0.638  1.00  0.00     0.250 C 
HETATM   17  O3  UNL     1       2.002  -0.343   1.867  1.00  0.00    -0.271 OA
HETATM   18  N2  UNL     1       3.455  -0.448   0.088  1.00  0.00    -0.350 N 
ATOM     19  H2  UNL     1       3.584  -0.587  -0.914  1.00  0.00     0.162 HD
BRANCH  18  20
HETATM   20  C11 UNL     1       4.615  -0.184   0.929  1.00  0.00     0.240 C 
BRANCH  20  21
HETATM   21  C12 UNL     1       5.892  -0.156   0.142  1.00  0.00     0.403 C 
HETATM   22  F1  UNL     1       6.919   0.100   1.030  1.00  0.00    -0.169 F 
HETATM   23  F2  UNL     1       5.886   0.797  -0.851  1.00  0.00    -0.169 F 
HETATM   24  F3  UNL     1       6.138  -1.422  -0.381  1.00  0.00    -0.169 F 
ENDBRANCH  20  21
ENDBRANCH  18  20
ENDBRANCH   6  16
TORSDOF 4
