REMARK  4 active torsions:
REMARK  status: ('A' for Active; 'I' for Inactive)
REMARK       I    between atoms: C1_2  and  N1_3 
REMARK    1  A    between atoms: C1_2  and  C11_16 
REMARK    2  A    between atoms: N1_3  and  C2_5 
REMARK    3  A    between atoms: C6_9  and  N2_10 
REMARK    4  A    between atoms: C12_19  and  C13_20 
ROOT
HETATM    1  O1  UNL     1       1.433   1.398   1.566  1.00  0.00    -0.266 OA
HETATM    2  C1  UNL     1       1.771   0.423   0.853  1.00  0.00     0.272 C 
HETATM    3  N1  UNL     1       1.043  -0.212  -0.144  1.00  0.00    -0.349 N 
ATOM      4  H1  UNL     1       1.577  -1.026  -0.447  1.00  0.00     0.163 HD
ENDROOT
BRANCH   2   5
HETATM    5  C11 UNL     1       3.167  -0.057   1.139  1.00  0.00     0.148 A 
HETATM    6  N3  UNL     1       4.151   0.482   0.354  1.00  0.00    -0.325 N 
HETATM    7  C12 UNL     1       5.296  -0.111   0.789  1.00  0.00     0.235 A 
ATOM      8  H3  UNL     1       4.049   1.173  -0.390  1.00  0.00     0.168 HD
HETATM    9  O3  UNL     1       5.045  -0.933   1.735  1.00  0.00    -0.275 OA
HETATM   10  C14 UNL     1       3.730  -0.929   1.984  1.00  0.00     0.179 A 
HETATM   11 CL1  UNL     1       2.972  -1.917   3.219  1.00  0.00    -0.054 Cl
BRANCH   7  12
HETATM   12  C13 UNL     1       6.597   0.229   0.184  1.00  0.00     0.456 C 
HETATM   13  F1  UNL     1       7.537  -0.658   0.556  1.00  0.00    -0.163 F 
HETATM   14  F2  UNL     1       6.473   0.356  -1.208  1.00  0.00    -0.163 F 
HETATM   15  F3  UNL     1       7.039   1.487   0.623  1.00  0.00    -0.163 F 
ENDBRANCH   7  12
ENDBRANCH   2   5
BRANCH   3  16
HETATM   16  C2  UNL     1      -0.131  -0.173  -0.893  1.00  0.00     0.107 C 
HETATM   17  C3  UNL     1       0.173  -1.025  -2.183  1.00  0.00     0.027 C 
HETATM   18  C4  UNL     1      -1.046  -1.838  -2.472  1.00  0.00     0.004 C 
HETATM   19  C5  UNL     1      -2.145  -1.242  -1.664  1.00  0.00     0.027 C 
HETATM   20  C6  UNL     1      -1.383  -0.748  -0.376  1.00  0.00     0.106 C 
BRANCH  20  21
HETATM   21  N2  UNL     1      -2.301   0.160   0.197  1.00  0.00    -0.383 N 
HETATM   22  C7  UNL     1      -3.636  -0.192   0.419  1.00  0.00     0.148 C 
HETATM   23  C8  UNL     1      -4.545   0.972  -0.021  1.00  0.00     0.187 C 
HETATM   24  O2  UNL     1      -4.264   2.027   0.807  1.00  0.00    -0.385 OA
HETATM   25  C9  UNL     1      -2.953   2.447   0.743  1.00  0.00     0.212 C 
HETATM   26  C10 UNL     1      -1.927   1.355   0.785  1.00  0.00     0.084 C 
ENDBRANCH  20  21
ENDBRANCH   3  16
TORSDOF 4
