REMARK  5 active torsions:
REMARK  status: ('A' for Active; 'I' for Inactive)
REMARK    1  A    between atoms: C2_2  and  C3_3 
REMARK    2  A    between atoms: C2_2  and  N3_15 
REMARK       I    between atoms: C3_3  and  N1_5 
REMARK    3  A    between atoms: C11_16  and  O2_17 
REMARK    4  A    between atoms: C14_21  and  O3_22 
REMARK    5  A    between atoms: O3_22  and  C15_23 
ROOT
HETATM    1  C1  UNL     1      -1.239   1.115  -0.963  1.00  0.00     0.043 C 
HETATM    2  C2  UNL     1      -1.463  -0.071  -0.084  1.00  0.00     0.182 C 
ENDROOT
BRANCH   2   3
HETATM    3  C3  UNL     1      -0.363  -1.042  -0.375  1.00  0.00     0.245 C 
HETATM    4  O1  UNL     1      -0.608  -1.958  -1.193  1.00  0.00    -0.271 OA
HETATM    5  N1  UNL     1       0.920  -0.966   0.219  1.00  0.00    -0.316 N 
HETATM    6  C4  UNL     1       1.908  -1.965  -0.157  1.00  0.00     0.159 C 
HETATM    7  C10 UNL     1       1.250   0.066   1.178  1.00  0.00     0.307 C 
HETATM    8  C5  UNL     1       3.185  -1.193  -0.480  1.00  0.00     0.293 C 
HETATM    9  N2  UNL     1       3.606  -0.429   0.660  1.00  0.00     0.099 N 
HETATM   10  C6  UNL     1       4.788   0.308   0.335  1.00  0.00     0.273 C 
HETATM   11  C9  UNL     1       2.656   0.533   1.110  1.00  0.00     0.276 C 
HETATM   12  C7  UNL     1       4.396   1.742   0.102  1.00  0.00     0.033 C 
HETATM   13  C8  UNL     1       2.864   1.676   0.120  1.00  0.00     0.042 C 
HETATM   14  F1  UNL     1       1.018  -0.422   2.457  1.00  0.00    -0.224 F 
ENDBRANCH   2   3
BRANCH   2  15
HETATM   15  N3  UNL     1      -2.778  -0.664  -0.151  1.00  0.00    -0.295 N 
HETATM   16  C11 UNL     1      -3.046  -1.907   0.272  1.00  0.00     0.144 A 
HETATM   17  C12 UNL     1      -4.367  -2.175   0.018  1.00  0.00     0.060 A 
HETATM   18  C13 UNL     1      -4.896  -1.068  -0.565  1.00  0.00     0.061 A 
HETATM   19  C14 UNL     1      -3.872  -0.121  -0.660  1.00  0.00     0.156 A 
BRANCH  16  20
HETATM   20  O2  UNL     1      -2.174  -2.844   0.887  1.00  0.00    -0.346 OA
ATOM     21  H2  UNL     1      -2.364  -3.725   1.187  1.00  0.00     0.219 HD
ENDBRANCH  16  20
BRANCH  19  22
HETATM   22  O3  UNL     1      -4.110   1.157  -1.215  1.00  0.00    -0.238 OA
BRANCH  22  23
HETATM   23  C15 UNL     1      -4.655   2.206  -0.476  1.00  0.00     0.531 C 
HETATM   24  F2  UNL     1      -5.926   1.782  -0.073  1.00  0.00    -0.144 F 
HETATM   25  F3  UNL     1      -4.745   3.319  -1.267  1.00  0.00    -0.144 F 
HETATM   26  F4  UNL     1      -4.004   2.555   0.677  1.00  0.00    -0.144 F 
ENDBRANCH  22  23
ENDBRANCH  19  22
ENDBRANCH   2  15
TORSDOF 5
