REMARK  3 active torsions:
REMARK  status: ('A' for Active; 'I' for Inactive)
REMARK       I    between atoms: C1_2  and  N1_3 
REMARK    1  A    between atoms: C1_2  and  C11_19 
REMARK    2  A    between atoms: N1_3  and  C2_5 
REMARK    3  A    between atoms: N2_12  and  C8_13 
ROOT
HETATM    1  C2  UNL     1       1.191  -0.439   0.538  1.00  0.00     0.111 C 
HETATM    2  C3  UNL     1       0.836  -1.920   0.378  1.00  0.00     0.194 C 
HETATM    3  O2  UNL     1      -0.505  -1.916   0.650  1.00  0.00    -0.373 OA
HETATM    4  C4  UNL     1      -1.075  -0.791   0.084  1.00  0.00     0.095 C 
HETATM    5  C5  UNL     1      -1.803  -1.159  -1.183  1.00  0.00     0.045 C 
HETATM    6  C6  UNL     1      -2.567  -0.006  -1.737  1.00  0.00     0.023 C 
HETATM    7  C7  UNL     1      -3.029   0.992  -0.737  1.00  0.00     0.129 C 
HETATM    8  N2  UNL     1      -3.063   0.567   0.608  1.00  0.00    -0.316 N 
HETATM    9  C9  UNL     1      -1.941  -0.127   1.103  1.00  0.00     0.103 C 
HETATM   10  C10 UNL     1       0.040   0.156  -0.281  1.00  0.00     0.071 C 
ENDROOT
BRANCH   1  11
HETATM   11  N1  UNL     1       2.458  -0.127  -0.041  1.00  0.00    -0.349 N 
HETATM   12  C1  UNL     1       3.427   0.547   0.764  1.00  0.00     0.270 C 
HETATM   13  O1  UNL     1       3.170   0.859   1.952  1.00  0.00    -0.266 OA
ATOM     14  H1  UNL     1       2.667  -0.379  -1.007  1.00  0.00     0.163 HD
BRANCH  12  15
HETATM   15  C11 UNL     1       4.762   0.889   0.191  1.00  0.00     0.124 A 
HETATM   16  C12 UNL     1       5.717   1.539   0.942  1.00  0.00     0.106 A 
HETATM   17  S1  UNL     1       7.000   1.669  -0.175  1.00  0.00    -0.008 SA
HETATM   18  N3  UNL     1       6.265   0.911  -1.484  1.00  0.00    -0.269 N 
HETATM   19  N4  UNL     1       5.095   0.595  -1.032  1.00  0.00    -0.289 N 
ATOM     20  H3  UNL     1       6.650   0.741  -2.413  1.00  0.00     0.195 HD
ATOM     21  H4  UNL     1       4.430   0.113  -1.637  1.00  0.00     0.188 HD
ENDBRANCH  12  15
ENDBRANCH   1  11
BRANCH   8  22
HETATM   22  C8  UNL     1      -4.342   0.103   1.072  1.00  0.00     0.408 C 
HETATM   23  F1  UNL     1      -4.793  -0.975   0.345  1.00  0.00    -0.166 F 
HETATM   24  F2  UNL     1      -4.385  -0.151   2.408  1.00  0.00    -0.166 F 
HETATM   25 CL1  UNL     1      -5.512   1.435   0.762  1.00  0.00    -0.023 Cl
ENDBRANCH   8  22
TORSDOF 3
