REMARK  5 active torsions:
REMARK  status: ('A' for Active; 'I' for Inactive)
REMARK    1  A    between atoms: O1_2  and  C2_3 
REMARK       I    between atoms: C2_3  and  N1_5 
REMARK       I    between atoms: N1_5  and  C3_7 
REMARK    2  A    between atoms: C3_7  and  C4_9 
REMARK    3  A    between atoms: C4_9  and  N2_12 
REMARK    4  A    between atoms: N2_12  and  O4_13 
REMARK    5  A    between atoms: N2_12  and  N3_15 
ROOT
HETATM    1  N2  UNL     1      -0.745  -0.892   0.812  1.00  0.00    -0.080 NA
ENDROOT
BRANCH   1   2
HETATM    2  C4  UNL     1       0.378  -1.114  -0.019  1.00  0.00     0.133 C 
HETATM    3  C5  UNL     1       1.040  -2.396   0.544  1.00  0.00     0.047 C 
HETATM    4  C6  UNL     1       0.120  -1.445  -1.446  1.00  0.00     0.047 C 
BRANCH   2   5
HETATM    5  C3  UNL     1       1.449  -0.098   0.103  1.00  0.00     0.252 C 
HETATM    6  N1  UNL     1       2.626  -0.203  -0.677  1.00  0.00    -0.271 N 
HETATM    7  C2  UNL     1       3.676   0.757  -0.586  1.00  0.00     0.366 C 
ATOM      8  H1  UNL     1       2.725  -0.987  -1.322  1.00  0.00     0.174 HD
HETATM    9  O2  UNL     1       4.707   0.634  -1.292  1.00  0.00    -0.238 OA
HETATM   10  O3  UNL     1       1.343   0.880   0.896  1.00  0.00    -0.271 OA
BRANCH   7  11
HETATM   11  O1  UNL     1       3.563   1.835   0.286  1.00  0.00    -0.309 OA
HETATM   12  C1  UNL     1       4.591   2.791   0.388  1.00  0.00     0.215 C 
ENDBRANCH   7  11
ENDBRANCH   2   5
ENDBRANCH   1   2
BRANCH   1  13
HETATM   13  O4  UNL     1      -1.270  -2.123   1.114  1.00  0.00    -0.287 OA
HETATM   14  C7  UNL     1      -2.436  -2.419   0.474  1.00  0.00     0.232 C 
ENDBRANCH   1  13
BRANCH   1  15
HETATM   15  N3  UNL     1      -1.714  -0.049   0.504  1.00  0.00    -0.227 N 
HETATM   16  C8  UNL     1      -1.771   0.709  -0.651  1.00  0.00     0.167 C 
HETATM   17  C9  UNL     1      -2.909   1.688  -0.384  1.00  0.00     0.315 C 
HETATM   18  F1  UNL     1      -4.137   1.078  -0.423  1.00  0.00    -0.197 F 
HETATM   19  F2  UNL     1      -2.800   2.753  -1.233  1.00  0.00    -0.197 F 
HETATM   20  C10 UNL     1      -2.546   2.100   1.050  1.00  0.00     0.343 C 
HETATM   21  F3  UNL     1      -3.584   2.723   1.676  1.00  0.00    -0.234 F 
HETATM   22  C11 UNL     1      -2.301   0.691   1.613  1.00  0.00     0.375 C 
HETATM   23  F4  UNL     1      -1.543   0.727   2.735  1.00  0.00    -0.177 F 
HETATM   24  F5  UNL     1      -3.548   0.209   1.950  1.00  0.00    -0.177 F 
ENDBRANCH   1  15
TORSDOF 5
