REMARK  6 active torsions:
REMARK  status: ('A' for Active; 'I' for Inactive)
REMARK    1  A    between atoms: C5_6  and  C6_7 
REMARK    2  A    between atoms: C6_7  and  O2_9 
REMARK    3  A    between atoms: O2_9  and  C7_10 
REMARK    4  A    between atoms: C7_10  and  C8_11 
REMARK       I    between atoms: C8_11  and  N2_13 
REMARK    5  A    between atoms: N2_13  and  N3_15 
REMARK       I    between atoms: N3_15  and  C9_17 
REMARK    6  A    between atoms: C9_17  and  C10_19 
ROOT
HETATM    1  C8  UNL     1       1.924   0.499   1.616  1.00  0.00     0.260 C 
HETATM    2  O3  UNL     1       2.998   0.675   2.278  1.00  0.00    -0.269 OA
HETATM    3  N2  UNL     1       1.987  -0.142   0.373  1.00  0.00    -0.266 N 
ATOM      4  H2  UNL     1       1.150  -0.296  -0.190  1.00  0.00     0.190 HD
ENDROOT
BRANCH   1   5
HETATM    5  C7  UNL     1       0.689   0.996   2.233  1.00  0.00     0.283 C 
BRANCH   5   6
HETATM    6  O2  UNL     1      -0.448   0.677   1.520  1.00  0.00    -0.310 OA
BRANCH   6   7
HETATM    7  C6  UNL     1      -0.987  -0.546   1.242  1.00  0.00     0.293 C 
HETATM    8  O1  UNL     1      -0.380  -1.566   1.704  1.00  0.00    -0.263 OA
BRANCH   7   9
HETATM    9  C5  UNL     1      -2.202  -0.777   0.452  1.00  0.00     0.321 C 
HETATM   10  N1  UNL     1      -3.118   0.282   0.328  1.00  0.00     0.098 N 
HETATM   11  C1  UNL     1      -2.662   1.557  -0.086  1.00  0.00     0.310 C 
HETATM   12  C2  UNL     1      -4.050  -0.190  -0.704  1.00  0.00     0.273 C 
HETATM   13  C3  UNL     1      -3.223  -1.010  -1.647  1.00  0.00     0.033 C 
HETATM   14  C4  UNL     1      -1.850  -1.044  -1.021  1.00  0.00     0.048 C 
ENDBRANCH   7   9
ENDBRANCH   6   7
ENDBRANCH   5   6
ENDBRANCH   1   5
BRANCH   3  15
HETATM   15  N3  UNL     1       3.271  -0.570  -0.071  1.00  0.00    -0.262 N 
HETATM   16  C9  UNL     1       4.136   0.406  -0.620  1.00  0.00     0.308 C 
HETATM   17  O4  UNL     1       3.813   1.609  -0.726  1.00  0.00    -0.265 OA
ATOM     18  H3  UNL     1       3.557  -1.546   0.004  1.00  0.00     0.190 HD
BRANCH  16  19
HETATM   19  C10 UNL     1       5.506  -0.026  -1.097  1.00  0.00     0.337 C 
HETATM   20  F1  UNL     1       6.161   1.078  -1.546  1.00  0.00    -0.196 F 
HETATM   21 CL1  UNL     1       5.257  -1.259  -2.366  1.00  0.00    -0.056 Cl
HETATM   22 CL2  UNL     1       6.328  -0.775   0.280  1.00  0.00    -0.056 Cl
ENDBRANCH  16  19
ENDBRANCH   3  15
TORSDOF 6
