REMARK  7 active torsions:
REMARK  status: ('A' for Active; 'I' for Inactive)
REMARK    1  A    between atoms: O1_2  and  C2_3 
REMARK    2  A    between atoms: C2_3  and  N1_5 
REMARK    3  A    between atoms: N1_5  and  C3_7 
REMARK    4  A    between atoms: C3_7  and  C4_8 
REMARK    5  A    between atoms: C3_7  and  N2_16 
REMARK    6  A    between atoms: C4_8  and  C5_10 
REMARK    7  A    between atoms: C5_10  and  C6_13 
ROOT
HETATM    1  C3  UNL     1      -0.173  -0.127   0.155  1.00  0.00     0.402 C 
ENDROOT
BRANCH   1   2
HETATM    2  N1  UNL     1       1.072  -0.923  -0.079  1.00  0.00    -0.325 N 
ATOM      3  H1  UNL     1       1.050  -1.668  -0.776  1.00  0.00     0.165 HD
BRANCH   2   4
HETATM    4  C2  UNL     1       2.265  -0.692   0.615  1.00  0.00     0.211 C 
HETATM    5  S1  UNL     1       2.366   0.468   1.740  1.00  0.00    -0.033 SA
BRANCH   4   6
HETATM    6  O1  UNL     1       3.379  -1.462   0.343  1.00  0.00    -0.332 OA
HETATM    7  C1  UNL     1       4.601  -0.900  -0.111  1.00  0.00     0.212 C 
ENDBRANCH   4   6
ENDBRANCH   2   4
ENDBRANCH   1   2
BRANCH   1   8
HETATM    8  C4  UNL     1       0.106   1.235  -0.253  1.00  0.00     0.256 C 
HETATM    9  O2  UNL     1       1.114   1.352  -1.022  1.00  0.00    -0.287 OA
BRANCH   8  10
HETATM   10  C5  UNL     1      -0.587   2.491   0.089  1.00  0.00     0.364 C 
HETATM   11  F1  UNL     1      -1.895   2.604  -0.286  1.00  0.00    -0.191 F 
HETATM   12  F2  UNL     1      -0.532   2.712   1.475  1.00  0.00    -0.191 F 
BRANCH  10  13
HETATM   13  C6  UNL     1       0.118   3.697  -0.535  1.00  0.00     0.432 C 
HETATM   14  F3  UNL     1       0.157   3.612  -1.899  1.00  0.00    -0.207 F 
HETATM   15  F4  UNL     1      -0.508   4.868  -0.158  1.00  0.00    -0.207 F 
ENDBRANCH  10  13
ENDBRANCH   8  10
ENDBRANCH   1   8
BRANCH   1  16
HETATM   16  N2  UNL     1      -1.172  -0.893  -0.533  1.00  0.00     0.131 N 
HETATM   17  C7  UNL     1      -2.466  -0.443  -0.467  1.00  0.00     0.289 C 
HETATM   18  C8  UNL     1      -3.458  -1.607  -0.721  1.00  0.00     0.141 C 
HETATM   19  S2  UNL     1      -2.666  -2.823   0.311  1.00  0.00     0.045 S 
HETATM   20  O3  UNL     1      -3.043  -2.432   1.902  1.00  0.00    -0.256 OA
HETATM   21  C9  UNL     1      -1.005  -2.252   0.007  1.00  0.00     0.383 C 
ENDBRANCH   1  16
TORSDOF 7
