REMARK  5 active torsions:
REMARK  status: ('A' for Active; 'I' for Inactive)
REMARK    1  A    between atoms: C1_2  and  C2_3 
REMARK       I    between atoms: C1_2  and  N3_16 
REMARK    2  A    between atoms: C2_3  and  C3_4 
REMARK    3  A    between atoms: C2_3  and  N1_6 
REMARK    4  A    between atoms: N1_6  and  N2_8 
REMARK       I    between atoms: N2_8  and  C4_10 
REMARK    5  A    between atoms: C4_10  and  C5_12 
ROOT
HETATM    1  C2  UNL     1      -0.063  -1.591   0.495  1.00  0.00     0.205 C 
ENDROOT
BRANCH   1   2
HETATM    2  C1  UNL     1      -1.078  -1.147  -0.557  1.00  0.00     0.246 C 
HETATM    3  O1  UNL     1      -1.018  -1.806  -1.645  1.00  0.00    -0.271 OA
HETATM    4  N3  UNL     1      -1.949  -0.104  -0.331  1.00  0.00    -0.327 N 
HETATM    5  C6  UNL     1      -2.060   0.853   0.744  1.00  0.00     0.154 C 
HETATM    6  C8  UNL     1      -3.029   0.261  -1.225  1.00  0.00     0.296 C 
HETATM    7  C7  UNL     1      -2.416   2.085  -0.101  1.00  0.00     0.190 C 
HETATM    8  O3  UNL     1      -3.039   1.641  -1.237  1.00  0.00    -0.370 OA
ENDBRANCH   1   2
BRANCH   1   9
HETATM    9  C3  UNL     1       0.672  -2.850  -0.117  1.00  0.00     0.151 C 
HETATM   10 CL1  UNL     1       1.825  -3.461   1.017  1.00  0.00    -0.128 Cl
ENDBRANCH   1   9
BRANCH   1  11
HETATM   11  N1  UNL     1       0.851  -0.626   0.814  1.00  0.00    -0.319 N 
ATOM     12  H1  UNL     1       0.672  -0.077   1.655  1.00  0.00     0.181 HD
BRANCH  11  13
HETATM   13  N2  UNL     1       1.965  -0.335   0.120  1.00  0.00    -0.270 N 
HETATM   14  C4  UNL     1       2.493   1.000   0.375  1.00  0.00     0.290 C 
HETATM   15  O2  UNL     1       1.869   1.791   1.172  1.00  0.00    -0.267 OA
ATOM     16  H2  UNL     1       2.402  -0.990  -0.528  1.00  0.00     0.189 HD
BRANCH  14  17
HETATM   17  C5  UNL     1       3.735   1.514  -0.215  1.00  0.00     0.271 C 
HETATM   18 CL2  UNL     1       3.809   3.268  -0.141  1.00  0.00    -0.073 Cl
HETATM   19 CL3  UNL     1       5.109   0.896   0.797  1.00  0.00    -0.073 Cl
HETATM   20 CL4  UNL     1       3.944   0.980  -1.876  1.00  0.00    -0.073 Cl
ENDBRANCH  14  17
ENDBRANCH  11  13
ENDBRANCH   1  11
TORSDOF 5
