REMARK  5 active torsions:
REMARK  status: ('A' for Active; 'I' for Inactive)
REMARK    1  A    between atoms: N2_5  and  C4_6 
REMARK    2  A    between atoms: C4_6  and  O1_7 
REMARK    3  A    between atoms: C4_6  and  C5_9 
REMARK       I    between atoms: C5_9  and  N3_11 
REMARK    4  A    between atoms: N3_11  and  C6_13 
REMARK    5  A    between atoms: C10_21  and  O3_22 
ROOT
HETATM    1  C4  UNL     1      -0.069  -0.499  -0.367  1.00  0.00     0.315 C 
ENDROOT
BRANCH   1   2
HETATM    2  N2  UNL     1      -1.219   0.039   0.194  1.00  0.00    -0.329 N 
HETATM    3  C3  UNL     1      -1.685   1.297  -0.227  1.00  0.00     0.094 C 
HETATM    4  C2  UNL     1      -2.821   1.220  -1.235  1.00  0.00     0.316 C 
HETATM    5  N1  UNL     1      -3.895   0.409  -0.752  1.00  0.00     0.093 N 
HETATM    6  C1  UNL     1      -5.084   1.233  -0.665  1.00  0.00     0.310 C 
HETATM    7  C11 UNL     1      -3.630  -0.109   0.582  1.00  0.00     0.327 C 
HETATM    8  C10 UNL     1      -2.265  -0.822   0.600  1.00  0.00     0.276 C 
BRANCH   8   9
HETATM    9  O3  UNL     1      -2.449  -1.974  -0.109  1.00  0.00    -0.256 OA
HETATM   10 CL1  UNL     1      -2.454  -3.386   0.829  1.00  0.00     0.063 Cl
ENDBRANCH   8   9
ENDBRANCH   1   2
BRANCH   1  11
HETATM   11  O1  UNL     1       0.142  -1.853  -0.099  1.00  0.00    -0.368 OA
ATOM     12  H1  UNL     1       0.929  -2.221  -0.483  1.00  0.00     0.212 HD
ENDBRANCH   1  11
BRANCH   1  13
HETATM   13  C5  UNL     1       1.219   0.190  -0.145  1.00  0.00     0.267 C 
HETATM   14  O2  UNL     1       1.268   1.430  -0.339  1.00  0.00    -0.269 OA
HETATM   15  N3  UNL     1       2.384  -0.537   0.279  1.00  0.00    -0.346 N 
ATOM     16  H3  UNL     1       2.290  -1.543   0.422  1.00  0.00     0.163 HD
BRANCH  15  17
HETATM   17  C6  UNL     1       3.656   0.048   0.512  1.00  0.00     0.169 C 
HETATM   18  C7  UNL     1       4.326  -0.234   1.826  1.00  0.00     0.117 C 
HETATM   19  C8  UNL     1       5.651  -0.265   1.077  1.00  0.00     0.312 C 
HETATM   20  F1  UNL     1       6.493  -1.293   1.440  1.00  0.00    -0.199 F 
HETATM   21  F2  UNL     1       6.226   0.982   0.973  1.00  0.00    -0.199 F 
HETATM   22  C9  UNL     1       4.834  -0.563  -0.186  1.00  0.00     0.328 C 
HETATM   23  F3  UNL     1       4.790  -1.922  -0.380  1.00  0.00    -0.197 F 
HETATM   24  F4  UNL     1       5.276   0.086  -1.314  1.00  0.00    -0.197 F 
ENDBRANCH  15  17
ENDBRANCH   1  13
TORSDOF 5
