REMARK  13 active torsions:
REMARK  status: ('A' for Active; 'I' for Inactive)
REMARK    1  A    between atoms: C2_2  and  C4_4 
REMARK    2  A    between atoms: C4_4  and  O1_5 
REMARK    3  A    between atoms: C4_4  and  C5_7 
REMARK    4  A    between atoms: C5_7  and  C6_8 
REMARK    5  A    between atoms: C6_8  and  C7_9 
REMARK    6  A    between atoms: C12_14  and  C13_15 
REMARK    7  A    between atoms: C13_15  and  O2_16 
REMARK    8  A    between atoms: C13_15  and  C14_18 
REMARK    9  A    between atoms: C16_21  and  C17_22 
REMARK   10  A    between atoms: C17_22  and  O4_23 
REMARK   11  A    between atoms: C17_22  and  C18_25 
REMARK   12  A    between atoms: C18_25  and  O5_26 
REMARK   13  A    between atoms: O5_26  and  C19_27 
ROOT
HETATM    1  C7  UNL     1      -2.890  -0.905   0.593  1.00  0.00    -0.028 C 
HETATM    2  C8  UNL     1      -2.997  -2.246   0.752  1.00  0.00    -0.073 C 
HETATM    3  C9  UNL     1      -4.315  -2.880   0.402  1.00  0.00     0.044 C 
HETATM    4  C10 UNL     1      -1.918  -3.114   1.213  1.00  0.00     0.035 C 
HETATM    5  C11 UNL     1      -0.595  -2.483   1.445  1.00  0.00     0.016 C 
HETATM    6  C12 UNL     1      -0.437  -1.212   0.642  1.00  0.00     0.052 C 
HETATM    7  C21 UNL     1      -1.607  -0.386   1.033  1.00  0.00    -0.050 C 
HETATM    8  C22 UNL     1      -1.539   0.686   1.783  1.00  0.00     0.020 C 
ENDROOT
BRANCH   6   9
HETATM    9  C13 UNL     1       0.874  -0.520   0.948  1.00  0.00     0.181 C 
BRANCH   9  10
HETATM   10  O2  UNL     1       0.925   0.631   0.158  1.00  0.00    -0.390 OA
ATOM     11  H2  UNL     1       1.748   1.065   0.350  1.00  0.00     0.210 HD
ENDBRANCH   9  10
BRANCH   9  12
HETATM   12  C14 UNL     1       1.979  -1.439   0.457  1.00  0.00     0.289 C 
HETATM   13  O3  UNL     1       1.832  -1.787  -0.859  1.00  0.00    -0.356 OA
HETATM   14  C15 UNL     1       3.038  -1.738  -1.503  1.00  0.00     0.205 C 
HETATM   15  C16 UNL     1       3.965  -1.131  -0.502  1.00  0.00     0.179 C 
HETATM   16  O7  UNL     1       3.174  -0.728   0.569  1.00  0.00    -0.349 OA
BRANCH  15  17
HETATM   17  C17 UNL     1       4.699   0.071  -1.065  1.00  0.00     0.173 C 
BRANCH  17  18
HETATM   18  O4  UNL     1       5.495  -0.329  -2.141  1.00  0.00    -0.391 OA
ATOM     19  H4  UNL     1       5.955   0.424  -2.494  1.00  0.00     0.210 HD
ENDBRANCH  17  18
BRANCH  17  20
HETATM   20  C18 UNL     1       5.566   0.689   0.011  1.00  0.00     0.213 C 
BRANCH  20  21
HETATM   21  O5  UNL     1       6.220   1.816  -0.573  1.00  0.00    -0.319 OA
BRANCH  21  22
HETATM   22  C19 UNL     1       7.092   2.599   0.172  1.00  0.00     0.254 C 
HETATM   23  C20 UNL     1       7.772   3.769  -0.433  1.00  0.00     0.126 C 
HETATM   24  O6  UNL     1       7.283   2.276   1.381  1.00  0.00    -0.266 OA
ENDBRANCH  21  22
ENDBRANCH  20  21
ENDBRANCH  17  20
ENDBRANCH  15  17
ENDBRANCH   9  12
ENDBRANCH   6   9
BRANCH   1  25
HETATM   25  C6  UNL     1      -4.003  -0.108   0.100  1.00  0.00     0.015 C 
BRANCH  25  26
HETATM   26  C5  UNL     1      -3.998   1.162  -0.135  1.00  0.00     0.038 C 
BRANCH  26  27
HETATM   27  C4  UNL     1      -5.032   2.016  -0.608  1.00  0.00     0.070 C 
BRANCH  27  28
HETATM   28  C2  UNL     1      -6.396   1.808  -0.984  1.00  0.00    -0.038 C 
HETATM   29  C1  UNL     1      -7.147   0.748  -1.017  1.00  0.00     0.021 C 
HETATM   30  C3  UNL     1      -7.147   3.069  -1.443  1.00  0.00     0.050 C 
ENDBRANCH  27  28
BRANCH  27  31
HETATM   31  O1  UNL     1      -4.611   3.283  -0.714  1.00  0.00    -0.360 OA
ATOM     32  H1  UNL     1      -3.705   3.421  -0.464  1.00  0.00     0.217 HD
ENDBRANCH  27  31
ENDBRANCH  26  27
ENDBRANCH  25  26
ENDBRANCH   1  25
TORSDOF 13
