REMARK  11 active torsions:
REMARK  status: ('A' for Active; 'I' for Inactive)
REMARK    1  A    between atoms: C2_2  and  O1_3 
REMARK    2  A    between atoms: O1_3  and  C3_4 
REMARK    3  A    between atoms: C3_4  and  C4_6 
REMARK    4  A    between atoms: C5_8  and  N1_9 
REMARK       I    between atoms: N1_9  and  C6_11 
REMARK    5  A    between atoms: C6_11  and  C7_13 
REMARK    6  A    between atoms: C7_13  and  S2_14 
REMARK    7  A    between atoms: S2_14  and  C8_15 
REMARK    8  A    between atoms: C8_15  and  C9_16 
REMARK    9  A    between atoms: C9_16  and  O4_17 
REMARK   10  A    between atoms: C9_16  and  C10_19 
REMARK   11  A    between atoms: C10_19  and  C11_20 
ROOT
HETATM    1  N1  UNL     1       1.573   0.237  -1.035  1.00  0.00    -0.306 N 
ATOM      2  H1  UNL     1       1.229   0.598  -1.925  1.00  0.00     0.171 HD
HETATM    3  C6  UNL     1       0.692  -0.289  -0.087  1.00  0.00     0.232 C 
HETATM    4  O3  UNL     1       0.149   0.468   0.763  1.00  0.00    -0.272 OA
ENDROOT
BRANCH   3   5
HETATM    5  C7  UNL     1       0.384  -1.739  -0.065  1.00  0.00     0.177 C 
BRANCH   5   6
HETATM    6  S2  UNL     1      -0.767  -2.167   1.239  1.00  0.00    -0.157 SA
BRANCH   6   7
HETATM    7  C8  UNL     1      -2.405  -1.399   0.934  1.00  0.00     0.106 C 
BRANCH   7   8
HETATM    8  C9  UNL     1      -3.096  -1.960  -0.250  1.00  0.00     0.127 C 
BRANCH   8   9
HETATM    9  O4  UNL     1      -2.349  -1.752  -1.438  1.00  0.00    -0.395 OA
ATOM     10  H4  UNL     1      -2.792  -2.112  -2.197  1.00  0.00     0.210 HD
ENDBRANCH   8   9
BRANCH   8  11
HETATM   11  C10 UNL     1      -4.508  -1.626  -0.400  1.00  0.00     0.037 C 
BRANCH  11  12
HETATM   12  C11 UNL     1      -4.967  -0.229  -0.575  1.00  0.00    -0.012 C 
HETATM   13  C12 UNL     1      -6.502  -0.299  -0.741  1.00  0.00     0.005 C 
HETATM   14  C13 UNL     1      -7.080  -0.209   0.656  1.00  0.00     0.000 C 
HETATM   15  C14 UNL     1      -6.980   1.258   1.037  1.00  0.00     0.000 C 
HETATM   16  C15 UNL     1      -5.614   1.811   0.725  1.00  0.00     0.000 C 
HETATM   17  C16 UNL     1      -4.594   0.694   0.504  1.00  0.00     0.005 C 
ENDBRANCH  11  12
ENDBRANCH   8  11
ENDBRANCH   7   8
ENDBRANCH   6   7
ENDBRANCH   5   6
ENDBRANCH   3   5
BRANCH   1  18
HETATM   18  C5  UNL     1       2.859   0.255  -0.752  1.00  0.00     0.152 A 
HETATM   19  S1  UNL     1       4.163   0.822  -1.686  1.00  0.00    -0.046 SA
HETATM   20  C4  UNL     1       5.425   0.475  -0.597  1.00  0.00     0.105 A 
HETATM   21  C17 UNL     1       4.753  -0.077   0.459  1.00  0.00     0.030 A 
HETATM   22  N2  UNL     1       3.450  -0.180   0.363  1.00  0.00    -0.339 N 
HETATM   23  C18 UNL     1       5.536  -0.544   1.680  1.00  0.00     0.070 C 
ATOM     24  H2  UNL     1       2.901  -0.583   1.122  1.00  0.00     0.168 HD
BRANCH  20  25
HETATM   25  C3  UNL     1       6.882   0.703  -0.733  1.00  0.00     0.302 C 
HETATM   26  O2  UNL     1       7.646   0.370   0.196  1.00  0.00    -0.259 OA
BRANCH  25  27
HETATM   27  O1  UNL     1       7.378   1.279  -1.882  1.00  0.00    -0.317 OA
BRANCH  27  28
HETATM   28  C2  UNL     1       8.787   1.491  -1.998  1.00  0.00     0.174 C 
HETATM   29  C1  UNL     1       9.263   2.394  -0.893  1.00  0.00     0.034 C 
ENDBRANCH  27  28
ENDBRANCH  25  27
ENDBRANCH  20  25
ENDBRANCH   1  18
TORSDOF 11
