REMARK  13 active torsions:
REMARK  status: ('A' for Active; 'I' for Inactive)
REMARK    1  A    between atoms: C3_3  and  O1_5 
REMARK    2  A    between atoms: C3_3  and  C5_7 
REMARK    3  A    between atoms: C5_7  and  O3_9 
REMARK    4  A    between atoms: O3_9  and  C6_10 
REMARK    5  A    between atoms: C6_10  and  C8_12 
REMARK    6  A    between atoms: C6_10  and  C10_14 
REMARK    7  A    between atoms: C10_14  and  C11_15 
REMARK    8  A    between atoms: C11_15  and  C13_17 
REMARK    9  A    between atoms: C16_20  and  C18_22 
REMARK   10  A    between atoms: C18_22  and  C19_23 
REMARK   11  A    between atoms: C19_23  and  C20_24 
REMARK   12  A    between atoms: C20_24  and  O5_26 
REMARK   13  A    between atoms: C23_29  and  O6_30 
ROOT
HETATM    1  C1  UNL     1      -4.229   3.945  -1.960  1.00  0.00     0.016 C 
HETATM    2  C2  UNL     1      -4.825   3.001  -1.503  1.00  0.00    -0.069 C 
HETATM    3  C3  UNL     1      -5.538   1.831  -0.928  1.00  0.00     0.205 C 
HETATM    4  C4  UNL     1      -6.705   2.381  -0.147  1.00  0.00     0.072 C 
ENDROOT
BRANCH   3   5
HETATM    5  O1  UNL     1      -5.963   1.079  -2.024  1.00  0.00    -0.369 OA
ATOM      6  H1  UNL     1      -6.419   0.331  -1.656  1.00  0.00     0.212 HD
ENDBRANCH   3   5
BRANCH   3   7
HETATM    7  C5  UNL     1      -4.614   1.033  -0.082  1.00  0.00     0.307 C 
HETATM    8  O2  UNL     1      -4.096   1.452   0.965  1.00  0.00    -0.261 OA
BRANCH   7   9
HETATM    9  O3  UNL     1      -4.303  -0.242  -0.467  1.00  0.00    -0.303 OA
BRANCH   9  10
HETATM   10  C6  UNL     1      -3.452  -1.147   0.187  1.00  0.00     0.084 C 
HETATM   11  C7  UNL     1      -3.887  -1.456   1.600  1.00  0.00     0.051 C 
BRANCH  10  12
HETATM   12  C8  UNL     1      -3.607  -2.415  -0.577  1.00  0.00     0.001 C 
HETATM   13  C9  UNL     1      -3.918  -2.376  -1.847  1.00  0.00     0.010 C 
ENDBRANCH  10  12
BRANCH  10  14
HETATM   14  C10 UNL     1      -2.058  -0.647   0.078  1.00  0.00     0.047 C 
BRANCH  14  15
HETATM   15  C11 UNL     1      -0.984  -1.447   0.720  1.00  0.00    -0.009 C 
HETATM   16  C12 UNL     1      -0.797  -2.840   0.230  1.00  0.00     0.010 C 
BRANCH  15  17
HETATM   17  C13 UNL     1       0.294  -0.635   0.672  1.00  0.00     0.018 C 
HETATM   18  C14 UNL     1       0.678  -0.327  -0.733  1.00  0.00     0.008 C 
HETATM   19  C15 UNL     1       2.078   0.152  -0.913  1.00  0.00     0.010 C 
HETATM   20  C16 UNL     1       2.847   0.468   0.299  1.00  0.00    -0.041 C 
HETATM   21  C17 UNL     1       2.708   1.963   0.637  1.00  0.00     0.015 C 
HETATM   22  C22 UNL     1       2.494  -0.268   1.558  1.00  0.00     0.041 C 
HETATM   23  C23 UNL     1       1.463  -1.374   1.291  1.00  0.00     0.123 C 
BRANCH  20  24
HETATM   24  C18 UNL     1       4.333   0.259   0.085  1.00  0.00     0.019 C 
BRANCH  24  25
HETATM   25  C19 UNL     1       4.920   1.104  -1.004  1.00  0.00     0.112 C 
BRANCH  25  26
HETATM   26  C20 UNL     1       6.383   0.756  -1.057  1.00  0.00     0.258 C 
HETATM   27  O4  UNL     1       6.715  -0.299  -1.636  1.00  0.00    -0.265 OA
BRANCH  26  28
HETATM   28  O5  UNL     1       7.364   1.559  -0.490  1.00  0.00    -0.326 OA
HETATM   29  C21 UNL     1       8.716   1.139  -0.594  1.00  0.00     0.213 C 
ENDBRANCH  26  28
ENDBRANCH  25  26
ENDBRANCH  24  25
ENDBRANCH  20  24
BRANCH  23  30
HETATM   30  O6  UNL     1       1.159  -2.005   2.468  1.00  0.00    -0.395 OA
ATOM     31  H6  UNL     1       1.892  -2.468   2.856  1.00  0.00     0.210 HD
ENDBRANCH  23  30
ENDBRANCH  15  17
ENDBRANCH  14  15
ENDBRANCH  10  14
ENDBRANCH   9  10
ENDBRANCH   7   9
ENDBRANCH   3   7
TORSDOF 13
