REMARK  10 active torsions:
REMARK  status: ('A' for Active; 'I' for Inactive)
REMARK    1  A    between atoms: S1_2  and  C2_3 
REMARK    2  A    between atoms: C2_3  and  C3_4 
REMARK    3  A    between atoms: C4_5  and  C5_6 
REMARK    4  A    between atoms: C5_6  and  C8_9 
REMARK    5  A    between atoms: C10_11  and  C11_12 
REMARK    6  A    between atoms: C11_12  and  C12_13 
REMARK    7  A    between atoms: C11_12  and  C13_15 
REMARK    8  A    between atoms: C13_15  and  C14_16 
REMARK    9  A    between atoms: C18_20  and  C19_21 
REMARK   10  A    between atoms: C22_24  and  O1_25 
ROOT
HETATM    1  C8  UNL     1       0.985   0.039   0.275  1.00  0.00    -0.004 A 
HETATM    2  C9  UNL     1      -0.272   0.630   0.180  1.00  0.00     0.019 A 
HETATM    3  C10 UNL     1      -1.429  -0.110   0.239  1.00  0.00    -0.052 A 
HETATM    4  C17 UNL     1      -1.394  -1.480   0.396  1.00  0.00     0.018 A 
HETATM    5  C18 UNL     1      -0.167  -2.092   0.493  1.00  0.00    -0.020 A 
HETATM    6  C22 UNL     1       0.979  -1.334   0.432  1.00  0.00     0.080 A 
ENDROOT
BRANCH   1   7
HETATM    7  C5  UNL     1       2.170   0.868   0.211  1.00  0.00     0.046 C 
HETATM    8  C6  UNL     1       1.757   2.321   0.029  1.00  0.00     0.034 C 
HETATM    9  C7  UNL     1       2.850   0.836   1.589  1.00  0.00     0.034 C 
BRANCH   7  10
HETATM   10  C4  UNL     1       3.059   0.418  -0.831  1.00  0.00    -0.091 C 
HETATM   11  C3  UNL     1       3.814   0.046  -1.686  1.00  0.00    -0.095 C 
BRANCH  11  12
HETATM   12  C2  UNL     1       4.758  -0.424  -2.724  1.00  0.00     0.167 C 
BRANCH  12  13
HETATM   13  S1  UNL     1       5.992   0.913  -2.917  1.00  0.00    -0.161 SA
HETATM   14  C1  UNL     1       6.918   0.997  -1.342  1.00  0.00     0.090 C 
ENDBRANCH  12  13
ENDBRANCH  11  12
ENDBRANCH   7  10
ENDBRANCH   1   7
BRANCH   6  15
HETATM   15  O1  UNL     1       2.208  -1.945   0.528  1.00  0.00    -0.360 OA
ATOM     16  H1  UNL     1       2.204  -2.889   0.636  1.00  0.00     0.217 HD
ENDBRANCH   6  15
BRANCH   3  17
HETATM   17  C11 UNL     1      -2.777   0.582   0.128  1.00  0.00     0.033 C 
BRANCH  17  18
HETATM   18  C12 UNL     1      -2.792   1.534   1.297  1.00  0.00     0.124 C 
HETATM   19 CL1  UNL     1      -2.603   0.531   2.792  1.00  0.00    -0.130 Cl
ENDBRANCH  17  18
BRANCH  17  20
HETATM   20  C13 UNL     1      -2.778   1.222  -1.206  1.00  0.00     0.014 C 
BRANCH  20  21
HETATM   21  C14 UNL     1      -3.970   1.980  -1.635  1.00  0.00    -0.022 C 
HETATM   22  C15 UNL     1      -4.374   3.152  -0.821  1.00  0.00     0.009 C 
HETATM   23  C16 UNL     1      -5.200   1.107  -1.817  1.00  0.00     0.009 C 
ENDBRANCH  20  21
ENDBRANCH  17  20
ENDBRANCH   3  17
BRANCH   5  24
HETATM   24  C19 UNL     1      -0.131  -3.572   0.668  1.00  0.00     0.013 C 
HETATM   25  C20 UNL     1      -1.520  -4.165   0.598  1.00  0.00     0.015 C 
HETATM   26  C21 UNL     1       0.393  -3.867   2.072  1.00  0.00     0.015 C 
ENDBRANCH   5  24
TORSDOF 10
