REMARK  7 active torsions:
REMARK  status: ('A' for Active; 'I' for Inactive)
REMARK    1  A    between atoms: C2_2  and  N1_3 
REMARK    2  A    between atoms: N1_3  and  C3_5 
REMARK    3  A    between atoms: C4_8  and  C5_9 
REMARK    4  A    between atoms: C5_9  and  C6_10 
REMARK    5  A    between atoms: C9_15  and  S1_16 
REMARK    6  A    between atoms: S1_16  and  C10_17 
REMARK    7  A    between atoms: C16_23  and  C17_24 
ROOT
HETATM    1  C3  UNL     1      -2.190   1.495   0.132  1.00  0.00     0.120 A 
HETATM    2  N2  UNL     1      -2.854   0.360  -0.067  1.00  0.00    -0.331 N 
ATOM      3  H2  UNL     1      -3.857   0.341   0.120  1.00  0.00     0.168 HD
HETATM    4  C4  UNL     1      -2.250  -0.781  -0.511  1.00  0.00     0.083 A 
HETATM    5  N3  UNL     1      -0.937  -0.725  -0.747  1.00  0.00    -0.340 N 
ATOM      6  H3  UNL     1      -0.462  -1.564  -1.080  1.00  0.00     0.167 HD
HETATM    7  C9  UNL     1      -0.203   0.419  -0.558  1.00  0.00     0.086 A 
HETATM    8  C16 UNL     1      -0.813   1.564  -0.112  1.00  0.00     0.052 A 
ENDROOT
BRANCH   7   9
HETATM    9  S1  UNL     1       1.551   0.429  -0.904  1.00  0.00    -0.106 SA
BRANCH   9  10
HETATM   10  C10 UNL     1       2.538  -0.086   0.508  1.00  0.00     0.054 C 
HETATM   11  C11 UNL     1       2.286  -1.545   0.834  1.00  0.00     0.015 C 
HETATM   12  C12 UNL     1       2.871  -2.424  -0.261  1.00  0.00     0.001 C 
HETATM   13  C13 UNL     1       4.379  -2.255  -0.184  1.00  0.00     0.000 C 
HETATM   14  C14 UNL     1       4.690  -0.830  -0.552  1.00  0.00     0.001 C 
HETATM   15  C15 UNL     1       3.997   0.169   0.327  1.00  0.00     0.015 C 
ENDBRANCH   9  10
ENDBRANCH   7   9
BRANCH   8  16
HETATM   16  C17 UNL     1      -0.096   2.829   0.101  1.00  0.00    -0.019 A 
HETATM   17  C18 UNL     1      -0.082   3.775  -0.917  1.00  0.00     0.015 A 
HETATM   18  C19 UNL     1       0.576   4.980  -0.751  1.00  0.00     0.043 A 
HETATM   19  C20 UNL     1       1.240   5.292   0.415  1.00  0.00     0.116 A 
HETATM   20  F1  UNL     1       1.875   6.482   0.544  1.00  0.00    -0.206 F 
HETATM   21  C21 UNL     1       1.228   4.355   1.426  1.00  0.00     0.043 A 
HETATM   22  C22 UNL     1       0.568   3.145   1.264  1.00  0.00     0.015 A 
ENDBRANCH   8  16
BRANCH   4  23
HETATM   23  C5  UNL     1      -3.068  -1.992  -0.725  1.00  0.00     0.080 C 
BRANCH  23  24
HETATM   24  C6  UNL     1      -2.341  -3.228  -1.079  1.00  0.00    -0.016 C 
HETATM   25  C7  UNL     1      -1.386  -3.619   0.028  1.00  0.00     0.010 C 
HETATM   26  C8  UNL     1      -3.392  -4.340  -1.220  1.00  0.00     0.010 C 
ENDBRANCH  23  24
ENDBRANCH   4  23
BRANCH   1  27
HETATM   27  N1  UNL     1      -2.736   2.586   0.552  1.00  0.00    -0.352 N 
ATOM     28  H1  UNL     1      -2.195   3.439   0.694  1.00  0.00     0.166 HD
BRANCH  27  29
HETATM   29  C2  UNL     1      -4.153   2.532   0.809  1.00  0.00     0.079 C 
HETATM   30  C1  UNL     1      -4.718   3.300   1.723  1.00  0.00     0.029 C 
ENDBRANCH  27  29
ENDBRANCH   1  27
TORSDOF 7
