REMARK  6 active torsions:
REMARK  status: ('A' for Active; 'I' for Inactive)
REMARK    1  A    between atoms: C2_2  and  C3_3 
REMARK    2  A    between atoms: C3_3  and  C4_4 
REMARK    3  A    between atoms: C14_16  and  N1_17 
REMARK    4  A    between atoms: N1_17  and  C15_20 
REMARK    5  A    between atoms: C15_20  and  C16_21 
REMARK    6  A    between atoms: C16_21  and  C17_22 
ROOT
HETATM    1  C4  UNL     1       0.228  -0.464   0.153  1.00  0.00     0.051 C 
HETATM    2  C5  UNL     1      -1.255  -0.677  -0.189  1.00  0.00     0.050 C 
HETATM    3  C6  UNL     1      -2.088   0.351   0.549  1.00  0.00     0.097 C 
HETATM    4  C7  UNL     1      -3.052  -0.272   1.494  1.00  0.00     0.041 C 
HETATM    5  C8  UNL     1      -3.859  -1.419   1.002  1.00  0.00     0.003 C 
HETATM    6  C9  UNL     1      -4.684  -1.176  -0.213  1.00  0.00     0.000 C 
HETATM    7  C10 UNL     1      -5.555   0.041   0.029  1.00  0.00     0.000 C 
HETATM    8  C11 UNL     1      -5.026   1.132  -0.873  1.00  0.00     0.000 C 
HETATM    9  C12 UNL     1      -3.930   1.935  -0.156  1.00  0.00     0.003 C 
HETATM   10  C13 UNL     1      -2.610   1.331  -0.416  1.00  0.00     0.041 C 
HETATM   11  O1  UNL     1      -1.151   1.036   1.370  1.00  0.00    -0.228 OA
HETATM   12  O2  UNL     1      -0.323   1.749   0.665  1.00  0.00    -0.206 OA
HETATM   13  C14 UNL     1       0.511   0.969  -0.123  1.00  0.00     0.362 C 
ENDROOT
BRANCH  13  14
HETATM   14  N1  UNL     1       1.887   1.375  -0.051  1.00  0.00    -0.045 N 
ATOM     15  H12 UNL     1       2.440   0.890  -0.757  1.00  0.00     0.280 HD
ATOM     16  H11 UNL     1       1.994   2.335  -0.377  1.00  0.00     0.280 HD
BRANCH  14  17
HETATM   17  C15 UNL     1       2.476   1.217   1.243  1.00  0.00     0.240 C 
BRANCH  17  18
HETATM   18  C16 UNL     1       3.882   1.744   1.258  1.00  0.00     0.066 C 
BRANCH  18  19
HETATM   19  C17 UNL     1       4.817   1.104   0.333  1.00  0.00    -0.057 A 
HETATM   20  C18 UNL     1       5.033   1.553  -0.965  1.00  0.00     0.009 A 
HETATM   21  C19 UNL     1       5.936   0.916  -1.776  1.00  0.00     0.024 A 
HETATM   22  C20 UNL     1       6.672  -0.179  -1.378  1.00  0.00     0.034 A 
HETATM   23 CL1  UNL     1       7.825  -0.971  -2.446  1.00  0.00    -0.084 Cl
HETATM   24  C21 UNL     1       6.462  -0.629  -0.092  1.00  0.00     0.024 A 
HETATM   25  C22 UNL     1       5.562  -0.002   0.730  1.00  0.00     0.009 A 
ENDBRANCH  18  19
ENDBRANCH  17  18
ENDBRANCH  14  17
ENDBRANCH  13  14
BRANCH   1  26
HETATM   26  C3  UNL     1       1.010  -1.405  -0.738  1.00  0.00     0.035 C 
BRANCH  26  27
HETATM   27  C2  UNL     1       0.607  -2.817  -0.483  1.00  0.00    -0.036 C 
HETATM   28  C1  UNL     1       0.123  -3.584  -1.439  1.00  0.00     0.007 C 
ENDBRANCH  26  27
ENDBRANCH   1  26
TORSDOF 6
