REMARK  6 active torsions:
REMARK  status: ('A' for Active; 'I' for Inactive)
REMARK    1  A    between atoms: C4_6  and  C5_7 
REMARK    2  A    between atoms: C5_7  and  N2_8 
REMARK    3  A    between atoms: N2_8  and  C6_11 
REMARK    4  A    between atoms: C6_11  and  C7_12 
REMARK    5  A    between atoms: C7_12  and  C8_13 
REMARK    6  A    between atoms: C15_20  and  C16_21 
ROOT
HETATM    1 CL1  UNL     1      -4.515   5.264  -1.540  1.00  0.00    -0.084 Cl
HETATM    2  C1  UNL     1      -3.748   3.729  -1.110  1.00  0.00     0.038 A 
HETATM    3  C2  UNL     1      -2.449   3.688  -0.664  1.00  0.00     0.041 A 
HETATM    4  C3  UNL     1      -1.812   2.530  -0.319  1.00  0.00     0.100 A 
HETATM    5  N1  UNL     1      -2.502   1.358  -0.424  1.00  0.00    -0.308 N 
HETATM    6  C4  UNL     1      -2.199   0.079  -0.174  1.00  0.00     0.066 A 
HETATM    7  C15 UNL     1      -3.327  -0.719  -0.463  1.00  0.00     0.040 A 
HETATM    8  N3  UNL     1      -4.259   0.131  -0.877  1.00  0.00    -0.343 N 
ATOM      9  H3  UNL     1      -5.202  -0.130  -1.166  1.00  0.00     0.167 HD
HETATM   10  C21 UNL     1      -3.782   1.378  -0.860  1.00  0.00     0.113 A 
HETATM   11  C22 UNL     1      -4.435   2.541  -1.211  1.00  0.00     0.072 A 
ENDROOT
BRANCH   6  12
HETATM   12  C5  UNL     1      -0.970  -0.520   0.322  1.00  0.00     0.291 C 
BRANCH  12  13
HETATM   13  N2  UNL     1       0.167   0.297   0.559  1.00  0.00    -0.070 N 
ATOM     14  H22 UNL     1       0.476   0.810  -0.267  1.00  0.00     0.277 HD
ATOM     15  H21 UNL     1      -0.032   1.109   1.144  1.00  0.00     0.277 HD
BRANCH  13  16
HETATM   16  C6  UNL     1       1.203  -0.588   1.120  1.00  0.00     0.233 C 
BRANCH  16  17
HETATM   17  C7  UNL     1       2.462   0.145   1.421  1.00  0.00     0.032 C 
BRANCH  17  18
HETATM   18  C8  UNL     1       3.116   0.809   0.246  1.00  0.00    -0.013 C 
HETATM   19  C9  UNL     1       4.381   1.497   0.751  1.00  0.00     0.005 C 
HETATM   20  C10 UNL     1       5.332   1.859  -0.342  1.00  0.00     0.000 C 
HETATM   21  C11 UNL     1       6.422   0.839  -0.565  1.00  0.00     0.000 C 
HETATM   22  C12 UNL     1       5.936  -0.460  -1.128  1.00  0.00     0.000 C 
HETATM   23  C13 UNL     1       4.680  -0.985  -0.515  1.00  0.00     0.000 C 
HETATM   24  C14 UNL     1       3.467  -0.152  -0.850  1.00  0.00     0.005 C 
ENDBRANCH  17  18
ENDBRANCH  16  17
ENDBRANCH  13  16
ENDBRANCH  12  13
ENDBRANCH   6  12
BRANCH   7  25
HETATM   25  C16 UNL     1      -3.462  -2.176  -0.335  1.00  0.00     0.037 C 
HETATM   26  C17 UNL     1      -4.800  -2.563  -0.990  1.00  0.00     0.011 C 
HETATM   27  C18 UNL     1      -5.845  -2.410   0.086  1.00  0.00     0.001 C 
HETATM   28  C19 UNL     1      -5.105  -2.205   1.389  1.00  0.00     0.001 C 
HETATM   29  C20 UNL     1      -3.719  -2.687   1.043  1.00  0.00     0.011 C 
ENDBRANCH   7  25
TORSDOF 6
