REMARK  7 active torsions:
REMARK  status: ('A' for Active; 'I' for Inactive)
REMARK    1  A    between atoms: O1_1  and  C1_3 
REMARK    2  A    between atoms: C1_3  and  C2_4 
REMARK    3  A    between atoms: C1_3  and  C9_15 
REMARK    4  A    between atoms: C5_7  and  C6_8 
REMARK    5  A    between atoms: C9_15  and  C10_16 
REMARK    6  A    between atoms: C9_15  and  C17_23 
REMARK    7  A    between atoms: C10_16  and  C11_17 
ROOT
HETATM    1  C9  UNL     1      -0.481   0.798   0.446  1.00  0.00     0.054 C 
ENDROOT
BRANCH   1   2
HETATM    2  C1  UNL     1       0.916   1.299   0.456  1.00  0.00     0.177 C 
BRANCH   2   3
HETATM    3  O1  UNL     1       1.117   1.824   1.764  1.00  0.00    -0.389 OA
ATOM      4  H1  UNL     1       0.418   2.453   1.896  1.00  0.00     0.210 HD
ENDBRANCH   2   3
BRANCH   2   5
HETATM    5  C2  UNL     1       1.988   0.335   0.253  1.00  0.00     0.055 A 
HETATM    6  C3  UNL     1       3.272   0.757   0.631  1.00  0.00     0.031 A 
HETATM    7  C4  UNL     1       4.366  -0.071   0.489  1.00  0.00     0.029 A 
HETATM    8  C5  UNL     1       4.208  -1.338  -0.034  1.00  0.00     0.030 A 
HETATM    9  N1  UNL     1       2.961  -1.702  -0.384  1.00  0.00    -0.304 N 
HETATM   10  N2  UNL     1       1.918  -0.900  -0.243  1.00  0.00    -0.302 N 
ATOM     11  H1  UNL     1       2.814  -2.633  -0.773  1.00  0.00     0.186 HD
ATOM     12  H2  UNL     1       1.004  -1.249  -0.532  1.00  0.00     0.186 HD
BRANCH   8  13
HETATM   13  C6  UNL     1       5.373  -2.266  -0.204  1.00  0.00     0.037 A 
HETATM   14  C7  UNL     1       6.693  -1.682  -0.538  1.00  0.00     0.011 A 
HETATM   15  C8  UNL     1       6.412  -2.146   0.852  1.00  0.00     0.011 A 
ENDBRANCH   8  13
ENDBRANCH   2   5
ENDBRANCH   1   2
BRANCH   1  16
HETATM   16  C10 UNL     1      -0.961   0.197  -0.831  1.00  0.00     0.017 C 
BRANCH  16  17
HETATM   17  C11 UNL     1      -2.418  -0.273  -0.669  1.00  0.00    -0.014 C 
HETATM   18  C12 UNL     1      -2.455  -1.279   0.396  1.00  0.00     0.005 C 
HETATM   19  C13 UNL     1      -3.266  -2.516   0.137  1.00  0.00     0.000 C 
HETATM   20  C14 UNL     1      -4.213  -2.405  -1.014  1.00  0.00     0.000 C 
HETATM   21  C15 UNL     1      -3.350  -2.032  -2.227  1.00  0.00     0.000 C 
HETATM   22  C16 UNL     1      -2.909  -0.623  -2.015  1.00  0.00     0.005 C 
ENDBRANCH  16  17
ENDBRANCH   1  16
BRANCH   1  23
HETATM   23  C17 UNL     1      -1.348   1.987   0.707  1.00  0.00    -0.051 A 
HETATM   24  C18 UNL     1      -1.361   2.966  -0.264  1.00  0.00     0.009 A 
HETATM   25  C19 UNL     1      -2.129   4.111  -0.119  1.00  0.00     0.024 A 
HETATM   26  C20 UNL     1      -2.899   4.292   1.005  1.00  0.00     0.034 A 
HETATM   27 CL1  UNL     1      -3.878   5.751   1.189  1.00  0.00    -0.084 Cl
HETATM   28  C21 UNL     1      -2.884   3.307   1.980  1.00  0.00     0.024 A 
HETATM   29  C22 UNL     1      -2.109   2.152   1.834  1.00  0.00     0.009 A 
ENDBRANCH   1  23
TORSDOF 7
