REMARK  6 active torsions:
REMARK  status: ('A' for Active; 'I' for Inactive)
REMARK    1  A    between atoms: C5_5  and  N1_6 
REMARK    2  A    between atoms: N1_6  and  C6_7 
REMARK    3  A    between atoms: N1_6  and  C13_16 
REMARK    4  A    between atoms: C6_7  and  C7_8 
REMARK    5  A    between atoms: C10_11  and  O1_12 
REMARK    6  A    between atoms: N2_19  and  C16_20 
ROOT
HETATM    1  N1  UNL     1      -1.385   0.239  -0.526  1.00  0.00    -0.372 N 
ENDROOT
BRANCH   1   2
HETATM    2  C5  UNL     1      -1.911   1.563  -0.408  1.00  0.00     0.030 A 
HETATM    3  C4  UNL     1      -1.155   2.706  -0.336  1.00  0.00     0.030 A 
HETATM    4  C3  UNL     1      -1.738   3.945  -0.204  1.00  0.00     0.009 A 
HETATM    5  C2  UNL     1      -3.105   4.114  -0.137  1.00  0.00    -0.062 A 
HETATM    6  C1  UNL     1      -3.736   5.458   0.001  1.00  0.00     0.048 C 
HETATM    7  C24 UNL     1      -3.849   2.958  -0.210  1.00  0.00     0.009 A 
HETATM    8  C23 UNL     1      -3.282   1.703  -0.343  1.00  0.00     0.030 A 
ENDBRANCH   1   2
BRANCH   1   9
HETATM    9  C6  UNL     1      -2.116  -0.617  -1.448  1.00  0.00     0.162 C 
BRANCH   9  10
HETATM   10  C7  UNL     1      -2.684  -1.833  -0.871  1.00  0.00    -0.040 A 
HETATM   11  C8  UNL     1      -2.851  -2.942  -1.718  1.00  0.00     0.011 A 
HETATM   12  C9  UNL     1      -3.384  -4.132  -1.307  1.00  0.00     0.037 A 
HETATM   13  C10 UNL     1      -3.781  -4.251   0.012  1.00  0.00     0.065 A 
HETATM   14  C11 UNL     1      -3.644  -3.198   0.893  1.00  0.00     0.037 A 
HETATM   15  C12 UNL     1      -3.100  -2.021   0.426  1.00  0.00     0.011 A 
BRANCH  13  16
HETATM   16  O1  UNL     1      -4.331  -5.452   0.468  1.00  0.00    -0.361 OA
ATOM     17  H1  UNL     1      -4.604  -5.534   1.374  1.00  0.00     0.217 HD
ENDBRANCH  13  16
ENDBRANCH   9  10
ENDBRANCH   1   9
BRANCH   1  18
HETATM   18  C13 UNL     1      -0.261  -0.308   0.140  1.00  0.00     0.088 C 
HETATM   19  C14 UNL     1       0.826  -0.619  -0.890  1.00  0.00     0.055 C 
HETATM   20  C15 UNL     1       2.051  -1.202  -0.201  1.00  0.00     0.275 C 
HETATM   21  N2  UNL     1       2.464  -0.489   0.960  1.00  0.00     0.093 N 
HETATM   22  C21 UNL     1       1.709   0.699   1.179  1.00  0.00     0.275 C 
HETATM   23  C22 UNL     1       0.253   0.358   1.350  1.00  0.00     0.055 C 
BRANCH  21  24
HETATM   24  C16 UNL     1       3.879  -0.205   1.022  1.00  0.00     0.223 C 
HETATM   25  C17 UNL     1       4.375   0.665  -0.093  1.00  0.00     0.036 C 
HETATM   26  C18 UNL     1       5.882   0.561   0.090  1.00  0.00     0.002 C 
HETATM   27  C19 UNL     1       6.089  -0.881   0.451  1.00  0.00     0.002 C 
HETATM   28  C20 UNL     1       4.734  -1.412   0.945  1.00  0.00     0.036 C 
ENDBRANCH  21  24
ENDBRANCH   1  18
TORSDOF 6
