REMARK  8 active torsions:
REMARK  status: ('A' for Active; 'I' for Inactive)
REMARK    1  A    between atoms: O1_1  and  C1_3 
REMARK    2  A    between atoms: C1_3  and  C6_12 
REMARK    3  A    between atoms: C2_4  and  C3_5 
REMARK    4  A    between atoms: C3_5  and  C5_9 
REMARK    5  A    between atoms: C4_6  and  O2_7 
REMARK    6  A    between atoms: C5_9  and  O3_10 
REMARK       I    between atoms: N2_18  and  C9_19 
REMARK    7  A    between atoms: C9_19  and  O5_21 
REMARK    8  A    between atoms: O5_21  and  C10_22 
ROOT
HETATM    1  C6  UNL     1       3.957   1.089   1.311  1.00  0.00     0.381 C 
HETATM    2  N1  UNL     1       3.151   2.115   2.053  1.00  0.00    -0.033 N 
ATOM      3  H11 UNL     1       3.193   3.051   1.649  1.00  0.00     0.281 HD
ATOM      4  H12 UNL     1       3.534   2.368   2.964  1.00  0.00     0.281 HD
HETATM    5  C7  UNL     1       1.834   1.559   2.106  1.00  0.00     0.255 C 
HETATM    6  C8  UNL     1       0.842   2.302   1.231  1.00  0.00     0.187 C 
HETATM    7  N2  UNL     1      -0.018   1.197   0.822  1.00  0.00    -0.236 N 
HETATM    8  C9  UNL     1      -1.391   1.305   0.484  1.00  0.00     0.379 C 
HETATM    9  O4  UNL     1      -1.969   2.444   0.524  1.00  0.00    -0.237 OA
HETATM   10  N3  UNL     1       0.696   0.011   0.810  1.00  0.00    -0.100 NA
HETATM   11  C20 UNL     1       1.983   0.246   1.376  1.00  0.00     0.270 C 
HETATM   12  O6  UNL     1       2.962   0.583   0.424  1.00  0.00    -0.328 OA
ENDROOT
BRANCH   8  13
HETATM   13  O5  UNL     1      -2.161   0.222   0.104  1.00  0.00    -0.297 OA
BRANCH  13  14
HETATM   14  C10 UNL     1      -3.515   0.305  -0.233  1.00  0.00     0.142 C 
HETATM   15  C11 UNL     1      -3.844  -0.114  -1.631  1.00  0.00     0.016 C 
HETATM   16  C12 UNL     1      -5.258   0.344  -1.925  1.00  0.00     0.012 C 
HETATM   17  C16 UNL     1      -3.818  -1.617  -1.824  1.00  0.00     0.012 C 
HETATM   18  C13 UNL     1      -6.211  -0.289  -0.935  1.00  0.00    -0.013 C 
HETATM   19  C14 UNL     1      -6.178  -1.791  -1.112  1.00  0.00     0.009 C 
HETATM   20  C19 UNL     1      -5.826  -0.008   0.499  1.00  0.00     0.012 C 
HETATM   21  C15 UNL     1      -4.764  -2.277  -0.845  1.00  0.00    -0.013 C 
HETATM   22  C17 UNL     1      -4.314  -1.943   0.555  1.00  0.00     0.012 C 
HETATM   23  C18 UNL     1      -4.407  -0.451   0.729  1.00  0.00     0.016 C 
ENDBRANCH  13  14
ENDBRANCH   8  13
BRANCH   1  24
HETATM   24  C1  UNL     1       5.040   1.742   0.622  1.00  0.00     0.100 C 
HETATM   25  C2  UNL     1       6.127   1.218  -0.119  1.00  0.00     0.047 C 
BRANCH  24  26
HETATM   26  O1  UNL     1       5.006   3.053   0.696  1.00  0.00    -0.360 OA
ATOM     27  H1  UNL     1       4.277   3.405   1.193  1.00  0.00     0.217 HD
ENDBRANCH  24  26
BRANCH  25  28
HETATM   28  C3  UNL     1       6.615   0.091  -0.461  1.00  0.00    -0.011 C 
HETATM   29  C4  UNL     1       6.266  -1.290  -0.238  1.00  0.00     0.140 C 
BRANCH  29  30
HETATM   30  O2  UNL     1       5.205  -1.669   0.482  1.00  0.00    -0.372 OA
ATOM     31  H2  UNL     1       4.975  -2.579   0.629  1.00  0.00     0.216 HD
ENDBRANCH  29  30
BRANCH  28  32
HETATM   32  C5  UNL     1       7.905   0.194  -1.336  1.00  0.00     0.204 C 
BRANCH  32  33
HETATM   33  O3  UNL     1       7.663  -0.424  -2.556  1.00  0.00    -0.396 OA
ATOM     34  H3  UNL     1       8.447  -0.361  -3.088  1.00  0.00     0.209 HD
ENDBRANCH  32  33
ENDBRANCH  28  32
ENDBRANCH  25  28
ENDBRANCH   1  24
TORSDOF 8
