REMARK  8 active torsions:
REMARK  status: ('A' for Active; 'I' for Inactive)
REMARK    1  A    between atoms: C2_2  and  C3_3 
REMARK    2  A    between atoms: C8_9  and  C9_10 
REMARK    3  A    between atoms: C10_12  and  C11_13 
REMARK    4  A    between atoms: C11_13  and  O3_14 
REMARK    5  A    between atoms: C18_23  and  C19_24 
REMARK    6  A    between atoms: C20_27  and  O7_28 
REMARK    7  A    between atoms: C20_27  and  C21_30 
REMARK    8  A    between atoms: C21_30  and  O8_31 
ROOT
HETATM    1  C3  UNL     1      -1.925   1.427   0.110  1.00  0.00    -0.022 C 
HETATM    2  C4  UNL     1      -2.087   2.403  -1.120  1.00  0.00     0.020 C 
HETATM    3  C5  UNL     1      -1.227   2.395   1.106  1.00  0.00     0.016 C 
HETATM    4  C6  UNL     1      -0.437   1.643   2.130  1.00  0.00     0.034 C 
HETATM    5  C7  UNL     1       0.493   0.618   1.558  1.00  0.00     0.139 C 
HETATM    6  O1  UNL     1       1.324   1.275   0.624  1.00  0.00    -0.376 OA
HETATM    7  C8  UNL     1       2.124   0.506  -0.196  1.00  0.00     0.164 C 
HETATM    8  C12 UNL     1       1.497  -0.653  -0.877  1.00  0.00     0.088 C 
HETATM    9  C13 UNL     1       0.410  -0.665  -1.808  1.00  0.00     0.023 C 
HETATM   10  C14 UNL     1      -1.024  -0.596  -1.244  1.00  0.00     0.030 C 
HETATM   11  C15 UNL     1      -0.938   0.479  -0.254  1.00  0.00     0.024 C 
HETATM   12  C16 UNL     1      -0.233  -0.356   0.827  1.00  0.00     0.068 C 
HETATM   13  C17 UNL     1       0.863  -1.226   0.345  1.00  0.00     0.146 C 
HETATM   14  O4  UNL     1       1.262  -2.220   0.772  1.00  0.00    -0.296 OA
HETATM   15  C18 UNL     1      -1.226  -1.376   1.042  1.00  0.00     0.142 C 
HETATM   16  C20 UNL     1      -1.430  -1.788  -0.378  1.00  0.00     0.097 C 
ENDROOT
BRANCH   7  17
HETATM   17  C9  UNL     1       2.889   1.444  -1.083  1.00  0.00     0.183 A 
HETATM   18  O2  UNL     1       3.732   2.336  -0.323  1.00  0.00    -0.370 OA
HETATM   19  C10 UNL     1       4.345   1.421  -1.282  1.00  0.00     0.177 A 
BRANCH  19  20
HETATM   20  C11 UNL     1       5.219   0.403  -0.644  1.00  0.00     0.198 C 
BRANCH  20  21
HETATM   21  O3  UNL     1       6.240   1.106   0.043  1.00  0.00    -0.398 OA
ATOM     22  H3  UNL     1       6.799   0.455   0.451  1.00  0.00     0.209 HD
ENDBRANCH  20  21
ENDBRANCH  19  20
ENDBRANCH   7  17
BRANCH  15  23
HETATM   23  C19 UNL     1      -1.085  -2.353   2.099  1.00  0.00     0.181 C 
HETATM   24  O5  UNL     1      -0.190  -2.253   2.957  1.00  0.00    -0.648 OA
HETATM   25  O6  UNL     1      -1.919  -3.431   2.231  1.00  0.00    -0.648 OA
ENDBRANCH  15  23
BRANCH  16  26
HETATM   26  O7  UNL     1      -2.876  -1.736  -0.546  1.00  0.00    -0.386 OA
ATOM     27  H7  UNL     1      -3.128  -2.477  -0.008  1.00  0.00     0.210 HD
ENDBRANCH  16  26
BRANCH  16  28
HETATM   28  C21 UNL     1      -1.108  -3.081  -0.945  1.00  0.00     0.203 C 
BRANCH  28  29
HETATM   29  O8  UNL     1      -1.685  -4.207  -0.361  1.00  0.00    -0.398 OA
ATOM     30  H8  UNL     1      -1.474  -5.055  -0.733  1.00  0.00     0.209 HD
ENDBRANCH  28  29
ENDBRANCH  16  28
BRANCH   1  31
HETATM   31  C2  UNL     1      -3.275   1.290   0.550  1.00  0.00    -0.027 C 
HETATM   32  C1  UNL     1      -4.384   1.480  -0.171  1.00  0.00     0.007 C 
ENDBRANCH   1  31
TORSDOF 8
