REMARK  11 active torsions:
REMARK  status: ('A' for Active; 'I' for Inactive)
REMARK    1  A    between atoms: C3_3  and  C4_4 
REMARK    2  A    between atoms: C4_4  and  O1_6 
REMARK    3  A    between atoms: C4_4  and  C6_8 
REMARK    4  A    between atoms: C7_9  and  C8_10 
REMARK    5  A    between atoms: C8_10  and  C9_11 
REMARK    6  A    between atoms: C10_12  and  C11_13 
REMARK    7  A    between atoms: C11_13  and  C12_14 
REMARK    8  A    between atoms: C12_14  and  C13_15 
REMARK    9  A    between atoms: C14_17  and  N1_18 
REMARK   10  A    between atoms: C20_28  and  O5_29 
REMARK   11  A    between atoms: C21_31  and  O6_32 
ROOT
HETATM    1  C1  UNL     1       9.244   0.918   1.462  1.00  0.00     0.112 C 
HETATM    2  C2  UNL     1       8.388  -0.041   0.740  1.00  0.00    -0.107 C 
HETATM    3  C3  UNL     1       7.683  -0.832   0.161  1.00  0.00    -0.056 C 
ENDROOT
BRANCH   3   4
HETATM    4  C4  UNL     1       6.819  -1.791  -0.539  1.00  0.00     0.181 C 
HETATM    5  C5  UNL     1       7.575  -2.301  -1.734  1.00  0.00     0.075 C 
BRANCH   4   6
HETATM    6  O1  UNL     1       6.545  -2.874   0.302  1.00  0.00    -0.367 OA
ATOM      7  H1  UNL     1       5.986  -3.494  -0.151  1.00  0.00     0.212 HD
ENDBRANCH   4   6
BRANCH   4   8
HETATM    8  C6  UNL     1       5.560  -1.173  -0.965  1.00  0.00    -0.055 C 
HETATM    9  C7  UNL     1       4.519  -0.682  -1.328  1.00  0.00    -0.099 C 
BRANCH   9  10
HETATM   10  C8  UNL     1       3.252  -0.106  -1.782  1.00  0.00     0.120 C 
BRANCH  10  11
HETATM   11  C9  UNL     1       2.500   0.545  -0.677  1.00  0.00    -0.019 C 
HETATM   12  C10 UNL     1       1.297   0.159  -0.323  1.00  0.00    -0.030 C 
BRANCH  12  13
HETATM   13  C11 UNL     1       0.546   0.800   0.771  1.00  0.00     0.029 C 
BRANCH  13  14
HETATM   14  C12 UNL     1      -0.764   1.393   0.295  1.00  0.00     0.038 C 
BRANCH  14  15
HETATM   15  C13 UNL     1      -1.638   0.320  -0.292  1.00  0.00     0.156 C 
HETATM   16  O2  UNL     1      -2.846   0.783  -0.751  1.00  0.00    -0.355 OA
HETATM   17  C14 UNL     1      -3.539   1.123   0.399  1.00  0.00     0.263 C 
HETATM   18  C20 UNL     1      -3.170   0.146   1.467  1.00  0.00     0.198 C 
HETATM   19  C21 UNL     1      -2.067  -0.658   0.780  1.00  0.00     0.180 C 
BRANCH  17  20
HETATM   20  N1  UNL     1      -4.975   1.170   0.168  1.00  0.00    -0.279 N 
HETATM   21  C15 UNL     1      -5.574   0.206  -0.549  1.00  0.00     0.110 A 
HETATM   22  C16 UNL     1      -6.951   0.218  -0.792  1.00  0.00     0.022 A 
HETATM   23  C17 UNL     1      -7.587  -0.872  -1.595  1.00  0.00     0.056 C 
HETATM   24  C18 UNL     1      -7.683   1.258  -0.268  1.00  0.00     0.256 A 
HETATM   25  O3  UNL     1      -8.935   1.290  -0.475  1.00  0.00    -0.267 OA
HETATM   26  N2  UNL     1      -7.081   2.217   0.447  1.00  0.00    -0.275 N 
HETATM   27  C19 UNL     1      -5.743   2.164   0.657  1.00  0.00     0.331 A 
ATOM     28  H2  UNL     1      -7.629   2.986   0.833  1.00  0.00     0.173 HD
HETATM   29  O4  UNL     1      -5.174   3.061   1.326  1.00  0.00    -0.246 OA
ENDBRANCH  17  20
BRANCH  18  30
HETATM   30  O5  UNL     1      -4.226  -0.682   1.836  1.00  0.00    -0.388 OA
ATOM     31  H5  UNL     1      -3.991  -1.303   2.515  1.00  0.00     0.210 HD
ENDBRANCH  18  30
BRANCH  19  32
HETATM   32  O6  UNL     1      -2.650  -1.788   0.178  1.00  0.00    -0.390 OA
ATOM     33  H6  UNL     1      -2.919  -2.402   0.851  1.00  0.00     0.210 HD
ENDBRANCH  19  32
ENDBRANCH  14  15
ENDBRANCH  13  14
ENDBRANCH  12  13
ENDBRANCH  10  11
ENDBRANCH   9  10
ENDBRANCH   4   8
ENDBRANCH   3   4
TORSDOF 11
