REMARK  7 active torsions:
REMARK  status: ('A' for Active; 'I' for Inactive)
REMARK    1  A    between atoms: O1_2  and  C2_3 
REMARK    2  A    between atoms: C3_5  and  C4_6 
REMARK    3  A    between atoms: C5_9  and  O5_10 
REMARK    4  A    between atoms: C7_13  and  N1_14 
REMARK       I    between atoms: N1_14  and  C8_16 
REMARK    5  A    between atoms: C8_16  and  C9_18 
REMARK    6  A    between atoms: C15_25  and  O7_26 
REMARK    7  A    between atoms: C15_25  and  N2_28 
ROOT
HETATM    1  N1  UNL     1       0.743  -0.043  -0.076  1.00  0.00    -0.351 N 
ATOM      2  H1  UNL     1       0.700  -0.991   0.298  1.00  0.00     0.163 HD
HETATM    3  C8  UNL     1      -0.377   0.438  -0.799  1.00  0.00     0.227 C 
HETATM    4  O6  UNL     1      -0.397   1.601  -1.291  1.00  0.00    -0.273 OA
ENDROOT
BRANCH   1   5
HETATM    5  C7  UNL     1       1.932   0.719   0.162  1.00  0.00     0.142 C 
HETATM    6  C2  UNL     1       3.090  -0.041  -0.449  1.00  0.00     0.283 C 
HETATM    7  O2  UNL     1       4.308   0.572  -0.254  1.00  0.00    -0.341 OA
HETATM    8  C3  UNL     1       4.269   1.732   0.467  1.00  0.00     0.254 C 
HETATM    9  C5  UNL     1       3.563   1.566   1.804  1.00  0.00     0.160 C 
HETATM   10  C6  UNL     1       2.224   0.915   1.631  1.00  0.00     0.065 C 
BRANCH   6  11
HETATM   11  O1  UNL     1       3.040  -1.342  -0.022  1.00  0.00    -0.364 OA
HETATM   12  C1  UNL     1       2.801  -2.261  -1.021  1.00  0.00     0.204 C 
ENDBRANCH   6  11
BRANCH   8  13
HETATM   13  C4  UNL     1       5.658   2.168   0.750  1.00  0.00     0.205 C 
HETATM   14  O3  UNL     1       5.909   3.213   1.403  1.00  0.00    -0.646 OA
HETATM   15  O4  UNL     1       6.738   1.425   0.296  1.00  0.00    -0.646 OA
ENDBRANCH   8  13
BRANCH   9  16
HETATM   16  O5  UNL     1       4.365   0.820   2.691  1.00  0.00    -0.392 OA
ATOM     17  H5  UNL     1       3.924   0.716   3.526  1.00  0.00     0.210 HD
ENDBRANCH   9  16
ENDBRANCH   1   5
BRANCH   3  18
HETATM   18  C9  UNL     1      -1.593  -0.379  -1.029  1.00  0.00     0.126 C 
HETATM   19  C10 UNL     1      -1.307  -1.644  -1.809  1.00  0.00     0.065 C 
HETATM   20  C11 UNL     1      -2.669  -2.112  -2.290  1.00  0.00     0.018 C 
HETATM   21  S1  UNL     1      -1.122  -2.838  -0.418  1.00  0.00    -0.154 SA
HETATM   22  C12 UNL     1      -3.486  -2.494  -1.109  1.00  0.00     0.021 C 
HETATM   23  C13 UNL     1      -2.772  -2.146   0.152  1.00  0.00     0.081 C 
HETATM   24  C14 UNL     1      -2.264  -0.733   0.244  1.00  0.00    -0.001 C 
HETATM   25  C15 UNL     1      -3.083   0.239   0.921  1.00  0.00     0.141 C 
BRANCH  25  26
HETATM   26  O7  UNL     1      -2.851   0.358   2.216  1.00  0.00    -0.346 OA
ATOM     27  H7  UNL     1      -3.391   0.999   2.663  1.00  0.00     0.219 HD
ENDBRANCH  25  26
BRANCH  25  28
HETATM   28  N2  UNL     1      -4.089   1.097   0.495  1.00  0.00    -0.370 N 
HETATM   29  C16 UNL     1      -4.548   1.212  -0.847  1.00  0.00     0.151 C 
HETATM   30  C17 UNL     1      -4.755   1.972   1.483  1.00  0.00     0.151 C 
ENDBRANCH  25  28
ENDBRANCH   3  18
TORSDOF 7
