REMARK  5 active torsions:
REMARK  status: ('A' for Active; 'I' for Inactive)
REMARK    1  A    between atoms: C2_2  and  N1_3 
REMARK       I    between atoms: N1_3  and  C3_5 
REMARK       I    between atoms: C3_5  and  N2_7 
REMARK    2  A    between atoms: N2_7  and  C4_9 
REMARK    3  A    between atoms: C4_9  and  C5_10 
REMARK    4  A    between atoms: C16_28  and  C17_29 
REMARK    5  A    between atoms: C17_29  and  N5_30 
ROOT
HETATM    1  C5  UNL     1      -0.699  -0.642  -0.754  1.00  0.00     0.035 C 
HETATM    2  C6  UNL     1      -0.157  -1.989  -0.418  1.00  0.00     0.009 C 
HETATM    3  C7  UNL     1       0.740  -2.529  -1.543  1.00  0.00     0.002 C 
HETATM    4  C8  UNL     1       2.121  -2.003  -1.254  1.00  0.00     0.027 C 
HETATM    5  C9  UNL     1       3.110  -2.276  -2.341  1.00  0.00     0.232 C 
HETATM    6  N3  UNL     1       4.482  -2.343  -1.812  1.00  0.00    -0.075 N 
ATOM      7  H31 UNL     1       5.190  -2.539  -2.520  1.00  0.00     0.277 HD
ATOM      8  H32 UNL     1       4.664  -3.165  -1.236  1.00  0.00     0.277 HD
HETATM    9  C10 UNL     1       4.677  -1.068  -1.111  1.00  0.00     0.234 C 
HETATM   10  C11 UNL     1       5.990  -1.036  -0.367  1.00  0.00     0.046 C 
HETATM   11  C12 UNL     1       5.787  -0.256   0.915  1.00  0.00     0.115 C 
HETATM   12  N4  UNL     1       4.767   0.741   0.821  1.00  0.00    -0.421 N 
ATOM     13  H4  UNL     1       4.761   1.454   0.091  1.00  0.00     0.153 HD
HETATM   14  C13 UNL     1       3.754   0.662   1.831  1.00  0.00     0.123 C 
HETATM   15  C14 UNL     1       2.420   1.206   1.322  1.00  0.00     0.130 C 
HETATM   16  C15 UNL     1       1.285   0.557   2.033  1.00  0.00     0.260 C 
HETATM   17  O2  UNL     1       1.332   0.672   3.288  1.00  0.00    -0.265 OA
HETATM   18  O3  UNL     1       0.338  -0.077   1.301  1.00  0.00    -0.314 OA
HETATM   19  C16 UNL     1      -0.610   0.345   0.409  1.00  0.00     0.165 C 
ENDROOT
BRANCH   1  20
HETATM   20  C4  UNL     1      -2.105  -0.717  -1.296  1.00  0.00     0.131 C 
BRANCH  20  21
HETATM   21  N2  UNL     1      -3.015  -1.313  -0.345  1.00  0.00    -0.343 N 
HETATM   22  C3  UNL     1      -4.391  -1.482  -0.648  1.00  0.00     0.316 C 
HETATM   23  N1  UNL     1      -5.277  -2.062   0.280  1.00  0.00    -0.344 N 
HETATM   24  O1  UNL     1      -4.813  -1.107  -1.754  1.00  0.00    -0.247 OA
ATOM     25  H1  UNL     1      -4.933  -2.369   1.190  1.00  0.00     0.164 HD
ATOM     26  H2  UNL     1      -2.661  -1.618   0.562  1.00  0.00     0.164 HD
BRANCH  23  27
HETATM   27  C2  UNL     1      -6.671  -2.222  -0.055  1.00  0.00     0.120 C 
HETATM   28  C1  UNL     1      -7.430  -2.868   1.092  1.00  0.00     0.026 C 
ENDBRANCH  23  27
ENDBRANCH  20  21
ENDBRANCH   1  20
BRANCH  19  29
HETATM   29  C17 UNL     1      -0.475   1.700  -0.164  1.00  0.00     0.305 C 
BRANCH  29  30
HETATM   30  N5  UNL     1      -0.485   2.777   0.783  1.00  0.00     0.095 N 
HETATM   31  C18 UNL     1      -0.338   4.011   0.013  1.00  0.00     0.298 C 
HETATM   32  C19 UNL     1      -1.666   4.494  -0.495  1.00  0.00     0.198 C 
HETATM   33  O4  UNL     1      -2.360   5.032   0.591  1.00  0.00    -0.388 OA
HETATM   34  C20 UNL     1      -2.127   4.316   1.757  1.00  0.00     0.198 C 
HETATM   35  C21 UNL     1      -1.744   2.875   1.473  1.00  0.00     0.298 C 
ENDBRANCH  29  30
ENDBRANCH  19  29
TORSDOF 5
