REMARK  7 active torsions:
REMARK  status: ('A' for Active; 'I' for Inactive)
REMARK       I    between atoms: C2_2  and  N1_4 
REMARK    1  A    between atoms: N1_4  and  C3_6 
REMARK    2  A    between atoms: C5_8  and  C6_9 
REMARK    3  A    between atoms: C6_9  and  C7_11 
REMARK    4  A    between atoms: C10_14  and  O3_15 
REMARK    5  A    between atoms: C11_17  and  O4_18 
REMARK    6  A    between atoms: C12_20  and  N2_21 
REMARK    7  A    between atoms: C19_29  and  C20_30 
ROOT
HETATM    1  C3  UNL     1       0.633   2.234  -0.116  1.00  0.00     0.124 C 
HETATM    2  C4  UNL     1       1.249   0.877   0.207  1.00  0.00     0.045 C 
HETATM    3  C5  UNL     1       0.263  -0.253   0.098  1.00  0.00     0.117 C 
HETATM    4  C12 UNL     1      -1.060   0.328  -0.370  1.00  0.00     0.371 C 
HETATM    5  O5  UNL     1      -0.950   1.087  -1.517  1.00  0.00    -0.338 OA
HETATM    6  C19 UNL     1      -0.008   2.085  -1.474  1.00  0.00     0.247 C 
ENDROOT
BRANCH   3   7
HETATM    7  C6  UNL     1       0.704  -1.392  -0.713  1.00  0.00     0.142 C 
HETATM    8  O2  UNL     1       0.032  -1.557  -1.763  1.00  0.00    -0.297 OA
BRANCH   7   9
HETATM    9  C7  UNL     1       1.773  -2.330  -0.489  1.00  0.00     0.087 C 
HETATM   10  C8  UNL     1       1.660  -3.201   0.748  1.00  0.00     0.017 C 
HETATM   11  C9  UNL     1       3.050  -3.845   0.829  1.00  0.00     0.035 C 
HETATM   12  C10 UNL     1       3.903  -3.140  -0.231  1.00  0.00     0.147 C 
HETATM   13  C11 UNL     1       3.161  -1.776  -0.267  1.00  0.00     0.158 C 
BRANCH  12  14
HETATM   14  O3  UNL     1       5.202  -2.940   0.186  1.00  0.00    -0.393 OA
ATOM     15  H3  UNL     1       5.731  -2.503  -0.471  1.00  0.00     0.210 HD
ENDBRANCH  12  14
BRANCH  13  16
HETATM   16  O4  UNL     1       3.312  -1.314   1.049  1.00  0.00    -0.392 OA
ATOM     17  H4  UNL     1       4.185  -0.966   1.189  1.00  0.00     0.210 HD
ENDBRANCH  13  16
ENDBRANCH   7   9
ENDBRANCH   3   7
BRANCH   4  18
HETATM   18  N2  UNL     1      -2.050  -0.674  -0.591  1.00  0.00     0.118 N 
HETATM   19  C13 UNL     1      -2.376  -1.375   0.606  1.00  0.00     0.276 C 
HETATM   20  C14 UNL     1      -3.516  -2.332   0.466  1.00  0.00     0.030 C 
HETATM   21  C15 UNL     1      -4.846  -1.746   0.216  1.00  0.00     0.002 C 
HETATM   22  C16 UNL     1      -4.960  -0.270   0.444  1.00  0.00     0.002 C 
HETATM   23  C17 UNL     1      -4.113   0.565  -0.448  1.00  0.00     0.030 C 
HETATM   24  C18 UNL     1      -3.186  -0.239  -1.331  1.00  0.00     0.276 C 
ENDBRANCH   4  18
BRANCH   1  25
HETATM   25  N1  UNL     1       1.753   3.149  -0.281  1.00  0.00    -0.354 N 
HETATM   26  C2  UNL     1       1.898   4.291   0.537  1.00  0.00     0.214 C 
HETATM   27  C1  UNL     1       3.043   5.228   0.369  1.00  0.00     0.117 C 
HETATM   28  O1  UNL     1       1.024   4.498   1.422  1.00  0.00    -0.274 OA
ATOM     29  H1  UNL     1       2.448   2.961  -1.003  1.00  0.00     0.162 HD
ENDBRANCH   1  25
BRANCH   6  30
HETATM   30  C20 UNL     1      -0.584   3.380  -1.888  1.00  0.00     0.205 C 
HETATM   31  O6  UNL     1      -1.807   3.415  -2.191  1.00  0.00    -0.646 OA
HETATM   32  O7  UNL     1       0.126   4.566  -1.968  1.00  0.00    -0.646 OA
ENDBRANCH   6  30
TORSDOF 7
