REMARK  8 active torsions:
REMARK  status: ('A' for Active; 'I' for Inactive)
REMARK    1  A    between atoms: C2_2  and  C3_3 
REMARK       I    between atoms: C3_3  and  N1_5 
REMARK    2  A    between atoms: C4_7  and  C5_8 
REMARK    3  A    between atoms: C5_8  and  N2_9 
REMARK    4  A    between atoms: C11_16  and  O3_17 
REMARK    5  A    between atoms: C12_19  and  O4_20 
REMARK    6  A    between atoms: C13_22  and  C14_23 
REMARK    7  A    between atoms: C17_27  and  O6_28 
REMARK    8  A    between atoms: C19_31  and  O7_32 
ROOT
HETATM    1  N2  UNL     1       1.064   0.274   1.504  1.00  0.00    -0.386 N 
HETATM    2  C6  UNL     1       0.466   1.494   1.720  1.00  0.00     0.091 C 
HETATM    3  C7  UNL     1      -0.722   1.899   0.933  1.00  0.00     0.175 C 
HETATM    4  O2  UNL     1      -0.401   2.342  -0.377  1.00  0.00    -0.366 OA
HETATM    5  C8  UNL     1      -1.468   2.045  -1.206  1.00  0.00     0.087 C 
HETATM    6  C9  UNL     1      -2.004   3.405  -1.677  1.00  0.00     0.049 C 
HETATM    7  C10 UNL     1      -1.221   1.128  -2.342  1.00  0.00     0.075 C 
HETATM    8  C11 UNL     1      -1.744  -0.265  -2.258  1.00  0.00     0.156 C 
HETATM    9  C12 UNL     1      -1.374  -1.059  -1.017  1.00  0.00     0.100 C 
HETATM   10  C13 UNL     1      -2.605  -1.682  -0.381  1.00  0.00     0.095 C 
HETATM   11  C16 UNL     1      -3.193  -0.900   0.705  1.00  0.00     0.163 C 
HETATM   12  O5  UNL     1      -4.382  -1.007   0.940  1.00  0.00    -0.295 OA
HETATM   13  C17 UNL     1      -2.397   0.059   1.571  1.00  0.00     0.202 C 
HETATM   14  C18 UNL     1      -1.538   0.718   0.604  1.00  0.00     0.060 C 
HETATM   15  C19 UNL     1      -2.515   1.444  -0.343  1.00  0.00     0.167 C 
HETATM   16  C20 UNL     1      -0.591  -0.195  -0.138  1.00  0.00     0.058 C 
HETATM   17  C21 UNL     1       0.369  -0.777   0.830  1.00  0.00     0.131 C 
ENDROOT
BRANCH   1  18
HETATM   18  C5  UNL     1       2.493   0.238   1.405  1.00  0.00     0.166 C 
BRANCH  18  19
HETATM   19  C4  UNL     1       3.027   0.892   0.206  1.00  0.00     0.083 C 
HETATM   20  N1  UNL     1       4.163   0.730  -0.339  1.00  0.00    -0.339 N 
HETATM   21  C3  UNL     1       5.227  -0.085   0.009  1.00  0.00     0.220 C 
ATOM     22  H1  UNL     1       4.317   1.296  -1.174  1.00  0.00     0.167 HD
HETATM   23  O1  UNL     1       5.038  -1.200   0.550  1.00  0.00    -0.273 OA
BRANCH  21  24
HETATM   24  C2  UNL     1       6.667   0.283  -0.223  1.00  0.00     0.098 C 
HETATM   25  C1  UNL     1       7.608  -0.776   0.269  1.00  0.00     0.014 C 
ENDBRANCH  21  24
ENDBRANCH  18  19
ENDBRANCH   1  18
BRANCH   9  26
HETATM   26  O4  UNL     1      -0.635  -2.173  -1.479  1.00  0.00    -0.386 OA
ATOM     27  H4  UNL     1      -0.404  -2.670  -0.703  1.00  0.00     0.210 HD
ENDBRANCH   9  26
BRANCH  13  28
HETATM   28  O6  UNL     1      -1.852  -0.543   2.665  1.00  0.00    -0.387 OA
ATOM     29  H6  UNL     1      -1.354   0.057   3.207  1.00  0.00     0.210 HD
ENDBRANCH  13  28
BRANCH  15  30
HETATM   30  O7  UNL     1      -3.129   2.436   0.445  1.00  0.00    -0.392 OA
ATOM     31  H7  UNL     1      -3.799   2.051   0.997  1.00  0.00     0.210 HD
ENDBRANCH  15  30
BRANCH   8  32
HETATM   32  O3  UNL     1      -1.251  -0.889  -3.435  1.00  0.00    -0.392 OA
ATOM     33  H3  UNL     1      -1.584  -1.777  -3.381  1.00  0.00     0.210 HD
ENDBRANCH   8  32
BRANCH  10  34
HETATM   34  C14 UNL     1      -2.415  -3.086   0.088  1.00  0.00     0.011 C 
HETATM   35  C15 UNL     1      -3.696  -3.618   0.698  1.00  0.00     0.006 C 
ENDBRANCH  10  34
TORSDOF 8
