REMARK  8 active torsions:
REMARK  status: ('A' for Active; 'I' for Inactive)
REMARK    1  A    between atoms: O1_1  and  C1_3 
REMARK    2  A    between atoms: C4_6  and  N1_7 
REMARK    3  A    between atoms: N1_7  and  C5_8 
REMARK    4  A    between atoms: N3_13  and  C7_14 
REMARK    5  A    between atoms: C11_18  and  N4_19 
REMARK    6  A    between atoms: N4_19  and  C12_21 
REMARK    7  A    between atoms: C12_21  and  C13_22 
REMARK    8  A    between atoms: C13_22  and  N5_23 
ROOT
HETATM    1  C5  UNL     1      -1.826  -0.820  -0.805  1.00  0.00     0.270 A 
HETATM    2  N2  UNL     1      -2.438  -2.010  -0.560  1.00  0.00    -0.292 N 
ATOM      3  H2  UNL     1      -3.457  -2.058  -0.535  1.00  0.00     0.172 HD
HETATM    4  C6  UNL     1      -1.716  -3.121  -0.351  1.00  0.00     0.197 A 
HETATM    5  S1  UNL     1      -2.520  -4.512  -0.067  1.00  0.00    -0.040 SA
HETATM    6  N3  UNL     1      -0.379  -3.123  -0.373  1.00  0.00    -0.153 N 
HETATM    7  C11 UNL     1       0.240  -1.937  -0.617  1.00  0.00     0.686 A 
HETATM    8  N7  UNL     1      -0.474  -0.819  -0.827  1.00  0.00    -0.149 N 
ATOM      9  H7  UNL     1       0.018   0.056  -1.008  1.00  0.00     0.188 HD
ENDROOT
BRANCH   7  10
HETATM   10  N4  UNL     1       1.524  -1.845  -0.659  1.00  0.00    -0.224 N 
ATOM     11  H4  UNL     1       2.058  -2.699  -0.502  1.00  0.00     0.177 HD
BRANCH  10  12
HETATM   12  C12 UNL     1       2.262  -0.650  -0.907  1.00  0.00     0.168 C 
BRANCH  12  13
HETATM   13  C13 UNL     1       2.429   0.104   0.389  1.00  0.00     0.292 C 
BRANCH  13  14
HETATM   14  N5  UNL     1       3.167   1.339   0.208  1.00  0.00     0.093 N 
HETATM   15  C14 UNL     1       3.275   1.975   1.507  1.00  0.00     0.300 C 
HETATM   16  C15 UNL     1       4.132   3.215   1.456  1.00  0.00     0.262 C 
HETATM   17  N6  UNL     1       4.801   3.360   0.179  1.00  0.00    -0.072 N 
HETATM   18  C16 UNL     1       5.467   2.115  -0.120  1.00  0.00     0.262 C 
ATOM     19  H62 UNL     1       4.170   3.659  -0.565  1.00  0.00     0.277 HD
ATOM     20  H61 UNL     1       5.432   4.161   0.153  1.00  0.00     0.277 HD
HETATM   21  C17 UNL     1       4.453   1.013  -0.350  1.00  0.00     0.300 C 
ENDBRANCH  13  14
ENDBRANCH  12  13
ENDBRANCH  10  12
ENDBRANCH   7  10
BRANCH   6  22
HETATM   22  C7  UNL     1       0.432  -4.277  -0.158  1.00  0.00     0.110 C 
HETATM   23  C8  UNL     1       1.676  -4.089   0.692  1.00  0.00     0.026 C 
HETATM   24  C9  UNL     1       1.416  -5.501   1.236  1.00  0.00     0.004 C 
HETATM   25  C10 UNL     1      -0.058  -5.262   0.892  1.00  0.00     0.026 C 
ENDBRANCH   6  22
BRANCH   1  26
HETATM   26  N1  UNL     1      -2.462   0.172  -0.994  1.00  0.00    -0.409 NA
BRANCH  26  27
HETATM   27  C4  UNL     1      -2.969   1.382  -1.227  1.00  0.00     0.167 C 
HETATM   28  C3  UNL     1      -2.827   2.369  -0.065  1.00  0.00     0.042 C 
HETATM   29  C2  UNL     1      -3.728   3.545  -0.254  1.00  0.00     0.035 C 
HETATM   30  C1  UNL     1      -5.193   3.181  -0.115  1.00  0.00     0.118 C 
HETATM   31  C19 UNL     1      -5.333   1.705  -0.440  1.00  0.00     0.035 C 
HETATM   32  C18 UNL     1      -4.435   1.446  -1.658  1.00  0.00     0.042 C 
BRANCH  30  33
HETATM   33  O1  UNL     1      -5.681   3.410   1.168  1.00  0.00    -0.396 OA
ATOM     34  H1  UNL     1      -6.599   3.182   1.255  1.00  0.00     0.210 HD
ENDBRANCH  30  33
ENDBRANCH  26  27
ENDBRANCH   1  26
TORSDOF 8
