REMARK  9 active torsions:
REMARK  status: ('A' for Active; 'I' for Inactive)
REMARK    1  A    between atoms: C2_2  and  C3_3 
REMARK    2  A    between atoms: C3_3  and  C4_4 
REMARK    3  A    between atoms: N1_7  and  C7_8 
REMARK    4  A    between atoms: C7_8  and  C8_9 
REMARK    5  A    between atoms: C9_11  and  C10_12 
REMARK    6  A    between atoms: C10_12  and  O2_13 
REMARK    7  A    between atoms: C11_15  and  O3_16 
REMARK    8  A    between atoms: C12_18  and  O4_19 
REMARK    9  A    between atoms: C13_21  and  O5_22 
ROOT
HETATM    1  C8  UNL     1       1.707  -0.852   0.538  1.00  0.00     0.171 C 
HETATM    2  O1  UNL     1       1.743   0.208  -0.307  1.00  0.00    -0.371 OA
HETATM    3  C9  UNL     1       2.985   0.741  -0.554  1.00  0.00     0.176 C 
HETATM    4  C11 UNL     1       3.915   0.740   0.614  1.00  0.00     0.180 C 
HETATM    5  C12 UNL     1       3.961  -0.569   1.370  1.00  0.00     0.180 C 
HETATM    6  C13 UNL     1       3.084  -1.531   0.601  1.00  0.00     0.180 C 
ENDROOT
BRANCH   1   7
HETATM    7  C7  UNL     1       0.680  -1.900   0.284  1.00  0.00     0.166 C 
BRANCH   7   8
HETATM    8  N1  UNL     1      -0.680  -1.434   0.323  1.00  0.00    -0.314 N 
HETATM    9  C6  UNL     1      -1.266  -1.047  -0.825  1.00  0.00     0.022 A 
HETATM   10  C5  UNL     1      -2.588  -0.564  -0.797  1.00  0.00    -0.028 A 
HETATM   11  C16 UNL     1      -0.844  -1.021  -2.249  1.00  0.00     0.058 C 
HETATM   12  C4  UNL     1      -3.267  -0.493   0.406  1.00  0.00    -0.027 A 
HETATM   13  C18 UNL     1      -3.018  -0.226  -2.160  1.00  0.00     0.041 C 
HETATM   14  C15 UNL     1      -2.626  -0.902   1.553  1.00  0.00     0.086 A 
HETATM   15  C14 UNL     1      -1.335  -1.368   1.492  1.00  0.00     0.266 A 
HETATM   16 BR1  UNL     1      -3.559  -0.853   3.210  1.00  0.00    -0.045 Br
HETATM   17  O6  UNL     1      -0.802  -1.730   2.593  1.00  0.00    -0.267 OA
HETATM   18  C17 UNL     1      -1.676   0.100  -2.832  1.00  0.00     0.011 C 
BRANCH  12  19
HETATM   19  C3  UNL     1      -4.640   0.012   0.510  1.00  0.00     0.040 C 
BRANCH  19  20
HETATM   20  C2  UNL     1      -4.762   1.491   0.426  1.00  0.00     0.000 C 
HETATM   21  C1  UNL     1      -3.991   2.231   1.512  1.00  0.00     0.005 C 
ENDBRANCH  19  20
ENDBRANCH  12  19
ENDBRANCH   7   8
ENDBRANCH   1   7
BRANCH   6  22
HETATM   22  O5  UNL     1       3.011  -2.774   1.171  1.00  0.00    -0.390 OA
ATOM     23  H5  UNL     1       3.862  -3.194   1.210  1.00  0.00     0.210 HD
ENDBRANCH   6  22
BRANCH   3  24
HETATM   24  C10 UNL     1       2.747   2.214  -0.924  1.00  0.00     0.198 C 
BRANCH  24  25
HETATM   25  O2  UNL     1       3.946   2.832  -1.190  1.00  0.00    -0.398 OA
ATOM     26  H2  UNL     1       3.799   3.742  -1.419  1.00  0.00     0.209 HD
ENDBRANCH  24  25
ENDBRANCH   3  24
BRANCH   5  27
HETATM   27  O4  UNL     1       5.258  -1.048   1.520  1.00  0.00    -0.390 OA
ATOM     28  H4  UNL     1       5.287  -1.870   1.995  1.00  0.00     0.210 HD
ENDBRANCH   5  27
BRANCH   4  29
HETATM   29  O3  UNL     1       5.219   0.947   0.108  1.00  0.00    -0.390 OA
ATOM     30  H3  UNL     1       5.811   0.946   0.851  1.00  0.00     0.210 HD
ENDBRANCH   4  29
TORSDOF 9
