REMARK  5 active torsions:
REMARK  status: ('A' for Active; 'I' for Inactive)
REMARK    1  A    between atoms: N1_2  and  C3_4 
REMARK    2  A    between atoms: N3_6  and  C4_7 
REMARK    3  A    between atoms: C5_12  and  C6_13 
REMARK    4  A    between atoms: C8_15  and  C9_16 
REMARK    5  A    between atoms: N8_28  and  C16_30 
ROOT
HETATM    1  C6  UNL     1      -1.195   0.663   0.173  1.00  0.00     0.054 A 
HETATM    2  C7  UNL     1      -2.125   1.661   0.397  1.00  0.00     0.028 A 
HETATM    3  C8  UNL     1      -3.472   1.440   0.524  1.00  0.00    -0.037 A 
HETATM    4  C14 UNL     1      -3.891   0.135   0.416  1.00  0.00     0.097 A 
HETATM    5  N7  UNL     1      -3.010  -0.868   0.197  1.00  0.00    -0.351 N 
ATOM      6  H7  UNL     1      -3.353  -1.826   0.122  1.00  0.00     0.166 HD
HETATM    7  C15 UNL     1      -1.671  -0.626   0.074  1.00  0.00     0.115 A 
HETATM    8  N8  UNL     1      -0.945  -1.640  -0.125  1.00  0.00    -0.371 N 
ATOM      9  H8  UNL     1       0.058  -1.477  -0.216  1.00  0.00     0.161 HD
ENDROOT
BRANCH   1  10
HETATM   10  C5  UNL     1       0.216   0.940   0.032  1.00  0.00     0.150 A 
HETATM   11  N5  UNL     1       0.663   2.237   0.078  1.00  0.00    -0.270 N 
HETATM   12  N4  UNL     1       1.969   2.247  -0.084  1.00  0.00    -0.129 N 
ATOM     13  H5  UNL     1       0.077   3.061   0.216  1.00  0.00     0.189 HD
HETATM   14  C4  UNL     1       2.423   0.977  -0.240  1.00  0.00     0.712 A 
ATOM     15  H4  UNL     1       2.553   3.083  -0.091  1.00  0.00     0.205 HD
HETATM   16  N9  UNL     1       1.304   0.206  -0.160  1.00  0.00    -0.172 N 
ATOM     17  H9  UNL     1       1.302  -0.811  -0.238  1.00  0.00     0.186 HD
BRANCH  14  18
HETATM   18  N3  UNL     1       3.772   0.612  -0.444  1.00  0.00    -0.122 N 
HETATM   19  N2  UNL     1       4.766   0.390   0.509  1.00  0.00    -0.084 NA
HETATM   20  C3  UNL     1       5.946  -0.003  -0.172  1.00  0.00     0.369 C 
HETATM   21  C22 UNL     1       5.804   0.633  -1.536  1.00  0.00     0.241 C 
HETATM   22  C21 UNL     1       4.328   0.403  -1.790  1.00  0.00     0.204 C 
HETATM   23  F1  UNL     1       5.951   2.014  -1.406  1.00  0.00    -0.244 F 
BRANCH  20  24
HETATM   24  N1  UNL     1       7.177   0.486   0.416  1.00  0.00     0.104 N 
HETATM   25  C1  UNL     1       8.319   0.076  -0.384  1.00  0.00     0.311 C 
HETATM   26  C2  UNL     1       7.379  -0.052   1.748  1.00  0.00     0.311 C 
ENDBRANCH  20  24
ENDBRANCH  14  18
ENDBRANCH   1  10
BRANCH   3  27
HETATM   27  C9  UNL     1      -4.458   2.498   0.763  1.00  0.00     0.023 C 
HETATM   28  C10 UNL     1      -5.517   2.608  -0.308  1.00  0.00     0.037 C 
HETATM   29  C11 UNL     1      -6.071   4.032  -0.213  1.00  0.00     0.233 C 
HETATM   30  N6  UNL     1      -5.998   4.464   1.152  1.00  0.00    -0.075 N 
HETATM   31  C12 UNL     1      -6.260   3.411   2.113  1.00  0.00     0.233 C 
ATOM     32  H62 UNL     1      -5.099   4.908   1.341  1.00  0.00     0.277 HD
ATOM     33  H61 UNL     1      -6.618   5.258   1.311  1.00  0.00     0.277 HD
HETATM   34  C13 UNL     1      -5.169   2.355   2.089  1.00  0.00     0.037 C 
ENDBRANCH   3  27
BRANCH   8  35
HETATM   35  C16 UNL     1      -1.390  -2.994  -0.235  1.00  0.00     0.087 C 
HETATM   36  C17 UNL     1      -1.874  -3.315  -1.647  1.00  0.00     0.051 C 
HETATM   37  C18 UNL     1      -2.253  -4.780  -1.670  1.00  0.00     0.169 C 
HETATM   38  O1  UNL     1      -1.925  -5.402  -0.473  1.00  0.00    -0.391 OA
HETATM   39  C19 UNL     1      -0.567  -5.292  -0.176  1.00  0.00     0.169 C 
HETATM   40  C20 UNL     1      -0.122  -3.859  -0.052  1.00  0.00     0.051 C 
ENDBRANCH   8  35
TORSDOF 5
