REMARK  11 active torsions:
REMARK  status: ('A' for Active; 'I' for Inactive)
REMARK    1  A    between atoms: O1_2  and  C2_3 
REMARK    2  A    between atoms: C5_6  and  O2_7 
REMARK    3  A    between atoms: C6_9  and  C7_10 
REMARK    4  A    between atoms: C7_10  and  O3_11 
REMARK    5  A    between atoms: C7_10  and  C8_13 
REMARK    6  A    between atoms: C8_13  and  O4_14 
REMARK    7  A    between atoms: C9_16  and  C10_17 
REMARK    8  A    between atoms: C10_17  and  C11_18 
REMARK    9  A    between atoms: C11_18  and  C12_19 
REMARK   10  A    between atoms: C12_19  and  N1_20 
REMARK   11  A    between atoms: C20_29  and  O6_31 
ROOT
HETATM    1  C2  UNL     1      -3.336   1.048  -0.476  1.00  0.00     0.149 C 
HETATM    2  C3  UNL     1      -2.433   0.126   0.210  1.00  0.00    -0.002 A 
HETATM    3  C4  UNL     1      -3.041  -0.609   1.147  1.00  0.00    -0.011 A 
HETATM    4  C5  UNL     1      -2.252  -1.515   1.903  1.00  0.00     0.086 A 
HETATM    5  C6  UNL     1      -0.868  -1.592   1.629  1.00  0.00     0.039 A 
HETATM    6  C9  UNL     1      -0.254  -0.803   0.642  1.00  0.00    -0.017 A 
HETATM    7  C17 UNL     1      -1.090   0.067  -0.076  1.00  0.00    -0.037 A 
HETATM    8  C18 UNL     1      -0.569   0.873  -1.192  1.00  0.00     0.043 C 
HETATM    9  C19 UNL     1      -1.617   1.260  -2.248  1.00  0.00     0.045 C 
HETATM   10  C20 UNL     1      -3.009   0.879  -1.957  1.00  0.00     0.093 C 
HETATM   11  C21 UNL     1      -3.926   1.809  -2.759  1.00  0.00     0.049 C 
HETATM   12  C22 UNL     1      -4.500  -0.289   1.147  1.00  0.00     0.083 C 
HETATM   13  C23 UNL     1      -4.680   0.471  -0.175  1.00  0.00     0.216 C 
HETATM   14  F1  UNL     1      -5.620   1.444  -0.002  1.00  0.00    -0.245 F 
ENDROOT
BRANCH   6  15
HETATM   15  C10 UNL     1       1.022  -0.727   0.510  1.00  0.00    -0.012 C 
BRANCH  15  16
HETATM   16  C11 UNL     1       2.009  -0.081  -0.326  1.00  0.00     0.047 C 
BRANCH  16  17
HETATM   17  C12 UNL     1       3.436  -0.200   0.324  1.00  0.00     0.120 C 
BRANCH  17  18
HETATM   18  N1  UNL     1       4.434   0.416  -0.463  1.00  0.00    -0.408 N 
HETATM   19  C13 UNL     1       4.776  -0.175  -1.703  1.00  0.00     0.143 C 
HETATM   20  C14 UNL     1       6.271  -0.119  -1.939  1.00  0.00     0.187 C 
HETATM   21  O5  UNL     1       6.811   1.131  -1.782  1.00  0.00    -0.388 OA
HETATM   22  C15 UNL     1       6.227   1.932  -0.835  1.00  0.00     0.187 C 
HETATM   23  C16 UNL     1       5.448   1.145   0.215  1.00  0.00     0.143 C 
ENDBRANCH  17  18
ENDBRANCH  16  17
ENDBRANCH  15  16
ENDBRANCH   6  15
BRANCH   5  24
HETATM   24  C7  UNL     1      -0.175  -2.488   2.300  1.00  0.00     0.080 C 
BRANCH  24  25
HETATM   25  O3  UNL     1       1.185  -2.669   2.110  1.00  0.00    -0.362 OA
ATOM     26  H3  UNL     1       1.685  -3.316   2.594  1.00  0.00     0.217 HD
ENDBRANCH  24  25
BRANCH  24  27
HETATM   27  C8  UNL     1      -0.729  -3.416   3.338  1.00  0.00     0.229 C 
BRANCH  27  28
HETATM   28  O4  UNL     1      -1.326  -4.535   2.850  1.00  0.00    -0.394 OA
ATOM     29  H4  UNL     1      -1.677  -5.123   3.508  1.00  0.00     0.209 HD
ENDBRANCH  27  28
ENDBRANCH  24  27
ENDBRANCH   5  24
BRANCH   4  30
HETATM   30  O2  UNL     1      -2.924  -2.203   2.803  1.00  0.00    -0.359 OA
ATOM     31  H2  UNL     1      -2.396  -2.809   3.309  1.00  0.00     0.217 HD
ENDBRANCH   4  30
BRANCH   1  32
HETATM   32  O1  UNL     1      -3.152   2.365  -0.176  1.00  0.00    -0.374 OA
HETATM   33  C1  UNL     1      -3.268   2.755   1.124  1.00  0.00     0.203 C 
ENDBRANCH   1  32
BRANCH  10  34
HETATM   34  O6  UNL     1      -3.266  -0.452  -2.269  1.00  0.00    -0.387 OA
ATOM     35  H6  UNL     1      -3.062  -0.557  -3.191  1.00  0.00     0.210 HD
ENDBRANCH  10  34
TORSDOF 11
