REMARK  9 active torsions:
REMARK  status: ('A' for Active; 'I' for Inactive)
REMARK    1  A    between atoms: C2_2  and  O1_3 
REMARK    2  A    between atoms: O1_3  and  C3_4 
REMARK    3  A    between atoms: C3_4  and  C4_6 
REMARK    4  A    between atoms: C4_6  and  N1_7 
REMARK       I    between atoms: N1_7  and  C5_9 
REMARK       I    between atoms: C5_9  and  N2_11 
REMARK    5  A    between atoms: C9_15  and  C10_16 
REMARK       I    between atoms: C10_16  and  N3_18 
REMARK    6  A    between atoms: N3_18  and  N4_20 
REMARK    7  A    between atoms: N4_20  and  C11_22 
REMARK    8  A    between atoms: C11_22  and  S1_26 
REMARK    9  A    between atoms: S1_26  and  C12_27 
ROOT
HETATM    1  N1  UNL     1      -3.324   0.559   1.029  1.00  0.00    -0.334 N 
ATOM      2  H1  UNL     1      -2.878   1.279   1.598  1.00  0.00     0.164 HD
HETATM    3  C5  UNL     1      -2.706   0.170  -0.173  1.00  0.00     0.318 C 
HETATM    4  O3  UNL     1      -3.222  -0.709  -0.896  1.00  0.00    -0.247 OA
HETATM    5  N2  UNL     1      -1.470   0.762  -0.613  1.00  0.00    -0.334 N 
HETATM    6  C6  UNL     1      -1.001   0.289  -1.900  1.00  0.00     0.127 C 
HETATM    7  C7  UNL     1       0.340  -0.352  -1.740  1.00  0.00     0.021 C 
HETATM    8  C8  UNL     1       0.772  -0.551  -0.305  1.00  0.00     0.015 C 
HETATM    9  C9  UNL     1       1.390   0.695   0.276  1.00  0.00     0.081 C 
HETATM   10  C14 UNL     1       0.584   1.930  -0.060  1.00  0.00     0.034 C 
HETATM   11  C15 UNL     1      -0.879   1.725   0.281  1.00  0.00     0.128 C 
ENDROOT
BRANCH   9  12
HETATM   12  C10 UNL     1       2.809   0.840  -0.145  1.00  0.00     0.240 C 
HETATM   13  O4  UNL     1       3.215   1.890  -0.731  1.00  0.00    -0.271 OA
HETATM   14  N3  UNL     1       3.695  -0.225   0.128  1.00  0.00    -0.268 N 
ATOM     15  H3  UNL     1       3.359  -1.069   0.592  1.00  0.00     0.190 HD
BRANCH  14  16
HETATM   16  N4  UNL     1       5.026  -0.112  -0.241  1.00  0.00    -0.278 N 
ATOM     17  H4  UNL     1       5.658   0.460   0.319  1.00  0.00     0.189 HD
BRANCH  16  18
HETATM   18  C11 UNL     1       5.515  -0.780  -1.382  1.00  0.00     0.152 C 
HETATM   19  N5  UNL     1       4.718  -1.229  -2.312  1.00  0.00    -0.379 N 
ATOM     20  H52 UNL     1       3.714  -1.085  -2.205  1.00  0.00     0.158 HD
ATOM     21  H51 UNL     1       5.072  -1.712  -3.138  1.00  0.00     0.158 HD
BRANCH  18  22
HETATM   22  S1  UNL     1       7.264  -1.030  -1.568  1.00  0.00    -0.093 SA
BRANCH  22  23
HETATM   23  C12 UNL     1       8.107  -0.386  -0.105  1.00  0.00     0.078 C 
HETATM   24  C13 UNL     1       7.734  -1.264   1.071  1.00  0.00     0.016 C 
ENDBRANCH  22  23
ENDBRANCH  18  22
ENDBRANCH  16  18
ENDBRANCH  14  16
ENDBRANCH   9  12
BRANCH   1  25
HETATM   25  C4  UNL     1      -4.545  -0.011   1.483  1.00  0.00     0.235 C 
BRANCH  25  26
HETATM   26  C3  UNL     1      -5.711   0.164   0.587  1.00  0.00     0.276 C 
HETATM   27  O2  UNL     1      -5.572   0.769  -0.495  1.00  0.00    -0.263 OA
BRANCH  26  28
HETATM   28  O1  UNL     1      -6.960  -0.317   0.891  1.00  0.00    -0.321 OA
BRANCH  28  29
HETATM   29  C2  UNL     1      -8.116  -0.212   0.118  1.00  0.00     0.174 C 
HETATM   30  C1  UNL     1      -8.006  -0.936  -1.229  1.00  0.00     0.034 C 
ENDBRANCH  28  29
ENDBRANCH  26  28
ENDBRANCH  25  26
ENDBRANCH   1  25
TORSDOF 9
