REMARK  8 active torsions:
REMARK  status: ('A' for Active; 'I' for Inactive)
REMARK    1  A    between atoms: N1_1  and  C1_5 
REMARK    2  A    between atoms: C6_10  and  O1_11 
REMARK    3  A    between atoms: O1_11  and  C7_12 
REMARK    4  A    between atoms: C9_14  and  N2_15 
REMARK    5  A    between atoms: N2_15  and  C10_17 
REMARK    6  A    between atoms: C10_17  and  C11_18 
REMARK    7  A    between atoms: C13_23  and  O2_24 
REMARK    8  A    between atoms: N5_29  and  C15_31 
ROOT
HETATM    1  C7  UNL     1      -1.182  -0.290  -0.041  1.00  0.00     0.161 A 
HETATM    2  C8  UNL     1      -0.049  -1.099   0.037  1.00  0.00     0.105 A 
HETATM    3  C9  UNL     1       1.205  -0.561   0.186  1.00  0.00     0.121 A 
HETATM    4  N4  UNL     1       1.300   0.784   0.255  1.00  0.00    -0.177 N 
ATOM      5  H4  UNL     1       2.220   1.211   0.366  1.00  0.00     0.185 HD
HETATM    6  C14 UNL     1       0.214   1.577   0.181  1.00  0.00     0.682 A 
HETATM    7  N5  UNL     1       0.293   2.857   0.246  1.00  0.00    -0.221 N 
ATOM      8  H5  UNL     1      -0.566   3.404   0.185  1.00  0.00     0.178 HD
HETATM    9  N6  UNL     1      -1.035   1.040   0.033  1.00  0.00    -0.170 N 
ATOM     10  H6  UNL     1      -1.851   1.649  -0.021  1.00  0.00     0.186 HD
ENDROOT
BRANCH   1  11
HETATM   11  O1  UNL     1      -2.420  -0.847  -0.189  1.00  0.00    -0.328 OA
BRANCH  11  12
HETATM   12  C6  UNL     1      -3.654  -0.231  -0.285  1.00  0.00     0.161 C 
HETATM   13  C1  UNL     1      -4.527  -0.724   0.850  1.00  0.00     0.212 C 
HETATM   14  C2  UNL     1      -4.328  -2.232   0.882  1.00  0.00     0.035 C 
HETATM   15  C3  UNL     1      -4.521  -2.886  -0.431  1.00  0.00     0.002 C 
HETATM   16  C4  UNL     1      -4.894  -2.013  -1.563  1.00  0.00     0.003 C 
HETATM   17  C5  UNL     1      -4.323  -0.642  -1.567  1.00  0.00     0.035 C 
BRANCH  13  18
HETATM   18  N1  UNL     1      -5.906  -0.361   0.687  1.00  0.00    -0.073 N 
ATOM     19  H13 UNL     1      -6.308  -0.804  -0.139  1.00  0.00     0.274 HD
ATOM     20  H12 UNL     1      -6.488  -0.795   1.403  1.00  0.00     0.274 HD
ATOM     21  H11 UNL     1      -6.039   0.650   0.666  1.00  0.00     0.274 HD
ENDBRANCH  13  18
ENDBRANCH  11  12
ENDBRANCH   1  11
BRANCH   3  22
HETATM   22  N2  UNL     1       2.274  -1.287   0.261  1.00  0.00    -0.374 N 
ATOM     23  H2  UNL     1       3.196  -0.864   0.371  1.00  0.00     0.161 HD
BRANCH  22  24
HETATM   24  C10 UNL     1       2.109  -2.718   0.182  1.00  0.00     0.157 C 
BRANCH  24  25
HETATM   25  C11 UNL     1       3.432  -3.446   0.319  1.00  0.00     0.233 C 
HETATM   26  N3  UNL     1       4.094  -3.178   1.583  1.00  0.00    -0.064 N 
HETATM   27  C12 UNL     1       5.355  -3.172   0.869  1.00  0.00     0.266 C 
ATOM     28  H32 UNL     1       3.817  -2.384   2.159  1.00  0.00     0.277 HD
ATOM     29  H31 UNL     1       3.952  -3.790   2.387  1.00  0.00     0.277 HD
HETATM   30  C13 UNL     1       4.583  -2.757  -0.368  1.00  0.00     0.176 C 
BRANCH  30  31
HETATM   31  O2  UNL     1       5.015  -3.358  -1.542  1.00  0.00    -0.392 OA
ATOM     32  H2  UNL     1       5.741  -2.924  -1.975  1.00  0.00     0.210 HD
ENDBRANCH  30  31
ENDBRANCH  24  25
ENDBRANCH  22  24
ENDBRANCH   3  22
BRANCH   7  33
HETATM   33  C15 UNL     1       1.536   3.547   0.400  1.00  0.00     0.099 C 
HETATM   34  C16 UNL     1       2.257   3.747  -0.919  1.00  0.00     0.026 C 
HETATM   35  C17 UNL     1       3.294   4.796  -0.540  1.00  0.00     0.002 C 
HETATM   36  C18 UNL     1       2.514   5.730   0.324  1.00  0.00     0.002 C 
HETATM   37  C19 UNL     1       1.287   5.005   0.797  1.00  0.00     0.026 C 
ENDBRANCH   7  33
TORSDOF 8
