REMARK  12 active torsions:
REMARK  status: ('A' for Active; 'I' for Inactive)
REMARK    1  A    between atoms: C2_2  and  C4_4 
REMARK    2  A    between atoms: C2_2  and  N1_23 
REMARK    3  A    between atoms: C4_4  and  C5_5 
REMARK    4  A    between atoms: C5_5  and  O1_6 
REMARK    5  A    between atoms: C5_5  and  C6_8 
REMARK    6  A    between atoms: C7_9  and  C8_10 
REMARK    7  A    between atoms: C8_10  and  O2_11 
REMARK    8  A    between atoms: C8_10  and  C9_13 
REMARK    9  A    between atoms: C10_14  and  C11_15 
REMARK   10  A    between atoms: C11_15  and  O3_16 
REMARK   11  A    between atoms: O3_16  and  C12_17 
REMARK   12  A    between atoms: N1_23  and  C18_25 
ROOT
HETATM    1  C5  UNL     1      -2.117  -2.163   0.036  1.00  0.00     0.199 C 
ENDROOT
BRANCH   1   2
HETATM    2  C4  UNL     1      -2.625  -1.220   1.054  1.00  0.00     0.075 C 
BRANCH   2   3
HETATM    3  C2  UNL     1      -4.005  -0.706   0.931  1.00  0.00     0.043 C 
HETATM    4  C1  UNL     1      -4.228   0.204   2.168  1.00  0.00     0.039 C 
HETATM    5  C3  UNL     1      -5.035  -1.812   0.921  1.00  0.00     0.039 C 
BRANCH   3   6
HETATM    6  N1  UNL     1      -4.185   0.066  -0.256  1.00  0.00    -0.218 N 
ATOM      7  H1  UNL     1      -3.372   0.224  -0.852  1.00  0.00     0.178 HD
BRANCH   6   8
HETATM    8  C18 UNL     1      -5.430   0.630  -0.661  1.00  0.00     0.670 C 
HETATM    9  N2  UNL     1      -5.856   0.411  -1.860  1.00  0.00    -0.227 N 
HETATM   10  C19 UNL     1      -7.128   1.005  -2.228  1.00  0.00     0.139 C 
ATOM     11  H2  UNL     1      -5.322  -0.155  -2.520  1.00  0.00     0.177 HD
HETATM   12  C20 UNL     1      -8.161   0.866  -1.133  1.00  0.00     0.040 C 
HETATM   13  C21 UNL     1      -7.670   1.416   0.188  1.00  0.00     0.139 C 
HETATM   14  N3  UNL     1      -6.214   1.416   0.203  1.00  0.00    -0.227 N 
ATOM     15  H3  UNL     1      -5.738   2.017   0.875  1.00  0.00     0.177 HD
ENDBRANCH   6   8
ENDBRANCH   3   6
ENDBRANCH   2   3
ENDBRANCH   1   2
BRANCH   1  16
HETATM   16  O1  UNL     1      -2.118  -1.626  -1.230  1.00  0.00    -0.383 OA
ATOM     17  H1  UNL     1      -1.791  -2.232  -1.884  1.00  0.00     0.211 HD
ENDBRANCH   1  16
BRANCH   1  18
HETATM   18  C6  UNL     1      -0.688  -2.448   0.352  1.00  0.00    -0.071 C 
HETATM   19  C7  UNL     1       0.462  -2.680   0.628  1.00  0.00    -0.059 C 
BRANCH  19  20
HETATM   20  C8  UNL     1       1.862  -2.944   0.979  1.00  0.00     0.277 C 
BRANCH  20  21
HETATM   21  O2  UNL     1       2.343  -4.056   0.335  1.00  0.00    -0.372 OA
ATOM     22  H2  UNL     1       3.249  -4.227   0.562  1.00  0.00     0.212 HD
ENDBRANCH  20  21
BRANCH  20  23
HETATM   23  C9  UNL     1       2.603  -1.714   0.625  1.00  0.00    -0.060 C 
HETATM   24  C10 UNL     1       3.190  -0.703   0.328  1.00  0.00    -0.077 C 
BRANCH  24  25
HETATM   25  C11 UNL     1       3.880   0.536  -0.034  1.00  0.00     0.261 C 
BRANCH  25  26
HETATM   26  O3  UNL     1       5.252   0.305   0.002  1.00  0.00    -0.374 OA
BRANCH  26  27
HETATM   27  C12 UNL     1       5.991   1.424  -0.328  1.00  0.00     0.122 C 
HETATM   28  C13 UNL     1       6.785   1.089  -1.571  1.00  0.00     0.032 C 
HETATM   29  C14 UNL     1       8.170   1.681  -1.542  1.00  0.00     0.002 C 
HETATM   30  C15 UNL     1       8.929   1.015  -0.418  1.00  0.00     0.000 C 
HETATM   31  C16 UNL     1       8.119   0.929   0.848  1.00  0.00     0.002 C 
HETATM   32  C17 UNL     1       6.923   1.866   0.778  1.00  0.00     0.032 C 
ENDBRANCH  26  27
ENDBRANCH  25  26
ENDBRANCH  24  25
ENDBRANCH  20  23
ENDBRANCH  19  20
ENDBRANCH   1  18
TORSDOF 12
