REMARK  6 active torsions:
REMARK  status: ('A' for Active; 'I' for Inactive)
REMARK    1  A    between atoms: C12_13  and  O1_14 
REMARK    2  A    between atoms: O1_14  and  C13_15 
REMARK       I    between atoms: C13_15  and  N1_17 
REMARK    3  A    between atoms: N1_17  and  C14_18 
REMARK    4  A    between atoms: C14_18  and  C15_19 
REMARK    5  A    between atoms: C14_18  and  C16_22 
REMARK    6  A    between atoms: C16_22  and  C18_24 
ROOT
HETATM    1  C1  UNL     1      -3.723   2.612  -0.762  1.00  0.00     0.015 C 
HETATM    2  C2  UNL     1      -3.926   1.333  -0.623  1.00  0.00    -0.076 C 
HETATM    3  C3  UNL     1      -5.214   0.958   0.082  1.00  0.00     0.034 C 
HETATM    4  C4  UNL     1      -5.169  -0.469   0.456  1.00  0.00     0.006 C 
HETATM    5  C5  UNL     1      -4.848  -1.436  -0.646  1.00  0.00     0.027 C 
HETATM    6  C6  UNL     1      -3.929  -0.836  -1.689  1.00  0.00     0.047 C 
HETATM    7  C7  UNL     1      -4.757  -0.136  -2.772  1.00  0.00     0.034 C 
HETATM    8 CL1  UNL     1      -3.041  -2.123  -2.466  1.00  0.00    -0.118 Cl
HETATM    9  C8  UNL     1      -3.057   0.239  -1.087  1.00  0.00     0.031 A 
HETATM   10  C9  UNL     1      -1.908   0.650  -1.911  1.00  0.00     0.033 A 
HETATM   11  C10 UNL     1      -0.908   0.080  -0.959  1.00  0.00     0.013 A 
HETATM   12  C11 UNL     1      -0.085  -1.067  -1.492  1.00  0.00     0.020 C 
HETATM   13  C12 UNL     1      -0.056   1.010  -0.148  1.00  0.00     0.169 C 
HETATM   14  C19 UNL     1      -0.971   1.421   0.994  1.00  0.00     0.201 C 
HETATM   15  O6  UNL     1      -2.053   0.618   0.997  1.00  0.00    -0.381 OA
HETATM   16  C20 UNL     1      -2.051  -0.267  -0.040  1.00  0.00     0.147 A 
ENDROOT
BRANCH  13  17
HETATM   17  O1  UNL     1       0.984   0.278   0.472  1.00  0.00    -0.284 OA
BRANCH  17  18
HETATM   18  C13 UNL     1       2.359   0.657   0.403  1.00  0.00     0.436 C 
HETATM   19  O2  UNL     1       2.510   1.704  -0.254  1.00  0.00    -0.221 OA
HETATM   20  N1  UNL     1       3.296  -0.132   1.028  1.00  0.00    -0.373 NA
BRANCH  20  21
HETATM   21  C14 UNL     1       4.223  -0.913   1.646  1.00  0.00     0.281 C 
BRANCH  21  22
HETATM   22  C15 UNL     1       4.595  -2.153   0.889  1.00  0.00     0.211 C 
HETATM   23  O3  UNL     1       4.064  -2.353  -0.212  1.00  0.00    -0.646 OA
HETATM   24  O4  UNL     1       5.499  -3.038   1.407  1.00  0.00    -0.646 OA
ENDBRANCH  21  22
BRANCH  21  25
HETATM   25  C16 UNL     1       5.531  -0.342   2.184  1.00  0.00     0.117 C 
HETATM   26  C17 UNL     1       5.190   0.704   3.269  1.00  0.00     0.023 C 
BRANCH  25  27
HETATM   27  C18 UNL     1       6.299   0.329   1.130  1.00  0.00     0.238 C 
HETATM   28  N2  UNL     1       6.495  -0.114  -0.197  1.00  0.00    -0.062 NA
HETATM   29  O5  UNL     1       6.863   1.431   1.413  1.00  0.00    -0.276 OA
ENDBRANCH  25  27
ENDBRANCH  21  25
ENDBRANCH  20  21
ENDBRANCH  17  18
ENDBRANCH  13  17
TORSDOF 6
