REMARK  9 active torsions:
REMARK  status: ('A' for Active; 'I' for Inactive)
REMARK    1  A    between atoms: C4_4  and  C5_5 
REMARK    2  A    between atoms: C5_5  and  O1_6 
REMARK    3  A    between atoms: N1_8  and  C6_10 
REMARK    4  A    between atoms: C6_10  and  O2_11 
REMARK    5  A    between atoms: C6_10  and  N2_13 
REMARK    6  A    between atoms: N2_13  and  N3_15 
REMARK       I    between atoms: N3_15  and  C7_17 
REMARK    7  A    between atoms: C7_17  and  C8_19 
REMARK    8  A    between atoms: C11_22  and  S1_23 
REMARK    9  A    between atoms: S1_23  and  C12_26 
ROOT
HETATM    1  N3  UNL     1       1.872   1.171   0.336  1.00  0.00    -0.263 N 
ATOM      2  H3  UNL     1       1.428   2.066   0.543  1.00  0.00     0.190 HD
HETATM    3  C7  UNL     1       1.080   0.083  -0.090  1.00  0.00     0.270 C 
HETATM    4  O3  UNL     1       1.622  -1.022  -0.346  1.00  0.00    -0.266 OA
ENDROOT
BRANCH   3   5
HETATM    5  C8  UNL     1      -0.359   0.279  -0.221  1.00  0.00     0.033 A 
HETATM    6  C9  UNL     1      -1.092   0.663   0.883  1.00  0.00     0.018 A 
HETATM    7  C10 UNL     1      -2.468   0.863   0.778  1.00  0.00     0.025 A 
HETATM    8  C11 UNL     1      -3.124   0.685  -0.415  1.00  0.00     0.064 A 
HETATM    9  C19 UNL     1      -2.401   0.302  -1.525  1.00  0.00     0.025 A 
HETATM   10  C20 UNL     1      -1.023   0.102  -1.415  1.00  0.00     0.018 A 
BRANCH   8  11
HETATM   11  S1  UNL     1      -4.849   0.936  -0.469  1.00  0.00     0.207 S 
HETATM   12  O4  UNL     1      -5.148   1.575  -1.811  1.00  0.00    -0.217 OA
HETATM   13  O5  UNL     1      -5.266   1.938   0.566  1.00  0.00    -0.217 OA
BRANCH  11  14
HETATM   14  C12 UNL     1      -5.646  -0.580  -0.317  1.00  0.00     0.073 A 
HETATM   15  C13 UNL     1      -4.900  -1.732  -0.196  1.00  0.00     0.024 A 
HETATM   16  C14 UNL     1      -5.476  -2.990  -0.084  1.00  0.00     0.005 A 
HETATM   17  C15 UNL     1      -6.862  -3.126  -0.090  1.00  0.00     0.043 A 
HETATM   18  C16 UNL     1      -7.599  -1.983  -0.210  1.00  0.00     0.123 A 
HETATM   19  F1  UNL     1      -8.948  -2.055  -0.223  1.00  0.00    -0.206 F 
HETATM   20  C17 UNL     1      -7.017  -0.744  -0.320  1.00  0.00    -0.002 A 
HETATM   21  C18 UNL     1      -7.832   0.481  -0.437  1.00  0.00     0.053 C 
ENDBRANCH  11  14
ENDBRANCH   8  11
ENDBRANCH   3   5
BRANCH   1  22
HETATM   22  N2  UNL     1       3.292   1.035   0.481  1.00  0.00    -0.262 N 
ATOM     23  H2  UNL     1       3.871   0.647  -0.264  1.00  0.00     0.190 HD
BRANCH  22  24
HETATM   24  C6  UNL     1       3.840   1.456   1.683  1.00  0.00     0.238 C 
BRANCH  24  25
HETATM   25  N1  UNL     1       5.136   1.465   2.155  1.00  0.00    -0.302 N 
HETATM   26  C5  UNL     1       6.393   1.178   1.825  1.00  0.00     0.142 C 
ATOM     27  H1  UNL     1       5.128   1.824   3.110  1.00  0.00     0.171 HD
BRANCH  26  28
HETATM   28  C4  UNL     1       7.298   0.606   0.942  1.00  0.00     0.058 C 
HETATM   29  C2  UNL     1       7.327  -0.056  -0.140  1.00  0.00    -0.084 C 
HETATM   30  C1  UNL     1       6.253  -0.534  -0.983  1.00  0.00     0.043 C 
HETATM   31  C3  UNL     1       8.752  -0.418  -0.654  1.00  0.00     0.043 C 
ENDBRANCH  26  28
BRANCH  26  32
HETATM   32  O1  UNL     1       7.218   1.706   2.883  1.00  0.00    -0.346 OA
ATOM     33  H1  UNL     1       6.598   2.098   3.487  1.00  0.00     0.219 HD
ENDBRANCH  26  32
ENDBRANCH  24  25
BRANCH  24  34
HETATM   34  O2  UNL     1       2.979   1.955   2.573  1.00  0.00    -0.331 OA
ATOM     35  H2  UNL     1       2.086   1.949   2.248  1.00  0.00     0.221 HD
ENDBRANCH  24  34
ENDBRANCH  22  24
ENDBRANCH   1  22
TORSDOF 9
