REMARK  6 active torsions:
REMARK  status: ('A' for Active; 'I' for Inactive)
REMARK    1  A    between atoms: C2_2  and  C3_3 
REMARK       I    between atoms: C3_3  and  N1_5 
REMARK    2  A    between atoms: C4_6  and  C5_7 
REMARK       I    between atoms: C5_7  and  N2_9 
REMARK    3  A    between atoms: N2_9  and  C6_11 
REMARK    4  A    between atoms: C13_18  and  O3_19 
REMARK    5  A    between atoms: O3_19  and  C14_20 
REMARK       I    between atoms: C14_20  and  N3_22 
REMARK    6  A    between atoms: N3_22  and  C15_24 
ROOT
HETATM    1  C3  UNL     1      -1.661   1.525  -3.339  1.00  0.00     0.221 C 
HETATM    2  O1  UNL     1      -1.232   0.976  -4.398  1.00  0.00    -0.273 OA
HETATM    3  N1  UNL     1      -0.880   1.410  -2.160  1.00  0.00    -0.318 N 
HETATM    4  C4  UNL     1      -1.242   1.966  -0.901  1.00  0.00     0.183 C 
HETATM    5  C12 UNL     1       0.049   2.034  -0.099  1.00  0.00     0.071 C 
HETATM    6  C13 UNL     1       0.855   0.850  -0.615  1.00  0.00     0.173 C 
HETATM    7  C20 UNL     1       0.388   0.741  -2.046  1.00  0.00     0.214 C 
HETATM    8 CL1  UNL     1       0.348  -0.965  -2.505  1.00  0.00    -0.100 Cl
ENDROOT
BRANCH   6   9
HETATM    9  O3  UNL     1       2.245   1.090  -0.499  1.00  0.00    -0.295 OA
BRANCH   9  10
HETATM   10  C14 UNL     1       3.013   0.282   0.306  1.00  0.00     0.361 C 
HETATM   11  O4  UNL     1       2.453  -0.658   0.926  1.00  0.00    -0.238 OA
HETATM   12  N3  UNL     1       4.415   0.453   0.479  1.00  0.00    -0.331 N 
ATOM     13  H3  UNL     1       4.873   1.214  -0.023  1.00  0.00     0.165 HD
BRANCH  12  14
HETATM   14  C15 UNL     1       5.216  -0.381   1.316  1.00  0.00     0.104 C 
HETATM   15  C16 UNL     1       5.827   0.375   2.481  1.00  0.00     0.028 C 
HETATM   16  C17 UNL     1       6.323  -0.718   3.437  1.00  0.00     0.021 C 
HETATM   17  C18 UNL     1       7.332  -1.601   2.758  1.00  0.00     0.114 C 
HETATM   18  N4  UNL     1       6.975  -2.044   1.455  1.00  0.00    -0.419 N 
HETATM   19  C19 UNL     1       6.324  -1.102   0.612  1.00  0.00     0.139 C 
ATOM     20  H4  UNL     1       7.176  -2.993   1.140  1.00  0.00     0.153 HD
ENDBRANCH  12  14
ENDBRANCH   9  10
ENDBRANCH   6   9
BRANCH   4  21
HETATM   21  C5  UNL     1      -2.295   1.234  -0.161  1.00  0.00     0.241 C 
HETATM   22  O2  UNL     1      -2.645   1.702   0.970  1.00  0.00    -0.271 OA
HETATM   23  N2  UNL     1      -2.893   0.064  -0.679  1.00  0.00    -0.355 N 
ATOM     24  H2  UNL     1      -2.582  -0.274  -1.590  1.00  0.00     0.162 HD
BRANCH  23  25
HETATM   25  C6  UNL     1      -3.913  -0.674   0.005  1.00  0.00     0.084 C 
HETATM   26  C7  UNL     1      -3.499  -2.073   0.397  1.00  0.00     0.025 C 
HETATM   27  C8  UNL     1      -4.462  -2.501   1.509  1.00  0.00     0.002 C 
HETATM   28  C9  UNL     1      -5.831  -2.592   0.896  1.00  0.00     0.000 C 
HETATM   29  C10 UNL     1      -6.251  -1.316   0.246  1.00  0.00     0.002 C 
HETATM   30  C11 UNL     1      -5.218  -0.759  -0.712  1.00  0.00     0.025 C 
ENDBRANCH  23  25
ENDBRANCH   4  21
BRANCH   1  31
HETATM   31  C2  UNL     1      -2.953   2.249  -3.421  1.00  0.00     0.098 C 
HETATM   32  C1  UNL     1      -2.734   3.529  -4.190  1.00  0.00     0.014 C 
ENDBRANCH   1  31
TORSDOF 6
