REMARK  8 active torsions:
REMARK  status: ('A' for Active; 'I' for Inactive)
REMARK    1  A    between atoms: C6_6  and  C7_7 
REMARK    2  A    between atoms: C7_7  and  O2_9 
REMARK    3  A    between atoms: O2_9  and  C8_10 
REMARK    4  A    between atoms: C8_10  and  C9_11 
REMARK       I    between atoms: C9_11  and  N1_13 
REMARK    5  A    between atoms: N1_13  and  N2_15 
REMARK       I    between atoms: N2_15  and  C10_17 
REMARK       I    between atoms: C10_17  and  N3_19 
REMARK    6  A    between atoms: N3_19  and  C11_21 
REMARK    7  A    between atoms: C11_21  and  O5_22 
REMARK    8  A    between atoms: C11_21  and  C12_24 
ROOT
HETATM    1  N2  UNL     1       2.003   0.559  -0.662  1.00  0.00    -0.249 N 
ATOM      2  H2  UNL     1       2.824   0.009  -0.409  1.00  0.00     0.192 HD
HETATM    3  C10 UNL     1       2.195   1.817  -1.247  1.00  0.00     0.340 C 
HETATM    4  O4  UNL     1       1.106   2.443  -1.532  1.00  0.00    -0.245 OA
HETATM    5  N3  UNL     1       3.408   2.410  -1.528  1.00  0.00    -0.287 N 
ATOM      6  H3  UNL     1       3.311   3.332  -1.954  1.00  0.00     0.172 HD
ENDROOT
BRANCH   1   7
HETATM    7  N1  UNL     1       0.731   0.022  -0.409  1.00  0.00    -0.264 N 
HETATM    8  C9  UNL     1       0.573  -1.364  -0.279  1.00  0.00     0.260 C 
HETATM    9  O3  UNL     1       1.564  -2.164  -0.384  1.00  0.00    -0.269 OA
ATOM     10  H1  UNL     1      -0.076   0.639  -0.320  1.00  0.00     0.190 HD
BRANCH   8  11
HETATM   11  C8  UNL     1      -0.739  -1.962  -0.015  1.00  0.00     0.283 C 
BRANCH  11  12
HETATM   12  O2  UNL     1      -1.744  -0.999   0.083  1.00  0.00    -0.308 OA
BRANCH  12  13
HETATM   13  C7  UNL     1      -3.054  -1.369   0.330  1.00  0.00     0.293 C 
HETATM   14  O1  UNL     1      -3.344  -2.583   0.467  1.00  0.00    -0.259 OA
BRANCH  13  15
HETATM   15  C6  UNL     1      -4.126  -0.385   0.437  1.00  0.00     0.040 A 
HETATM   16  C5  UNL     1      -3.883   0.971   0.297  1.00  0.00     0.017 A 
HETATM   17  C4  UNL     1      -4.915   1.866   0.405  1.00  0.00     0.002 A 
HETATM   18  C3  UNL     1      -6.217   1.475   0.651  1.00  0.00     0.007 A 
HETATM   19  C2  UNL     1      -6.470   0.131   0.792  1.00  0.00    -0.061 A 
HETATM   20  C1  UNL     1      -7.865  -0.295   1.058  1.00  0.00     0.048 C 
HETATM   21  C18 UNL     1      -5.432  -0.763   0.684  1.00  0.00     0.024 A 
ENDBRANCH  13  15
ENDBRANCH  12  13
ENDBRANCH  11  12
ENDBRANCH   8  11
ENDBRANCH   1   7
BRANCH   5  22
HETATM   22  C11 UNL     1       4.732   2.029  -1.359  1.00  0.00     0.154 C 
BRANCH  22  23
HETATM   23  O5  UNL     1       5.650   2.875  -1.753  1.00  0.00    -0.345 OA
ATOM     24  H5  UNL     1       6.556   2.614  -1.637  1.00  0.00     0.219 HD
ENDBRANCH  22  23
BRANCH  22  25
HETATM   25  C12 UNL     1       5.310   0.828  -0.810  1.00  0.00     0.015 A 
HETATM   26  C13 UNL     1       5.652   0.656   0.524  1.00  0.00     0.017 A 
HETATM   27  C14 UNL     1       6.227  -0.506   0.989  1.00  0.00     0.020 A 
HETATM   28  C15 UNL     1       6.484  -1.548   0.128  1.00  0.00     0.011 A 
HETATM   29 BR1  UNL     1       7.272  -3.171   0.712  1.00  0.00    -0.051 Br
HETATM   30  C16 UNL     1       6.159  -1.416  -1.204  1.00  0.00     0.020 A 
HETATM   31  C17 UNL     1       5.585  -0.252  -1.658  1.00  0.00     0.017 A 
ENDBRANCH  22  25
ENDBRANCH   5  22
TORSDOF 8
