REMARK  6 active torsions:
REMARK  status: ('A' for Active; 'I' for Inactive)
REMARK    1  A    between atoms: C2_2  and  C3_3 
REMARK    2  A    between atoms: C3_3  and  O1_4 
REMARK    3  A    between atoms: O1_4  and  C4_5 
REMARK    4  A    between atoms: C4_5  and  C5_7 
REMARK    5  A    between atoms: C7_10  and  O3_11 
REMARK    6  A    between atoms: C16_21  and  O4_22 
ROOT
HETATM    1  C1  UNL     1       2.189   0.615  -1.271  1.00  0.00     0.018 C 
HETATM    2  C2  UNL     1       1.298  -0.070  -0.183  1.00  0.00    -0.013 C 
HETATM    3  C6  UNL     1       0.910   0.838   0.833  1.00  0.00     0.072 C 
HETATM    4  C7  UNL     1      -0.103   1.889   0.938  1.00  0.00     0.134 C 
HETATM    5  C8  UNL     1      -0.206   2.871  -0.205  1.00  0.00     0.087 C 
HETATM    6  C9  UNL     1      -1.149   2.292  -1.191  1.00  0.00    -0.025 C 
HETATM    7  C10 UNL     1      -0.918   1.074  -1.897  1.00  0.00    -0.020 C 
HETATM    8  C11 UNL     1      -0.943  -0.293  -1.414  1.00  0.00    -0.015 C 
HETATM    9  C12 UNL     1      -1.308  -1.130  -2.676  1.00  0.00     0.020 C 
HETATM   10  C13 UNL     1       0.378  -0.934  -0.989  1.00  0.00     0.008 C 
HETATM   11  C14 UNL     1       0.001  -2.284  -0.428  1.00  0.00     0.009 C 
HETATM   12  C15 UNL     1      -1.426  -2.762  -0.544  1.00  0.00     0.039 C 
HETATM   13  C16 UNL     1      -2.546  -1.832  -0.414  1.00  0.00     0.067 A 
HETATM   14  C17 UNL     1      -3.034  -0.556   0.038  1.00  0.00     0.033 A 
HETATM   15  C18 UNL     1      -3.269  -0.061   1.460  1.00  0.00     0.052 C 
HETATM   16  C19 UNL     1      -2.030   0.697   2.008  1.00  0.00     0.059 C 
HETATM   17  N1  UNL     1      -1.463   1.611   1.172  1.00  0.00    -0.371 N 
ATOM     18  H1  UNL     1      -2.121   2.177   0.637  1.00  0.00     0.161 HD
HETATM   19  C20 UNL     1      -1.736  -0.665  -0.226  1.00  0.00     0.040 A 
ENDROOT
BRANCH   2  20
HETATM   20  C3  UNL     1       2.307  -1.057   0.392  1.00  0.00     0.188 C 
BRANCH  20  21
HETATM   21  O1  UNL     1       3.473  -0.689   0.913  1.00  0.00    -0.320 OA
BRANCH  21  22
HETATM   22  C4  UNL     1       4.081  -0.098   1.919  1.00  0.00     0.268 C 
HETATM   23  O2  UNL     1       3.392   0.344   2.873  1.00  0.00    -0.264 OA
BRANCH  22  24
HETATM   24  C5  UNL     1       5.568   0.092   2.010  1.00  0.00     0.196 C 
HETATM   25 BR1  UNL     1       6.482  -0.634   0.480  1.00  0.00    -0.086 Br
ENDBRANCH  22  24
ENDBRANCH  21  22
ENDBRANCH  20  21
ENDBRANCH   2  20
BRANCH   4  26
HETATM   26  O3  UNL     1       0.263   2.686   2.067  1.00  0.00    -0.371 OA
ATOM     27  H3  UNL     1      -0.395   3.368   2.135  1.00  0.00     0.212 HD
ENDBRANCH   4  26
BRANCH  13  28
HETATM   28  O4  UNL     1      -3.674  -2.400  -0.896  1.00  0.00    -0.389 OA
ATOM     29  H4  UNL     1      -4.402  -1.796  -0.812  1.00  0.00     0.210 HD
ENDBRANCH  13  28
TORSDOF 6
