REMARK  4 active torsions:
REMARK  status: ('A' for Active; 'I' for Inactive)
REMARK    1  A    between atoms: N3_4  and  S1_6 
REMARK    2  A    between atoms: S1_6  and  C2_9 
REMARK    3  A    between atoms: C5_12  and  N4_13 
REMARK       I    between atoms: N4_13  and  C6_15 
REMARK    4  A    between atoms: C6_15  and  C7_17 
ROOT
HETATM    1  C2  UNL     1      -1.776  -0.442   0.352  1.00  0.00     0.098 A 
HETATM    2  C3  UNL     1      -1.002  -0.114   1.434  1.00  0.00     0.029 A 
HETATM    3  C4  UNL     1       0.399  -0.032   1.354  1.00  0.00     0.032 A 
HETATM    4  C5  UNL     1       1.058  -0.279   0.174  1.00  0.00     0.054 A 
HETATM    5  C11 UNL     1       0.242  -0.613  -0.918  1.00  0.00     0.057 A 
HETATM    6  S2  UNL     1       1.005  -0.946  -2.470  1.00  0.00    -0.049 SA
HETATM    7  C12 UNL     1      -1.123  -0.691  -0.831  1.00  0.00     0.054 A 
HETATM    8 BR1  UNL     1      -2.203  -1.151  -2.351  1.00  0.00    -0.048 Br
ENDROOT
BRANCH   4   9
HETATM    9  N4  UNL     1       2.466  -0.218   0.005  1.00  0.00    -0.320 N 
HETATM   10  C6  UNL     1       3.435   0.091   0.955  1.00  0.00     0.280 C 
HETATM   11  O3  UNL     1       3.221   0.373   2.144  1.00  0.00    -0.265 OA
ATOM     12  H4  UNL     1       2.811  -0.427  -0.932  1.00  0.00     0.169 HD
BRANCH  10  13
HETATM   13  C7  UNL     1       4.864   0.097   0.560  1.00  0.00     0.142 A 
HETATM   14  C8  UNL     1       5.346  -0.184  -0.699  1.00  0.00     0.045 A 
HETATM   15  C9  UNL     1       6.712  -0.070  -0.646  1.00  0.00     0.027 A 
HETATM   16  C10 UNL     1       6.996   0.276   0.653  1.00  0.00     0.143 A 
HETATM   17  O4  UNL     1       5.882   0.364   1.328  1.00  0.00    -0.317 OA
ENDBRANCH  10  13
ENDBRANCH   4   9
BRANCH   1  18
HETATM   18  S1  UNL     1      -3.515  -0.533   0.500  1.00  0.00     0.266 S 
HETATM   19  O1  UNL     1      -3.960  -1.938   0.174  1.00  0.00    -0.200 OA
HETATM   20  O2  UNL     1      -3.890  -0.192   1.912  1.00  0.00    -0.200 OA
BRANCH  18  21
HETATM   21  N3  UNL     1      -4.306   0.559  -0.538  1.00  0.00    -0.256 N 
HETATM   22  C1  UNL     1      -5.569   0.738  -0.429  1.00  0.00     0.210 C 
HETATM   23  N1  UNL     1      -6.309   0.034   0.548  1.00  0.00    -0.066 NA
HETATM   24  N2  UNL     1      -6.230   1.641  -1.287  1.00  0.00    -0.066 NA
ATOM     25  H3  UNL     1      -3.776   1.069  -1.244  1.00  0.00     0.181 HD
ENDBRANCH  18  21
ENDBRANCH   1  18
TORSDOF 4
