REMARK  9 active torsions:
REMARK  status: ('A' for Active; 'I' for Inactive)
REMARK    1  A    between atoms: S1_2  and  C2_3 
REMARK    2  A    between atoms: C2_3  and  N1_5 
REMARK    3  A    between atoms: N1_5  and  C3_7 
REMARK    4  A    between atoms: C3_7  and  N2_8 
REMARK    5  A    between atoms: N2_8  and  N3_10 
REMARK    6  A    between atoms: N3_10  and  S3_12 
REMARK    7  A    between atoms: S3_12  and  C4_15 
REMARK    8  A    between atoms: C7_18  and  N4_19 
REMARK       I    between atoms: N4_19  and  C8_21 
REMARK       I    between atoms: C8_21  and  N5_23 
REMARK    9  A    between atoms: N5_23  and  C9_25 
ROOT
HETATM    1  C4  UNL     1       1.235   1.067  -0.976  1.00  0.00     0.081 A 
HETATM    2  C5  UNL     1       0.403   1.760  -0.159  1.00  0.00     0.027 A 
HETATM    3  C6  UNL     1      -0.954   1.645  -0.294  1.00  0.00     0.031 A 
HETATM    4  C7  UNL     1      -1.552   0.821  -1.266  1.00  0.00     0.036 A 
HETATM    5  C13 UNL     1      -0.680   0.144  -2.064  1.00  0.00     0.031 A 
HETATM    6  C14 UNL     1       0.721   0.250  -1.939  1.00  0.00     0.027 A 
ENDROOT
BRANCH   1   7
HETATM    7  S3  UNL     1       2.995   1.177  -0.845  1.00  0.00     0.276 S 
HETATM    8  O1  UNL     1       3.569   1.020  -2.207  1.00  0.00    -0.199 OA
HETATM    9  O2  UNL     1       3.276   2.542  -0.255  1.00  0.00    -0.199 OA
BRANCH   7  10
HETATM   10  N3  UNL     1       3.559  -0.033   0.254  1.00  0.00    -0.215 N 
ATOM     11  H3  UNL     1       3.636   0.194   1.245  1.00  0.00     0.201 HD
BRANCH  10  12
HETATM   12  N2  UNL     1       3.913  -1.315  -0.180  1.00  0.00    -0.241 N 
ATOM     13  H2  UNL     1       3.229  -1.958  -0.579  1.00  0.00     0.199 HD
BRANCH  12  14
HETATM   14  C3  UNL     1       5.144  -1.635  -0.048  1.00  0.00     0.070 C 
BRANCH  14  15
HETATM   15  N1  UNL     1       6.365  -1.946   0.133  1.00  0.00    -0.292 N 
ATOM     16  H1  UNL     1       6.635  -2.857   0.504  1.00  0.00     0.178 HD
BRANCH  15  17
HETATM   17  C2  UNL     1       7.334  -0.962  -0.207  1.00  0.00     0.146 C 
HETATM   18  S2  UNL     1       7.399  -0.318  -1.703  1.00  0.00    -0.052 SA
BRANCH  17  19
HETATM   19  S1  UNL     1       8.525  -0.387   0.992  1.00  0.00    -0.104 SA
HETATM   20  C1  UNL     1       8.274  -1.232   2.584  1.00  0.00     0.098 C 
ENDBRANCH  17  19
ENDBRANCH  15  17
ENDBRANCH  14  15
ENDBRANCH  12  14
ENDBRANCH  10  12
ENDBRANCH   7  10
ENDBRANCH   1   7
BRANCH   4  21
HETATM   21  N4  UNL     1      -2.957   0.768  -1.360  1.00  0.00    -0.309 N 
HETATM   22  C8  UNL     1      -3.697  -0.219  -2.014  1.00  0.00     0.326 C 
HETATM   23  O3  UNL     1      -3.194  -1.184  -2.592  1.00  0.00    -0.247 OA
HETATM   24  N5  UNL     1      -5.142  -0.096  -2.008  1.00  0.00    -0.293 N 
ATOM     25  H5  UNL     1      -5.651   0.141  -2.859  1.00  0.00     0.172 HD
ATOM     26  H4  UNL     1      -3.481   1.518  -0.910  1.00  0.00     0.170 HD
BRANCH  24  27
HETATM   27  C9  UNL     1      -5.776  -0.298  -0.879  1.00  0.00     0.132 A 
HETATM   28  C10 UNL     1      -5.248  -0.624   0.353  1.00  0.00     0.084 A 
HETATM   29  C11 UNL     1      -6.300  -0.735   1.239  1.00  0.00     0.076 A 
HETATM   30  C12 UNL     1      -6.264  -1.068   2.687  1.00  0.00     0.079 C 
HETATM   31  O4  UNL     1      -7.390  -0.485   0.553  1.00  0.00    -0.241 OA
HETATM   32  N6  UNL     1      -7.105  -0.226  -0.691  1.00  0.00    -0.245 N 
ATOM     33  H6  UNL     1      -7.788  -0.002  -1.415  1.00  0.00     0.196 HD
ENDBRANCH  24  27
ENDBRANCH   4  21
TORSDOF 9
