REMARK  8 active torsions:
REMARK  status: ('A' for Active; 'I' for Inactive)
REMARK    1  A    between atoms: C1_2  and  O2_3 
REMARK    2  A    between atoms: C1_2  and  C9_19 
REMARK    3  A    between atoms: O2_3  and  C2_4 
REMARK    4  A    between atoms: C2_4  and  C3_5 
REMARK    5  A    between atoms: C5_8  and  O3_9 
REMARK    6  A    between atoms: C5_8  and  C6_11 
REMARK    7  A    between atoms: C6_11  and  O4_12 
REMARK    8  A    between atoms: C7_14  and  C8_15 
ROOT
HETATM    1  C2  UNL     1      -0.965   2.261   0.916  1.00  0.00     0.211 C 
ENDROOT
BRANCH   1   2
HETATM    2  O2  UNL     1       0.234   1.772   0.522  1.00  0.00    -0.315 OA
BRANCH   2   3
HETATM    3  C1  UNL     1       1.133   0.861   0.872  1.00  0.00     0.293 C 
HETATM    4  O1  UNL     1       0.960   0.155   1.868  1.00  0.00    -0.259 OA
BRANCH   3   5
HETATM    5  C9  UNL     1       2.389   0.623   0.116  1.00  0.00     0.040 A 
HETATM    6  C10 UNL     1       2.671   1.359  -1.006  1.00  0.00     0.018 A 
HETATM    7  C11 UNL     1       3.840   1.117  -1.686  1.00  0.00     0.013 A 
HETATM    8  C12 UNL     1       4.742   0.154  -1.275  1.00  0.00    -0.025 A 
HETATM    9  C13 UNL     1       5.914  -0.078  -1.969  1.00  0.00     0.031 A 
HETATM   10  C17 UNL     1       4.466  -0.604  -0.133  1.00  0.00    -0.025 A 
HETATM   11  C14 UNL     1       6.780  -1.047  -1.522  1.00  0.00     0.011 A 
HETATM   12 BR1  UNL     1       8.395  -1.377  -2.465  1.00  0.00    -0.051 Br
HETATM   13  C15 UNL     1       6.502  -1.799  -0.384  1.00  0.00     0.020 A 
HETATM   14  C16 UNL     1       5.340  -1.564   0.299  1.00  0.00     0.013 A 
HETATM   15  C18 UNL     1       3.280  -0.336   0.531  1.00  0.00     0.030 A 
ENDBRANCH   3   5
ENDBRANCH   2   3
ENDBRANCH   1   2
BRANCH   1  16
HETATM   16  C3  UNL     1      -2.186   1.385   0.904  1.00  0.00     0.156 C 
HETATM   17  C4  UNL     1      -2.272   0.497   2.087  1.00  0.00     0.111 C 
HETATM   18  S1  UNL     1      -2.374  -1.235   1.525  1.00  0.00    -0.124 SA
HETATM   19  C5  UNL     1      -3.602  -1.162   0.143  1.00  0.00     0.163 C 
HETATM   20  C7  UNL     1      -3.387   0.075  -0.655  1.00  0.00     0.269 C 
HETATM   21  O7  UNL     1      -2.308   0.839  -0.333  1.00  0.00    -0.363 OA
BRANCH  19  22
HETATM   22  O3  UNL     1      -3.333  -2.352  -0.575  1.00  0.00    -0.374 OA
ATOM     23  H3  UNL     1      -3.964  -2.315  -1.285  1.00  0.00     0.211 HD
ENDBRANCH  19  22
BRANCH  19  24
HETATM   24  C6  UNL     1      -4.972  -1.341   0.727  1.00  0.00     0.216 C 
BRANCH  24  25
HETATM   25  O4  UNL     1      -5.423  -0.262   1.465  1.00  0.00    -0.397 OA
ATOM     26  H4  UNL     1      -6.291  -0.375   1.835  1.00  0.00     0.209 HD
ENDBRANCH  24  25
ENDBRANCH  19  24
BRANCH  20  27
HETATM   27  C8  UNL     1      -4.619   0.878  -0.914  1.00  0.00     0.207 C 
HETATM   28  O5  UNL     1      -4.633   2.137  -0.787  1.00  0.00    -0.646 OA
HETATM   29  O6  UNL     1      -5.831   0.338  -1.310  1.00  0.00    -0.646 OA
ENDBRANCH  20  27
ENDBRANCH   1  16
TORSDOF 8
