REMARK  7 active torsions:
REMARK  status: ('A' for Active; 'I' for Inactive)
REMARK       I    between atoms: C2_2  and  N1_4 
REMARK    1  A    between atoms: N1_4  and  C3_6 
REMARK    2  A    between atoms: C5_8  and  C6_9 
REMARK    3  A    between atoms: C6_9  and  N2_10 
REMARK    4  A    between atoms: C8_14  and  N3_15 
REMARK    5  A    between atoms: N3_15  and  C9_17 
REMARK    6  A    between atoms: C9_17  and  N4_19 
REMARK    7  A    between atoms: N4_19  and  C10_21 
ROOT
HETATM    1  N2  UNL     1       1.929   1.167   1.230  1.00  0.00    -0.377 N 
ATOM      2  H2  UNL     1       2.156   0.726   2.121  1.00  0.00     0.160 HD
HETATM    3  C7  UNL     1       0.725   1.012   0.786  1.00  0.00     0.141 A 
HETATM    4  S1  UNL     1      -0.436   0.105   1.658  1.00  0.00    -0.048 SA
HETATM    5  C8  UNL     1      -2.001   0.021   0.880  1.00  0.00     0.094 A 
HETATM    6  C14 UNL     1      -2.009   0.701  -0.291  1.00  0.00     0.131 A 
HETATM    7  N5  UNL     1      -1.002   1.379  -0.860  1.00  0.00    -0.324 N 
HETATM    8  C15 UNL     1      -1.327   2.025  -2.159  1.00  0.00     0.159 C 
HETATM    9  C16 UNL     1       0.242   1.531  -0.388  1.00  0.00     0.280 A 
HETATM   10  O2  UNL     1       1.066   2.227  -1.096  1.00  0.00    -0.265 OA
ENDROOT
BRANCH   1  11
HETATM   11  C6  UNL     1       2.958   1.892   0.592  1.00  0.00     0.152 C 
BRANCH  11  12
HETATM   12  C5  UNL     1       4.283   1.760   1.386  1.00  0.00     0.143 C 
HETATM   13  C4  UNL     1       4.665   0.307   1.311  1.00  0.00     0.062 C 
HETATM   14  C3  UNL     1       5.742   0.350   0.227  1.00  0.00     0.130 C 
HETATM   15  C17 UNL     1       6.358   1.717   0.554  1.00  0.00     0.240 C 
HETATM   16  O3  UNL     1       5.218   2.489   0.699  1.00  0.00    -0.362 OA
HETATM   17 CL1  UNL     1       7.400   2.258  -0.760  1.00  0.00    -0.093 Cl
BRANCH  14  18
HETATM   18  N1  UNL     1       6.688  -0.705   0.369  1.00  0.00    -0.353 N 
HETATM   19  C2  UNL     1       6.886  -1.609  -0.691  1.00  0.00     0.214 C 
HETATM   20  C1  UNL     1       7.866  -2.706  -0.550  1.00  0.00     0.117 C 
HETATM   21  O1  UNL     1       6.230  -1.496  -1.773  1.00  0.00    -0.274 OA
ATOM     22  H1  UNL     1       7.219  -0.805   1.234  1.00  0.00     0.163 HD
ENDBRANCH  14  18
ENDBRANCH  11  12
ENDBRANCH   1  11
BRANCH   5  23
HETATM   23  N3  UNL     1      -3.038  -0.701   1.508  1.00  0.00    -0.326 N 
ATOM     24  H3  UNL     1      -2.761  -1.122   2.395  1.00  0.00     0.169 HD
BRANCH  23  25
HETATM   25  C9  UNL     1      -4.338  -0.950   1.169  1.00  0.00     0.173 C 
HETATM   26  S2  UNL     1      -5.154  -1.909   2.333  1.00  0.00    -0.041 SA
BRANCH  25  27
HETATM   27  N4  UNL     1      -5.113  -0.573   0.067  1.00  0.00    -0.359 N 
ATOM     28  H4  UNL     1      -4.704  -0.001  -0.672  1.00  0.00     0.162 HD
BRANCH  27  29
HETATM   29  C10 UNL     1      -6.532  -1.005  -0.028  1.00  0.00     0.021 C 
HETATM   30  C11 UNL     1      -7.104  -0.455  -1.309  1.00  0.00     0.037 C 
HETATM   31  C12 UNL     1      -6.618  -2.502  -0.048  1.00  0.00     0.037 C 
HETATM   32  C13 UNL     1      -7.322  -0.479   1.126  1.00  0.00     0.037 C 
ENDBRANCH  27  29
ENDBRANCH  25  27
ENDBRANCH  23  25
ENDBRANCH   5  23
TORSDOF 7
