REMARK  9 active torsions:
REMARK  status: ('A' for Active; 'I' for Inactive)
REMARK    1  A    between atoms: C2_2  and  O2_4 
REMARK    2  A    between atoms: O2_4  and  C3_5 
REMARK    3  A    between atoms: C7_9  and  O3_10 
REMARK    4  A    between atoms: C8_12  and  N1_13 
REMARK    5  A    between atoms: N1_13  and  N2_15 
REMARK    6  A    between atoms: C9_20  and  C10_21 
REMARK    7  A    between atoms: C11_22  and  C12_23 
REMARK    8  A    between atoms: C12_23  and  O4_26 
REMARK    9  A    between atoms: C20_35  and  O6_36 
ROOT
HETATM    1  C3  UNL     1      -2.547   0.062   0.088  1.00  0.00     0.078 C 
HETATM    2  C4  UNL     1      -3.087  -1.236  -0.447  1.00  0.00     0.047 C 
HETATM    3  C5  UNL     1      -1.861   0.801  -1.007  1.00  0.00     0.047 C 
HETATM    4  C6  UNL     1      -0.676   0.158  -1.579  1.00  0.00     0.033 C 
HETATM    5  C7  UNL     1       0.190   1.249  -2.214  1.00  0.00     0.148 C 
HETATM    6  C8  UNL     1       1.178   1.613  -1.162  1.00  0.00     0.138 C 
HETATM    7  C9  UNL     1       1.498   0.270  -0.538  1.00  0.00     0.048 C 
HETATM    8  C15 UNL     1       0.253  -0.586  -0.667  1.00  0.00    -0.002 C 
HETATM    9  C16 UNL     1       0.613  -1.852  -1.422  1.00  0.00     0.021 C 
HETATM   10  C17 UNL     1      -0.342  -0.978   0.619  1.00  0.00    -0.018 C 
HETATM   11  C18 UNL     1      -0.115  -1.939   1.503  1.00  0.00     0.168 C 
HETATM   12  F1  UNL     1       0.857  -2.910   1.401  1.00  0.00    -0.202 F 
HETATM   13  C19 UNL     1      -1.009  -1.880   2.631  1.00  0.00     0.217 C 
HETATM   14  O5  UNL     1      -0.953  -2.567   3.679  1.00  0.00    -0.287 OA
HETATM   15  C20 UNL     1      -2.020  -0.863   2.349  1.00  0.00     0.206 C 
HETATM   16  C21 UNL     1      -1.471  -0.181   1.149  1.00  0.00     0.090 C 
ENDROOT
BRANCH   6  17
HETATM   17  N1  UNL     1       0.761   2.604  -0.226  1.00  0.00    -0.315 N 
ATOM     18  H1  UNL     1       0.435   2.340   0.704  1.00  0.00     0.182 HD
BRANCH  17  19
HETATM   19  N2  UNL     1       0.803   3.784  -0.566  1.00  0.00    -0.253 N 
HETATM   20  N3  UNL     1       0.331   4.882  -0.932  1.00  0.00    -0.331 N 
ATOM     21  H32 UNL     1      -0.659   4.639  -0.957  1.00  0.00     0.178 HD
ATOM     22  H31 UNL     1       0.366   5.862  -1.214  1.00  0.00     0.178 HD
ATOM     23  H2  UNL     1       1.803   3.983  -0.527  1.00  0.00     0.207 HD
ENDBRANCH  17  19
ENDBRANCH   6  17
BRANCH   5  24
HETATM   24  O3  UNL     1       0.866   0.778  -3.330  1.00  0.00    -0.393 OA
ATOM     25  H3  UNL     1       1.403   1.455  -3.724  1.00  0.00     0.210 HD
ENDBRANCH   5  24
BRANCH   7  26
HETATM   26  C10 UNL     1       2.000   0.411   0.840  1.00  0.00    -0.020 C 
HETATM   27  C11 UNL     1       3.174   0.087   1.319  1.00  0.00     0.006 C 
BRANCH  27  28
HETATM   28  C12 UNL     1       4.335  -0.501   0.659  1.00  0.00     0.068 C 
HETATM   29  C13 UNL     1       4.180  -1.918   0.196  1.00  0.00     0.050 C 
HETATM   30  C14 UNL     1       4.845   0.331  -0.497  1.00  0.00     0.050 C 
BRANCH  28  31
HETATM   31  O4  UNL     1       5.426  -0.537   1.577  1.00  0.00    -0.387 OA
ATOM     32  H4  UNL     1       6.182  -0.920   1.147  1.00  0.00     0.211 HD
ENDBRANCH  28  31
ENDBRANCH  27  28
ENDBRANCH   7  26
BRANCH   1  33
HETATM   33  O2  UNL     1      -3.511   0.857   0.723  1.00  0.00    -0.310 OA
BRANCH  33  34
HETATM   34  C2  UNL     1      -4.660   1.362   0.176  1.00  0.00     0.255 C 
HETATM   35  C1  UNL     1      -5.615   2.212   0.977  1.00  0.00     0.126 C 
HETATM   36  O1  UNL     1      -4.899   1.093  -1.031  1.00  0.00    -0.266 OA
ENDBRANCH  33  34
ENDBRANCH   1  33
BRANCH  15  37
HETATM   37  O6  UNL     1      -3.245  -1.471   2.160  1.00  0.00    -0.387 OA
ATOM     38  H6  UNL     1      -3.902  -0.810   1.977  1.00  0.00     0.210 HD
ENDBRANCH  15  37
TORSDOF 9
