REMARK  6 active torsions:
REMARK  status: ('A' for Active; 'I' for Inactive)
REMARK    1  A    between atoms: N3_6  and  C2_7 
REMARK    2  A    between atoms: C2_7  and  C3_8 
REMARK    3  A    between atoms: C3_8  and  C4_9 
REMARK    4  A    between atoms: C4_9  and  S1_10 
REMARK    5  A    between atoms: S1_10  and  C5_11 
REMARK    6  A    between atoms: C5_11  and  C6_12 
ROOT
HETATM    1  C2  UNL     1       1.811  -0.935  -0.454  1.00  0.00     0.152 C 
ENDROOT
BRANCH   1   2
HETATM    2  N3  UNL     1       2.814   0.049  -0.129  1.00  0.00    -0.226 N 
HETATM    3  N2  UNL     1       2.591   1.387  -0.484  1.00  0.00    -0.012 NA
HETATM    4  N1  UNL     1       3.781   1.987  -0.907  1.00  0.00    -0.235 N 
HETATM    5  C1  UNL     1       5.018   1.676  -0.283  1.00  0.00     0.341 C 
ATOM      6  H1  UNL     1       3.760   2.658  -1.675  1.00  0.00     0.189 HD
HETATM    7  O1  UNL     1       6.014   2.432  -0.365  1.00  0.00    -0.245 OA
HETATM    8  N4  UNL     1       5.126   0.479   0.451  1.00  0.00    -0.259 N 
HETATM    9  C12 UNL     1       3.990  -0.373   0.538  1.00  0.00     0.343 C 
ATOM     10  H4  UNL     1       6.001   0.228   0.911  1.00  0.00     0.175 HD
HETATM   11  O2  UNL     1       4.010  -1.449   1.171  1.00  0.00    -0.245 OA
ENDBRANCH   1   2
BRANCH   1  12
HETATM   12  C3  UNL     1       0.777  -1.121   0.620  1.00  0.00     0.032 C 
BRANCH  12  13
HETATM   13  C4  UNL     1       0.020   0.146   0.921  1.00  0.00     0.076 C 
BRANCH  13  14
HETATM   14  S1  UNL     1      -1.192  -0.277   2.227  1.00  0.00    -0.164 SA
BRANCH  14  15
HETATM   15  C5  UNL     1      -2.413  -1.414   1.499  1.00  0.00     0.112 C 
BRANCH  15  16
HETATM   16  C6  UNL     1      -3.191  -0.666   0.483  1.00  0.00    -0.049 A 
HETATM   17  C7  UNL     1      -4.362   0.002   0.849  1.00  0.00     0.008 A 
HETATM   18  C8  UNL     1      -5.039   0.681  -0.143  1.00  0.00     0.001 A 
HETATM   19  C9  UNL     1      -4.583   0.702  -1.438  1.00  0.00     0.000 A 
HETATM   20  C10 UNL     1      -3.431   0.051  -1.823  1.00  0.00     0.001 A 
HETATM   21  C11 UNL     1      -2.746  -0.637  -0.818  1.00  0.00     0.008 A 
ENDBRANCH  15  16
ENDBRANCH  14  15
ENDBRANCH  13  14
ENDBRANCH  12  13
ENDBRANCH   1  12
TORSDOF 6
