REMARK  7 active torsions:
REMARK  status: ('A' for Active; 'I' for Inactive)
REMARK    1  A    between atoms: C4_8  and  N3_9 
REMARK    2  A    between atoms: N3_9  and  C5_11 
REMARK    3  A    between atoms: C5_11  and  C6_12 
REMARK    4  A    between atoms: C6_12  and  N4_13 
REMARK    5  A    between atoms: N4_13  and  C7_15 
REMARK    6  A    between atoms: C7_15  and  C8_16 
REMARK    7  A    between atoms: C8_16  and  N5_17 
ROOT
HETATM    1  N3  UNL     1       2.180   0.524  -1.151  1.00  0.00    -0.224 N 
ATOM      2  H3  UNL     1       1.800   1.209  -1.804  1.00  0.00     0.177 HD
ENDROOT
BRANCH   1   3
HETATM    3  C4  UNL     1       3.467   0.447  -0.963  1.00  0.00     0.680 A 
HETATM    4  N2  UNL     1       4.361   1.260  -1.617  1.00  0.00    -0.174 N 
HETATM    5  C3  UNL     1       5.596   0.940  -1.216  1.00  0.00     0.148 A 
ATOM      6  H2  UNL     1       4.123   1.985  -2.294  1.00  0.00     0.186 HD
HETATM    7  N1  UNL     1       6.818   1.406  -1.525  1.00  0.00    -0.350 N 
HETATM    8  C14 UNL     1       5.502  -0.096  -0.287  1.00  0.00     0.093 A 
HETATM    9  C2  UNL     1       7.958   0.918  -0.976  1.00  0.00     0.090 A 
ATOM     10  H1  UNL     1       6.892   2.163  -2.205  1.00  0.00     0.166 HD
HETATM   11  C1  UNL     1       7.878  -0.106  -0.056  1.00  0.00     0.019 A 
HETATM   12  C15 UNL     1       6.643  -0.608   0.283  1.00  0.00     0.035 A 
HETATM   13  N6  UNL     1       4.191  -0.350  -0.177  1.00  0.00    -0.188 N 
ATOM     14  H6  UNL     1       3.796  -1.065   0.433  1.00  0.00     0.184 HD
ENDBRANCH   1   3
BRANCH   1  15
HETATM   15  C5  UNL     1       1.304  -0.347  -0.446  1.00  0.00     0.157 C 
BRANCH  15  16
HETATM   16  C6  UNL     1       0.214   0.344   0.364  1.00  0.00     0.139 C 
BRANCH  16  17
HETATM   17  N4  UNL     1      -0.527  -0.743   0.992  1.00  0.00    -0.396 N 
ATOM     18  H4  UNL     1      -0.378  -1.714   0.717  1.00  0.00     0.158 HD
BRANCH  17  19
HETATM   19  C7  UNL     1      -1.454  -0.402   1.991  1.00  0.00     0.094 C 
BRANCH  19  20
HETATM   20  C8  UNL     1      -2.729   0.279   1.656  1.00  0.00     0.076 C 
BRANCH  20  21
HETATM   21  N5  UNL     1      -3.677  -0.372   0.850  1.00  0.00    -0.291 NA
HETATM   22  C9  UNL     1      -4.900   0.425   0.869  1.00  0.00     0.095 C 
HETATM   23  C10 UNL     1      -6.067  -0.430   0.355  1.00  0.00     0.015 C 
HETATM   24  C11 UNL     1      -5.800  -0.831  -1.075  1.00  0.00     0.002 C 
HETATM   25  C12 UNL     1      -4.459  -0.286  -1.481  1.00  0.00     0.015 C 
HETATM   26  C13 UNL     1      -3.406  -0.753  -0.464  1.00  0.00     0.095 C 
ENDBRANCH  20  21
ENDBRANCH  19  20
ENDBRANCH  17  19
ENDBRANCH  16  17
ENDBRANCH  15  16
ENDBRANCH   1  15
TORSDOF 7
