REMARK  8 active torsions:
REMARK  status: ('A' for Active; 'I' for Inactive)
REMARK    1  A    between atoms: C2_2  and  C3_3 
REMARK    2  A    between atoms: C3_3  and  C4_4 
REMARK    3  A    between atoms: C4_4  and  C5_5 
REMARK    4  A    between atoms: C6_8  and  N2_9 
REMARK    5  A    between atoms: C7_14  and  N4_15 
REMARK    6  A    between atoms: N4_15  and  C8_17 
REMARK    7  A    between atoms: C8_17  and  C9_18 
REMARK    8  A    between atoms: C9_18  and  N5_19 
ROOT
HETATM    1  C5  UNL     1       3.082   0.077   0.880  1.00  0.00     0.113 A 
HETATM    2  N1  UNL     1       2.956   1.389   1.097  1.00  0.00    -0.180 N 
ATOM      3  H1  UNL     1       3.780   1.990   1.123  1.00  0.00     0.185 HD
HETATM    4  C6  UNL     1       1.730   1.907   1.281  1.00  0.00     0.691 A 
HETATM    5  N3  UNL     1       0.630   1.104   1.245  1.00  0.00    -0.023 N 
ATOM      6  H3  UNL     1      -0.295   1.511   1.385  1.00  0.00     0.203 HD
HETATM    7  C7  UNL     1       0.746  -0.209   1.029  1.00  0.00     0.694 A 
HETATM    8  N6  UNL     1       1.990  -0.708   0.847  1.00  0.00    -0.180 N 
ATOM      9  H6  UNL     1       2.103  -1.708   0.680  1.00  0.00     0.185 HD
ENDROOT
BRANCH   7  10
HETATM   10  N4  UNL     1      -0.255  -0.992   0.989  1.00  0.00    -0.224 N 
ATOM     11  H4  UNL     1      -0.090  -1.984   0.819  1.00  0.00     0.177 HD
BRANCH  10  12
HETATM   12  C8  UNL     1      -1.611  -0.542   1.173  1.00  0.00     0.157 C 
BRANCH  12  13
HETATM   13  C9  UNL     1      -2.084   0.024  -0.165  1.00  0.00     0.137 C 
BRANCH  13  14
HETATM   14  N5  UNL     1      -3.426   0.482  -0.015  1.00  0.00    -0.411 N 
HETATM   15  C10 UNL     1      -4.001   1.040  -1.190  1.00  0.00     0.117 C 
HETATM   16  C11 UNL     1      -4.948   0.063  -1.838  1.00  0.00     0.019 C 
HETATM   17  C12 UNL     1      -6.111  -0.278  -0.934  1.00  0.00     0.003 C 
HETATM   18  C13 UNL     1      -5.739  -0.192   0.524  1.00  0.00     0.019 C 
HETATM   19  C14 UNL     1      -4.262  -0.371   0.755  1.00  0.00     0.117 C 
ENDBRANCH  13  14
ENDBRANCH  12  13
ENDBRANCH  10  12
ENDBRANCH   7  10
BRANCH   4  20
HETATM   20  N2  UNL     1       1.516   3.160   1.496  1.00  0.00    -0.234 N 
ATOM     21  H22 UNL     1       2.340   3.761   1.523  1.00  0.00     0.174 HD
ATOM     22  H21 UNL     1       0.585   3.553   1.636  1.00  0.00     0.174 HD
ENDBRANCH   4  20
BRANCH   1  23
HETATM   23  C4  UNL     1       4.400  -0.563   0.670  1.00  0.00     0.077 C 
BRANCH  23  24
HETATM   24  C3  UNL     1       4.659  -0.520  -0.841  1.00  0.00     0.007 C 
BRANCH  24  25
HETATM   25  C2  UNL     1       5.999  -1.161  -1.127  1.00  0.00    -0.004 C 
HETATM   26  C1  UNL     1       7.041  -0.344  -0.363  1.00  0.00     0.005 C 
ENDBRANCH  24  25
ENDBRANCH  23  24
ENDBRANCH   1  23
TORSDOF 8
