REMARK  12 active torsions:
REMARK  status: ('A' for Active; 'I' for Inactive)
REMARK    1  A    between atoms: C2_2  and  O1_3 
REMARK    2  A    between atoms: C2_2  and  C11_36 
REMARK    3  A    between atoms: O1_3  and  C3_4 
REMARK    4  A    between atoms: C3_4  and  C4_6 
REMARK    5  A    between atoms: C5_7  and  O3_8 
REMARK    6  A    between atoms: C6_10  and  N1_11 
REMARK    7  A    between atoms: C7_16  and  N4_17 
REMARK    8  A    between atoms: C8_22  and  N6_23 
REMARK    9  A    between atoms: C9_26  and  O4_27 
REMARK   10  A    between atoms: O4_27  and  S1_28 
REMARK   11  A    between atoms: C11_36  and  O9_37 
REMARK   12  A    between atoms: C11_36  and  O10_39 
ROOT
HETATM    1  C4  UNL     1       0.738   0.100   0.045  1.00  0.00     0.142 A 
HETATM    2  C5  UNL     1      -0.422   0.536   0.610  1.00  0.00     0.121 A 
HETATM    3  C6  UNL     1      -1.646   0.273  -0.045  1.00  0.00     0.162 A 
HETATM    4  C9  UNL     1      -1.601  -0.413  -1.224  1.00  0.00     0.198 A 
HETATM    5  N7  UNL     1      -0.456  -0.843  -1.779  1.00  0.00    -0.300 N 
ATOM      6  H7  UNL     1      -0.467  -1.354  -2.662  1.00  0.00     0.171 HD
HETATM    7  C10 UNL     1       0.691  -0.591  -1.157  1.00  0.00     0.266 A 
HETATM    8  O8  UNL     1       1.766  -1.008  -1.702  1.00  0.00    -0.267 OA
ENDROOT
BRANCH   3   9
HETATM    9  N1  UNL     1      -2.876   0.712   0.511  1.00  0.00    -0.064 N 
HETATM   10  N2  UNL     1      -3.434   0.084   1.551  1.00  0.00    -0.207 N 
HETATM   11  N3  UNL     1      -4.573   0.455   2.099  1.00  0.00    -0.117 N 
ATOM     12  H2  UNL     1      -2.952  -0.726   1.941  1.00  0.00     0.210 HD
HETATM   13  C7  UNL     1      -5.238   1.516   1.616  1.00  0.00     0.706 A 
ATOM     14  H3  UNL     1      -4.950  -0.065   2.891  1.00  0.00     0.207 HD
HETATM   15  N5  UNL     1      -4.715   2.178   0.571  1.00  0.00    -0.020 N 
HETATM   16  C8  UNL     1      -3.539   1.781   0.019  1.00  0.00     0.713 A 
ATOM     17  H5  UNL     1      -5.205   2.986   0.188  1.00  0.00     0.203 HD
BRANCH  13  18
HETATM   18  N4  UNL     1      -6.361   1.936   2.105  1.00  0.00    -0.233 N 
ATOM     19  H42 UNL     1      -6.758   1.433   2.899  1.00  0.00     0.174 HD
ATOM     20  H41 UNL     1      -6.866   2.742   1.738  1.00  0.00     0.174 HD
ENDBRANCH  13  18
BRANCH  16  21
HETATM   21  N6  UNL     1      -3.077   2.451  -0.983  1.00  0.00    -0.232 N 
ATOM     22  H62 UNL     1      -2.194   2.153  -1.397  1.00  0.00     0.174 HD
ATOM     23  H61 UNL     1      -3.578   3.258  -1.355  1.00  0.00     0.174 HD
ENDBRANCH  16  21
ENDBRANCH   3   9
BRANCH   2  24
HETATM   24  O3  UNL     1      -0.538   1.232   1.792  1.00  0.00    -0.357 OA
ATOM     25  H3  UNL     1      -1.347   1.536   2.186  1.00  0.00     0.217 HD
ENDBRANCH   2  24
BRANCH   4  26
HETATM   26  O4  UNL     1      -2.785  -0.694  -1.901  1.00  0.00    -0.193 OA
BRANCH  26  27
HETATM   27  S1  UNL     1      -3.524  -2.188  -1.669  1.00  0.00     0.258 S 
HETATM   28  O5  UNL     1      -3.270  -3.138  -2.803  1.00  0.00    -0.572 OA
HETATM   29  O6  UNL     1      -2.964  -2.818  -0.430  1.00  0.00    -0.572 OA
HETATM   30  O7  UNL     1      -5.206  -2.011  -1.554  1.00  0.00    -0.572 OA
ENDBRANCH  26  27
ENDBRANCH   4  26
BRANCH   1  31
HETATM   31  C3  UNL     1       2.035   0.321   0.640  1.00  0.00     0.302 C 
HETATM   32  O2  UNL     1       2.259   0.911   1.697  1.00  0.00    -0.259 OA
BRANCH  31  33
HETATM   33  O1  UNL     1       3.203  -0.156   0.005  1.00  0.00    -0.307 OA
BRANCH  33  34
HETATM   34  C2  UNL     1       4.470   0.032   0.539  1.00  0.00     0.182 C 
HETATM   35  C1  UNL     1       5.361   0.897  -0.340  1.00  0.00     0.045 C 
BRANCH  34  36
HETATM   36  C11 UNL     1       5.168  -1.264   0.898  1.00  0.00     0.282 C 
BRANCH  36  37
HETATM   37  O9  UNL     1       6.416  -0.917   1.417  1.00  0.00    -0.369 OA
ATOM     38  H9  UNL     1       6.854  -1.730   1.642  1.00  0.00     0.212 HD
ENDBRANCH  36  37
BRANCH  36  39
HETATM   39  O10 UNL     1       5.385  -2.073  -0.208  1.00  0.00    -0.369 OA
ATOM     40  H10 UNL     1       5.823  -2.886   0.017  1.00  0.00     0.212 HD
ENDBRANCH  36  39
ENDBRANCH  34  36
ENDBRANCH  33  34
ENDBRANCH  31  33
ENDBRANCH   1  31
TORSDOF 12
