REMARK  11 active torsions:
REMARK  status: ('A' for Active; 'I' for Inactive)
REMARK    1  A    between atoms: C3_6  and  N3_7 
REMARK    2  A    between atoms: C4_12  and  C5_13 
REMARK    3  A    between atoms: C7_16  and  N5_17 
REMARK    4  A    between atoms: N5_17  and  C8_19 
REMARK    5  A    between atoms: C8_19  and  O2_20 
REMARK    6  A    between atoms: C8_19  and  C9_22 
REMARK    7  A    between atoms: C10_25  and  C11_26 
REMARK    8  A    between atoms: C12_32  and  N9_33 
REMARK    9  A    between atoms: C13_37  and  C14_38 
REMARK   10  A    between atoms: C14_38  and  O5_39 
REMARK   11  A    between atoms: C14_38  and  O6_41 
ROOT
HETATM    1  N1  UNL     1      -5.594   3.272  -1.910  1.00  0.00    -0.188 NA
HETATM    2  C1  UNL     1      -5.498   2.288  -1.290  1.00  0.00     0.137 C 
HETATM    3  C2  UNL     1      -5.363   1.090  -0.514  1.00  0.00     0.204 A 
HETATM    4  N2  UNL     1      -6.360   0.186  -0.409  1.00  0.00    -0.167 N 
ATOM      5  H2  UNL     1      -7.244   0.347  -0.891  1.00  0.00     0.186 HD
HETATM    6  C3  UNL     1      -6.193  -0.918   0.323  1.00  0.00     0.679 A 
HETATM    7  N4  UNL     1      -5.025  -1.109   0.946  1.00  0.00    -0.176 N 
ATOM      8  H4  UNL     1      -4.905  -1.955   1.503  1.00  0.00     0.185 HD
HETATM    9  C4  UNL     1      -4.001  -0.241   0.874  1.00  0.00     0.155 A 
HETATM   10  N10 UNL     1      -4.190   0.863   0.132  1.00  0.00    -0.318 N 
ATOM     11  H10 UNL     1      -3.436   1.546   0.052  1.00  0.00     0.169 HD
ENDROOT
BRANCH   6  12
HETATM   12  N3  UNL     1      -7.174  -1.768   0.398  1.00  0.00    -0.234 N 
ATOM     13  H32 UNL     1      -8.065  -1.622  -0.077  1.00  0.00     0.174 HD
ATOM     14  H31 UNL     1      -7.046  -2.611   0.957  1.00  0.00     0.174 HD
ENDBRANCH   6  12
BRANCH   9  15
HETATM   15  C5  UNL     1      -2.693  -0.439   1.571  1.00  0.00     0.331 C 
HETATM   16  O1  UNL     1      -2.194   0.759   2.042  1.00  0.00    -0.350 OA
HETATM   17  C6  UNL     1      -0.834   0.579   2.106  1.00  0.00     0.225 C 
HETATM   18  C7  UNL     1      -0.546  -0.302   0.911  1.00  0.00     0.246 C 
HETATM   19  O7  UNL     1      -1.752  -1.007   0.749  1.00  0.00    -0.328 OA
BRANCH  18  20
HETATM   20  N5  UNL     1      -0.321   0.574  -0.223  1.00  0.00    -0.364 N 
ATOM     21  H5  UNL     1      -0.718   1.512  -0.277  1.00  0.00     0.158 HD
BRANCH  20  22
HETATM   22  C8  UNL     1       0.495   0.029  -1.255  1.00  0.00     0.269 C 
BRANCH  22  23
HETATM   23  O2  UNL     1       0.036  -1.226  -1.649  1.00  0.00    -0.371 OA
ATOM     24  H2  UNL     1       0.580  -1.590  -2.337  1.00  0.00     0.212 HD
ENDBRANCH  22  23
BRANCH  22  25
HETATM   25  C9  UNL     1       1.933  -0.014  -1.004  1.00  0.00     0.095 A 
HETATM   26  N6  UNL     1       2.545  -0.387   0.113  1.00  0.00    -0.332 N 
HETATM   27  C10 UNL     1       3.867  -0.273  -0.063  1.00  0.00     0.181 A 
ATOM     28  H6  UNL     1       2.084  -0.708   0.965  1.00  0.00     0.168 HD
HETATM   29  O4  UNL     1       4.048   0.166  -1.280  1.00  0.00    -0.288 OA
HETATM   30  C13 UNL     1       2.922   0.347  -1.912  1.00  0.00     0.136 A 
BRANCH  27  31
HETATM   31  C11 UNL     1       4.926  -0.573   0.907  1.00  0.00     0.153 A 
HETATM   32  N7  UNL     1       6.245  -0.453   0.705  1.00  0.00    -0.234 N 
HETATM   33  O3  UNL     1       6.854  -0.804   1.799  1.00  0.00    -0.155 OA
ATOM     34  H7  UNL     1       6.693  -0.141  -0.156  1.00  0.00     0.197 HD
HETATM   35  N8  UNL     1       6.040  -1.155   2.731  1.00  0.00    -0.224 N 
HETATM   36  C12 UNL     1       4.773  -1.022   2.201  1.00  0.00     0.154 A 
ATOM     37  H8  UNL     1       6.282  -1.468   3.671  1.00  0.00     0.198 HD
BRANCH  36  38
HETATM   38  N9  UNL     1       3.736  -1.279   2.821  1.00  0.00    -0.382 N 
ATOM     39  H92 UNL     1       2.799  -1.181   2.429  1.00  0.00     0.157 HD
ATOM     40  H91 UNL     1       3.623  -1.611   3.779  1.00  0.00     0.157 HD
ENDBRANCH  36  38
ENDBRANCH  27  31
BRANCH  30  41
HETATM   41  C14 UNL     1       2.710   0.830  -3.291  1.00  0.00     0.315 C 
BRANCH  41  42
HETATM   42  O5  UNL     1       1.787   0.101  -3.998  1.00  0.00    -0.365 OA
ATOM     43  H5  UNL     1       1.651   0.412  -4.885  1.00  0.00     0.213 HD
ENDBRANCH  41  42
BRANCH  41  44
HETATM   44  O6  UNL     1       2.480   2.205  -3.343  1.00  0.00    -0.365 OA
ATOM     45  H6  UNL     1       2.344   2.516  -4.230  1.00  0.00     0.213 HD
ENDBRANCH  41  44
ENDBRANCH  30  41
ENDBRANCH  22  25
ENDBRANCH  20  22
ENDBRANCH  18  20
ENDBRANCH   9  15
TORSDOF 11
