REMARK  12 active torsions:
REMARK  status: ('A' for Active; 'I' for Inactive)
REMARK    1  A    between atoms: C3_6  and  C4_7 
REMARK    2  A    between atoms: C4_7  and  N3_8 
REMARK    3  A    between atoms: N3_8  and  N4_10 
REMARK       I    between atoms: N4_10  and  C5_12 
REMARK    4  A    between atoms: C5_12  and  C6_14 
REMARK    5  A    between atoms: N5_16  and  C8_17 
REMARK    6  A    between atoms: C9_22  and  C10_23 
REMARK    7  A    between atoms: C10_23  and  N8_24 
REMARK    8  A    between atoms: C10_23  and  N9_28 
REMARK    9  A    between atoms: N9_28  and  N10_29 
REMARK   10  A    between atoms: C11_32  and  O2_33 
REMARK   11  A    between atoms: C12_35  and  C13_36 
REMARK   12  A    between atoms: C14_43  and  O5_44 
ROOT
HETATM    1  C6  UNL     1       1.304  -2.032  -1.635  1.00  0.00     0.136 A 
HETATM    2  C7  UNL     1       0.400  -1.383  -0.815  1.00  0.00     0.156 A 
HETATM    3  N5  UNL     1      -0.668  -1.030  -1.590  1.00  0.00    -0.232 N 
HETATM    4  N11 UNL     1      -0.422  -1.445  -2.818  1.00  0.00    -0.234 N 
ATOM      5  H11 UNL     1      -1.044  -1.322  -3.617  1.00  0.00     0.209 HD
HETATM    6  N12 UNL     1       0.742  -2.038  -2.852  1.00  0.00    -0.279 N 
ATOM      7  H12 UNL     1       1.163  -2.447  -3.686  1.00  0.00     0.189 HD
ENDROOT
BRANCH   3   8
HETATM    8  C8  UNL     1      -1.808  -0.315  -1.089  1.00  0.00     0.162 A 
HETATM    9  N6  UNL     1      -1.759   1.043  -1.067  1.00  0.00    -0.283 N 
HETATM   10  N7  UNL     1      -2.738   1.806  -0.632  1.00  0.00    -0.297 N 
ATOM     11  H6  UNL     1      -0.912   1.498  -1.408  1.00  0.00     0.188 HD
HETATM   12  C9  UNL     1      -3.879   1.291  -0.169  1.00  0.00     0.107 A 
ATOM     13  H7  UNL     1      -2.622   2.819  -0.649  1.00  0.00     0.187 HD
HETATM   14  C11 UNL     1      -3.993  -0.114  -0.165  1.00  0.00     0.114 A 
HETATM   15  C12 UNL     1      -2.953  -0.923  -0.627  1.00  0.00     0.123 A 
BRANCH  12  16
HETATM   16  C10 UNL     1      -4.996   2.134   0.326  1.00  0.00     0.348 C 
BRANCH  16  17
HETATM   17  N8  UNL     1      -4.546   3.193   1.189  1.00  0.00    -0.054 N 
ATOM     18  H83 UNL     1      -3.992   2.826   1.963  1.00  0.00     0.276 HD
ATOM     19  H82 UNL     1      -3.832   3.761   0.732  1.00  0.00     0.276 HD
ATOM     20  H81 UNL     1      -5.314   3.772   1.529  1.00  0.00     0.276 HD
ENDBRANCH  16  17
BRANCH  16  21
HETATM   21  N9  UNL     1      -5.688   2.666  -0.858  1.00  0.00    -0.108 NA
BRANCH  21  22
HETATM   22  N10 UNL     1      -6.756   3.473  -0.519  1.00  0.00    -0.346 N 
ATOM     23 2H10 UNL     1      -7.022   3.668   0.446  1.00  0.00     0.172 HD
ATOM     24 1H10 UNL     1      -7.236   3.842  -1.340  1.00  0.00     0.172 HD
ENDBRANCH  21  22
ENDBRANCH  16  21
ENDBRANCH  12  16
BRANCH  14  25
HETATM   25  O2  UNL     1      -5.152  -0.600   0.306  1.00  0.00    -0.357 OA
ATOM     26  H2  UNL     1      -5.229  -1.547   0.309  1.00  0.00     0.217 HD
ENDBRANCH  14  25
BRANCH  15  27
HETATM   27  C13 UNL     1      -3.051  -2.377  -0.631  1.00  0.00     0.216 C 
HETATM   28  O3  UNL     1      -2.112  -3.113  -1.048  1.00  0.00    -0.644 OA
HETATM   29  O4  UNL     1      -4.167  -3.050  -0.184  1.00  0.00    -0.644 OA
ENDBRANCH  15  27
ENDBRANCH   3   8
BRANCH   1  30
HETATM   30  C5  UNL     1       2.585  -2.576  -1.216  1.00  0.00     0.289 C 
HETATM   31  N4  UNL     1       3.075  -2.505   0.128  1.00  0.00    -0.265 N 
ATOM     32  H4  UNL     1       2.490  -2.047   0.827  1.00  0.00     0.190 HD
HETATM   33  O1  UNL     1       3.314  -3.143  -2.062  1.00  0.00    -0.264 OA
BRANCH  31  34
HETATM   34  N3  UNL     1       4.246  -3.000   0.521  1.00  0.00    -0.308 N 
ATOM     35  H3  UNL     1       4.235  -4.020   0.525  1.00  0.00     0.186 HD
BRANCH  34  36
HETATM   36  C4  UNL     1       5.333  -2.565   0.879  1.00  0.00     0.124 C 
BRANCH  36  37
HETATM   37  C3  UNL     1       5.818  -1.214   1.030  1.00  0.00     0.050 A 
HETATM   38  C2  UNL     1       7.122  -0.898   1.461  1.00  0.00     0.124 A 
HETATM   39  N2  UNL     1       7.243   0.435   1.491  1.00  0.00    -0.307 N 
HETATM   40  N1  UNL     1       6.141   1.019   1.120  1.00  0.00    -0.275 N 
ATOM     41  H2  UNL     1       8.091   0.930   1.769  1.00  0.00     0.186 HD
HETATM   42  C1  UNL     1       5.859   2.459   1.016  1.00  0.00     0.180 C 
HETATM   43  C14 UNL     1       5.255   0.021   0.833  1.00  0.00     0.170 A 
BRANCH  43  44
HETATM   44  O5  UNL     1       3.987   0.288   0.410  1.00  0.00    -0.344 OA
ATOM     45  H5  UNL     1       3.370  -0.407   0.210  1.00  0.00     0.219 HD
ENDBRANCH  43  44
ENDBRANCH  36  37
ENDBRANCH  34  36
ENDBRANCH  31  34
ENDBRANCH   1  30
TORSDOF 12
