REMARK  10 active torsions:
REMARK  status: ('A' for Active; 'I' for Inactive)
REMARK    1  A    between atoms: C2_2  and  N1_4 
REMARK    2  A    between atoms: C2_2  and  N2_8 
REMARK       I    between atoms: N2_8  and  C4_10 
REMARK    3  A    between atoms: C4_10  and  C5_12 
REMARK    4  A    between atoms: C6_14  and  C7_15 
REMARK    5  A    between atoms: C7_15  and  O2_16 
REMARK    6  A    between atoms: C7_15  and  C8_18 
REMARK    7  A    between atoms: C8_18  and  O3_19 
REMARK    8  A    between atoms: C8_18  and  C9_21 
REMARK    9  A    between atoms: N5_26  and  C10_27 
REMARK   10  A    between atoms: N7_31  and  N8_32 
ROOT
HETATM    1  C7  UNL     1       1.082   2.275   0.484  1.00  0.00     0.211 C 
ENDROOT
BRANCH   1   2
HETATM    2  C6  UNL     1      -0.121   1.379   0.668  1.00  0.00     0.085 A 
HETATM    3  S1  UNL     1      -1.701   1.600  -0.008  1.00  0.00    -0.065 SA
HETATM    4  C5  UNL     1      -2.448   0.212   0.660  1.00  0.00     0.115 A 
HETATM    5  C13 UNL     1      -1.415  -0.342   1.371  1.00  0.00     0.139 A 
HETATM    6  N11 UNL     1      -0.278   0.272   1.347  1.00  0.00    -0.339 N 
HETATM    7  N12 UNL     1      -1.620  -1.572   2.117  1.00  0.00    -0.081 NA
ATOM      8  H11 UNL     1       0.511  -0.113   1.867  1.00  0.00     0.167 HD
BRANCH   4   9
HETATM    9  C4  UNL     1      -3.838  -0.248   0.498  1.00  0.00     0.263 C 
HETATM   10  N2  UNL     1      -4.728   0.493  -0.290  1.00  0.00    -0.324 N 
ATOM     11  H2  UNL     1      -4.408   1.347  -0.747  1.00  0.00     0.165 HD
HETATM   12  O1  UNL     1      -4.138  -1.312   1.100  1.00  0.00    -0.267 OA
BRANCH  10  13
HETATM   13  C2  UNL     1      -6.084   0.062  -0.459  1.00  0.00     0.190 C 
HETATM   14  C1  UNL     1      -6.153  -1.326  -1.096  1.00  0.00     0.070 C 
HETATM   15  C3  UNL     1      -6.794   1.041  -1.372  1.00  0.00     0.070 C 
BRANCH  13  16
HETATM   16  N1  UNL     1      -6.844   0.025   0.771  1.00  0.00    -0.053 N 
ATOM     17  H13 UNL     1      -7.801  -0.300   0.634  1.00  0.00     0.277 HD
ATOM     18  H12 UNL     1      -6.538  -0.715   1.402  1.00  0.00     0.277 HD
ATOM     19  H11 UNL     1      -6.798   0.951   1.196  1.00  0.00     0.277 HD
ENDBRANCH  13  16
ENDBRANCH  10  13
ENDBRANCH   4   9
ENDBRANCH   1   2
BRANCH   1  20
HETATM   20  O2  UNL     1       0.595   3.581   0.679  1.00  0.00    -0.386 OA
ATOM     21  H2  UNL     1       1.351   4.144   0.563  1.00  0.00     0.210 HD
ENDBRANCH   1  20
BRANCH   1  22
HETATM   22  C8  UNL     1       2.063   1.920   1.576  1.00  0.00     0.223 C 
BRANCH  22  23
HETATM   23  O3  UNL     1       3.096   2.895   1.509  1.00  0.00    -0.385 OA
ATOM     24  H3  UNL     1       3.713   2.672   2.196  1.00  0.00     0.210 HD
ENDBRANCH  22  23
BRANCH  22  25
HETATM   25  C9  UNL     1       2.717   0.620   1.179  1.00  0.00     0.145 A 
HETATM   26  N3  UNL     1       2.672  -0.577   1.745  1.00  0.00    -0.269 N 
HETATM   27  N4  UNL     1       3.415  -1.393   1.016  1.00  0.00    -0.219 N 
ATOM     28  H3  UNL     1       2.157  -0.825   2.590  1.00  0.00     0.190 HD
HETATM   29  N5  UNL     1       3.934  -0.743  -0.008  1.00  0.00    -0.176 N 
ATOM     30  H4  UNL     1       3.565  -2.382   1.217  1.00  0.00     0.210 HD
HETATM   31  N10 UNL     1       3.507   0.502   0.086  1.00  0.00    -0.263 N 
ATOM     32  H10 UNL     1       3.736   1.256  -0.562  1.00  0.00     0.190 HD
BRANCH  29  33
HETATM   33  C10 UNL     1       4.797  -1.265  -1.035  1.00  0.00     0.137 A 
HETATM   34  C11 UNL     1       4.453  -2.120  -2.056  1.00  0.00     0.146 A 
HETATM   35  N6  UNL     1       5.558  -2.342  -2.770  1.00  0.00    -0.287 N 
HETATM   36  N7  UNL     1       6.598  -1.702  -2.298  1.00  0.00    -0.187 N 
ATOM     37  H6  UNL     1       5.589  -2.944  -3.593  1.00  0.00     0.188 HD
HETATM   38  C12 UNL     1       6.154  -1.017  -1.210  1.00  0.00     0.187 A 
HETATM   39  N9  UNL     1       6.924  -0.178  -0.369  1.00  0.00    -0.076 NA
BRANCH  36  40
HETATM   40  N8  UNL     1       7.918  -1.699  -2.788  1.00  0.00    -0.323 N 
ATOM     41  H82 UNL     1       8.251  -2.213  -3.604  1.00  0.00     0.179 HD
ATOM     42  H81 UNL     1       8.728  -1.200  -2.420  1.00  0.00     0.179 HD
ENDBRANCH  36  40
ENDBRANCH  29  33
ENDBRANCH  22  25
ENDBRANCH   1  22
TORSDOF 10
