REMARK  9 active torsions:
REMARK  status: ('A' for Active; 'I' for Inactive)
REMARK    1  A    between atoms: C3_3  and  C4_4 
REMARK    2  A    between atoms: C4_4  and  C5_5 
REMARK    3  A    between atoms: C5_5  and  C6_6 
REMARK    4  A    between atoms: C6_6  and  O1_7 
REMARK    5  A    between atoms: C9_11  and  C10_12 
REMARK    6  A    between atoms: C15_22  and  C16_23 
REMARK    7  A    between atoms: C16_23  and  C17_24 
REMARK    8  A    between atoms: C18_28  and  C19_29 
REMARK    9  A    between atoms: C19_29  and  C20_30 
ROOT
HETATM    1  C1  UNL     1       0.936   0.455   2.679  1.00  0.00     0.025 C 
HETATM    2  C2  UNL     1       0.600   0.406   1.416  1.00  0.00    -0.028 A 
HETATM    3  C3  UNL     1       0.191  -0.852   0.928  1.00  0.00    -0.041 A 
HETATM    4  C7  UNL     1      -0.282  -0.937  -0.363  1.00  0.00    -0.044 A 
HETATM    5  C8  UNL     1      -0.578  -2.318  -0.882  1.00  0.00     0.049 C 
HETATM    6  C9  UNL     1      -0.402   0.136  -1.226  1.00  0.00    -0.018 A 
HETATM    7  C15 UNL     1       0.009   1.408  -0.709  1.00  0.00    -0.009 A 
HETATM    8  C18 UNL     1       0.518   1.506   0.597  1.00  0.00    -0.013 A 
ENDROOT
BRANCH   6   9
HETATM    9  C10 UNL     1      -0.881   0.116  -2.361  1.00  0.00     0.032 C 
HETATM   10  C11 UNL     1      -1.497  -0.686  -3.361  1.00  0.00     0.058 A 
HETATM   11  C12 UNL     1      -2.914  -0.723  -3.561  1.00  0.00     0.037 A 
HETATM   12  C14 UNL     1      -1.067  -1.603  -4.274  1.00  0.00     0.272 A 
HETATM   13  C13 UNL     1      -3.857   0.121  -2.820  1.00  0.00     0.070 C 
HETATM   14  N1  UNL     1      -3.160  -1.616  -4.524  1.00  0.00    -0.301 N 
HETATM   15  N2  UNL     1      -2.041  -2.170  -4.977  1.00  0.00    -0.266 N 
ATOM     16  H1  UNL     1      -4.092  -1.844  -4.869  1.00  0.00     0.186 HD
ATOM     17  H2  UNL     1      -1.950  -2.877  -5.706  1.00  0.00     0.190 HD
HETATM   18  O2  UNL     1       0.158  -1.923  -4.476  1.00  0.00    -0.266 OA
ENDBRANCH   6   9
BRANCH   7  19
HETATM   19  C16 UNL     1      -0.465   2.452  -1.321  1.00  0.00     0.101 C 
BRANCH  19  20
HETATM   20  C17 UNL     1      -0.560   3.864  -1.466  1.00  0.00     0.408 C 
HETATM   21  F1  UNL     1      -1.706   4.166  -2.348  1.00  0.00    -0.167 F 
HETATM   22  F2  UNL     1      -0.930   4.643  -0.382  1.00  0.00    -0.167 F 
HETATM   23  F3  UNL     1       0.455   4.460  -2.223  1.00  0.00    -0.167 F 
ENDBRANCH  19  20
ENDBRANCH   7  19
BRANCH   3  24
HETATM   24  C4  UNL     1       0.242  -2.054   1.814  1.00  0.00     0.042 C 
BRANCH  24  25
HETATM   25  C5  UNL     1       1.627  -2.567   1.943  1.00  0.00     0.030 C 
BRANCH  25  26
HETATM   26  C6  UNL     1       1.820  -3.760   2.809  1.00  0.00     0.164 C 
BRANCH  26  27
HETATM   27  O1  UNL     1       3.191  -4.064   2.823  1.00  0.00    -0.401 OA
ATOM     28  H1  UNL     1       3.314  -4.826   3.376  1.00  0.00     0.209 HD
ENDBRANCH  26  27
ENDBRANCH  25  26
ENDBRANCH  24  25
ENDBRANCH   3  24
BRANCH   8  29
HETATM   29  C19 UNL     1       1.120   2.613   0.892  1.00  0.00     0.045 C 
BRANCH  29  30
HETATM   30  C20 UNL     1       1.948   3.156   1.924  1.00  0.00     0.065 A 
HETATM   31  C21 UNL     1       3.279   3.080   2.262  1.00  0.00     0.138 A 
HETATM   32  N3  UNL     1       3.046   3.917   3.259  1.00  0.00    -0.309 N 
HETATM   33  N4  UNL     1       1.774   3.997   2.947  1.00  0.00    -0.300 N 
ATOM     34  H3  UNL     1       3.627   4.336   3.985  1.00  0.00     0.186 HD
ATOM     35  H4  UNL     1       0.974   4.499   3.331  1.00  0.00     0.187 HD
ENDBRANCH  29  30
ENDBRANCH   8  29
TORSDOF 9
