REMARK  6 active torsions:
REMARK  status: ('A' for Active; 'I' for Inactive)
REMARK    1  A    between atoms: C3_3  and  C4_4 
REMARK    2  A    between atoms: C4_4  and  O1_5 
REMARK    3  A    between atoms: C6_10  and  C7_11 
REMARK    4  A    between atoms: C8_12  and  C9_13 
REMARK    5  A    between atoms: C9_13  and  C10_14 
REMARK    6  A    between atoms: C11_15  and  C12_16 
ROOT
HETATM    1  C7  UNL     1      -0.149  -0.831   0.129  1.00  0.00     0.057 A 
HETATM    2  C8  UNL     1      -1.470  -0.595  -0.082  1.00  0.00    -0.013 A 
HETATM    3  C13 UNL     1      -2.480  -1.611   0.209  1.00  0.00     0.021 A 
HETATM    4  C14 UNL     1      -3.850  -1.626   0.079  1.00  0.00     0.105 A 
HETATM    5  N2  UNL     1      -4.273  -2.842   0.497  1.00  0.00    -0.340 N 
ATOM      6  H2  UNL     1      -5.248  -3.142   0.515  1.00  0.00     0.167 HD
HETATM    7  C15 UNL     1      -3.243  -3.592   0.882  1.00  0.00     0.217 A 
HETATM    8  F1  UNL     1      -3.233  -4.872   1.367  1.00  0.00    -0.184 F 
HETATM    9  C16 UNL     1      -2.104  -2.840   0.710  1.00  0.00     0.116 A 
HETATM   10  N3  UNL     1      -0.748  -3.118   0.942  1.00  0.00    -0.295 N 
ATOM     11  H3  UNL     1      -0.450  -4.020   1.313  1.00  0.00     0.187 HD
HETATM   12  N4  UNL     1       0.200  -2.094   0.641  1.00  0.00    -0.300 N 
ATOM     13  H4  UNL     1       1.187  -2.289   0.807  1.00  0.00     0.187 HD
ENDROOT
BRANCH   1  14
HETATM   14  C6  UNL     1       0.787   0.209  -0.173  1.00  0.00     0.061 C 
HETATM   15  C5  UNL     1       2.101   0.285  -0.116  1.00  0.00     0.045 A 
HETATM   16  N1  UNL     1       3.024  -0.608   0.250  1.00  0.00    -0.353 N 
HETATM   17  C17 UNL     1       2.806   1.457  -0.473  1.00  0.00    -0.007 A 
HETATM   18  C3  UNL     1       4.299  -0.110   0.163  1.00  0.00     0.065 A 
ATOM     19  H1  UNL     1       2.805  -1.555   0.560  1.00  0.00     0.166 HD
HETATM   20  C2  UNL     1       4.146   1.159  -0.283  1.00  0.00    -0.005 A 
HETATM   21  C1  UNL     1       5.106   2.043  -0.524  1.00  0.00     0.026 C 
HETATM   22  C18 UNL     1       2.302   2.594  -0.897  1.00  0.00     0.026 C 
BRANCH  18  23
HETATM   23  C4  UNL     1       5.386  -0.799   0.470  1.00  0.00     0.161 C 
BRANCH  23  24
HETATM   24  O1  UNL     1       6.667  -0.321   0.390  1.00  0.00    -0.370 OA
ATOM     25  H1  UNL     1       7.447  -0.816   0.610  1.00  0.00     0.216 HD
ENDBRANCH  23  24
ENDBRANCH  18  23
ENDBRANCH   1  14
BRANCH   2  26
HETATM   26  C9  UNL     1      -1.868   0.725  -0.620  1.00  0.00     0.068 C 
BRANCH  26  27
HETATM   27  C10 UNL     1      -2.476   1.585   0.405  1.00  0.00    -0.025 C 
HETATM   28  C11 UNL     1      -3.627   2.169   0.399  1.00  0.00    -0.020 C 
BRANCH  28  29
HETATM   29  C12 UNL     1      -4.650   2.139  -0.649  1.00  0.00     0.112 C 
HETATM   30 BR1  UNL     1      -4.993   3.957  -1.265  1.00  0.00    -0.092 Br
ENDBRANCH  28  29
ENDBRANCH  26  27
ENDBRANCH   2  26
TORSDOF 6
