REMARK  4 active torsions:
REMARK  status: ('A' for Active; 'I' for Inactive)
REMARK       I    between atoms: C1_2  and  N1_3 
REMARK       I    between atoms: C1_2  and  N5_16 
REMARK    1  A    between atoms: N5_16  and  C6_18 
REMARK    2  A    between atoms: C6_18  and  C7_19 
REMARK    3  A    between atoms: C6_18  and  C8_21 
REMARK    4  A    between atoms: C8_21  and  C9_22 
ROOT
HETATM    1  O1  UNL     1       0.545   0.324   2.116  1.00  0.00    -0.246 OA
HETATM    2  C1  UNL     1       0.460   0.818   0.942  1.00  0.00     0.334 C 
HETATM    3  N1  UNL     1      -0.613   1.701   0.654  1.00  0.00    -0.141 N 
ATOM      4  H1  UNL     1      -0.492   2.708   0.760  1.00  0.00     0.189 HD
HETATM    5  C2  UNL     1      -1.743   1.220   0.257  1.00  0.00     0.684 C 
HETATM    6  N2  UNL     1      -1.866  -0.200   0.121  1.00  0.00    -0.224 N 
ATOM      7  H2  UNL     1      -1.099  -0.730   0.535  1.00  0.00     0.177 HD
HETATM    8  C3  UNL     1      -2.879  -1.010  -0.495  1.00  0.00     0.157 C 
HETATM    9  C4  UNL     1      -4.281  -0.624  -0.090  1.00  0.00     0.142 C 
HETATM   10  N3  UNL     1      -4.690   0.637  -0.651  1.00  0.00    -0.365 N 
ATOM     11  H3  UNL     1      -5.558   0.608  -1.187  1.00  0.00     0.161 HD
HETATM   12  C5  UNL     1      -4.070   1.925  -0.575  1.00  0.00     0.186 C 
HETATM   13  S1  UNL     1      -4.870   3.210  -1.156  1.00  0.00    -0.040 SA
HETATM   14  N4  UNL     1      -2.778   2.157  -0.015  1.00  0.00    -0.166 N 
ATOM     15  H4  UNL     1      -2.568   3.127   0.222  1.00  0.00     0.186 HD
HETATM   16  N5  UNL     1       1.441   0.465  -0.028  1.00  0.00    -0.337 N 
ATOM     17  H5  UNL     1       1.379   0.856  -0.968  1.00  0.00     0.164 HD
ENDROOT
BRANCH  16  18
HETATM   18  C6  UNL     1       2.526  -0.440   0.297  1.00  0.00     0.096 C 
BRANCH  18  19
HETATM   19  C7  UNL     1       2.453  -1.653  -0.622  1.00  0.00     0.110 C 
HETATM   20 BR1  UNL     1       2.614  -1.095  -2.446  1.00  0.00    -0.094 Br
ENDBRANCH  18  19
BRANCH  18  21
HETATM   21  C8  UNL     1       3.845   0.252   0.046  1.00  0.00     0.037 C 
BRANCH  21  22
HETATM   22  C9  UNL     1       5.008  -0.639   0.367  1.00  0.00     0.087 C 
HETATM   23 BR2  UNL     1       6.688   0.285   0.037  1.00  0.00    -0.096 Br
ENDBRANCH  21  22
ENDBRANCH  18  21
ENDBRANCH  16  18
TORSDOF 4
