REMARK  7 active torsions:
REMARK  status: ('A' for Active; 'I' for Inactive)
REMARK    1  A    between atoms: N1_1  and  N2_4 
REMARK    2  A    between atoms: N2_4  and  N3_6 
REMARK    3  A    between atoms: C1_8  and  O1_9 
REMARK    4  A    between atoms: C1_8  and  C2_11 
REMARK    5  A    between atoms: C3_12  and  C4_13 
REMARK    6  A    between atoms: C4_13  and  O2_14 
REMARK    7  A    between atoms: C4_13  and  C5_16 
ROOT
HETATM    1  C2  UNL     1       0.326   0.875  -0.139  1.00  0.00     0.061 A 
HETATM    2  C3  UNL     1      -0.943   0.388   0.151  1.00  0.00     0.056 A 
HETATM    3  N4  UNL     1      -1.842   1.353  -0.105  1.00  0.00    -0.350 N 
ATOM      4  H4  UNL     1      -2.850   1.264   0.022  1.00  0.00     0.166 HD
HETATM    5  C6  UNL     1      -1.208   2.463  -0.557  1.00  0.00     0.098 A 
HETATM    6 BR2  UNL     1      -1.968   4.131  -1.077  1.00  0.00    -0.030 Br
HETATM    7  C7  UNL     1       0.130   2.185  -0.584  1.00  0.00     0.061 A 
HETATM    8 BR3  UNL     1       1.520   3.391  -1.142  1.00  0.00    -0.047 Br
ENDROOT
BRANCH   1   9
HETATM    9  C1  UNL     1       1.625   0.264  -0.015  1.00  0.00     0.170 C 
HETATM   10  N3  UNL     1       1.725  -0.937   0.439  1.00  0.00    -0.265 N 
ATOM     11  H3  UNL     1       0.859  -1.410   0.695  1.00  0.00     0.190 HD
BRANCH  10  12
HETATM   12  N2  UNL     1       2.895  -1.638   0.609  1.00  0.00    -0.247 N 
ATOM     13  H2  UNL     1       3.014  -2.333   1.346  1.00  0.00     0.207 HD
BRANCH  12  14
HETATM   14  N1  UNL     1       3.896  -1.335  -0.288  1.00  0.00    -0.331 N 
ATOM     15  H12 UNL     1       3.762  -0.638  -1.020  1.00  0.00     0.178 HD
ATOM     16  H11 UNL     1       4.764  -1.855  -0.162  1.00  0.00     0.178 HD
ENDBRANCH  12  14
ENDBRANCH  10  12
BRANCH   9  17
HETATM   17  O1  UNL     1       2.754   0.991  -0.391  1.00  0.00    -0.344 OA
ATOM     18  H1  UNL     1       2.680   1.877  -0.726  1.00  0.00     0.219 HD
ENDBRANCH   9  17
ENDBRANCH   1   9
BRANCH   2  19
HETATM   19  C4  UNL     1      -1.211  -0.980   0.657  1.00  0.00     0.178 C 
BRANCH  19  20
HETATM   20  O2  UNL     1      -0.900  -1.847  -0.440  1.00  0.00    -0.389 OA
ATOM     21  H2  UNL     1      -1.072  -2.723  -0.116  1.00  0.00     0.210 HD
ENDBRANCH  19  20
BRANCH  19  22
HETATM   22  C5  UNL     1      -2.671  -1.262   0.922  1.00  0.00     0.123 C 
HETATM   23 BR1  UNL     1      -3.714  -1.119  -0.673  1.00  0.00    -0.093 Br
ENDBRANCH  19  22
ENDBRANCH   2  19
TORSDOF 7
