REMARK  7 active torsions:
REMARK  status: ('A' for Active; 'I' for Inactive)
REMARK    1  A    between atoms: C2_2  and  C3_3 
REMARK    2  A    between atoms: C4_4  and  C5_5 
REMARK    3  A    between atoms: C5_5  and  C6_8 
REMARK    4  A    between atoms: C7_9  and  C8_10 
REMARK    5  A    between atoms: C8_10  and  C10_18 
REMARK    6  A    between atoms: N1_11  and  N2_13 
REMARK    7  A    between atoms: C12_22  and  N6_23 
ROOT
HETATM    1  C8  UNL     1      -1.319   0.993   0.380  1.00  0.00     0.130 C 
HETATM    2  N1  UNL     1      -2.061  -0.037   0.186  1.00  0.00    -0.288 N 
ATOM      3  H1  UNL     1      -3.028   0.111  -0.102  1.00  0.00     0.188 HD
ENDROOT
BRANCH   1   4
HETATM    4  C7  UNL     1       0.036   0.773   0.784  1.00  0.00    -0.042 C 
HETATM    5  C6  UNL     1       1.181   0.603   1.119  1.00  0.00    -0.062 C 
BRANCH   5   6
HETATM    6  C5  UNL     1       2.615   0.417   1.540  1.00  0.00     0.156 C 
HETATM    7 BR1  UNL     1       3.714   1.483   0.419  1.00  0.00    -0.054 Br
HETATM    8 BR2  UNL     1       2.774   1.230   3.343  1.00  0.00    -0.054 Br
BRANCH   6   9
HETATM    9  C4  UNL     1       2.824  -1.015   1.629  1.00  0.00     0.015 C 
HETATM   10  C3  UNL     1       2.692  -2.029   0.619  1.00  0.00    -0.028 C 
BRANCH  10  11
HETATM   11  C2  UNL     1       3.440  -2.086  -0.656  1.00  0.00     0.022 C 
HETATM   12  C1  UNL     1       3.196  -1.071  -1.699  1.00  0.00     0.009 C 
ENDBRANCH  10  11
ENDBRANCH   6   9
ENDBRANCH   5   6
ENDBRANCH   1   4
BRANCH   1  13
HETATM   13  C10 UNL     1      -1.899   2.308   0.179  1.00  0.00     0.102 A 
HETATM   14  C11 UNL     1      -1.200   3.483   0.357  1.00  0.00     0.139 A 
HETATM   15  N5  UNL     1      -2.018   4.539   0.091  1.00  0.00    -0.200 N 
HETATM   16  C12 UNL     1      -3.204   4.017  -0.245  1.00  0.00     0.676 A 
ATOM     17  H5  UNL     1      -1.776   5.529   0.138  1.00  0.00     0.183 HD
HETATM   18  N7  UNL     1      -3.136   2.661  -0.193  1.00  0.00    -0.188 N 
ATOM     19  H7  UNL     1      -3.900   2.019  -0.402  1.00  0.00     0.184 HD
BRANCH  16  20
HETATM   20  N6  UNL     1      -4.264   4.675  -0.572  1.00  0.00    -0.234 N 
ATOM     21  H62 UNL     1      -4.315   5.693  -0.611  1.00  0.00     0.174 HD
ATOM     22  H61 UNL     1      -5.168   4.277  -0.828  1.00  0.00     0.174 HD
ENDBRANCH  16  20
ENDBRANCH   1  13
BRANCH   2  23
HETATM   23  N2  UNL     1      -1.612  -1.349   0.349  1.00  0.00    -0.275 N 
HETATM   24  C9  UNL     1      -2.394  -2.342   0.122  1.00  0.00     0.215 C 
HETATM   25  N3  UNL     1      -3.733  -2.205  -0.298  1.00  0.00    -0.065 NA
HETATM   26  N4  UNL     1      -1.853  -3.653   0.314  1.00  0.00    -0.065 NA
ATOM     27  H2  UNL     1      -0.653  -1.520   0.651  1.00  0.00     0.189 HD
ENDBRANCH   2  23
TORSDOF 7
