REMARK  3 active torsions:
REMARK  status: ('A' for Active; 'I' for Inactive)
REMARK    1  A    between atoms: C2_2  and  N1_3 
REMARK    2  A    between atoms: C2_2  and  C4_16 
REMARK       I    between atoms: N1_3  and  C3_5 
REMARK       I    between atoms: C3_5  and  N3_9 
REMARK    3  A    between atoms: N3_9  and  N4_11 
ROOT
HETATM    1  C1  UNL     1       1.785  -0.823  -1.879  1.00  0.00     0.034 C 
HETATM    2  C2  UNL     1       0.894   0.096  -1.010  1.00  0.00     0.108 C 
ENDROOT
BRANCH   2   3
HETATM    3  N1  UNL     1       1.456   0.160   0.248  1.00  0.00    -0.220 N 
HETATM    4  C3  UNL     1       2.741   0.832   0.367  1.00  0.00     0.687 C 
HETATM    5  N2  UNL     1       2.890   2.026  -0.098  1.00  0.00    -0.234 N 
HETATM    6  N3  UNL     1       3.845   0.213   0.983  1.00  0.00    -0.119 N 
ATOM      7  H22 UNL     1       2.090   2.475  -0.544  1.00  0.00     0.174 HD
ATOM      8  H21 UNL     1       3.791   2.497  -0.015  1.00  0.00     0.174 HD
ATOM      9  H3  UNL     1       4.022  -0.779   0.825  1.00  0.00     0.207 HD
ATOM     10  H1  UNL     1       0.991  -0.246   1.060  1.00  0.00     0.178 HD
BRANCH   6  11
HETATM   11  N4  UNL     1       4.696   0.944   1.806  1.00  0.00    -0.235 N 
HETATM   12  N5  UNL     1       4.271   1.528   2.866  1.00  0.00    -0.330 N 
ATOM     13  H52 UNL     1       3.281   1.444   3.097  1.00  0.00     0.178 HD
ATOM     14  H51 UNL     1       4.895   2.064   3.469  1.00  0.00     0.178 HD
ATOM     15  H4  UNL     1       5.683   1.017   1.560  1.00  0.00     0.208 HD
ENDBRANCH   6  11
ENDBRANCH   2   3
BRANCH   2  16
HETATM   16  C4  UNL     1      -0.524  -0.437  -1.229  1.00  0.00     0.007 A 
HETATM   17  C5  UNL     1      -0.761  -0.378  -2.656  1.00  0.00     0.043 A 
HETATM   18  C6  UNL     1      -1.775   0.633  -2.396  1.00  0.00    -0.021 A 
HETATM   19  C7  UNL     1      -1.624   0.569  -1.135  1.00  0.00    -0.067 A 
HETATM   20  C8  UNL     1      -1.705   0.673   0.357  1.00  0.00     0.035 C 
HETATM   21  C9  UNL     1      -2.979   1.209   0.914  1.00  0.00     0.067 C 
HETATM   22  C12 UNL     1      -2.085  -0.844   0.464  1.00  0.00     0.010 C 
HETATM   23 BR1  UNL     1      -2.869   3.084   1.274  1.00  0.00    -0.090 Br
HETATM   24  C10 UNL     1      -3.013   0.390   2.222  1.00  0.00     0.032 C 
HETATM   25  C11 UNL     1      -2.445  -0.978   1.836  1.00  0.00     0.064 C 
HETATM   26 BR2  UNL     1      -1.023  -1.396   3.037  1.00  0.00    -0.091 Br
HETATM   27  C13 UNL     1      -0.954  -1.468  -0.241  1.00  0.00     0.023 C 
ENDBRANCH   2  16
TORSDOF 3
