REMARK  3 active torsions:
REMARK  status: ('A' for Active; 'I' for Inactive)
REMARK    1  A    between atoms: C2_2  and  O2_4 
REMARK    2  A    between atoms: O2_4  and  C3_5 
REMARK    3  A    between atoms: C7_11  and  C8_12 
ROOT
HETATM    1  C3  UNL     1       2.343   0.577   0.943  1.00  0.00     0.346 A 
HETATM    2  O3  UNL     1       1.624   0.109   1.987  1.00  0.00    -0.167 OA
HETATM    3  O4  UNL     1       0.353   0.462   1.802  1.00  0.00    -0.229 OA
HETATM    4  C4  UNL     1      -0.197  -0.011   0.638  1.00  0.00     0.173 C 
HETATM    5  C5  UNL     1      -1.484  -0.760   0.865  1.00  0.00     0.029 C 
HETATM    6  C6  UNL     1      -1.724  -0.776   2.375  1.00  0.00     0.014 C 
HETATM    7  C7  UNL     1      -2.688  -0.177   0.227  1.00  0.00     0.093 C 
HETATM    8  C9  UNL     1      -2.530   0.259  -1.185  1.00  0.00     0.017 C 
HETATM    9  C10 UNL     1      -1.115   0.546  -1.595  1.00  0.00     0.013 C 
HETATM   10  C11 UNL     1      -0.374   1.075  -0.426  1.00  0.00    -0.009 C 
HETATM   11  C12 UNL     1      -1.080   2.250   0.212  1.00  0.00     0.018 C 
HETATM   12  C13 UNL     1       1.025   1.590  -0.807  1.00  0.00     0.029 C 
HETATM   13  C14 UNL     1       1.640   0.741  -1.839  1.00  0.00     0.014 C 
HETATM   14  C15 UNL     1       1.710   1.809   0.455  1.00  0.00     0.228 A 
HETATM   15  O7  UNL     1       2.983   1.765   0.817  1.00  0.00    -0.315 OA
ENDROOT
BRANCH   1  16
HETATM   16  O2  UNL     1       2.925  -0.397   0.128  1.00  0.00    -0.254 OA
BRANCH  16  17
HETATM   17  C2  UNL     1       3.836  -1.292   0.680  1.00  0.00     0.259 C 
HETATM   18  C1  UNL     1       4.502  -2.359  -0.116  1.00  0.00     0.126 C 
HETATM   19  O1  UNL     1       4.100  -1.189   1.898  1.00  0.00    -0.266 OA
ENDBRANCH  16  17
ENDBRANCH   1  16
BRANCH   7  20
HETATM   20  C8  UNL     1      -3.753  -1.246   0.239  1.00  0.00     0.177 C 
HETATM   21  O5  UNL     1      -4.846  -1.124   0.804  1.00  0.00    -0.648 OA
HETATM   22  O6  UNL     1      -3.478  -2.432  -0.428  1.00  0.00    -0.648 OA
ENDBRANCH   7  20
TORSDOF 3
