REMARK  4 active torsions:
REMARK  status: ('A' for Active; 'I' for Inactive)
REMARK    1  A    between atoms: C2_2  and  C3_4 
REMARK    2  A    between atoms: C3_4  and  O3_6 
REMARK    3  A    between atoms: O3_6  and  C4_7 
REMARK    4  A    between atoms: C14_19  and  O6_20 
ROOT
HETATM    1  C4  UNL     1       1.344   0.147  -0.010  1.00  0.00     0.139 C 
HETATM    2  C5  UNL     1       0.819   0.705  -1.240  1.00  0.00     0.040 C 
HETATM    3  C6  UNL     1      -0.581   0.724  -1.581  1.00  0.00     0.020 C 
HETATM    4  C7  UNL     1      -0.900  -0.568  -2.380  1.00  0.00     0.010 C 
HETATM    5  C8  UNL     1      -1.613  -1.472  -1.354  1.00  0.00     0.044 C 
HETATM    6  C9  UNL     1      -1.662  -0.707  -0.101  1.00  0.00     0.117 C 
HETATM    7  O4  UNL     1      -2.931  -0.624   0.508  1.00  0.00    -0.340 OA
HETATM    8  C10 UNL     1      -3.192   0.727   0.736  1.00  0.00     0.158 C 
HETATM    9  C11 UNL     1      -3.626   1.048   2.127  1.00  0.00     0.078 C 
HETATM   10  C12 UNL     1      -4.370   1.128  -0.167  1.00  0.00     0.078 C 
HETATM   11  O5  UNL     1      -2.017   1.426   0.340  1.00  0.00    -0.347 OA
HETATM   12  C13 UNL     1      -1.688   0.708  -0.709  1.00  0.00     0.166 C 
HETATM   13  C14 UNL     1      -0.679  -0.931   0.925  1.00  0.00     0.161 C 
HETATM   14  C15 UNL     1       0.762  -1.076   0.577  1.00  0.00     0.043 C 
HETATM   15  C16 UNL     1       1.167  -2.376  -0.037  1.00  0.00     0.015 C 
ENDROOT
BRANCH   1  16
HETATM   16  O3  UNL     1       2.746  -0.124  -0.190  1.00  0.00    -0.309 OA
BRANCH  16  17
HETATM   17  C3  UNL     1       3.742   0.507   0.501  1.00  0.00     0.329 C 
HETATM   18  O2  UNL     1       3.377   1.387   1.353  1.00  0.00    -0.256 OA
BRANCH  17  19
HETATM   19  C2  UNL     1       5.145   0.217   0.302  1.00  0.00     0.220 C 
HETATM   20  C1  UNL     1       6.162   0.940   1.085  1.00  0.00     0.103 C 
HETATM   21  O1  UNL     1       5.497  -0.641  -0.529  1.00  0.00    -0.287 OA
ENDBRANCH  17  19
ENDBRANCH  16  17
ENDBRANCH   1  16
BRANCH  13  22
HETATM   22  O6  UNL     1      -0.700   0.145   1.850  1.00  0.00    -0.392 OA
ATOM     23  H6  UNL     1      -0.051  -0.003   2.528  1.00  0.00     0.210 HD
ENDBRANCH  13  22
TORSDOF 4
