REMARK  7 active torsions:
REMARK  status: ('A' for Active; 'I' for Inactive)
REMARK    1  A    between atoms: O1_2  and  C2_3 
REMARK    2  A    between atoms: C7_8  and  O2_9 
REMARK    3  A    between atoms: O2_9  and  C8_10 
REMARK    4  A    between atoms: C11_14  and  O4_15 
REMARK    5  A    between atoms: O4_15  and  C12_16 
REMARK    6  A    between atoms: C15_20  and  O6_21 
REMARK    7  A    between atoms: O6_21  and  C16_22 
ROOT
HETATM    1  C2  UNL     1      -3.108  -0.505   0.013  1.00  0.00     0.154 C 
HETATM    2  C3  UNL     1      -2.309  -1.537   0.778  1.00  0.00     0.047 C 
HETATM    3  C4  UNL     1      -0.890  -1.562   0.319  1.00  0.00     0.056 C 
HETATM    4  C5  UNL     1      -0.369  -0.170   0.192  1.00  0.00    -0.036 C 
HETATM    5  C6  UNL     1      -1.088   0.926   0.155  1.00  0.00     0.016 C 
HETATM    6  C7  UNL     1      -2.602   0.882   0.235  1.00  0.00     0.184 C 
HETATM    7  C10 UNL     1       1.098  -0.043   0.076  1.00  0.00     0.038 A 
HETATM    8  C11 UNL     1       1.657   0.857  -0.761  1.00  0.00     0.095 A 
HETATM    9  C14 UNL     1       3.061   0.906  -0.811  1.00  0.00     0.075 A 
HETATM   10  C15 UNL     1       3.846   0.076  -0.041  1.00  0.00     0.084 A 
HETATM   11  C18 UNL     1       3.229  -0.838   0.807  1.00  0.00     0.075 A 
HETATM   12  C19 UNL     1       1.874  -0.909   0.876  1.00  0.00     0.086 A 
HETATM   13  O8  UNL     1       1.154  -1.761   1.661  1.00  0.00    -0.339 OA
HETATM   14  C20 UNL     1      -0.026  -2.414   1.215  1.00  0.00     0.068 C 
HETATM   15  C21 UNL     1       0.418  -3.639   0.448  1.00  0.00     0.047 C 
HETATM   16  C22 UNL     1      -0.845  -2.905   2.389  1.00  0.00     0.047 C 
ENDROOT
BRANCH   6  17
HETATM   17  O2  UNL     1      -3.073   1.530   1.369  1.00  0.00    -0.310 OA
BRANCH  17  18
HETATM   18  C8  UNL     1      -3.792   2.701   1.388  1.00  0.00     0.255 C 
HETATM   19  C9  UNL     1      -4.243   3.304   2.639  1.00  0.00     0.126 C 
HETATM   20  O3  UNL     1      -4.055   3.244   0.295  1.00  0.00    -0.266 OA
ENDBRANCH  17  18
ENDBRANCH   6  17
BRANCH   1  21
HETATM   21  O1  UNL     1      -3.088  -0.854  -1.337  1.00  0.00    -0.388 OA
HETATM   22  C1  UNL     1      -4.362  -1.191  -1.797  1.00  0.00     0.202 C 
ENDBRANCH   1  21
BRANCH   8  23
HETATM   23  O4  UNL     1       0.949   1.708  -1.554  1.00  0.00    -0.278 OA
BRANCH  23  24
HETATM   24  C12 UNL     1       1.235   3.056  -1.772  1.00  0.00     0.260 C 
HETATM   25  C13 UNL     1       0.372   3.849  -2.665  1.00  0.00     0.126 C 
HETATM   26  O5  UNL     1       2.213   3.571  -1.209  1.00  0.00    -0.265 OA
ENDBRANCH  23  24
ENDBRANCH   8  23
BRANCH  10  27
HETATM   27  O6  UNL     1       5.219   0.194  -0.154  1.00  0.00    -0.279 OA
BRANCH  27  28
HETATM   28  C16 UNL     1       5.963  -0.534  -1.068  1.00  0.00     0.260 C 
HETATM   29  C17 UNL     1       7.436  -0.351  -1.127  1.00  0.00     0.126 C 
HETATM   30  O7  UNL     1       5.340  -1.321  -1.807  1.00  0.00    -0.265 OA
ENDBRANCH  27  28
ENDBRANCH  10  27
TORSDOF 7
