REMARK  4 active torsions:
REMARK  status: ('A' for Active; 'I' for Inactive)
REMARK    1  A    between atoms: O1_2  and  C2_3 
REMARK    2  A    between atoms: C2_3  and  C3_5 
REMARK    3  A    between atoms: C3_5  and  C6_8 
REMARK    4  A    between atoms: C18_26  and  C19_27 
ROOT
HETATM    1  C6  UNL     1       1.992  -0.381   0.329  1.00  0.00     0.284 C 
HETATM    2  O3  UNL     1       1.467  -1.732   0.517  1.00  0.00    -0.327 OA
HETATM    3  C7  UNL     1       0.138  -1.486   0.415  1.00  0.00     0.300 C 
HETATM    4  O4  UNL     1       0.045  -0.621   1.438  1.00  0.00    -0.347 OA
HETATM    5  C8  UNL     1      -0.787   0.380   1.462  1.00  0.00     0.190 C 
HETATM    6  C9  UNL     1      -0.177   1.742   1.867  1.00  0.00     0.043 C 
HETATM    7  C10 UNL     1       0.849   2.222   0.917  1.00  0.00     0.071 C 
HETATM    8  C11 UNL     1       0.517   1.427  -0.340  1.00  0.00     0.167 C 
HETATM    9  C12 UNL     1       0.925   2.421  -1.468  1.00  0.00     0.079 C 
HETATM   10  O5  UNL     1       1.285   0.406  -0.471  1.00  0.00    -0.324 OA
HETATM   11  O6  UNL     1      -0.880   1.428  -0.470  1.00  0.00    -0.314 OA
HETATM   12  C13 UNL     1      -1.511   0.383   0.176  1.00  0.00     0.230 C 
HETATM   13  O7  UNL     1      -1.571  -0.522  -0.777  1.00  0.00    -0.196 OA
HETATM   14  O8  UNL     1      -1.849  -1.745  -0.738  1.00  0.00    -0.222 OA
HETATM   15  C14 UNL     1      -1.072  -2.240   0.372  1.00  0.00     0.142 C 
HETATM   16  C15 UNL     1      -0.834  -3.689   0.097  1.00  0.00     0.054 C 
HETATM   17  C16 UNL     1      -2.155  -1.981   1.399  1.00  0.00     0.047 C 
HETATM   18  C17 UNL     1      -3.202  -0.998   1.131  1.00  0.00     0.014 C 
HETATM   19  C18 UNL     1      -2.908   0.404   0.601  1.00  0.00     0.057 C 
ENDROOT
BRANCH   1  20
HETATM   20  C3  UNL     1       3.371  -0.682  -0.279  1.00  0.00     0.090 C 
HETATM   21  C4  UNL     1       4.201  -1.548   0.645  1.00  0.00     0.031 C 
HETATM   22  C5  UNL     1       3.184  -1.507  -1.560  1.00  0.00     0.031 C 
BRANCH  20  23
HETATM   23  C2  UNL     1       4.138   0.540  -0.575  1.00  0.00     0.271 C 
HETATM   24  O2  UNL     1       4.419   0.822  -1.774  1.00  0.00    -0.264 OA
BRANCH  23  25
HETATM   25  O1  UNL     1       4.558   1.387   0.439  1.00  0.00    -0.326 OA
HETATM   26  C1  UNL     1       5.302   2.566   0.108  1.00  0.00     0.213 C 
ENDBRANCH  23  25
ENDBRANCH  20  23
ENDBRANCH   1  20
BRANCH  19  27
HETATM   27  C19 UNL     1      -3.934   0.899  -0.351  1.00  0.00    -0.013 C 
HETATM   28  C20 UNL     1      -5.306   0.819   0.337  1.00  0.00     0.010 C 
HETATM   29  C21 UNL     1      -4.073   0.244  -1.663  1.00  0.00     0.010 C 
ENDBRANCH  19  27
TORSDOF 4
