REMARK  4 active torsions:
REMARK  status: ('A' for Active; 'I' for Inactive)
REMARK    1  A    between atoms: C2_2  and  C3_3 
REMARK    2  A    between atoms: C3_3  and  C4_4 
REMARK    3  A    between atoms: C7_7  and  C8_8 
REMARK    4  A    between atoms: C8_8  and  O2_10 
ROOT
HETATM    1  C4  UNL     1      -2.060  -0.700   0.001  1.00  0.00    -0.002 C 
HETATM    2  C5  UNL     1      -3.119  -0.306   0.974  1.00  0.00    -0.018 C 
HETATM    3  C6  UNL     1      -2.796   0.877   1.449  1.00  0.00    -0.004 C 
HETATM    4  C7  UNL     1      -1.521   1.381   0.859  1.00  0.00     0.127 C 
HETATM    5  C10 UNL     1      -1.619   2.020  -0.465  1.00  0.00     0.288 C 
HETATM    6  O3  UNL     1      -2.773   1.851  -1.144  1.00  0.00    -0.359 OA
HETATM    7  C11 UNL     1      -2.962   0.739  -1.886  1.00  0.00     0.176 C 
HETATM    8  C12 UNL     1      -2.670  -0.584  -1.330  1.00  0.00     0.019 C 
HETATM    9  C13 UNL     1      -2.138  -1.479  -2.433  1.00  0.00     0.013 C 
HETATM   10  O4  UNL     1      -0.579   1.519  -1.270  1.00  0.00    -0.297 OA
HETATM   11  C14 UNL     1       0.054   0.510  -0.617  1.00  0.00     0.347 C 
HETATM   12  O5  UNL     1       1.220   1.071  -0.043  1.00  0.00    -0.165 OA
HETATM   13  O6  UNL     1       2.239   1.001  -0.875  1.00  0.00    -0.192 OA
HETATM   14  C15 UNL     1       2.713  -0.328  -0.777  1.00  0.00     0.230 C 
HETATM   15  C16 UNL     1       3.642  -0.687  -1.882  1.00  0.00     0.074 C 
HETATM   16  C17 UNL     1       5.081  -0.811  -1.398  1.00  0.00     0.006 C 
HETATM   17  C18 UNL     1       5.385   0.375  -0.518  1.00  0.00     0.000 C 
HETATM   18  C19 UNL     1       4.603   0.261   0.750  1.00  0.00     0.006 C 
HETATM   19  C20 UNL     1       3.305  -0.477   0.596  1.00  0.00     0.074 C 
HETATM   20  O7  UNL     1       1.571  -1.129  -0.831  1.00  0.00    -0.192 OA
HETATM   21  O8  UNL     1       0.580  -0.503  -1.401  1.00  0.00    -0.165 OA
HETATM   22  C21 UNL     1      -0.911   0.073   0.432  1.00  0.00     0.124 C 
ENDROOT
BRANCH   1  23
HETATM   23  C3  UNL     1      -1.785  -2.161   0.324  1.00  0.00     0.041 C 
BRANCH  23  24
HETATM   24  C2  UNL     1      -2.973  -3.018   0.175  1.00  0.00    -0.036 C 
HETATM   25  C1  UNL     1      -3.482  -3.718   1.181  1.00  0.00     0.007 C 
ENDBRANCH  23  24
ENDBRANCH   1  23
BRANCH   4  26
HETATM   26  C8  UNL     1      -0.854   2.110   1.920  1.00  0.00     0.276 C 
HETATM   27  O1  UNL     1       0.233   1.888   2.483  1.00  0.00    -0.264 OA
BRANCH  26  28
HETATM   28  O2  UNL     1      -1.520   3.254   2.413  1.00  0.00    -0.325 OA
HETATM   29  C9  UNL     1      -0.971   4.043   3.445  1.00  0.00     0.213 C 
ENDBRANCH  26  28
ENDBRANCH   4  26
TORSDOF 4
