REMARK  5 active torsions:
REMARK  status: ('A' for Active; 'I' for Inactive)
REMARK    1  A    between atoms: C2_5  and  N3_6 
REMARK    2  A    between atoms: C5_9  and  N4_10 
REMARK       I    between atoms: N4_10  and  C6_12 
REMARK       I    between atoms: C6_12  and  N5_14 
REMARK    3  A    between atoms: N5_14  and  N6_16 
REMARK       I    between atoms: C7_18  and  N8_20 
REMARK    4  A    between atoms: N8_20  and  N9_22 
REMARK    5  A    between atoms: C8_25  and  N10_26 
ROOT
HETATM    1  N1  UNL     1      -6.588   3.409  -1.482  1.00  0.00    -0.172 NA
HETATM    2  C1  UNL     1      -6.078   2.476  -0.983  1.00  0.00     0.182 C 
HETATM    3  N2  UNL     1      -5.472   1.368  -0.382  1.00  0.00    -0.290 N 
ATOM      4  H2  UNL     1      -6.023   0.601   0.004  1.00  0.00     0.178 HD
HETATM    5  C2  UNL     1      -4.172   1.363  -0.339  1.00  0.00     0.188 C 
ENDROOT
BRANCH   5   6
HETATM    6  N3  UNL     1      -3.463   0.266   0.260  1.00  0.00    -0.374 N 
HETATM    7  C3  UNL     1      -3.224  -0.934  -0.497  1.00  0.00     0.125 C 
HETATM    8  C4  UNL     1      -1.864  -1.551  -0.145  1.00  0.00     0.047 C 
HETATM    9  C5  UNL     1      -1.069  -0.452   0.525  1.00  0.00     0.119 C 
HETATM   10  C8  UNL     1      -1.680  -0.195   1.863  1.00  0.00     0.224 C 
HETATM   11  C9  UNL     1      -3.027   0.462   1.630  1.00  0.00     0.158 C 
BRANCH   9  12
HETATM   12  N4  UNL     1       0.340  -0.751   0.581  1.00  0.00    -0.335 N 
HETATM   13  C6  UNL     1       1.341   0.004  -0.048  1.00  0.00     0.335 C 
HETATM   14  O1  UNL     1       1.026   1.016  -0.715  1.00  0.00    -0.246 OA
HETATM   15  N5  UNL     1       2.691  -0.358   0.059  1.00  0.00    -0.249 N 
ATOM     16  H5  UNL     1       2.947  -1.183   0.602  1.00  0.00     0.192 HD
ATOM     17  H4  UNL     1       0.630  -1.570   1.116  1.00  0.00     0.164 HD
BRANCH  15  18
HETATM   18  N6  UNL     1       3.687   0.385  -0.561  1.00  0.00    -0.268 N 
HETATM   19  C7  UNL     1       4.912  -0.030  -0.656  1.00  0.00     0.221 C 
HETATM   20  N7  UNL     1       5.220  -1.289  -0.099  1.00  0.00    -0.061 NA
HETATM   21  N8  UNL     1       5.925   0.729  -1.289  1.00  0.00    -0.279 N 
ATOM     22  H8  UNL     1       6.625   0.240  -1.847  1.00  0.00     0.189 HD
ATOM     23  H6  UNL     1       3.445   1.293  -0.957  1.00  0.00     0.190 HD
BRANCH  21  24
HETATM   24  N9  UNL     1       6.009   2.133  -1.182  1.00  0.00    -0.343 N 
ATOM     25  H92 UNL     1       5.301   2.606  -0.620  1.00  0.00     0.176 HD
ATOM     26  H91 UNL     1       6.739   2.680  -1.638  1.00  0.00     0.176 HD
ENDBRANCH  21  24
ENDBRANCH  15  18
ENDBRANCH   9  12
BRANCH  10  27
HETATM   27  N10 UNL     1      -1.969  -1.453   2.550  1.00  0.00    -0.071 N 
ATOM     28 3H10 UNL     1      -2.550  -2.069   1.981  1.00  0.00     0.274 HD
ATOM     29 2H10 UNL     1      -1.141  -2.044   2.620  1.00  0.00     0.274 HD
ATOM     30 1H10 UNL     1      -2.386  -1.277   3.464  1.00  0.00     0.274 HD
ENDBRANCH  10  27
ENDBRANCH   5   6
TORSDOF 5
