REMARK  7 active torsions:
REMARK  status: ('A' for Active; 'I' for Inactive)
REMARK    1  A    between atoms: N1_2  and  C2_4 
REMARK    2  A    between atoms: C2_4  and  N2_6 
REMARK    3  A    between atoms: N2_6  and  C3_8 
REMARK    4  A    between atoms: C3_8  and  C4_9 
REMARK       I    between atoms: C4_9  and  N3_11 
REMARK    5  A    between atoms: N3_11  and  N4_12 
REMARK    6  A    between atoms: N4_12  and  C5_14 
REMARK    7  A    between atoms: C6_17  and  N6_18 
ROOT
HETATM    1  N4  UNL     1      -2.423   0.913  -0.181  1.00  0.00    -0.208 N 
ATOM      2  H4  UNL     1      -3.183   1.087   0.477  1.00  0.00     0.204 HD
ENDROOT
BRANCH   1   3
HETATM    3  N3  UNL     1      -1.310   0.215   0.306  1.00  0.00    -0.283 NA
HETATM    4  C4  UNL     1      -0.312  -0.463   0.698  1.00  0.00     0.330 C 
HETATM    5  O1  UNL     1       0.250  -1.541   0.321  1.00  0.00    -0.253 OA
BRANCH   4   6
HETATM    6  C3  UNL     1       0.504   0.064   1.956  1.00  0.00     0.243 C 
BRANCH   6   7
HETATM    7  N2  UNL     1       1.525  -0.812   2.320  1.00  0.00    -0.357 N 
ATOM      8  H2  UNL     1       1.359  -1.283   3.209  1.00  0.00     0.162 HD
BRANCH   7   9
HETATM    9  C2  UNL     1       2.736  -1.178   1.711  1.00  0.00     0.167 C 
HETATM   10  S1  UNL     1       3.194  -0.480   0.279  1.00  0.00    -0.041 SA
BRANCH   9  11
HETATM   11  N1  UNL     1       3.621  -2.096   2.271  1.00  0.00    -0.372 N 
HETATM   12  C1  UNL     1       3.473  -2.796   3.535  1.00  0.00     0.148 C 
ATOM     13  H1  UNL     1       4.465  -2.299   1.735  1.00  0.00     0.161 HD
ENDBRANCH   9  11
ENDBRANCH   7   9
ENDBRANCH   6   7
ENDBRANCH   4   6
ENDBRANCH   1   3
BRANCH   1  14
HETATM   14  C5  UNL     1      -2.570   1.336  -1.327  1.00  0.00     0.193 A 
HETATM   15  N5  UNL     1      -1.671   1.206  -2.339  1.00  0.00    -0.168 N 
HETATM   16  C6  UNL     1      -1.846   1.654  -3.568  1.00  0.00     0.681 A 
ATOM     17  H5  UNL     1      -0.795   0.726  -2.133  1.00  0.00     0.186 HD
HETATM   18  N7  UNL     1      -2.876   2.296  -4.082  1.00  0.00    -0.150 N 
HETATM   19  C7  UNL     1      -4.002   2.639  -3.431  1.00  0.00     0.305 A 
ATOM     20  H7  UNL     1      -2.813   2.557  -5.066  1.00  0.00     0.188 HD
HETATM   21  O2  UNL     1      -4.974   3.258  -3.971  1.00  0.00    -0.259 OA
HETATM   22  S2  UNL     1      -3.997   2.158  -1.798  1.00  0.00     0.010 SA
BRANCH  16  23
HETATM   23  N6  UNL     1      -0.866   1.437  -4.431  1.00  0.00    -0.234 N 
ATOM     24  H62 UNL     1      -0.069   0.940  -4.033  1.00  0.00     0.174 HD
ATOM     25  H61 UNL     1      -1.001   1.783  -5.381  1.00  0.00     0.174 HD
ENDBRANCH  16  23
ENDBRANCH   1  14
TORSDOF 7
