REMARK  7 active torsions:
REMARK  status: ('A' for Active; 'I' for Inactive)
REMARK       I    between atoms: C2_2  and  N1_4 
REMARK    1  A    between atoms: N1_4  and  C3_6 
REMARK    2  A    between atoms: C5_8  and  N2_9 
REMARK    3  A    between atoms: C7_14  and  N3_15 
REMARK    4  A    between atoms: C7_14  and  C8_19 
REMARK    5  A    between atoms: C9_22  and  O4_23 
REMARK    6  A    between atoms: C9_22  and  C10_25 
REMARK    7  A    between atoms: C11_26  and  N4_27 
ROOT
HETATM    1  C3  UNL     1       0.659  -0.661  -0.731  1.00  0.00     0.136 C 
HETATM    2  C4  UNL     1       0.280  -2.085  -0.491  1.00  0.00     0.062 C 
HETATM    3  C5  UNL     1      -0.661  -2.286   0.663  1.00  0.00     0.188 C 
HETATM    4  C6  UNL     1      -1.835  -1.362   0.658  1.00  0.00     0.087 C 
HETATM    5  C7  UNL     1      -1.487   0.073   0.383  1.00  0.00     0.255 C 
HETATM    6  C9  UNL     1      -0.542   0.226  -0.783  1.00  0.00     0.186 C 
ENDROOT
BRANCH   5   7
HETATM    7  N3  UNL     1      -1.020   0.733   1.579  1.00  0.00    -0.056 N 
ATOM      8  H33 UNL     1      -1.693   0.649   2.341  1.00  0.00     0.276 HD
ATOM      9  H32 UNL     1      -0.240   0.232   2.004  1.00  0.00     0.276 HD
ATOM     10  H31 UNL     1      -0.784   1.708   1.392  1.00  0.00     0.276 HD
ENDBRANCH   5   7
BRANCH   5  11
HETATM   11  C8  UNL     1      -2.743   0.751  -0.001  1.00  0.00     0.214 C 
HETATM   12  O2  UNL     1      -3.416   0.418  -1.008  1.00  0.00    -0.646 OA
HETATM   13  O3  UNL     1      -3.206   1.793   0.767  1.00  0.00    -0.646 OA
ENDBRANCH   5  11
BRANCH   6  14
HETATM   14  O4  UNL     1      -1.291  -0.177  -1.898  1.00  0.00    -0.372 OA
ATOM     15  H4  UNL     1      -2.055   0.387  -1.931  1.00  0.00     0.212 HD
ENDBRANCH   6  14
BRANCH   6  16
HETATM   16  C10 UNL     1      -0.205   1.618  -0.964  1.00  0.00    -0.040 C 
HETATM   17  C11 UNL     1       0.061   2.787  -1.127  1.00  0.00     0.006 C 
BRANCH  17  18
HETATM   18  N4  UNL     1       0.356   4.139  -1.337  1.00  0.00    -0.359 N 
ATOM     19  H42 UNL     1      -0.155   3.397  -1.816  1.00  0.00     0.166 HD
ATOM     20  H41 UNL     1       0.580   5.125  -1.474  1.00  0.00     0.166 HD
ENDBRANCH  17  18
ENDBRANCH   6  16
BRANCH   3  21
HETATM   21  N2  UNL     1      -1.172  -3.644   0.553  1.00  0.00    -0.075 N 
ATOM     22  H23 UNL     1      -1.597  -3.842  -0.353  1.00  0.00     0.274 HD
ATOM     23  H22 UNL     1      -0.436  -4.349   0.506  1.00  0.00     0.274 HD
ATOM     24  H21 UNL     1      -1.811  -3.780   1.336  1.00  0.00     0.274 HD
ENDBRANCH   3  21
BRANCH   1  25
HETATM   25  N1  UNL     1       1.724  -0.193   0.120  1.00  0.00    -0.353 N 
HETATM   26  C2  UNL     1       3.000   0.199  -0.260  1.00  0.00     0.214 C 
HETATM   27  C1  UNL     1       4.013   0.663   0.706  1.00  0.00     0.117 C 
HETATM   28  O1  UNL     1       3.333   0.169  -1.465  1.00  0.00    -0.274 OA
ATOM     29  H1  UNL     1       1.516  -0.144   1.117  1.00  0.00     0.163 HD
ENDBRANCH   1  25
TORSDOF 7
