REMARK  3 active torsions:
REMARK  status: ('A' for Active; 'I' for Inactive)
REMARK       I    between atoms: C1_4  and  N2_5 
REMARK       I    between atoms: C1_4  and  N5_21 
REMARK       I    between atoms: N2_5  and  C2_7 
REMARK    1  A    between atoms: C2_7  and  C3_9 
REMARK    2  A    between atoms: C3_9  and  O2_10 
REMARK    3  A    between atoms: C3_9  and  C4_12 
ROOT
HETATM    1  N1  UNL     1       0.439   2.939  -1.519  1.00  0.00    -0.234 N 
ATOM      2  H11 UNL     1       1.233   3.414  -1.949  1.00  0.00     0.174 HD
ATOM      3  H12 UNL     1      -0.524   3.226  -1.693  1.00  0.00     0.174 HD
HETATM    4  C1  UNL     1       0.627   1.941  -0.729  1.00  0.00     0.676 C 
HETATM    5  N2  UNL     1      -0.455   1.294  -0.143  1.00  0.00    -0.158 N 
ATOM      6  H2  UNL     1      -1.380   1.656  -0.376  1.00  0.00     0.187 HD
HETATM    7  C2  UNL     1      -0.417   0.187   0.743  1.00  0.00     0.268 C 
HETATM    8  O1  UNL     1       0.708  -0.281   1.052  1.00  0.00    -0.270 OA
HETATM    9  N5  UNL     1       1.961   1.543  -0.488  1.00  0.00    -0.215 N 
HETATM   10  C7  UNL     1       2.622   2.187   0.657  1.00  0.00     0.168 C 
HETATM   11  C8  UNL     1       3.874   1.497   1.079  1.00  0.00     0.252 C 
HETATM   12  N6  UNL     1       4.657   1.080  -0.089  1.00  0.00    -0.072 N 
ATOM     13  H61 UNL     1       5.615   0.810   0.133  1.00  0.00     0.277 HD
ATOM     14  H62 UNL     1       4.893   1.845  -0.721  1.00  0.00     0.277 HD
HETATM   15  C9  UNL     1       3.876   0.020  -0.714  1.00  0.00     0.252 C 
HETATM   16  C10 UNL     1       2.628   0.583  -1.317  1.00  0.00     0.168 C 
ENDROOT
BRANCH   7  17
HETATM   17  C3  UNL     1      -1.617  -0.457   1.333  1.00  0.00     0.269 C 
BRANCH  17  18
HETATM   18  O2  UNL     1      -1.119  -1.453   2.227  1.00  0.00    -0.382 OA
ATOM     19  H2  UNL     1      -1.887  -1.865   2.605  1.00  0.00     0.210 HD
ENDBRANCH  17  18
BRANCH  17  20
HETATM   20  C4  UNL     1      -2.350  -1.212   0.259  1.00  0.00     0.420 C 
HETATM   21  N3  UNL     1      -2.979  -0.412  -0.742  1.00  0.00    -0.042 N 
HETATM   22  C5  UNL     1      -4.096  -1.177  -1.260  1.00  0.00     0.262 C 
ATOM     23  H32 UNL     1      -3.249   0.512  -0.404  1.00  0.00     0.279 HD
ATOM     24  H31 UNL     1      -2.335  -0.102  -1.470  1.00  0.00     0.279 HD
HETATM   25  C6  UNL     1      -4.170  -2.395  -0.406  1.00  0.00     0.262 C 
HETATM   26  N4  UNL     1      -3.447  -2.031   0.801  1.00  0.00    -0.042 N 
ATOM     27  H42 UNL     1      -3.155  -2.815   1.384  1.00  0.00     0.279 HD
ATOM     28  H41 UNL     1      -4.009  -1.580   1.523  1.00  0.00     0.279 HD
ENDBRANCH  17  20
ENDBRANCH   7  17
TORSDOF 3
