REMARK  4 active torsions:
REMARK  status: ('A' for Active; 'I' for Inactive)
REMARK    1  A    between atoms: C2_2  and  C3_3 
REMARK       I    between atoms: C3_3  and  N1_5 
REMARK    2  A    between atoms: C4_7  and  C5_8 
REMARK    3  A    between atoms: C5_8  and  N2_9 
REMARK    4  A    between atoms: C5_8  and  N3_13 
ROOT
HETATM    1  C3  UNL     1      -0.340   2.613   1.000  1.00  0.00     0.270 C 
HETATM    2  O1  UNL     1      -1.271   3.126   1.736  1.00  0.00    -0.266 OA
HETATM    3  N1  UNL     1      -0.430   1.240   0.750  1.00  0.00    -0.172 N 
HETATM    4  O2  UNL     1      -1.446   0.459   1.253  1.00  0.00    -0.262 OA
HETATM    5  C4  UNL     1      -1.964  -0.042   0.044  1.00  0.00     0.216 C 
HETATM    6  C6  UNL     1      -0.805  -0.300  -0.847  1.00  0.00     0.119 C 
HETATM    7  C7  UNL     1       0.345   0.276   0.016  1.00  0.00     0.226 C 
HETATM    8  N4  UNL     1       1.358   0.764  -0.825  1.00  0.00    -0.376 N 
ATOM      9  H4  UNL     1       1.144   1.424  -1.573  1.00  0.00     0.157 HD
HETATM   10  C8  UNL     1       2.679   0.319  -0.609  1.00  0.00     0.138 C 
HETATM   11  C9  UNL     1       3.015  -1.026  -1.255  1.00  0.00     0.157 C 
HETATM   12  N5  UNL     1       2.418  -2.101  -0.477  1.00  0.00    -0.225 N 
ATOM     13  H5  UNL     1       2.699  -3.052  -0.716  1.00  0.00     0.177 HD
HETATM   14  C10 UNL     1       1.467  -1.954   0.600  1.00  0.00     0.671 C 
HETATM   15  N6  UNL     1       1.301  -2.965   1.359  1.00  0.00    -0.235 N 
ATOM     16  H61 UNL     1       0.629  -2.861   2.120  1.00  0.00     0.174 HD
ATOM     17  H62 UNL     1       1.853  -3.794   1.140  1.00  0.00     0.174 HD
HETATM   18  N7  UNL     1       0.707  -0.813   0.902  1.00  0.00    -0.179 N 
ATOM     19  H7  UNL     1       0.368  -0.741   1.861  1.00  0.00     0.182 HD
ENDROOT
BRANCH   1  20
HETATM   20  C2  UNL     1       0.708   3.513   0.505  1.00  0.00     0.066 C 
HETATM   21  C1  UNL     1       0.661   4.777   0.821  1.00  0.00     0.017 C 
ENDBRANCH   1  20
BRANCH   5  22
HETATM   22  C5  UNL     1      -2.884  -1.194   0.247  1.00  0.00     0.409 C 
BRANCH  22  23
HETATM   23  N2  UNL     1      -2.312  -2.328   0.887  1.00  0.00    -0.048 N 
ATOM     24  H23 UNL     1      -1.479  -2.631   0.382  1.00  0.00     0.276 HD
ATOM     25  H22 UNL     1      -1.894  -2.054   1.776  1.00  0.00     0.276 HD
ATOM     26  H21 UNL     1      -2.943  -3.118   1.026  1.00  0.00     0.276 HD
ENDBRANCH  22  23
BRANCH  22  27
HETATM   27  N3  UNL     1      -3.474  -1.541  -1.025  1.00  0.00    -0.048 N 
ATOM     28  H33 UNL     1      -3.933  -0.748  -1.472  1.00  0.00     0.276 HD
ATOM     29  H32 UNL     1      -2.774  -1.722  -1.745  1.00  0.00     0.276 HD
ATOM     30  H31 UNL     1      -4.105  -2.331  -0.886  1.00  0.00     0.276 HD
ENDBRANCH  22  27
ENDBRANCH   5  22
TORSDOF 4
