REMARK  3 active torsions:
REMARK  status: ('A' for Active; 'I' for Inactive)
REMARK    1  A    between atoms: C2_2  and  N1_3 
REMARK       I    between atoms: N1_3  and  C3_5 
REMARK    2  A    between atoms: C3_5  and  C4_7 
REMARK    3  A    between atoms: C4_7  and  N2_8 
ROOT
HETATM    1  N2  UNL     1       1.517  -0.326  -0.376  1.00  0.00    -0.359 N 
HETATM    2  C5  UNL     1       0.869   0.909  -0.530  1.00  0.00     0.107 C 
HETATM    3  C6  UNL     1       0.220   1.460   0.706  1.00  0.00     0.104 C 
HETATM    4  N3  UNL     1      -1.145   1.781   0.602  1.00  0.00    -0.373 N 
ATOM      5  H3  UNL     1      -1.792   1.510   1.343  1.00  0.00     0.164 HD
HETATM    6  C7  UNL     1      -1.618   2.478  -0.527  1.00  0.00     0.104 C 
HETATM    7  C8  UNL     1      -3.072   2.818  -0.360  1.00  0.00     0.100 C 
HETATM    8  N4  UNL     1      -3.934   1.754  -0.035  1.00  0.00    -0.396 N 
ATOM      9  H4  UNL     1      -4.905   1.927   0.224  1.00  0.00     0.158 HD
HETATM   10  C9  UNL     1      -3.416   0.440  -0.078  1.00  0.00     0.146 C 
HETATM   11  C10 UNL     1      -4.567  -0.523  -0.414  1.00  0.00     0.251 C 
HETATM   12  N5  UNL     1      -4.060  -1.726  -1.034  1.00  0.00    -0.072 N 
ATOM     13  H51 UNL     1      -3.618  -1.517  -1.929  1.00  0.00     0.277 HD
ATOM     14  H52 UNL     1      -4.824  -2.318  -1.360  1.00  0.00     0.277 HD
HETATM   15  C11 UNL     1      -3.161  -2.468  -0.173  1.00  0.00     0.251 C 
HETATM   16  C12 UNL     1      -1.980  -2.882  -1.019  1.00  0.00     0.141 C 
HETATM   17  N6  UNL     1      -0.809  -3.204  -0.268  1.00  0.00    -0.418 N 
ATOM     18  H6  UNL     1      -0.515  -4.167  -0.104  1.00  0.00     0.153 HD
HETATM   19  C13 UNL     1      -0.078  -2.086   0.238  1.00  0.00     0.134 C 
HETATM   20  C14 UNL     1       0.778  -1.473  -0.838  1.00  0.00     0.147 C 
ENDROOT
BRANCH   1  21
HETATM   21  C4  UNL     1       2.439  -0.552   0.637  1.00  0.00     0.164 C 
BRANCH  21  22
HETATM   22  C3  UNL     1       3.758   0.086   0.577  1.00  0.00     0.256 C 
HETATM   23  N1  UNL     1       4.277   0.908  -0.445  1.00  0.00    -0.357 N 
ATOM     24  H1  UNL     1       3.699   1.105  -1.262  1.00  0.00     0.162 HD
HETATM   25  O1  UNL     1       4.524  -0.146   1.589  1.00  0.00    -0.267 OA
BRANCH  23  26
HETATM   26  C2  UNL     1       5.614   1.485  -0.369  1.00  0.00     0.118 C 
HETATM   27  C1  UNL     1       6.691   0.450  -0.275  1.00  0.00     0.026 C 
ENDBRANCH  23  26
ENDBRANCH  21  22
ENDBRANCH   1  21
TORSDOF 3
