REMARK  6 active torsions:
REMARK  status: ('A' for Active; 'I' for Inactive)
REMARK    1  A    between atoms: C3_3  and  C4_4 
REMARK    2  A    between atoms: C4_4  and  C5_5 
REMARK       I    between atoms: C5_5  and  N1_7 
REMARK    3  A    between atoms: N1_7  and  N2_9 
REMARK    4  A    between atoms: C11_18  and  N3_19 
REMARK    5  A    between atoms: N3_19  and  S1_21 
REMARK    6  A    between atoms: S1_21  and  N4_22 
ROOT
HETATM    1  C1  UNL     1      -2.774   3.548   0.738  1.00  0.00     0.112 C 
HETATM    2  C2  UNL     1      -2.080   2.307   0.352  1.00  0.00    -0.109 C 
HETATM    3  C3  UNL     1      -1.531   1.283   0.037  1.00  0.00    -0.072 C 
ENDROOT
BRANCH   3   4
HETATM    4  C4  UNL     1      -0.895   0.047  -0.347  1.00  0.00     0.209 C 
HETATM    5  C6  UNL     1      -1.259  -0.988   0.653  1.00  0.00     0.174 C 
HETATM    6  O2  UNL     1      -2.259  -1.680   0.730  1.00  0.00    -0.294 OA
HETATM    7  C7  UNL     1      -0.132  -1.040   1.599  1.00  0.00     0.035 C 
HETATM    8  C8  UNL     1       0.183  -2.486   1.928  1.00  0.00     0.027 C 
HETATM    9  C9  UNL     1      -0.391  -0.320   2.886  1.00  0.00     0.027 C 
HETATM   10  C10 UNL     1       0.980  -0.499   0.815  1.00  0.00     0.018 C 
HETATM   11  C11 UNL     1       0.580   0.112  -0.276  1.00  0.00     0.056 C 
BRANCH   4  12
HETATM   12  C5  UNL     1      -1.252  -0.367  -1.728  1.00  0.00     0.270 C 
HETATM   13  O1  UNL     1      -2.028   0.375  -2.366  1.00  0.00    -0.269 OA
HETATM   14  N1  UNL     1      -0.757  -1.535  -2.325  1.00  0.00    -0.275 N 
ATOM     15  H1  UNL     1      -0.123  -2.140  -1.803  1.00  0.00     0.189 HD
BRANCH  14  16
HETATM   16  N2  UNL     1      -1.121  -1.874  -3.615  1.00  0.00    -0.343 N 
ATOM     17  H22 UNL     1      -1.756  -1.258  -4.123  1.00  0.00     0.176 HD
ATOM     18  H21 UNL     1      -0.761  -2.724  -4.049  1.00  0.00     0.176 HD
ENDBRANCH  14  16
ENDBRANCH   4  12
BRANCH  11  19
HETATM   19  N3  UNL     1       1.426   0.756  -1.271  1.00  0.00    -0.269 N 
ATOM     20  H3  UNL     1       1.164   0.748  -2.257  1.00  0.00     0.180 HD
BRANCH  19  21
HETATM   21  S1  UNL     1       2.863   1.525  -0.761  1.00  0.00     0.317 S 
HETATM   22  O3  UNL     1       2.700   2.024   0.637  1.00  0.00    -0.183 OA
HETATM   23  O4  UNL     1       3.176   2.636  -1.724  1.00  0.00    -0.183 OA
BRANCH  21  24
HETATM   24  N4  UNL     1       4.175   0.397  -0.793  1.00  0.00    -0.311 N 
ATOM     25  H42 UNL     1       4.087  -0.579  -1.077  1.00  0.00     0.170 HD
ATOM     26  H41 UNL     1       5.033   0.856  -0.488  1.00  0.00     0.170 HD
ENDBRANCH  21  24
ENDBRANCH  19  21
ENDBRANCH  11  19
ENDBRANCH   3   4
TORSDOF 6
