REMARK  4 active torsions:
REMARK  status: ('A' for Active; 'I' for Inactive)
REMARK    1  A    between atoms: C3_3  and  O1_4 
REMARK    2  A    between atoms: C4_6  and  C5_7 
REMARK    3  A    between atoms: C6_12  and  C8_14 
REMARK    4  A    between atoms: C9_17  and  N1_19 
REMARK       I    between atoms: N1_19  and  C11_21 
ROOT
HETATM    1  C1  UNL     1      -1.045  -3.247   0.369  1.00  0.00     0.100 C 
HETATM    2  C2  UNL     1      -0.927  -2.103  -0.049  1.00  0.00    -0.144 C 
HETATM    3  C3  UNL     1      -0.751  -0.755  -0.555  1.00  0.00     0.176 C 
HETATM    4  C4  UNL     1      -2.022   0.005  -0.654  1.00  0.00     0.309 C 
HETATM    5  O4  UNL     1      -1.783   1.402  -0.771  1.00  0.00    -0.219 OA
HETATM    6  O5  UNL     1      -0.577   1.509  -1.281  1.00  0.00    -0.215 OA
HETATM    7  C6  UNL     1       0.313   1.387  -0.179  1.00  0.00     0.208 C 
HETATM    8  C7  UNL     1      -0.247   2.355   0.853  1.00  0.00     0.064 C 
HETATM    9  C9  UNL     1       0.314  -0.019   0.288  1.00  0.00     0.119 C 
HETATM   10  C10 UNL     1      -0.195  -0.030   1.747  1.00  0.00     0.047 C 
ENDROOT
BRANCH   3  11
HETATM   11  O1  UNL     1      -0.284  -0.802  -1.892  1.00  0.00    -0.373 OA
ATOM     12  H1  UNL     1      -0.169   0.081  -2.223  1.00  0.00     0.212 HD
ENDBRANCH   3  11
BRANCH   4  13
HETATM   13  C5  UNL     1      -3.085  -0.269   0.297  1.00  0.00     0.210 C 
HETATM   14  O2  UNL     1      -3.674   0.679   0.883  1.00  0.00    -0.646 OA
HETATM   15  O3  UNL     1      -3.524  -1.534   0.626  1.00  0.00    -0.646 OA
ENDBRANCH   4  13
BRANCH   9  16
HETATM   16  N1  UNL     1       1.579  -0.613   0.305  1.00  0.00    -0.329 N 
HETATM   17  C11 UNL     1       2.548  -0.955  -0.637  1.00  0.00     0.329 C 
HETATM   18  N2  UNL     1       3.810  -1.583  -0.330  1.00  0.00    -0.040 NA
HETATM   19  O8  UNL     1       2.413  -0.749  -1.846  1.00  0.00    -0.251 OA
ATOM     20  H1  UNL     1       1.868  -0.860   1.251  1.00  0.00     0.165 HD
ENDBRANCH   9  16
BRANCH   7  21
HETATM   21  C8  UNL     1       1.582   1.966  -0.631  1.00  0.00     0.215 C 
HETATM   22  O6  UNL     1       2.602   2.006   0.116  1.00  0.00    -0.646 OA
HETATM   23  O7  UNL     1       1.779   2.523  -1.913  1.00  0.00    -0.646 OA
ENDBRANCH   7  21
TORSDOF 4
