REMARK  9 active torsions:
REMARK  status: ('A' for Active; 'I' for Inactive)
REMARK    1  A    between atoms: C2_2  and  O1_3 
REMARK    2  A    between atoms: O1_3  and  C3_4 
REMARK       I    between atoms: C3_4  and  N1_6 
REMARK    3  A    between atoms: N1_6  and  N2_7 
REMARK    4  A    between atoms: N2_7  and  C4_9 
REMARK    5  A    between atoms: C4_9  and  N3_11 
REMARK    6  A    between atoms: N3_11  and  N4_13 
REMARK    7  A    between atoms: N4_13  and  C5_15 
REMARK    8  A    between atoms: C5_15  and  C6_16 
REMARK    9  A    between atoms: C6_16  and  C7_17 
ROOT
HETATM    1  C5  UNL     1      -2.829  -1.145   0.953  1.00  0.00     0.113 C 
HETATM    2  N6  UNL     1      -2.357  -1.305   2.121  1.00  0.00    -0.281 N 
ATOM      3  H6  UNL     1      -1.420  -1.707   2.162  1.00  0.00     0.179 HD
HETATM    4  C8  UNL     1      -2.929  -1.013   3.346  1.00  0.00     0.183 C 
HETATM    5  N7  UNL     1      -3.436  -0.782   4.374  1.00  0.00    -0.172 NA
ENDROOT
BRANCH   1   6
HETATM    6  N4  UNL     1      -1.956  -1.555  -0.134  1.00  0.00    -0.286 N 
ATOM      7  H4  UNL     1      -1.551  -2.489  -0.195  1.00  0.00     0.188 HD
BRANCH   6   8
HETATM    8  N3  UNL     1      -1.719  -0.571  -1.081  1.00  0.00    -0.273 N 
ATOM      9  H3  UNL     1      -2.500  -0.207  -1.627  1.00  0.00     0.189 HD
BRANCH   8  10
HETATM   10  C4  UNL     1      -0.434  -0.066  -1.306  1.00  0.00     0.216 C 
HETATM   11  S1  UNL     1      -0.260   1.187  -2.378  1.00  0.00    -0.037 SA
BRANCH  10  12
HETATM   12  N2  UNL     1       0.731  -0.552  -0.619  1.00  0.00    -0.202 N 
ATOM     13  H2  UNL     1       0.585  -1.301   0.057  1.00  0.00     0.204 HD
BRANCH  12  14
HETATM   14  N1  UNL     1       1.949  -0.134  -0.772  1.00  0.00    -0.256 NA
HETATM   15  C3  UNL     1       3.224   0.318  -0.934  1.00  0.00     0.458 C 
HETATM   16  O2  UNL     1       3.670   1.479  -1.130  1.00  0.00    -0.219 OA
BRANCH  15  17
HETATM   17  O1  UNL     1       4.244  -0.722  -0.871  1.00  0.00    -0.292 OA
BRANCH  17  18
HETATM   18  C2  UNL     1       5.602  -0.323  -1.030  1.00  0.00     0.177 C 
HETATM   19  C1  UNL     1       5.943   0.700   0.046  1.00  0.00     0.034 C 
ENDBRANCH  17  18
ENDBRANCH  15  17
ENDBRANCH  12  14
ENDBRANCH  10  12
ENDBRANCH   8  10
ENDBRANCH   6   8
ENDBRANCH   1   6
BRANCH   1  20
HETATM   20  C6  UNL     1      -4.146  -0.547   0.640  1.00  0.00     0.177 C 
BRANCH  20  21
HETATM   21  C7  UNL     1      -4.107   0.936   0.553  1.00  0.00     0.238 C 
HETATM   22  N5  UNL     1      -5.269   1.586   0.067  1.00  0.00    -0.062 NA
HETATM   23  O3  UNL     1      -3.063   1.560   0.910  1.00  0.00    -0.276 OA
ENDBRANCH  20  21
ENDBRANCH   1  20
TORSDOF 9
