REMARK  6 active torsions:
REMARK  status: ('A' for Active; 'I' for Inactive)
REMARK    1  A    between atoms: C4_5  and  N1_6 
REMARK    2  A    between atoms: N1_6  and  C5_8 
REMARK    3  A    between atoms: C5_8  and  N2_10 
REMARK    4  A    between atoms: N2_10  and  C6_12 
REMARK    5  A    between atoms: C6_12  and  C7_13 
REMARK    6  A    between atoms: N3_15  and  N4_17 
REMARK       I    between atoms: N4_17  and  C8_19 
ROOT
HETATM    1  N2  UNL     1      -0.776   0.153  -2.298  1.00  0.00    -0.316 N 
ATOM      2  H2  UNL     1      -0.824   0.478  -3.264  1.00  0.00     0.170 HD
ENDROOT
BRANCH   1   3
HETATM    3  C5  UNL     1       0.450   0.107  -1.627  1.00  0.00     0.174 C 
HETATM    4  S1  UNL     1       1.796   0.576  -2.404  1.00  0.00    -0.041 SA
BRANCH   3   5
HETATM    5  N1  UNL     1       0.533  -0.336  -0.304  1.00  0.00    -0.351 N 
ATOM      6  H1  UNL     1      -0.336  -0.622   0.148  1.00  0.00     0.163 HD
BRANCH   5   7
HETATM    7  C4  UNL     1       1.737  -0.422   0.473  1.00  0.00     0.103 A 
HETATM    8  C3  UNL     1       2.816  -1.315  -0.031  1.00  0.00     0.204 C 
HETATM    9  O1  UNL     1       3.922  -0.505  -0.336  1.00  0.00    -0.381 OA
HETATM   10  C2  UNL     1       3.899   0.533   0.584  1.00  0.00     0.149 C 
HETATM   11  C1  UNL     1       4.540   0.070   1.869  1.00  0.00     0.042 C 
HETATM   12  C10 UNL     1       2.437   0.870   0.771  1.00  0.00     0.182 A 
HETATM   13  O3  UNL     1       2.080   0.737   2.098  1.00  0.00    -0.378 OA
HETATM   14  C9  UNL     1       1.434  -0.465   1.949  1.00  0.00     0.204 A 
ENDBRANCH   5   7
ENDBRANCH   3   5
ENDBRANCH   1   3
BRANCH   1  15
HETATM   15  C6  UNL     1      -1.952  -0.257  -1.620  1.00  0.00     0.160 C 
HETATM   16  N3  UNL     1      -2.505   0.560  -0.801  1.00  0.00    -0.281 N 
ATOM     17  H3  UNL     1      -2.061   1.471  -0.683  1.00  0.00     0.188 HD
BRANCH  15  18
HETATM   18  C7  UNL     1      -2.532  -1.563  -1.835  1.00  0.00     0.308 C 
HETATM   19  O2  UNL     1      -3.569  -1.880  -1.215  1.00  0.00    -0.298 OA
ENDBRANCH  15  18
BRANCH  16  20
HETATM   20  N4  UNL     1      -3.648   0.316  -0.065  1.00  0.00    -0.272 N 
HETATM   21  C8  UNL     1      -4.831   1.043  -0.408  1.00  0.00     0.200 C 
HETATM   22  N5  UNL     1      -5.199   1.249  -1.607  1.00  0.00    -0.372 N 
HETATM   23  N6  UNL     1      -5.646   1.568   0.648  1.00  0.00    -0.062 NA
ATOM     24  H52 UNL     1      -4.619   0.875  -2.358  1.00  0.00     0.158 HD
ATOM     25  H51 UNL     1      -6.043   1.767  -1.852  1.00  0.00     0.158 HD
ATOM     26  H4  UNL     1      -3.648  -0.361   0.698  1.00  0.00     0.189 HD
ENDBRANCH  16  20
ENDBRANCH   1  15
TORSDOF 6
