REMARK  3 active torsions:
REMARK  status: ('A' for Active; 'I' for Inactive)
REMARK    1  A    between atoms: C3_4  and  C4_5 
REMARK    2  A    between atoms: C4_5  and  N1_6 
REMARK    3  A    between atoms: N1_6  and  C5_9 
ROOT
HETATM    1  N1  UNL     1       0.413   0.282  -0.372  1.00  0.00    -0.067 N 
ATOM      2  H11 UNL     1      -0.043   1.051  -0.863  1.00  0.00     0.277 HD
ATOM      3  H12 UNL     1       0.512  -0.382  -1.140  1.00  0.00     0.277 HD
ENDROOT
BRANCH   1   4
HETATM    4  C4  UNL     1      -0.456  -0.250   0.638  1.00  0.00     0.264 C 
BRANCH   4   5
HETATM    5  C3  UNL     1      -1.750  -0.632  -0.002  1.00  0.00     0.147 C 
HETATM    6  O1  UNL     1      -2.639  -1.158   0.919  1.00  0.00    -0.384 OA
HETATM    7  C2  UNL     1      -3.889  -0.645   0.668  1.00  0.00     0.168 C 
HETATM    8  C1  UNL     1      -3.872   0.013  -0.695  1.00  0.00     0.029 C 
HETATM    9  C9  UNL     1      -2.417   0.497  -0.737  1.00  0.00     0.036 C 
ENDBRANCH   4   5
ENDBRANCH   1   4
BRANCH   1  10
HETATM   10  C5  UNL     1       1.697   0.687   0.104  1.00  0.00     0.213 C 
HETATM   11  C6  UNL     1       2.770   0.581  -0.987  1.00  0.00     0.062 C 
HETATM   12  C7  UNL     1       3.988   0.002  -0.294  1.00  0.00     0.234 C 
HETATM   13  N2  UNL     1       3.666   0.087   1.129  1.00  0.00    -0.073 N 
HETATM   14  C8  UNL     1       2.265  -0.309   1.120  1.00  0.00     0.265 C 
ATOM     15  H22 UNL     1       4.270  -0.453   1.748  1.00  0.00     0.277 HD
ATOM     16  H21 UNL     1       3.865   0.984   1.571  1.00  0.00     0.277 HD
ENDBRANCH   1  10
TORSDOF 3
