REMARK  4 active torsions:
REMARK  status: ('A' for Active; 'I' for Inactive)
REMARK    1  A    between atoms: N3_8  and  C4_10 
REMARK    2  A    between atoms: C4_10  and  C5_11 
REMARK    3  A    between atoms: C5_11  and  C6_12 
REMARK    4  A    between atoms: C6_12  and  N4_13 
ROOT
HETATM    1  C1  UNL     1      -4.408  -0.650   0.197  1.00  0.00     0.070 C 
HETATM    2  C2  UNL     1      -2.913  -0.670   0.106  1.00  0.00     0.031 A 
HETATM    3  N1  UNL     1      -2.188  -1.727   0.505  1.00  0.00    -0.303 N 
ATOM      4  H1  UNL     1      -2.562  -2.592   0.895  1.00  0.00     0.186 HD
HETATM    5  N2  UNL     1      -0.912  -1.460   0.308  1.00  0.00    -0.285 N 
ATOM      6  H2  UNL     1      -0.138  -2.088   0.523  1.00  0.00     0.188 HD
HETATM    7  C3  UNL     1      -0.793  -0.243  -0.215  1.00  0.00     0.123 A 
HETATM    8  N3  UNL     1       0.347   0.320  -0.528  1.00  0.00    -0.375 N 
ATOM      9  H3  UNL     1       0.333   1.260  -0.924  1.00  0.00     0.161 HD
HETATM   10  C7  UNL     1      -2.055   0.276  -0.350  1.00  0.00     0.007 A 
HETATM   11  C8  UNL     1      -2.425   1.597  -0.884  1.00  0.00     0.054 C 
ENDROOT
BRANCH   8  12
HETATM   12  C4  UNL     1       1.605  -0.319  -0.341  1.00  0.00     0.123 C 
BRANCH  12  13
HETATM   13  C5  UNL     1       2.718   0.648   0.005  1.00  0.00     0.047 C 
BRANCH  13  14
HETATM   14  C6  UNL     1       4.032  -0.053   0.195  1.00  0.00     0.231 C 
BRANCH  14  15
HETATM   15  N4  UNL     1       5.037   0.941   0.522  1.00  0.00    -0.079 N 
ATOM     16  H43 UNL     1       5.088   1.690  -0.169  1.00  0.00     0.274 HD
ATOM     17  H42 UNL     1       4.777   1.512   1.326  1.00  0.00     0.274 HD
ATOM     18  H41 UNL     1       5.930   0.465   0.651  1.00  0.00     0.274 HD
ENDBRANCH  14  15
ENDBRANCH  13  14
ENDBRANCH  12  13
ENDBRANCH   8  12
TORSDOF 4
