REMARK  5 active torsions:
REMARK  status: ('A' for Active; 'I' for Inactive)
REMARK    1  A    between atoms: N1_1  and  C1_5 
REMARK    2  A    between atoms: C1_5  and  C2_6 
REMARK    3  A    between atoms: C2_6  and  C3_7 
REMARK    4  A    between atoms: C3_7  and  N2_8 
REMARK    5  A    between atoms: N2_8  and  C4_10 
ROOT
HETATM    1  N2  UNL     1      -0.595  -0.381  -0.515  1.00  0.00    -0.376 N 
ATOM      2  H2  UNL     1      -0.873  -1.359  -0.591  1.00  0.00     0.161 HD
ENDROOT
BRANCH   1   3
HETATM    3  C3  UNL     1      -1.567   0.623  -0.794  1.00  0.00     0.123 C 
BRANCH   3   4
HETATM    4  C2  UNL     1      -2.208   1.037   0.534  1.00  0.00     0.047 C 
BRANCH   4   5
HETATM    5  C1  UNL     1      -2.848  -0.198   1.126  1.00  0.00     0.231 C 
BRANCH   5   6
HETATM    6  N1  UNL     1      -3.842  -0.673   0.183  1.00  0.00    -0.079 N 
ATOM      7  H13 UNL     1      -4.522   0.043  -0.071  1.00  0.00     0.274 HD
ATOM      8  H12 UNL     1      -3.460  -0.832  -0.749  1.00  0.00     0.274 HD
ATOM      9  H11 UNL     1      -4.274  -1.506   0.582  1.00  0.00     0.274 HD
ENDBRANCH   5   6
ENDBRANCH   4   5
ENDBRANCH   3   4
ENDBRANCH   1   3
BRANCH   1  10
HETATM   10  C4  UNL     1       0.619  -0.114  -0.171  1.00  0.00     0.102 A 
HETATM   11  C5  UNL     1       1.501  -1.154   0.083  1.00  0.00     0.074 A 
HETATM   12  C6  UNL     1       2.812  -0.903   0.454  1.00  0.00     0.051 A 
HETATM   13  N3  UNL     1       3.698  -1.977   0.709  1.00  0.00    -0.102 NA
HETATM   14  C7  UNL     1       3.270   0.391   0.580  1.00  0.00     0.043 A 
HETATM   15  C8  UNL     1       2.379   1.409   0.323  1.00  0.00     0.091 A 
HETATM   16  N4  UNL     1       1.099   1.133  -0.039  1.00  0.00    -0.352 N 
ATOM     17  H4  UNL     1       0.469   1.915  -0.220  1.00  0.00     0.166 HD
ENDBRANCH   1  10
TORSDOF 5
