REMARK  0 active torsions:
REMARK  status: ('A' for Active; 'I' for Inactive)
ROOT
HETATM    1  C1  UNL     1       1.898   0.982  -0.681  1.00  0.00     0.046 C 
HETATM    2  C2  UNL     1       0.780   0.342  -0.408  1.00  0.00     0.037 C 
HETATM    3  C3  UNL     1       0.063   0.390   0.876  1.00  0.00     0.066 C 
HETATM    4  C4  UNL     1      -1.324  -0.128   0.480  1.00  0.00     0.033 C 
HETATM    5  C5  UNL     1      -0.933  -1.186  -0.526  1.00  0.00     0.175 C 
HETATM    6  O1  UNL     1       0.079  -0.484  -1.265  1.00  0.00    -0.356 OA
ENDROOT
TORSDOF 0
