REMARK  0 active torsions:
REMARK  status: ('A' for Active; 'I' for Inactive)
ROOT
HETATM    1  C1  UNL     1      -1.466   1.469  -0.143  1.00  0.00     0.014 C 
HETATM    2  C2  UNL     1      -0.792   0.367   0.124  1.00  0.00    -0.085 C 
HETATM    3  C3  UNL     1      -1.193  -1.058   0.176  1.00  0.00     0.034 C 
HETATM    4  C4  UNL     1       0.261  -1.388  -0.188  1.00  0.00     0.013 C 
HETATM    5  C5  UNL     1       0.577  -0.042   0.481  1.00  0.00     0.010 C 
HETATM    6  C6  UNL     1       1.687   0.699  -0.201  1.00  0.00     0.015 C 
ENDROOT
TORSDOF 0
