REMARK  0 active torsions:
REMARK  status: ('A' for Active; 'I' for Inactive)
ROOT
HETATM    1  C1  UNL     1       1.476  -0.244   0.464  1.00  0.00     0.015 C 
HETATM    2  C2  UNL     1       0.334  -0.213  -0.539  1.00  0.00    -0.040 A 
HETATM    3  C3  UNL     1      -0.759  -1.138  -0.081  1.00  0.00     0.010 C 
HETATM    4  C4  UNL     1      -0.963  -0.014   0.955  1.00  0.00     0.006 C 
HETATM    5  C5  UNL     1      -0.841   0.816  -0.274  1.00  0.00    -0.006 A 
HETATM    6  C6  UNL     1       0.239   1.073  -1.156  1.00  0.00     0.015 A 
ENDROOT
TORSDOF 0
