REMARK  0 active torsions:
REMARK  status: ('A' for Active; 'I' for Inactive)
ROOT
HETATM    1  C1  UNL     1       1.211  -0.487  -0.288  1.00  0.00     0.005 C 
HETATM    2  C2  UNL     1       0.843   1.010  -0.241  1.00  0.00     0.005 C 
HETATM    3  C3  UNL     1      -0.621   0.879   0.066  1.00  0.00    -0.014 C 
HETATM    4  C4  UNL     1      -0.580  -0.132   1.223  1.00  0.00     0.009 C 
HETATM    5  C5  UNL     1      -0.103  -1.066   0.135  1.00  0.00    -0.014 C 
HETATM    6  C6  UNL     1      -1.053  -0.280  -0.782  1.00  0.00     0.009 C 
ENDROOT
TORSDOF 0
