REMARK  0 active torsions:
REMARK  status: ('A' for Active; 'I' for Inactive)
ROOT
HETATM    1  C1  UNL     1      -0.957  -1.008  -0.323  1.00  0.00     0.005 C 
HETATM    2  C2  UNL     1      -1.439   0.404  -0.513  1.00  0.00     0.006 C 
HETATM    3  C3  UNL     1      -0.303   1.290  -0.051  1.00  0.00    -0.005 A 
HETATM    4  C4  UNL     1       1.102   0.867  -0.163  1.00  0.00    -0.005 A 
HETATM    5  C5  UNL     1       1.472  -0.586  -0.285  1.00  0.00     0.010 C 
HETATM    6  C6  UNL     1       0.245  -0.901   0.582  1.00  0.00    -0.009 C 
HETATM    7  C7  UNL     1       0.289   0.522   1.030  1.00  0.00    -0.001 A 
ENDROOT
TORSDOF 0
