REMARK  1 active torsions:
REMARK  status: ('A' for Active; 'I' for Inactive)
REMARK    1  A    between atoms: C5_5  and  N1_6 
ROOT
HETATM    1  C1  UNL     1       1.851   0.285  -0.328  1.00  0.00     0.012 C 
HETATM    2  C2  UNL     1       0.519  -0.068   0.276  1.00  0.00     0.012 C 
HETATM    3  C3  UNL     1       0.031  -1.445  -0.201  1.00  0.00     0.008 C 
HETATM    4  C4  UNL     1      -1.375  -0.833  -0.169  1.00  0.00     0.033 C 
HETATM    5  C5  UNL     1      -0.679   0.490  -0.484  1.00  0.00     0.187 C 
ENDROOT
BRANCH   5   6
HETATM    6  N1  UNL     1      -1.278   1.653   0.057  1.00  0.00    -0.075 N 
ATOM      7  H13 UNL     1      -1.534   1.488   1.030  1.00  0.00     0.274 HD
ATOM      8  H12 UNL     1      -0.573   2.382   0.172  1.00  0.00     0.274 HD
ATOM      9  H11 UNL     1      -2.080   2.026  -0.451  1.00  0.00     0.274 HD
ENDBRANCH   5   6
TORSDOF 1
