REMARK  2 active torsions:
REMARK  status: ('A' for Active; 'I' for Inactive)
REMARK    1  A    between atoms: N1_1  and  C1_5 
REMARK    2  A    between atoms: C4_8  and  C5_9 
ROOT
HETATM    1  C1  UNL     1      -2.228  -0.283  -0.420  1.00  0.00     0.183 C 
HETATM    2  C2  UNL     1      -1.216   0.705  -0.992  1.00  0.00     0.033 C 
HETATM    3  C3  UNL     1      -0.262   1.084   0.101  1.00  0.00     0.007 C 
HETATM    4  C4  UNL     1       0.657  -0.069   0.395  1.00  0.00    -0.010 C 
HETATM    5  C8  UNL     1      -0.127  -1.366   0.155  1.00  0.00     0.007 C 
HETATM    6  C9  UNL     1      -1.531  -1.099   0.661  1.00  0.00     0.033 C 
ENDROOT
BRANCH   1   7
HETATM    7  N1  UNL     1      -3.331   0.471   0.101  1.00  0.00    -0.075 N 
ATOM      8  H13 UNL     1      -3.043   1.178   0.777  1.00  0.00     0.274 HD
ATOM      9  H12 UNL     1      -3.740   1.102  -0.588  1.00  0.00     0.274 HD
ATOM     10  H11 UNL     1      -4.008  -0.190   0.483  1.00  0.00     0.274 HD
ENDBRANCH   1   7
BRANCH   4  11
HETATM   11  C5  UNL     1       1.902  -0.089  -0.399  1.00  0.00    -0.010 A 
HETATM   12  C6  UNL     1       2.913   0.964  -0.398  1.00  0.00     0.005 A 
HETATM   13  C7  UNL     1       3.178  -0.269   0.420  1.00  0.00     0.005 A 
ENDBRANCH   4  11
TORSDOF 2
