REMARK  2 active torsions:
REMARK  status: ('A' for Active; 'I' for Inactive)
REMARK    1  A    between atoms: C2_2  and  C3_3 
REMARK    2  A    between atoms: C3_3  and  C4_5 
ROOT
HETATM    1  C4  UNL     1       0.418  -0.261  -0.383  1.00  0.00     0.004 C 
HETATM    2  C5  UNL     1       1.399   0.887  -0.524  1.00  0.00     0.006 C 
HETATM    3  C6  UNL     1       2.468  -0.152  -0.213  1.00  0.00     0.001 C 
HETATM    4  C7  UNL     1       1.393  -0.804   0.664  1.00  0.00     0.006 C 
ENDROOT
BRANCH   1   5
HETATM    5  C3  UNL     1      -0.889   0.219   0.149  1.00  0.00     0.084 C 
HETATM    6  S1  UNL     1      -0.723   1.121   1.697  1.00  0.00    -0.088 SA
BRANCH   5   7
HETATM    7  C2  UNL     1      -1.903  -0.826   0.319  1.00  0.00    -0.021 C 
HETATM    8  C1  UNL     1      -3.170  -0.453   0.521  1.00  0.00     0.008 C 
ENDBRANCH   5   7
ENDBRANCH   1   5
TORSDOF 2
