REMARK  1 active torsions:
REMARK  status: ('A' for Active; 'I' for Inactive)
REMARK    1  A    between atoms: N1_2  and  C2_5 
ROOT
HETATM    1  C2  UNL     1       0.792  -0.287  -0.263  1.00  0.00     0.194 C 
HETATM    2  C3  UNL     1       0.432   1.057  -0.894  1.00  0.00     0.038 C 
HETATM    3  C4  UNL     1      -1.060   1.051  -1.087  1.00  0.00    -0.012 C 
HETATM    4  C5  UNL     1      -1.689   1.377   0.246  1.00  0.00     0.005 C 
HETATM    5  C6  UNL     1      -1.268   0.174   1.084  1.00  0.00     0.011 C 
HETATM    6  C7  UNL     1      -0.570  -0.780   0.154  1.00  0.00    -0.015 C 
HETATM    7  C8  UNL     1      -0.639  -2.199   0.533  1.00  0.00     0.017 C 
HETATM    8  C9  UNL     1      -1.331  -0.461  -1.150  1.00  0.00     0.016 C 
ENDROOT
BRANCH   1   9
HETATM    9  N1  UNL     1       1.721  -0.170   0.806  1.00  0.00    -0.074 N 
HETATM   10  C1  UNL     1       2.959   0.363   0.341  1.00  0.00     0.267 C 
ATOM     11  H12 UNL     1       1.850  -1.057   1.293  1.00  0.00     0.277 HD
ATOM     12  H11 UNL     1       1.341   0.376   1.579  1.00  0.00     0.277 HD
ENDBRANCH   1   9
TORSDOF 1
