REMARK  2 active torsions:
REMARK  status: ('A' for Active; 'I' for Inactive)
REMARK    1  A    between atoms: C2_2  and  C3_3 
REMARK    2  A    between atoms: N1_4  and  C4_6 
ROOT
HETATM    1  C4  UNL     1      -0.279  -0.323   0.708  1.00  0.00     0.081 C 
HETATM    2  C5  UNL     1      -0.630   1.133   0.580  1.00  0.00     0.025 C 
HETATM    3  C6  UNL     1      -2.048   1.279   0.072  1.00  0.00     0.002 C 
HETATM    4  C7  UNL     1      -2.129   0.567  -1.252  1.00  0.00     0.000 C 
HETATM    5  C8  UNL     1      -2.029  -0.920  -0.981  1.00  0.00     0.002 C 
HETATM    6  C9  UNL     1      -1.396  -1.239   0.333  1.00  0.00     0.025 C 
ENDROOT
BRANCH   1   7
HETATM    7  N1  UNL     1       0.928  -0.569  -0.041  1.00  0.00    -0.394 N 
HETATM    8  C3  UNL     1       2.097  -0.220   0.394  1.00  0.00     0.082 C 
ATOM      9  H1  UNL     1       0.859  -1.035  -0.946  1.00  0.00     0.159 HD
BRANCH   8  10
HETATM   10  C2  UNL     1       3.317  -0.465  -0.355  1.00  0.00     0.006 C 
HETATM   11  C1  UNL     1       4.494  -0.103   0.105  1.00  0.00     0.012 C 
ENDBRANCH   8  10
ENDBRANCH   1   7
TORSDOF 2
