REMARK  1 active torsions:
REMARK  status: ('A' for Active; 'I' for Inactive)
REMARK    1  A    between atoms: N1_1  and  C1_5 
ROOT
HETATM    1  C1  UNL     1      -1.059   0.568   0.427  1.00  0.00     0.188 C 
HETATM    2  C2  UNL     1      -0.474  -0.615   1.213  1.00  0.00     0.039 C 
HETATM    3  C3  UNL     1       0.671  -1.070   0.350  1.00  0.00     0.006 C 
HETATM    4  C4  UNL     1       0.093  -0.812  -1.052  1.00  0.00     0.013 C 
HETATM    5  C5  UNL     1      -0.213   0.676  -0.808  1.00  0.00     0.018 C 
HETATM    6  C6  UNL     1       1.152   1.155  -0.395  1.00  0.00     0.027 C 
HETATM    7  C7  UNL     1       1.754  -0.024   0.385  1.00  0.00     0.087 C 
HETATM    8 CL1  UNL     1       3.167  -0.689  -0.464  1.00  0.00    -0.125 Cl
ENDROOT
BRANCH   1   9
HETATM    9  N1  UNL     1      -2.433   0.271   0.171  1.00  0.00    -0.075 N 
ATOM     10  H13 UNL     1      -2.567  -0.625  -0.298  1.00  0.00     0.274 HD
ATOM     11  H12 UNL     1      -2.959   0.056   1.018  1.00  0.00     0.274 HD
ATOM     12  H11 UNL     1      -2.821   1.057  -0.351  1.00  0.00     0.274 HD
ENDBRANCH   1   9
TORSDOF 1
