REMARK  0 active torsions:
REMARK  status: ('A' for Active; 'I' for Inactive)
REMARK       I    between atoms: C1_2  and  N1_4 
ROOT
HETATM    1  O1  UNL     1       2.703  -1.526  -0.814  1.00  0.00    -0.630 OA
HETATM    2  C1  UNL     1       2.231  -0.400  -0.524  1.00  0.00     0.285 C 
HETATM    3  O2  UNL     1       3.106   0.658  -0.386  1.00  0.00    -0.630 OA
HETATM    4  N1  UNL     1       0.850  -0.182  -0.337  1.00  0.00    -0.326 N 
HETATM    5  C2  UNL     1       0.417   1.155  -0.006  1.00  0.00     0.131 C 
HETATM    6  C3  UNL     1      -0.904   1.234   0.666  1.00  0.00     0.057 C 
HETATM    7  C4  UNL     1      -1.908   0.235   0.153  1.00  0.00     0.173 C 
HETATM    8  F1  UNL     1      -3.004   0.273   0.983  1.00  0.00    -0.249 F 
HETATM    9  C5  UNL     1      -1.374  -1.160   0.120  1.00  0.00     0.057 C 
HETATM   10  C6  UNL     1      -0.031  -1.310  -0.491  1.00  0.00     0.131 C 
ENDROOT
TORSDOF 0
