REMARK  1 active torsions:
REMARK  status: ('A' for Active; 'I' for Inactive)
REMARK    1  A    between atoms: C1_2  and  N2_4 
ROOT
HETATM    1  N2  UNL     1       0.098   0.311  -0.027  1.00  0.00    -0.329 N 
HETATM    2  C2  UNL     1      -1.209   0.905  -0.182  1.00  0.00     0.132 C 
HETATM    3  C3  UNL     1      -1.830  -0.449  -0.078  1.00  0.00     0.079 C 
HETATM    4  C4  UNL     1      -0.542  -0.848   0.562  1.00  0.00     0.274 C 
HETATM    5  F1  UNL     1       0.002  -2.020   0.070  1.00  0.00    -0.227 F 
ENDROOT
BRANCH   1   6
HETATM    6  C1  UNL     1       1.443   0.656  -0.308  1.00  0.00     0.185 C 
HETATM    7  N1  UNL     1       2.508  -0.229   0.002  1.00  0.00    -0.070 NA
HETATM    8  S1  UNL     1       1.789   2.102  -1.002  1.00  0.00    -0.044 SA
ENDBRANCH   1   6
TORSDOF 1
