REMARK  16 active torsions:
REMARK  status: ('A' for Active; 'I' for Inactive)
REMARK    1  A    between atoms: C2_2  and  C3_3 
REMARK    2  A    between atoms: C3_3  and  C4_4 
REMARK    3  A    between atoms: C4_4  and  C5_5 
REMARK    4  A    between atoms: C5_5  and  C6_6 
REMARK    5  A    between atoms: C6_6  and  N1_7 
REMARK       I    between atoms: N1_7  and  C7_9 
REMARK    6  A    between atoms: C7_9  and  C8_11 
REMARK    7  A    between atoms: N3_20  and  C13_22 
REMARK    8  A    between atoms: C13_22  and  C14_24 
REMARK    9  A    between atoms: C14_24  and  C15_25 
REMARK   10  A    between atoms: C14_24  and  N4_32 
REMARK   11  A    between atoms: C15_25  and  C16_26 
REMARK       I    between atoms: N4_32  and  C22_34 
REMARK   12  A    between atoms: C22_34  and  C23_36 
REMARK   13  A    between atoms: C23_36  and  N5_37 
REMARK   14  A    between atoms: N6_40  and  C26_41 
REMARK   15  A    between atoms: C26_41  and  C27_42 
REMARK   16  A    between atoms: C27_42  and  O4_43 
ROOT
HETATM    1  C13 UNL     1       0.700  -0.722   1.304  1.00  0.00     0.100 C 
HETATM    2  S1  UNL     1       0.712   0.599   2.302  1.00  0.00    -0.063 SA
ENDROOT
BRANCH   1   3
HETATM    3  N3  UNL     1      -0.548  -1.237   0.951  1.00  0.00    -0.356 N 
HETATM    4  C2  UNL     1      -1.062  -1.447  -0.181  1.00  0.00    -0.017 C 
HETATM    5  C1  UNL     1      -0.365  -1.154  -1.451  1.00  0.00     0.063 C 
ATOM      6  H3  UNL     1      -1.144  -1.485   1.741  1.00  0.00     0.166 HD
BRANCH   4   7
HETATM    7  C3  UNL     1      -2.444  -2.034  -0.306  1.00  0.00     0.052 C 
BRANCH   7   8
HETATM    8  C4  UNL     1      -3.373  -1.137  -1.048  1.00  0.00     0.007 C 
BRANCH   8   9
HETATM    9  C5  UNL     1      -3.511   0.203  -0.368  1.00  0.00     0.020 C 
BRANCH   9  10
HETATM   10  C6  UNL     1      -4.478   1.083  -1.144  1.00  0.00     0.122 C 
BRANCH  10  11
HETATM   11  N1  UNL     1      -5.785   0.459  -1.181  1.00  0.00    -0.359 N 
HETATM   12  C7  UNL     1      -6.858   1.080  -1.868  1.00  0.00     0.256 C 
HETATM   13  O1  UNL     1      -6.667   2.167  -2.445  1.00  0.00    -0.271 OA
ATOM     14  H1  UNL     1      -5.934  -0.433  -0.710  1.00  0.00     0.162 HD
BRANCH  12  15
HETATM   15  C8  UNL     1      -8.176   0.440  -1.897  1.00  0.00     0.346 C 
HETATM   16  N2  UNL     1      -9.103   1.229  -2.686  1.00  0.00    -0.051 N 
HETATM   17  C9  UNL     1     -10.417   0.919  -2.141  1.00  0.00     0.190 C 
ATOM     18  H22 UNL     1      -8.887   2.226  -2.704  1.00  0.00     0.279 HD
ATOM     19  H21 UNL     1      -9.025   1.075  -3.691  1.00  0.00     0.279 HD
HETATM   20  C10 UNL     1     -11.329   2.076  -2.382  1.00  0.00     0.040 C 
HETATM   21  C11 UNL     1     -10.230   0.642  -0.692  1.00  0.00     0.113 C 
HETATM   22  C12 UNL     1      -8.793   0.330  -0.555  1.00  0.00     0.168 C 
HETATM   23  O2  UNL     1      -8.229   0.036   0.477  1.00  0.00    -0.295 OA
ENDBRANCH  12  15
ENDBRANCH  10  11
ENDBRANCH   9  10
ENDBRANCH   8   9
ENDBRANCH   7   8
ENDBRANCH   4   7
ENDBRANCH   1   3
BRANCH   1  24
HETATM   24  C14 UNL     1       1.967  -1.266   0.810  1.00  0.00     0.146 C 
BRANCH  24  25
HETATM   25  C15 UNL     1       2.217  -2.711   0.880  1.00  0.00     0.037 C 
BRANCH  25  26
HETATM   26  C16 UNL     1       2.286  -3.459   2.129  1.00  0.00    -0.012 C 
HETATM   27  C17 UNL     1       2.577  -4.956   1.817  1.00  0.00     0.005 C 
HETATM   28  C18 UNL     1       1.257  -5.605   1.501  1.00  0.00     0.000 C 
HETATM   29  C19 UNL     1       0.473  -5.664   2.813  1.00  0.00     0.000 C 
HETATM   30  C20 UNL     1       0.084  -4.235   3.105  1.00  0.00     0.000 C 
HETATM   31  C21 UNL     1       1.295  -3.331   3.200  1.00  0.00     0.005 C 
ENDBRANCH  25  26
ENDBRANCH  24  25
BRANCH  24  32
HETATM   32  N4  UNL     1       3.090  -0.527   1.450  1.00  0.00    -0.349 N 
HETATM   33  C22 UNL     1       3.933   0.351   0.753  1.00  0.00     0.235 C 
HETATM   34  O3  UNL     1       3.783   0.569  -0.465  1.00  0.00    -0.272 OA
ATOM     35  H4  UNL     1       3.255  -0.666   2.447  1.00  0.00     0.163 HD
BRANCH  33  36
HETATM   36  C23 UNL     1       5.018   1.025   1.493  1.00  0.00     0.219 C 
BRANCH  36  37
HETATM   37  N5  UNL     1       5.777   1.865   0.635  1.00  0.00    -0.401 N 
HETATM   38  C24 UNL     1       6.587   1.226  -0.347  1.00  0.00     0.147 C 
HETATM   39  C25 UNL     1       7.079   2.301  -1.334  1.00  0.00     0.291 C 
HETATM   40  N6  UNL     1       7.335   3.489  -0.527  1.00  0.00     0.093 N 
HETATM   41  C28 UNL     1       6.130   4.126  -0.061  1.00  0.00     0.291 C 
HETATM   42  C29 UNL     1       5.091   3.043   0.229  1.00  0.00     0.147 C 
BRANCH  40  43
HETATM   43  C26 UNL     1       8.146   4.446  -1.226  1.00  0.00     0.298 C 
BRANCH  43  44
HETATM   44  C27 UNL     1       8.393   5.637  -0.347  1.00  0.00     0.194 C 
BRANCH  44  45
HETATM   45  O4  UNL     1       9.183   6.599  -0.979  1.00  0.00    -0.399 OA
ATOM     46  H4  UNL     1       9.339   7.353  -0.423  1.00  0.00     0.209 HD
ENDBRANCH  44  45
ENDBRANCH  43  44
ENDBRANCH  40  43
ENDBRANCH  36  37
ENDBRANCH  33  36
ENDBRANCH  24  32
ENDBRANCH   1  24
TORSDOF 16
