REMARK  16 active torsions:
REMARK  status: ('A' for Active; 'I' for Inactive)
REMARK    1  A    between atoms: C3_3  and  C4_4 
REMARK    2  A    between atoms: C3_3  and  N4_26 
REMARK    3  A    between atoms: C4_4  and  C5_5 
REMARK    4  A    between atoms: C5_5  and  C6_6 
REMARK    5  A    between atoms: C6_6  and  C7_7 
REMARK    6  A    between atoms: C7_7  and  N1_8 
REMARK       I    between atoms: N1_8  and  C8_10 
REMARK    7  A    between atoms: C8_10  and  C9_12 
REMARK    8  A    between atoms: C9_12  and  C10_13 
REMARK    9  A    between atoms: C10_13  and  N2_14 
REMARK       I    between atoms: N2_14  and  C11_16 
REMARK   10  A    between atoms: C11_16  and  C12_18 
REMARK   11  A    between atoms: N4_26  and  C17_27 
REMARK   12  A    between atoms: C17_27  and  C18_28 
REMARK   13  A    between atoms: C17_27  and  C22_36 
REMARK   14  A    between atoms: C18_28  and  C19_29 
REMARK       I    between atoms: C22_36  and  N7_38 
REMARK       I    between atoms: N8_41  and  C25_42 
REMARK   15  A    between atoms: C25_42  and  O5_44 
REMARK   16  A    between atoms: O5_44  and  C26_45 
ROOT
HETATM    1  C1  UNL     1      -2.818  -2.310  -2.973  1.00  0.00     0.015 C 
HETATM    2  C2  UNL     1      -2.382  -2.348  -1.853  1.00  0.00    -0.078 C 
HETATM    3  C3  UNL     1      -1.810  -2.416  -0.460  1.00  0.00     0.241 C 
ENDROOT
BRANCH   3   4
HETATM    4  C4  UNL     1      -0.858  -3.639  -0.484  1.00  0.00     0.052 C 
BRANCH   4   5
HETATM    5  C5  UNL     1       0.217  -3.479  -1.498  1.00  0.00     0.006 C 
BRANCH   5   6
HETATM    6  C6  UNL     1       1.161  -2.325  -1.276  1.00  0.00     0.020 C 
BRANCH   6   7
HETATM    7  C7  UNL     1       2.119  -2.357  -2.473  1.00  0.00     0.122 C 
BRANCH   7   8
HETATM    8  N1  UNL     1       3.058  -1.282  -2.337  1.00  0.00    -0.361 N 
HETATM    9  C8  UNL     1       3.981  -1.256  -1.268  1.00  0.00     0.219 C 
HETATM   10  O1  UNL     1       4.063  -2.139  -0.388  1.00  0.00    -0.274 OA
ATOM     11  H1  UNL     1       3.060  -0.526  -3.021  1.00  0.00     0.162 HD
BRANCH   9  12
HETATM   12  C9  UNL     1       4.906  -0.077  -1.228  1.00  0.00     0.122 C 
BRANCH  12  13
HETATM   13  C10 UNL     1       6.087  -0.361  -0.349  1.00  0.00     0.132 C 
BRANCH  13  14
HETATM   14  N2  UNL     1       6.989   0.781  -0.286  1.00  0.00    -0.359 N 
HETATM   15  C11 UNL     1       6.639   2.029   0.265  1.00  0.00     0.248 C 
HETATM   16  O2  UNL     1       5.462   2.148   0.752  1.00  0.00    -0.271 OA
ATOM     17  H2  UNL     1       7.930   0.670  -0.663  1.00  0.00     0.162 HD
BRANCH  15  18
HETATM   18  C12 UNL     1       7.563   3.151   0.294  1.00  0.00     0.277 C 
HETATM   19  C13 UNL     1       8.941   2.850  -0.148  1.00  0.00     0.043 C 
HETATM   20  C14 UNL     1       9.784   2.193   0.922  1.00  0.00     0.004 C 
HETATM   21  C15 UNL     1       9.652   2.994   2.205  1.00  0.00     0.027 C 
HETATM   22  C16 UNL     1       8.200   3.027   2.594  1.00  0.00     0.233 C 
HETATM   23  N3  UNL     1       7.491   3.830   1.591  1.00  0.00    -0.062 N 
ATOM     24  H32 UNL     1       7.837   4.788   1.547  1.00  0.00     0.278 HD
ATOM     25  H31 UNL     1       6.531   4.037   1.868  1.00  0.00     0.278 HD
ENDBRANCH  15  18
ENDBRANCH  13  14
ENDBRANCH  12  13
ENDBRANCH   9  12
ENDBRANCH   7   8
ENDBRANCH   6   7
ENDBRANCH   5   6
ENDBRANCH   4   5
ENDBRANCH   3   4
BRANCH   3  26
HETATM   26  N4  UNL     1      -2.745  -2.528   0.469  1.00  0.00    -0.429 NA
BRANCH  26  27
HETATM   27  C17 UNL     1      -3.613  -2.596   1.317  1.00  0.00     0.153 C 
BRANCH  27  28
HETATM   28  C18 UNL     1      -3.725  -3.983   1.986  1.00  0.00     0.154 C 
BRANCH  28  29
HETATM   29  C19 UNL     1      -5.029  -4.604   1.642  1.00  0.00     0.087 A 
HETATM   30  N5  UNL     1      -5.362  -5.102   0.407  1.00  0.00    -0.354 N 
HETATM   31  C20 UNL     1      -6.595  -5.608   0.468  1.00  0.00     0.106 A 
ATOM     32  H5  UNL     1      -4.766  -5.088  -0.420  1.00  0.00     0.166 HD
HETATM   33  C21 UNL     1      -7.056  -5.433   1.751  1.00  0.00     0.106 A 
HETATM   34  N6  UNL     1      -6.072  -4.817   2.439  1.00  0.00    -0.354 N 
ATOM     35  H6  UNL     1      -6.121  -4.554   3.423  1.00  0.00     0.166 HD
ENDBRANCH  28  29
ENDBRANCH  27  28
BRANCH  27  36
HETATM   36  C22 UNL     1      -4.546  -1.589   1.798  1.00  0.00     0.280 C 
HETATM   37  O3  UNL     1      -5.377  -1.969   2.705  1.00  0.00    -0.265 OA
HETATM   38  N7  UNL     1      -4.663  -0.262   1.413  1.00  0.00    -0.343 N 
HETATM   39  C23 UNL     1      -3.821   0.373   0.453  1.00  0.00     0.146 C 
HETATM   40  C29 UNL     1      -5.733   0.557   2.025  1.00  0.00     0.146 C 
HETATM   41  C24 UNL     1      -4.133   1.872   0.362  1.00  0.00     0.148 C 
HETATM   42  N8  UNL     1      -5.543   2.087   0.198  1.00  0.00    -0.325 N 
HETATM   43  C25 UNL     1      -6.053   3.131  -0.604  1.00  0.00     0.362 C 
HETATM   44  C28 UNL     1      -6.469   1.203   0.871  1.00  0.00     0.148 C 
HETATM   45  O4  UNL     1      -7.283   3.299  -0.736  1.00  0.00    -0.238 OA
BRANCH  43  46
HETATM   46  O5  UNL     1      -5.239   4.027  -1.289  1.00  0.00    -0.304 OA
BRANCH  46  47
HETATM   47  C26 UNL     1      -5.753   5.050  -2.078  1.00  0.00     0.176 C 
HETATM   48  C27 UNL     1      -6.622   6.025  -1.359  1.00  0.00     0.034 C 
ENDBRANCH  46  47
ENDBRANCH  43  46
ENDBRANCH  27  36
ENDBRANCH  26  27
ENDBRANCH   3  26
TORSDOF 16
