REMARK  15 active torsions:
REMARK  status: ('A' for Active; 'I' for Inactive)
REMARK    1  A    between atoms: C2_2  and  C3_3 
REMARK    2  A    between atoms: C3_3  and  S1_4 
REMARK    3  A    between atoms: S1_4  and  C4_5 
REMARK    4  A    between atoms: C4_5  and  C5_6 
REMARK    5  A    between atoms: C5_6  and  C6_7 
REMARK    6  A    between atoms: C6_7  and  C7_8 
REMARK    7  A    between atoms: C7_8  and  C8_9 
REMARK    8  A    between atoms: C8_9  and  C9_10 
REMARK       I    between atoms: C9_10  and  N1_12 
REMARK    9  A    between atoms: C13_16  and  C14_17 
REMARK       I    between atoms: C14_17  and  N2_19 
REMARK   10  A    between atoms: C21_26  and  C22_27 
REMARK       I    between atoms: N4_30  and  C23_32 
REMARK   11  A    between atoms: C23_32  and  C24_34 
REMARK   12  A    between atoms: C24_34  and  N5_35 
REMARK   13  A    between atoms: C24_34  and  C25_39 
REMARK   14  A    between atoms: C25_39  and  C26_40 
REMARK   15  A    between atoms: C26_40  and  N6_41 
ROOT
HETATM    1  C6  UNL     1       3.172  -1.473   0.279  1.00  0.00    -0.009 C 
HETATM    2  N4  UNL     1       3.741  -0.329  -0.013  1.00  0.00    -0.333 N 
ATOM      3  H4  UNL     1       3.135   0.413  -0.363  1.00  0.00     0.168 HD
HETATM    4  C23 UNL     1       5.095  -0.031   0.110  1.00  0.00     0.252 C 
HETATM    5  O4  UNL     1       5.946  -0.617  -0.590  1.00  0.00    -0.271 OA
ENDROOT
BRANCH   1   6
HETATM    6  C5  UNL     1       3.954  -2.591   0.787  1.00  0.00     0.062 C 
BRANCH   6   7
HETATM    7  C4  UNL     1       3.567  -3.164   2.101  1.00  0.00     0.079 C 
BRANCH   7   8
HETATM    8  S1  UNL     1       1.930  -3.862   2.212  1.00  0.00    -0.169 SA
BRANCH   8   9
HETATM    9  C3  UNL     1       1.695  -5.313   1.185  1.00  0.00     0.073 C 
BRANCH   9  10
HETATM   10  C2  UNL     1       2.525  -6.488   1.611  1.00  0.00     0.006 C 
HETATM   11  C1  UNL     1       2.165  -6.868   3.015  1.00  0.00     0.006 C 
ENDBRANCH   9  10
ENDBRANCH   8   9
ENDBRANCH   7   8
ENDBRANCH   6   7
ENDBRANCH   1   6
BRANCH   1  12
HETATM   12  C7  UNL     1       1.712  -1.526   0.031  1.00  0.00     0.062 C 
BRANCH  12  13
HETATM   13  C8  UNL     1       1.190  -0.199  -0.516  1.00  0.00     0.108 C 
BRANCH  13  14
HETATM   14  C9  UNL     1      -0.265  -0.326  -0.754  1.00  0.00     0.220 C 
HETATM   15  O1  UNL     1      -0.775  -1.488  -0.595  1.00  0.00    -0.273 OA
HETATM   16  N1  UNL     1      -1.125   0.723  -1.139  1.00  0.00    -0.339 N 
HETATM   17  C10 UNL     1      -0.767   2.099  -1.356  1.00  0.00     0.127 C 
HETATM   18  C13 UNL     1      -2.544   0.622  -1.401  1.00  0.00     0.179 C 
HETATM   19  C11 UNL     1      -1.471   2.377  -2.668  1.00  0.00     0.022 C 
HETATM   20  C12 UNL     1      -2.822   1.734  -2.430  1.00  0.00     0.037 C 
BRANCH  18  21
HETATM   21  C14 UNL     1      -3.328   0.836  -0.174  1.00  0.00     0.247 C 
HETATM   22  O2  UNL     1      -2.704   1.287   0.841  1.00  0.00    -0.271 OA
HETATM   23  N2  UNL     1      -4.725   0.568  -0.059  1.00  0.00    -0.313 N 
HETATM   24  C15 UNL     1      -5.390   0.828   1.170  1.00  0.00     0.091 C 
HETATM   25  C21 UNL     1      -5.496   0.024  -1.136  1.00  0.00     0.182 C 
HETATM   26  C16 UNL     1      -6.685   1.062   1.194  1.00  0.00    -0.001 C 
HETATM   27  C17 UNL     1      -7.512   1.074  -0.016  1.00  0.00    -0.026 C 
HETATM   28  C18 UNL     1      -8.870   0.453   0.323  1.00  0.00     0.019 C 
HETATM   29  C19 UNL     1      -7.806   2.545  -0.335  1.00  0.00     0.019 C 
HETATM   30  C20 UNL     1      -6.906   0.469  -1.229  1.00  0.00     0.047 C 
BRANCH  25  31
HETATM   31  C22 UNL     1      -5.451  -1.491  -1.113  1.00  0.00     0.254 C 
HETATM   32  N3  UNL     1      -6.139  -2.233  -2.114  1.00  0.00    -0.060 NA
HETATM   33  O3  UNL     1      -4.817  -2.063  -0.220  1.00  0.00    -0.275 OA
ENDBRANCH  25  31
ENDBRANCH  18  21
ENDBRANCH  13  14
ENDBRANCH  12  13
ENDBRANCH   1  12
BRANCH   4  34
HETATM   34  C24 UNL     1       5.544   0.993   1.081  1.00  0.00     0.276 C 
BRANCH  34  35
HETATM   35  N5  UNL     1       4.429   1.690   1.695  1.00  0.00    -0.066 N 
ATOM     36  H53 UNL     1       3.813   2.095   0.990  1.00  0.00     0.275 HD
ATOM     37  H52 UNL     1       3.775   1.035   2.124  1.00  0.00     0.275 HD
ATOM     38  H51 UNL     1       4.738   2.395   2.364  1.00  0.00     0.275 HD
ENDBRANCH  34  35
BRANCH  34  39
HETATM   39  C25 UNL     1       6.561   1.921   0.482  1.00  0.00     0.062 C 
BRANCH  39  40
HETATM   40  C26 UNL     1       6.051   2.669  -0.709  1.00  0.00     0.124 C 
BRANCH  40  41
HETATM   41  N6  UNL     1       7.083   3.523  -1.219  1.00  0.00    -0.367 N 
HETATM   42  C27 UNL     1       7.120   4.805  -1.107  1.00  0.00     0.196 C 
HETATM   43  N7  UNL     1       8.248   5.456  -1.693  1.00  0.00    -0.067 NA
HETATM   44  N8  UNL     1       6.144   5.569  -0.460  1.00  0.00    -0.067 NA
ATOM     45  H6  UNL     1       7.855   3.076  -1.714  1.00  0.00     0.161 HD
ENDBRANCH  40  41
ENDBRANCH  39  40
ENDBRANCH  34  39
ENDBRANCH   4  34
TORSDOF 15
