REMARK  2 active torsions:
REMARK  status: ('A' for Active; 'I' for Inactive)
REMARK    1  A    between atoms: N1_2  and  C2_5 
REMARK    2  A    between atoms: C2_5  and  C3_6 
ROOT
HETATM    1  C3  UNL     1      -1.393  -0.215  -0.692  1.00  0.00     0.036 C 
HETATM    2  C4  UNL     1      -1.142   1.276  -0.847  1.00  0.00     0.173 C 
HETATM    3  O1  UNL     1      -0.466   1.836   0.201  1.00  0.00    -0.390 OA
HETATM    4  C5  UNL     1       0.239   1.001   1.017  1.00  0.00     0.177 C 
HETATM    5  C6  UNL     1       0.919  -0.098   0.240  1.00  0.00    -0.018 C 
HETATM    6  C7  UNL     1       1.814  -0.955   1.091  1.00  0.00     0.012 C 
HETATM    7  C8  UNL     1       2.886  -1.611   0.218  1.00  0.00     0.001 C 
HETATM    8  C9  UNL     1       3.903  -0.548  -0.217  1.00  0.00     0.000 C 
HETATM    9  C10 UNL     1       3.178   0.760  -0.200  1.00  0.00     0.001 C 
HETATM   10  C11 UNL     1       1.775   0.566  -0.797  1.00  0.00     0.012 C 
HETATM   11  C12 UNL     1      -0.185  -0.969  -0.303  1.00  0.00     0.020 C 
ENDROOT
BRANCH   1  12
HETATM   12  C2  UNL     1      -2.574  -0.350   0.247  1.00  0.00     0.238 C 
BRANCH  12  13
HETATM   13  N1  UNL     1      -3.669   0.354  -0.415  1.00  0.00    -0.079 N 
HETATM   14  C1  UNL     1      -4.811   0.552   0.467  1.00  0.00     0.267 C 
ATOM     15  H12 UNL     1      -3.945  -0.120  -1.275  1.00  0.00     0.276 HD
ATOM     16  H11 UNL     1      -3.352   1.239  -0.812  1.00  0.00     0.276 HD
ENDBRANCH  12  13
ENDBRANCH   1  12
TORSDOF 2
