REMARK  3 active torsions:
REMARK  status: ('A' for Active; 'I' for Inactive)
REMARK    1  A    between atoms: N1_1  and  C1_5 
REMARK    2  A    between atoms: C1_5  and  C2_6 
REMARK    3  A    between atoms: N2_10  and  C6_11 
ROOT
HETATM    1  C2  UNL     1      -2.371  -0.370   0.267  1.00  0.00     0.039 C 
HETATM    2  C3  UNL     1      -2.671   0.965  -0.376  1.00  0.00     0.010 C 
HETATM    3  C4  UNL     1      -1.471   1.838  -0.220  1.00  0.00     0.031 C 
HETATM    4  C5  UNL     1      -0.570   1.298   0.881  1.00  0.00     0.273 C 
HETATM    5  N2  UNL     1      -0.064  -0.007   0.579  1.00  0.00     0.093 N 
HETATM    6  C12 UNL     1      -0.981  -0.817  -0.158  1.00  0.00     0.279 C 
ENDROOT
BRANCH   5   7
HETATM    7  C6  UNL     1       1.254   0.087   0.079  1.00  0.00     0.223 C 
HETATM    8  C7  UNL     1       1.781  -1.184  -0.544  1.00  0.00     0.036 C 
HETATM    9  C8  UNL     1       3.127  -0.812  -1.165  1.00  0.00     0.002 C 
HETATM   10  C9  UNL     1       4.071  -0.214  -0.173  1.00  0.00     0.000 C 
HETATM   11  C10 UNL     1       3.464   0.913   0.638  1.00  0.00     0.002 C 
HETATM   12  C11 UNL     1       2.196   0.365   1.262  1.00  0.00     0.036 C 
ENDBRANCH   5   7
BRANCH   1  13
HETATM   13  C1  UNL     1      -3.437  -1.363  -0.109  1.00  0.00     0.236 C 
BRANCH  13  14
HETATM   14  N1  UNL     1      -4.701  -0.822   0.381  1.00  0.00    -0.079 N 
ATOM     15  H13 UNL     1      -4.687  -0.603   1.377  1.00  0.00     0.274 HD
ATOM     16  H12 UNL     1      -4.893   0.122   0.046  1.00  0.00     0.274 HD
ATOM     17  H11 UNL     1      -5.424  -1.495   0.126  1.00  0.00     0.274 HD
ENDBRANCH  13  14
ENDBRANCH   1  13
TORSDOF 3
