REMARK  2 active torsions:
REMARK  status: ('A' for Active; 'I' for Inactive)
REMARK    1  A    between atoms: C2_2  and  N1_3 
REMARK    2  A    between atoms: N1_3  and  C3_6 
ROOT
HETATM    1  C3  UNL     1       1.428  -0.500  -0.031  1.00  0.00     0.216 C 
HETATM    2  C4  UNL     1       1.235  -0.498  -1.526  1.00  0.00     0.201 C 
HETATM    3  O1  UNL     1       0.058  -1.232  -1.657  1.00  0.00    -0.383 OA
HETATM    4  C5  UNL     1      -0.779  -0.926  -0.615  1.00  0.00     0.128 C 
HETATM    5  C6  UNL     1      -1.883  -0.055  -1.106  1.00  0.00     0.036 C 
HETATM    6  C7  UNL     1      -3.081  -0.038  -0.191  1.00  0.00    -0.016 C 
HETATM    7  C8  UNL     1      -3.900  -1.300  -0.298  1.00  0.00     0.010 C 
HETATM    8  C9  UNL     1      -2.544   0.103   1.220  1.00  0.00     0.004 C 
HETATM    9  C10 UNL     1      -1.678   1.321   1.266  1.00  0.00     0.001 C 
HETATM   10  C11 UNL     1      -0.293   1.138   0.720  1.00  0.00     0.009 C 
HETATM   11  C12 UNL     1       0.052  -0.301   0.471  1.00  0.00     0.047 C 
ENDROOT
BRANCH   1  12
HETATM   12  N1  UNL     1       2.413   0.436   0.419  1.00  0.00    -0.069 N 
ATOM     13  H12 UNL     1       2.450   0.524   1.435  1.00  0.00     0.277 HD
ATOM     14  H11 UNL     1       2.170   1.405   0.215  1.00  0.00     0.277 HD
BRANCH  12  15
HETATM   15  C2  UNL     1       3.695   0.021  -0.175  1.00  0.00     0.228 C 
HETATM   16  C1  UNL     1       4.821   0.910   0.235  1.00  0.00     0.034 C 
ENDBRANCH  12  15
ENDBRANCH   1  12
TORSDOF 2
