REMARK  16 active torsions:
REMARK  status: ('A' for Active; 'I' for Inactive)
REMARK    1  A    between atoms: C2_2  and  N1_3 
REMARK    2  A    between atoms: N1_3  and  C3_5 
REMARK    3  A    between atoms: C6_10  and  C7_11 
REMARK       I    between atoms: C7_11  and  N3_13 
REMARK    4  A    between atoms: N3_13  and  C8_15 
REMARK    5  A    between atoms: C8_15  and  C9_16 
REMARK    6  A    between atoms: C9_16  and  N4_17 
REMARK    7  A    between atoms: C12_20  and  N5_21 
REMARK    8  A    between atoms: N5_21  and  C13_23 
REMARK    9  A    between atoms: C13_23  and  C14_24 
REMARK   10  A    between atoms: C14_24  and  C15_25 
REMARK   11  A    between atoms: C18_28  and  O2_29 
REMARK   12  A    between atoms: O2_29  and  C19_30 
REMARK   13  A    between atoms: C19_30  and  O3_31 
REMARK   14  A    between atoms: C21_33  and  O4_34 
REMARK   15  A    between atoms: C24_39  and  N7_40 
REMARK   16  A    between atoms: N7_40  and  C25_42 
ROOT
HETATM    1  C3  UNL     1      -3.306  -0.597  -0.306  1.00  0.00     0.146 C 
HETATM    2  N2  UNL     1      -3.626   0.723  -0.365  1.00  0.00    -0.342 N 
ATOM      3  H2  UNL     1      -4.548   0.996  -0.024  1.00  0.00     0.167 HD
HETATM    4  C4  UNL     1      -2.812   1.718  -0.845  1.00  0.00     0.026 C 
HETATM    5  C5  UNL     1      -3.493   2.819  -1.563  1.00  0.00     0.069 C 
HETATM    6  C6  UNL     1      -1.448   1.816  -0.762  1.00  0.00     0.098 C 
HETATM    7  C12 UNL     1      -0.549   0.711  -0.786  1.00  0.00     0.124 C 
HETATM    8  N6  UNL     1      -0.920  -0.589  -0.890  1.00  0.00    -0.325 N 
ATOM      9  H6  UNL     1      -0.212  -1.206  -1.287  1.00  0.00     0.169 HD
HETATM   10  C24 UNL     1      -2.094  -1.206  -0.547  1.00  0.00     0.147 C 
ENDROOT
BRANCH   7  11
HETATM   11  N5  UNL     1       0.628   1.011  -0.701  1.00  0.00    -0.355 N 
ATOM     12  H5  UNL     1       0.641   2.029  -0.637  1.00  0.00     0.166 HD
BRANCH  11  13
HETATM   13  C13 UNL     1       1.940   0.631  -0.651  1.00  0.00     0.067 C 
BRANCH  13  14
HETATM   14  C14 UNL     1       2.335  -0.608   0.105  1.00  0.00     0.083 C 
BRANCH  14  15
HETATM   15  C15 UNL     1       3.802  -0.823   0.113  1.00  0.00    -0.051 A 
HETATM   16  C16 UNL     1       4.487  -0.264   1.205  1.00  0.00     0.010 A 
HETATM   17  C17 UNL     1       5.857  -0.394   1.331  1.00  0.00     0.040 A 
HETATM   18  C18 UNL     1       6.588  -1.072   0.393  1.00  0.00     0.104 A 
HETATM   19  C21 UNL     1       5.923  -1.630  -0.696  1.00  0.00     0.102 A 
HETATM   20  C23 UNL     1       4.540  -1.487  -0.803  1.00  0.00     0.047 A 
BRANCH  18  21
HETATM   21  O2  UNL     1       7.967  -1.225   0.486  1.00  0.00    -0.323 OA
BRANCH  21  22
HETATM   22  C19 UNL     1       8.598  -0.644   1.609  1.00  0.00     0.344 C 
BRANCH  22  23
HETATM   23  O3  UNL     1       9.952  -0.831   1.660  1.00  0.00    -0.371 OA
HETATM   24  C20 UNL     1      10.379  -2.137   1.703  1.00  0.00     0.204 C 
ENDBRANCH  22  23
ENDBRANCH  21  22
ENDBRANCH  18  21
BRANCH  19  25
HETATM   25  O4  UNL     1       6.654  -2.317  -1.651  1.00  0.00    -0.353 OA
HETATM   26  C22 UNL     1       6.005  -2.891  -2.766  1.00  0.00     0.210 C 
ENDBRANCH  19  25
ENDBRANCH  14  15
ENDBRANCH  13  14
ENDBRANCH  11  13
ENDBRANCH   7  11
BRANCH   6  27
HETATM   27  C7  UNL     1      -0.890   3.119  -0.585  1.00  0.00     0.257 C 
HETATM   28  O1  UNL     1       0.354   3.227  -0.933  1.00  0.00    -0.267 OA
HETATM   29  N3  UNL     1      -1.469   4.286  -0.095  1.00  0.00    -0.355 N 
ATOM     30  H3  UNL     1      -2.443   4.253   0.207  1.00  0.00     0.162 HD
BRANCH  29  31
HETATM   31  C8  UNL     1      -0.758   5.548   0.008  1.00  0.00     0.153 C 
BRANCH  31  32
HETATM   32  C9  UNL     1      -1.637   6.629   0.591  1.00  0.00     0.291 C 
BRANCH  32  33
HETATM   33  N4  UNL     1      -2.831   6.871  -0.184  1.00  0.00     0.081 N 
HETATM   34  C10 UNL     1      -2.594   7.459  -1.470  1.00  0.00     0.309 C 
HETATM   35  C11 UNL     1      -3.653   7.826   0.578  1.00  0.00     0.309 C 
ENDBRANCH  32  33
ENDBRANCH  31  32
ENDBRANCH  29  31
ENDBRANCH   6  27
BRANCH  10  36
HETATM   36  N7  UNL     1      -2.026  -2.431  -0.465  1.00  0.00    -0.367 N 
ATOM     37  H7  UNL     1      -1.083  -2.763  -0.664  1.00  0.00     0.161 HD
BRANCH  36  38
HETATM   38  C25 UNL     1      -2.894  -3.502  -0.171  1.00  0.00     0.100 A 
HETATM   39  C26 UNL     1      -2.993  -4.102   1.159  1.00  0.00    -0.018 A 
HETATM   40  C27 UNL     1      -2.235  -3.571   2.342  1.00  0.00     0.018 C 
HETATM   41  C28 UNL     1      -4.330  -4.733   1.555  1.00  0.00     0.018 C 
HETATM   42  C29 UNL     1      -2.163  -4.820   0.141  1.00  0.00    -0.018 A 
HETATM   43  C30 UNL     1      -2.770  -6.107  -0.376  1.00  0.00     0.018 C 
HETATM   44  C31 UNL     1      -0.651  -4.770   0.193  1.00  0.00     0.018 C 
ENDBRANCH  36  38
ENDBRANCH  10  36
BRANCH   1  45
HETATM   45  N1  UNL     1      -4.256  -1.342   0.008  1.00  0.00    -0.374 N 
ATOM     46  H1  UNL     1      -4.034  -2.336   0.058  1.00  0.00     0.161 HD
BRANCH  45  47
HETATM   47  C2  UNL     1      -5.603  -1.002   0.306  1.00  0.00     0.117 C 
HETATM   48  C1  UNL     1      -6.436  -0.590  -0.882  1.00  0.00     0.026 C 
ENDBRANCH  45  47
ENDBRANCH   1  45
TORSDOF 16
