REMARK  14 active torsions:
REMARK  status: ('A' for Active; 'I' for Inactive)
REMARK    1  A    between atoms: C2_2  and  O1_5 
REMARK    2  A    between atoms: O1_5  and  C5_6 
REMARK       I    between atoms: C5_6  and  N1_8 
REMARK    3  A    between atoms: N1_8  and  C6_10 
REMARK    4  A    between atoms: C6_10  and  C8_13 
REMARK       I    between atoms: C8_13  and  N3_15 
REMARK    5  A    between atoms: N3_15  and  C9_17 
REMARK    6  A    between atoms: C9_17  and  C10_18 
REMARK       I    between atoms: C10_18  and  N4_20 
REMARK    7  A    between atoms: N4_20  and  C11_21 
REMARK    8  A    between atoms: N4_20  and  C19_30 
REMARK    9  A    between atoms: C11_21  and  C12_22 
REMARK   10  A    between atoms: C12_22  and  C13_23 
REMARK   11  A    between atoms: C13_23  and  N5_24 
REMARK   12  A    between atoms: C19_30  and  C20_31 
REMARK   13  A    between atoms: C19_30  and  C25_40 
REMARK       I    between atoms: C20_31  and  N6_33 
REMARK   14  A    between atoms: N6_33  and  C21_35 
ROOT
HETATM    1  C6  UNL     1       4.667  -0.490   0.004  1.00  0.00     0.286 C 
HETATM    2  C7  UNL     1       4.901  -1.284  -1.221  1.00  0.00     0.094 C 
HETATM    3  N2  UNL     1       5.101  -1.899  -2.177  1.00  0.00    -0.195 NA
ENDROOT
BRANCH   1   4
HETATM    4  N1  UNL     1       5.729   0.461   0.120  1.00  0.00    -0.312 N 
HETATM    5  C5  UNL     1       6.597   0.414   1.243  1.00  0.00     0.362 C 
HETATM    6  O2  UNL     1       6.424  -0.478   2.146  1.00  0.00    -0.238 OA
ATOM      7  H1  UNL     1       5.862   1.170  -0.601  1.00  0.00     0.166 HD
BRANCH   5   8
HETATM    8  O1  UNL     1       7.647   1.267   1.461  1.00  0.00    -0.294 OA
BRANCH   8   9
HETATM    9  C2  UNL     1       8.514   1.235   2.558  1.00  0.00     0.061 C 
HETATM   10  C1  UNL     1       9.550   2.349   2.426  1.00  0.00     0.046 C 
HETATM   11  C3  UNL     1       7.755   1.434   3.851  1.00  0.00     0.046 C 
HETATM   12  C4  UNL     1       9.272  -0.069   2.666  1.00  0.00     0.046 C 
ENDBRANCH   8   9
ENDBRANCH   5   8
ENDBRANCH   1   4
BRANCH   1  13
HETATM   13  C8  UNL     1       3.347   0.181  -0.076  1.00  0.00     0.255 C 
HETATM   14  O3  UNL     1       3.268   1.432  -0.043  1.00  0.00    -0.270 OA
HETATM   15  N3  UNL     1       2.156  -0.571  -0.191  1.00  0.00    -0.350 N 
ATOM     16  H3  UNL     1       2.204  -1.590  -0.219  1.00  0.00     0.163 HD
BRANCH  15  17
HETATM   17  C9  UNL     1       0.872   0.086  -0.270  1.00  0.00     0.225 C 
BRANCH  17  18
HETATM   18  C10 UNL     1      -0.240  -0.887  -0.381  1.00  0.00     0.238 C 
HETATM   19  O4  UNL     1       0.082  -2.099  -0.394  1.00  0.00    -0.272 OA
HETATM   20  N4  UNL     1      -1.594  -0.534  -0.468  1.00  0.00    -0.337 N 
BRANCH  20  21
HETATM   21  C11 UNL     1      -1.900   0.879  -0.468  1.00  0.00     0.132 C 
BRANCH  21  22
HETATM   22  C12 UNL     1      -1.980   1.520  -1.807  1.00  0.00     0.064 C 
BRANCH  22  23
HETATM   23  C13 UNL     1      -2.295   2.996  -1.646  1.00  0.00     0.064 C 
BRANCH  23  24
HETATM   24  N5  UNL     1      -3.512   3.255  -0.994  1.00  0.00    -0.374 N 
HETATM   25  C14 UNL     1      -4.723   2.937  -1.638  1.00  0.00     0.063 C 
HETATM   26  C15 UNL     1      -5.246   4.135  -2.407  1.00  0.00     0.044 C 
HETATM   27  C16 UNL     1      -4.681   5.405  -1.815  1.00  0.00     0.007 C 
HETATM   28  C17 UNL     1      -4.636   5.253  -0.304  1.00  0.00     0.021 C 
HETATM   29  C18 UNL     1      -3.575   4.204   0.037  1.00  0.00     0.127 C 
ENDBRANCH  23  24
ENDBRANCH  22  23
ENDBRANCH  21  22
ENDBRANCH  20  21
BRANCH  20  30
HETATM   30  C19 UNL     1      -2.696  -1.457  -0.533  1.00  0.00     0.183 C 
BRANCH  30  31
HETATM   31  C20 UNL     1      -2.785  -2.041   0.833  1.00  0.00     0.242 C 
HETATM   32  O5  UNL     1      -3.252  -1.380   1.806  1.00  0.00    -0.271 OA
HETATM   33  N6  UNL     1      -2.347  -3.350   1.092  1.00  0.00    -0.337 N 
ATOM     34  H6  UNL     1      -1.965  -3.902   0.324  1.00  0.00     0.164 HD
BRANCH  33  35
HETATM   35  C21 UNL     1      -2.419  -3.948   2.422  1.00  0.00     0.122 A 
HETATM   36  C22 UNL     1      -1.652  -3.212   3.427  1.00  0.00     0.091 C 
HETATM   37  N7  UNL     1      -1.023  -2.636   4.239  1.00  0.00    -0.195 NA
HETATM   38  C23 UNL     1      -2.307  -5.468   2.523  1.00  0.00     0.050 A 
HETATM   39  C24 UNL     1      -3.596  -4.735   2.841  1.00  0.00     0.050 A 
ENDBRANCH  33  35
ENDBRANCH  30  31
BRANCH  30  40
HETATM   40  C25 UNL     1      -2.698  -2.509  -1.538  1.00  0.00     0.018 C 
HETATM   41  C26 UNL     1      -3.978  -3.300  -1.426  1.00  0.00     0.007 C 
HETATM   42  C27 UNL     1      -4.145  -4.025  -2.741  1.00  0.00     0.000 C 
HETATM   43  C28 UNL     1      -3.272  -3.291  -3.692  1.00  0.00     0.000 C 
HETATM   44  C29 UNL     1      -2.756  -2.058  -2.975  1.00  0.00     0.007 C 
ENDBRANCH  30  40
ENDBRANCH  20  30
ENDBRANCH  17  18
ENDBRANCH  15  17
ENDBRANCH   1  13
TORSDOF 14
