REMARK  7 active torsions:
REMARK  status: ('A' for Active; 'I' for Inactive)
REMARK    1  A    between atoms: C2_2  and  C3_3 
REMARK    2  A    between atoms: C3_3  and  C4_4 
REMARK    3  A    between atoms: C4_4  and  C5_5 
REMARK    4  A    between atoms: C6_8  and  C7_9 
REMARK    5  A    between atoms: C11_16  and  C12_17 
REMARK    6  A    between atoms: C12_17  and  O2_18 
REMARK    7  A    between atoms: C12_17  and  C13_20 
ROOT
HETATM    1  C7  UNL     1       0.939   0.476  -0.242  1.00  0.00     0.051 A 
HETATM    2  C8  UNL     1       0.133  -0.304  -1.029  1.00  0.00     0.049 A 
HETATM    3  C9  UNL     1      -1.237  -0.394  -0.872  1.00  0.00     0.047 A 
HETATM    4  N2  UNL     1      -2.017  -1.162  -1.636  1.00  0.00    -0.322 N 
ATOM      5  H2  UNL     1      -1.584  -1.703  -2.385  1.00  0.00     0.169 HD
HETATM    6  C10 UNL     1      -3.330  -1.255  -1.467  1.00  0.00     0.255 A 
HETATM    7  O1  UNL     1      -3.982  -2.015  -2.250  1.00  0.00    -0.268 OA
HETATM    8  C11 UNL     1      -4.045  -0.543  -0.448  1.00  0.00     0.045 A 
HETATM    9  C15 UNL     1      -3.246   0.238   0.308  1.00  0.00    -0.035 A 
HETATM   10  C16 UNL     1      -3.782   1.242   1.247  1.00  0.00     0.050 C 
HETATM   11  C17 UNL     1      -1.837   0.334   0.129  1.00  0.00     0.000 A 
HETATM   12  C18 UNL     1      -1.061   1.125   0.931  1.00  0.00     0.057 A 
HETATM   13  C19 UNL     1       0.304   1.197   0.753  1.00  0.00     0.131 A 
HETATM   14  F1  UNL     1       1.095   1.976   1.549  1.00  0.00    -0.205 F 
ENDROOT
BRANCH   1  15
HETATM   15  C6  UNL     1       2.383   0.506  -0.410  1.00  0.00     0.141 A 
HETATM   16  N1  UNL     1       3.169  -0.369  -1.051  1.00  0.00    -0.323 N 
HETATM   17  C5  UNL     1       4.437   0.088  -1.008  1.00  0.00     0.148 A 
ATOM     18  H1  UNL     1       2.861  -1.234  -1.496  1.00  0.00     0.169 HD
HETATM   19  O3  UNL     1       4.427   1.220  -0.355  1.00  0.00    -0.223 OA
HETATM   20  N3  UNL     1       3.225   1.499   0.018  1.00  0.00    -0.242 N 
ATOM     21  H3  UNL     1       2.946   2.326   0.546  1.00  0.00     0.196 HD
BRANCH  17  22
HETATM   22  C4  UNL     1       5.653  -0.548  -1.580  1.00  0.00     0.087 C 
BRANCH  22  23
HETATM   23  C3  UNL     1       6.379  -1.300  -0.504  1.00  0.00     0.008 C 
BRANCH  23  24
HETATM   24  C2  UNL     1       6.855  -0.387   0.604  1.00  0.00    -0.004 C 
HETATM   25  C1  UNL     1       7.813   0.661   0.123  1.00  0.00     0.005 C 
ENDBRANCH  23  24
ENDBRANCH  22  23
ENDBRANCH  17  22
ENDBRANCH   1  15
BRANCH   8  26
HETATM   26  C12 UNL     1      -5.468  -0.702  -0.438  1.00  0.00     0.157 C 
BRANCH  26  27
HETATM   27  O2  UNL     1      -6.061   0.524  -0.992  1.00  0.00    -0.391 OA
ATOM     28  H2  UNL     1      -7.005   0.419  -0.985  1.00  0.00     0.210 HD
ENDBRANCH  26  27
BRANCH  26  29
HETATM   29  C13 UNL     1      -6.308  -1.059   0.688  1.00  0.00     0.032 C 
HETATM   30  C14 UNL     1      -6.514  -0.398   1.948  1.00  0.00     0.008 C 
ENDBRANCH  26  29
ENDBRANCH   8  26
TORSDOF 7
