REMARK  8 active torsions:
REMARK  status: ('A' for Active; 'I' for Inactive)
REMARK    1  A    between atoms: N1_1  and  C1_5 
REMARK    2  A    between atoms: C1_5  and  O1_6 
REMARK    3  A    between atoms: C1_5  and  C2_8 
REMARK    4  A    between atoms: N2_10  and  C4_11 
REMARK    5  A    between atoms: C11_18  and  O2_19 
REMARK    6  A    between atoms: O2_19  and  C12_20 
REMARK    7  A    between atoms: C12_20  and  C13_21 
REMARK    8  A    between atoms: C13_21  and  N3_22 
ROOT
HETATM    1  C2  UNL     1      -2.728   1.480   1.921  1.00  0.00     0.025 A 
HETATM    2  C3  UNL     1      -3.261   0.586   0.991  1.00  0.00     0.104 A 
HETATM    3  N2  UNL     1      -2.274  -0.060   0.361  1.00  0.00    -0.351 N 
HETATM    4  C9  UNL     1      -1.089   0.395   0.862  1.00  0.00     0.048 A 
HETATM    5  C10 UNL     1       0.206   0.068   0.569  1.00  0.00     0.070 A 
HETATM    6  C11 UNL     1       1.241   0.680   1.229  1.00  0.00     0.109 A 
HETATM    7  C17 UNL     1       0.999   1.630   2.193  1.00  0.00     0.150 A 
HETATM    8  F1  UNL     1       2.069   2.194   2.804  1.00  0.00    -0.203 F 
HETATM    9  C18 UNL     1      -0.308   1.967   2.496  1.00  0.00     0.059 A 
HETATM   10  C19 UNL     1      -1.357   1.357   1.838  1.00  0.00     0.006 A 
ENDROOT
BRANCH   1  11
HETATM   11  C1  UNL     1      -3.508   2.381   2.809  1.00  0.00     0.352 C 
BRANCH  11  12
HETATM   12  N1  UNL     1      -4.563   2.968   1.958  1.00  0.00    -0.049 N 
ATOM     13  H13 UNL     1      -5.132   3.671   2.430  1.00  0.00     0.277 HD
ATOM     14  H12 UNL     1      -4.209   3.579   1.222  1.00  0.00     0.277 HD
ATOM     15  H11 UNL     1      -5.095   2.170   1.612  1.00  0.00     0.277 HD
ENDBRANCH  11  12
BRANCH  11  16
HETATM   16  O1  UNL     1      -2.788   3.461   3.277  1.00  0.00    -0.366 OA
ATOM     17  H1  UNL     1      -2.109   3.083   3.824  1.00  0.00     0.212 HD
ENDBRANCH  11  16
ENDBRANCH   1  11
BRANCH   3  18
HETATM   18  C4  UNL     1      -2.405  -1.064  -0.669  1.00  0.00     0.089 C 
HETATM   19  C5  UNL     1      -1.912  -2.415  -0.215  1.00  0.00     0.026 C 
HETATM   20  C6  UNL     1      -2.883  -3.442  -0.755  1.00  0.00     0.002 C 
HETATM   21  C7  UNL     1      -3.808  -2.642  -1.665  1.00  0.00     0.002 C 
HETATM   22  C8  UNL     1      -3.878  -1.325  -0.911  1.00  0.00     0.026 C 
ENDBRANCH   3  18
BRANCH   6  23
HETATM   23  O2  UNL     1       2.538   0.335   0.917  1.00  0.00    -0.346 OA
BRANCH  23  24
HETATM   24  C12 UNL     1       2.779  -0.640  -0.073  1.00  0.00     0.206 C 
BRANCH  24  25
HETATM   25  C13 UNL     1       4.283  -0.799  -0.187  1.00  0.00     0.299 C 
BRANCH  25  26
HETATM   26  N3  UNL     1       4.818   0.513  -0.570  1.00  0.00     0.090 N 
HETATM   27  C14 UNL     1       6.263   0.516  -0.719  1.00  0.00     0.274 C 
HETATM   28  C15 UNL     1       6.068   0.100  -2.162  1.00  0.00     0.060 C 
HETATM   29  C16 UNL     1       4.712   0.736  -2.000  1.00  0.00     0.274 C 
ENDBRANCH  25  26
ENDBRANCH  24  25
ENDBRANCH  23  24
ENDBRANCH   6  23
TORSDOF 8
