REMARK  6 active torsions:
REMARK  status: ('A' for Active; 'I' for Inactive)
REMARK    1  A    between atoms: C6_6  and  C7_7 
REMARK    2  A    between atoms: C7_7  and  C8_8 
REMARK    3  A    between atoms: C9_12  and  C10_13 
REMARK    4  A    between atoms: C10_13  and  C11_14 
REMARK    5  A    between atoms: C11_14  and  C12_15 
REMARK    6  A    between atoms: C12_15  and  N2_16 
ROOT
HETATM    1  C8  UNL     1       0.478   0.302   0.763  1.00  0.00     0.092 A 
HETATM    2  N1  UNL     1       0.444  -0.489   1.842  1.00  0.00    -0.314 N 
ATOM      3  H1  UNL     1       0.992  -0.418   2.699  1.00  0.00     0.175 HD
HETATM    4  S1  UNL     1      -0.724  -1.629   1.437  1.00  0.00     0.000 SA
HETATM    5  C9  UNL     1      -1.124  -1.041  -0.112  1.00  0.00     0.069 A 
HETATM    6  N3  UNL     1      -0.325   0.008  -0.221  1.00  0.00    -0.342 N 
ATOM      7  H3  UNL     1      -0.337   0.580  -1.065  1.00  0.00     0.167 HD
ENDROOT
BRANCH   1   8
HETATM    8  C7  UNL     1       1.424   1.497   0.698  1.00  0.00     0.115 C 
BRANCH   8   9
HETATM    9  C6  UNL     1       2.747   1.114   0.193  1.00  0.00    -0.049 A 
HETATM   10  C1  UNL     1       3.098   1.138  -1.141  1.00  0.00     0.010 A 
HETATM   11  C2  UNL     1       4.362   0.763  -1.546  1.00  0.00     0.032 A 
HETATM   12  C3  UNL     1       5.337   0.349  -0.659  1.00  0.00     0.054 A 
HETATM   13  C4  UNL     1       4.985   0.326   0.680  1.00  0.00     0.055 A 
HETATM   14  N5  UNL     1       6.636  -0.036  -1.071  1.00  0.00    -0.387 N 
HETATM   15  C5  UNL     1       3.723   0.698   1.093  1.00  0.00     0.039 A 
HETATM   16  N4  UNL     1       5.981  -0.099   1.608  1.00  0.00    -0.387 N 
HETATM   17  C17 UNL     1       7.378  -0.195   1.263  1.00  0.00     0.139 C 
ATOM     18  H4  UNL     1       5.693  -0.345   2.555  1.00  0.00     0.159 HD
HETATM   19  C18 UNL     1       7.557  -0.692  -0.168  1.00  0.00     0.139 C 
ATOM     20  H5  UNL     1       6.930   0.154  -2.029  1.00  0.00     0.159 HD
ENDBRANCH   8   9
ENDBRANCH   1   8
BRANCH   5  21
HETATM   21  C10 UNL     1      -2.126  -1.565  -1.113  1.00  0.00     0.068 C 
BRANCH  21  22
HETATM   22  C11 UNL     1      -3.433  -0.880  -0.837  1.00  0.00     0.037 C 
BRANCH  22  23
HETATM   23  C12 UNL     1      -3.972  -1.126   0.546  1.00  0.00     0.272 C 
BRANCH  23  24
HETATM   24  N2  UNL     1      -5.215  -0.482   0.801  1.00  0.00     0.088 N 
HETATM   25  C13 UNL     1      -6.339  -0.969   0.085  1.00  0.00     0.272 C 
HETATM   26  C14 UNL     1      -6.976   0.177  -0.653  1.00  0.00     0.032 C 
HETATM   27  C15 UNL     1      -6.332   1.411  -0.076  1.00  0.00     0.032 C 
HETATM   28  C16 UNL     1      -5.194   0.941   0.778  1.00  0.00     0.272 C 
ENDBRANCH  23  24
ENDBRANCH  22  23
ENDBRANCH  21  22
ENDBRANCH   5  21
TORSDOF 6
