REMARK  7 active torsions:
REMARK  status: ('A' for Active; 'I' for Inactive)
REMARK    1  A    between atoms: C2_2  and  C3_3 
REMARK    2  A    between atoms: C9_9  and  C10_10 
REMARK    3  A    between atoms: C15_15  and  C16_16 
REMARK    4  A    between atoms: C17_17  and  C18_18 
REMARK    5  A    between atoms: C19_19  and  C20_20 
REMARK    6  A    between atoms: C20_20  and  C21_21 
REMARK    7  A    between atoms: C24_26  and  O3_27 
ROOT
HETATM    1  C10 UNL     1      -0.077   0.605   0.491  1.00  0.00     0.174 C 
HETATM    2  C11 UNL     1       0.891   0.357   1.548  1.00  0.00     0.010 C 
HETATM    3  C12 UNL     1       2.089   0.949   1.554  1.00  0.00    -0.082 C 
HETATM    4  C13 UNL     1       3.028   0.655   2.658  1.00  0.00     0.043 C 
HETATM    5  C14 UNL     1       2.420   1.873   0.419  1.00  0.00     0.069 C 
HETATM    6  C15 UNL     1       1.775   1.270  -0.816  1.00  0.00     0.149 C 
HETATM    7  O4  UNL     1       0.448   1.069  -0.657  1.00  0.00    -0.370 OA
ENDROOT
BRANCH   1   8
HETATM    8  C9  UNL     1      -0.921  -0.626   0.163  1.00  0.00     0.155 C 
HETATM    9  C8  UNL     1      -1.613  -1.220   1.326  1.00  0.00     0.038 C 
HETATM   10  C7  UNL     1      -2.970  -0.547   1.293  1.00  0.00     0.041 C 
HETATM   11  C6  UNL     1      -3.113  -0.187  -0.149  1.00  0.00     0.065 C 
HETATM   12  C5  UNL     1      -3.630   1.244  -0.223  1.00  0.00     0.039 C 
HETATM   13  O5  UNL     1      -1.878  -0.195  -0.744  1.00  0.00    -0.372 OA
HETATM   14  C25 UNL     1      -4.116  -1.055  -0.873  1.00  0.00     0.020 C 
HETATM   15  C4  UNL     1      -4.770   1.396  -1.193  1.00  0.00     0.008 C 
HETATM   16  C3  UNL     1      -5.952   0.541  -0.888  1.00  0.00    -0.011 C 
HETATM   17  C27 UNL     1      -5.499  -0.822  -0.357  1.00  0.00    -0.008 C 
HETATM   18  C28 UNL     1      -6.470  -1.862  -0.828  1.00  0.00     0.011 C 
HETATM   19  C26 UNL     1      -3.777  -2.524  -0.764  1.00  0.00     0.013 C 
BRANCH  16  20
HETATM   20  C2  UNL     1      -6.908   1.179   0.093  1.00  0.00     0.000 C 
HETATM   21  C1  UNL     1      -7.459   2.478  -0.400  1.00  0.00     0.005 C 
ENDBRANCH  16  20
ENDBRANCH   1   8
BRANCH   6  22
HETATM   22  C16 UNL     1       2.412  -0.033  -1.127  1.00  0.00     0.005 C 
HETATM   23  C17 UNL     1       3.699  -0.281  -0.986  1.00  0.00    -0.001 C 
BRANCH  23  24
HETATM   24  C18 UNL     1       4.244  -1.569  -1.307  1.00  0.00     0.008 C 
HETATM   25  C19 UNL     1       5.524  -1.944  -1.198  1.00  0.00     0.056 C 
BRANCH  25  26
HETATM   26  C20 UNL     1       6.558  -1.129  -0.744  1.00  0.00    -0.112 C 
BRANCH  26  27
HETATM   27  C21 UNL     1       7.484  -0.399  -0.337  1.00  0.00     0.093 C 
HETATM   28  C22 UNL     1       7.345   1.029   0.116  1.00  0.00     0.300 C 
HETATM   29  O1  UNL     1       6.433   1.539   0.786  1.00  0.00    -0.259 OA
HETATM   30  O2  UNL     1       8.476   1.697  -0.373  1.00  0.00    -0.314 OA
HETATM   31  C23 UNL     1       9.449   0.725  -0.785  1.00  0.00     0.216 C 
HETATM   32  C24 UNL     1       8.988  -0.565  -0.150  1.00  0.00     0.189 C 
BRANCH  32  33
HETATM   33  O3  UNL     1       9.340  -0.620   1.174  1.00  0.00    -0.388 OA
ATOM     34  H3  UNL     1      10.277  -0.723   1.291  1.00  0.00     0.210 HD
ENDBRANCH  32  33
ENDBRANCH  26  27
ENDBRANCH  25  26
ENDBRANCH  23  24
ENDBRANCH   6  22
TORSDOF 7
