REMARK  8 active torsions:
REMARK  status: ('A' for Active; 'I' for Inactive)
REMARK    1  A    between atoms: C2_2  and  C3_3 
REMARK    2  A    between atoms: C3_3  and  O2_5 
REMARK    3  A    between atoms: O2_5  and  C4_6 
REMARK    4  A    between atoms: C6_8  and  C7_9 
REMARK    5  A    between atoms: C7_9  and  O3_10 
REMARK    6  A    between atoms: C9_14  and  C10_15 
REMARK    7  A    between atoms: C16_22  and  C17_23 
REMARK    8  A    between atoms: C17_23  and  C18_24 
ROOT
HETATM    1  C4  UNL     1      -2.406   0.208  -0.743  1.00  0.00     0.087 C 
HETATM    2  C5  UNL     1      -2.481  -0.146  -2.188  1.00  0.00     0.048 C 
HETATM    3  C6  UNL     1      -2.703  -1.136  -0.040  1.00  0.00     0.110 C 
HETATM    4  C8  UNL     1      -1.380  -1.675   0.411  1.00  0.00    -0.065 C 
HETATM    5  C9  UNL     1      -1.272  -2.969   0.691  1.00  0.00    -0.008 C 
HETATM    6  C11 UNL     1      -0.382  -0.573   0.406  1.00  0.00     0.034 C 
HETATM    7  C12 UNL     1       0.942  -0.818  -0.210  1.00  0.00    -0.032 C 
HETATM    8  C13 UNL     1       0.822  -1.375  -1.648  1.00  0.00     0.016 C 
HETATM    9  C14 UNL     1       1.748  -1.885   0.499  1.00  0.00     0.011 C 
HETATM   10  C15 UNL     1       3.259  -1.723   0.259  1.00  0.00     0.007 C 
HETATM   11  C16 UNL     1       3.810  -0.501   0.881  1.00  0.00     0.004 C 
HETATM   12  C19 UNL     1       2.800   0.612   0.843  1.00  0.00    -0.039 C 
HETATM   13  C20 UNL     1       3.474   1.957   0.506  1.00  0.00     0.015 C 
HETATM   14  C21 UNL     1       2.237   0.832   2.207  1.00  0.00     0.015 C 
HETATM   15  C22 UNL     1       1.796   0.420  -0.268  1.00  0.00     0.002 C 
HETATM   16  C23 UNL     1       1.098   1.695  -0.515  1.00  0.00     0.007 C 
HETATM   17  C24 UNL     1      -0.312   1.546  -1.007  1.00  0.00     0.013 C 
HETATM   18  C25 UNL     1      -1.122   0.632  -0.152  1.00  0.00    -0.004 C 
HETATM   19  C26 UNL     1      -1.443   1.515   1.079  1.00  0.00     0.019 C 
ENDROOT
BRANCH   1  20
HETATM   20  O2  UNL     1      -3.517   1.086  -0.500  1.00  0.00    -0.305 OA
BRANCH  20  21
HETATM   21  C3  UNL     1      -3.817   2.217  -1.190  1.00  0.00     0.282 C 
HETATM   22  O1  UNL     1      -3.061   2.491  -2.166  1.00  0.00    -0.260 OA
BRANCH  21  23
HETATM   23  C2  UNL     1      -4.909   3.138  -0.924  1.00  0.00     0.072 C 
HETATM   24  C1  UNL     1      -5.711   2.915   0.070  1.00  0.00     0.017 C 
ENDBRANCH  21  23
ENDBRANCH  20  21
ENDBRANCH   1  20
BRANCH   3  25
HETATM   25  C7  UNL     1      -3.764  -1.096   0.964  1.00  0.00     0.315 C 
HETATM   26  F1  UNL     1      -3.578  -0.445   2.138  1.00  0.00    -0.219 F 
BRANCH  25  27
HETATM   27  O3  UNL     1      -5.007  -0.696   0.466  1.00  0.00    -0.366 OA
ATOM     28  H3  UNL     1      -5.697  -0.670   1.119  1.00  0.00     0.213 HD
ENDBRANCH  25  27
ENDBRANCH   3  25
BRANCH   5  29
HETATM   29  C10 UNL     1      -2.289  -4.025   0.621  1.00  0.00     0.142 C 
HETATM   30 CL1  UNL     1      -2.674  -4.856   2.122  1.00  0.00    -0.126 Cl
ENDBRANCH   5  29
BRANCH  11  31
HETATM   31  C17 UNL     1       5.160  -0.187   0.384  1.00  0.00     0.118 C 
BRANCH  31  32
HETATM   32  C18 UNL     1       5.386   0.072  -1.025  1.00  0.00     0.172 C 
HETATM   33  O4  UNL     1       5.024  -0.601  -2.006  1.00  0.00    -0.648 OA
HETATM   34  O5  UNL     1       6.104   1.228  -1.387  1.00  0.00    -0.648 OA
ENDBRANCH  31  32
ENDBRANCH  11  31
TORSDOF 8
