REMARK  7 active torsions:
REMARK  status: ('A' for Active; 'I' for Inactive)
REMARK    1  A    between atoms: C7_7  and  N1_8 
REMARK    2  A    between atoms: N1_8  and  C8_9 
REMARK    3  A    between atoms: C13_17  and  C14_18 
REMARK    4  A    between atoms: C17_25  and  O1_26 
REMARK    5  A    between atoms: O1_26  and  C18_27 
REMARK    6  A    between atoms: C18_27  and  C19_28 
REMARK    7  A    between atoms: C19_28  and  N5_29 
ROOT
HETATM    1  C8  UNL     1      -2.917   2.342  -1.124  1.00  0.00     0.159 A 
HETATM    2  C9  UNL     1      -3.838   3.412  -1.360  1.00  0.00     0.173 A 
HETATM    3  F1  UNL     1      -5.027   3.070  -1.868  1.00  0.00    -0.201 F 
HETATM    4  C10 UNL     1      -3.447   4.681  -1.078  1.00  0.00     0.134 A 
HETATM    5  N2  UNL     1      -2.248   4.968  -0.596  1.00  0.00    -0.362 N 
ATOM      6  H2  UNL     1      -2.006   5.938  -0.395  1.00  0.00     0.165 HD
HETATM    7  C11 UNL     1      -1.332   3.985  -0.365  1.00  0.00     0.046 A 
HETATM    8  C12 UNL     1      -0.071   4.287   0.110  1.00  0.00     0.045 A 
HETATM    9  C13 UNL     1       0.892   3.328   0.315  1.00  0.00     0.013 A 
HETATM   10  C17 UNL     1       0.614   1.970   0.028  1.00  0.00     0.081 A 
HETATM   11  C25 UNL     1      -0.651   1.712  -0.426  1.00  0.00     0.055 A 
HETATM   12  C26 UNL     1      -1.628   2.659  -0.623  1.00  0.00     0.037 A 
ENDROOT
BRANCH   1  13
HETATM   13  N1  UNL     1      -3.314   1.208  -1.104  1.00  0.00    -0.410 NA
BRANCH  13  14
HETATM   14  C7  UNL     1      -3.731  -0.044  -1.079  1.00  0.00     0.064 C 
HETATM   15  C6  UNL     1      -5.124  -0.419  -1.629  1.00  0.00     0.068 C 
HETATM   16  C5  UNL     1      -5.816  -1.209  -0.502  1.00  0.00     0.007 C 
HETATM   17  C4  UNL     1      -4.851  -2.088   0.249  1.00  0.00     0.009 C 
HETATM   18  C2  UNL     1      -3.624  -2.431  -0.467  1.00  0.00    -0.042 C 
HETATM   19  C1  UNL     1      -3.972  -3.613  -1.389  1.00  0.00     0.015 C 
HETATM   20  C3  UNL     1      -2.635  -2.994   0.571  1.00  0.00     0.015 C 
HETATM   21  C27 UNL     1      -2.927  -1.315  -1.246  1.00  0.00     0.076 C 
ENDBRANCH  13  14
ENDBRANCH   1  13
BRANCH  10  22
HETATM   22  O1  UNL     1       1.640   1.132   0.226  1.00  0.00    -0.349 OA
BRANCH  22  23
HETATM   23  C18 UNL     1       1.957  -0.171   0.096  1.00  0.00     0.195 C 
BRANCH  23  24
HETATM   24  C19 UNL     1       3.439  -0.282   0.537  1.00  0.00     0.148 C 
BRANCH  24  25
HETATM   25  N5  UNL     1       3.970  -1.534   0.253  1.00  0.00    -0.391 N 
HETATM   26  C20 UNL     1       3.635  -2.736   0.853  1.00  0.00     0.058 C 
HETATM   27  C21 UNL     1       4.792  -3.515   1.427  1.00  0.00     0.044 C 
HETATM   28  C22 UNL     1       6.118  -2.804   1.284  1.00  0.00     0.007 C 
HETATM   29  C23 UNL     1       6.290  -2.380  -0.169  1.00  0.00     0.020 C 
HETATM   30  C24 UNL     1       5.181  -1.467  -0.563  1.00  0.00     0.122 C 
ENDBRANCH  24  25
ENDBRANCH  23  24
ENDBRANCH  22  23
ENDBRANCH  10  22
BRANCH   9  31
HETATM   31  C14 UNL     1       2.154   3.713   0.956  1.00  0.00     0.011 A 
HETATM   32  C15 UNL     1       3.446   3.603   0.546  1.00  0.00     0.120 A 
HETATM   33  N3  UNL     1       4.198   4.045   1.588  1.00  0.00    -0.311 N 
HETATM   34  N4  UNL     1       3.444   4.426   2.607  1.00  0.00    -0.311 N 
ATOM     35  H3  UNL     1       5.217   4.079   1.585  1.00  0.00     0.186 HD
HETATM   36  C16 UNL     1       2.168   4.241   2.275  1.00  0.00     0.120 A 
ATOM     37  H4  UNL     1       3.783   4.798   3.495  1.00  0.00     0.186 HD
ENDBRANCH   9  31
TORSDOF 7
