REMARK  8 active torsions:
REMARK  status: ('A' for Active; 'I' for Inactive)
REMARK    1  A    between atoms: C2_2  and  C5_5 
REMARK       I    between atoms: C5_5  and  N1_7 
REMARK    2  A    between atoms: N1_7  and  C6_9 
REMARK    3  A    between atoms: C6_9  and  C7_10 
REMARK    4  A    between atoms: C7_10  and  C8_11 
REMARK    5  A    between atoms: C8_11  and  N2_12 
REMARK    6  A    between atoms: N2_12  and  C9_14 
REMARK    7  A    between atoms: C11_16  and  C12_17 
REMARK    8  A    between atoms: C20_28  and  C21_29 
ROOT
HETATM    1  C9  UNL     1      -0.612   0.173   0.625  1.00  0.00     0.042 A 
HETATM    2  C10 UNL     1      -1.331  -0.998   0.537  1.00  0.00     0.055 A 
HETATM    3  C11 UNL     1      -2.675  -0.934   0.262  1.00  0.00     0.017 A 
HETATM    4  N3  UNL     1      -3.308   0.261   0.075  1.00  0.00    -0.358 N 
ATOM      5  H3  UNL     1      -4.307   0.291  -0.129  1.00  0.00     0.166 HD
HETATM    6  C18 UNL     1      -2.598   1.396   0.163  1.00  0.00     0.045 A 
HETATM    7  C19 UNL     1      -3.219   2.621  -0.023  1.00  0.00     0.042 A 
HETATM    8  C20 UNL     1      -2.538   3.824   0.056  1.00  0.00    -0.002 A 
HETATM    9  C24 UNL     1      -1.187   3.784   0.331  1.00  0.00     0.013 A 
HETATM   10  C25 UNL     1      -0.519   2.575   0.525  1.00  0.00     0.017 A 
HETATM   11  C26 UNL     1      -1.250   1.409   0.435  1.00  0.00     0.017 A 
ENDROOT
BRANCH   1  12
HETATM   12  N2  UNL     1       0.631   0.120   0.878  1.00  0.00    -0.389 N 
ATOM     13  H2  UNL     1       1.166   0.986   0.944  1.00  0.00     0.159 HD
BRANCH  12  14
HETATM   14  C8  UNL     1       1.294  -1.129   1.072  1.00  0.00     0.121 C 
BRANCH  14  15
HETATM   15  C7  UNL     1       2.810  -0.948   1.136  1.00  0.00     0.039 C 
BRANCH  15  16
HETATM   16  C6  UNL     1       3.288  -0.346  -0.149  1.00  0.00     0.124 C 
BRANCH  16  17
HETATM   17  N1  UNL     1       4.706  -0.133  -0.184  1.00  0.00    -0.360 N 
HETATM   18  C5  UNL     1       5.645  -1.186  -0.059  1.00  0.00     0.225 C 
HETATM   19  O1  UNL     1       5.324  -2.400   0.093  1.00  0.00    -0.273 OA
ATOM     20  H1  UNL     1       5.053   0.818  -0.304  1.00  0.00     0.162 HD
BRANCH  18  21
HETATM   21  C2  UNL     1       7.092  -0.875  -0.106  1.00  0.00     0.030 C 
HETATM   22  C1  UNL     1       7.512   0.068   0.990  1.00  0.00     0.024 C 
HETATM   23  C3  UNL     1       7.365  -0.163  -1.435  1.00  0.00     0.024 C 
HETATM   24  C4  UNL     1       7.943  -2.105  -0.085  1.00  0.00     0.024 C 
ENDBRANCH  18  21
ENDBRANCH  16  17
ENDBRANCH  15  16
ENDBRANCH  14  15
ENDBRANCH  12  14
ENDBRANCH   1  12
BRANCH   3  25
HETATM   25  C12 UNL     1      -3.486  -2.146   0.154  1.00  0.00     0.054 C 
HETATM   26  C13 UNL     1      -3.381  -2.975   1.417  1.00  0.00     0.012 C 
HETATM   27  C14 UNL     1      -4.300  -4.163   1.266  1.00  0.00     0.001 C 
HETATM   28  C15 UNL     1      -5.159  -4.069   0.027  1.00  0.00     0.002 C 
HETATM   29  C16 UNL     1      -4.339  -3.941  -1.228  1.00  0.00     0.021 C 
HETATM   30  C17 UNL     1      -3.114  -3.054  -0.994  1.00  0.00     0.092 C 
HETATM   31 CL1  UNL     1      -1.782  -4.154  -0.589  1.00  0.00    -0.124 Cl
ENDBRANCH   3  25
BRANCH   8  32
HETATM   32  C21 UNL     1      -3.263   5.108  -0.154  1.00  0.00     0.294 C 
HETATM   33  O2  UNL     1      -4.463   5.160   0.515  1.00  0.00    -0.355 OA
HETATM   34  C22 UNL     1      -5.157   6.179  -0.140  1.00  0.00     0.197 C 
HETATM   35  C23 UNL     1      -4.789   5.906  -1.583  1.00  0.00     0.197 C 
HETATM   36  O3  UNL     1      -3.537   5.348  -1.477  1.00  0.00    -0.355 OA
ENDBRANCH   8  32
TORSDOF 8
