REMARK  5 active torsions:
REMARK  status: ('A' for Active; 'I' for Inactive)
REMARK    1  A    between atoms: C4_9  and  C5_10 
REMARK    2  A    between atoms: C7_14  and  C8_15 
REMARK    3  A    between atoms: C11_18  and  C12_19 
REMARK    4  A    between atoms: C18_25  and  C19_26 
REMARK       I    between atoms: C19_26  and  N3_28 
REMARK    5  A    between atoms: N3_28  and  N4_30 
ROOT
HETATM    1  C1  UNL     1       2.959  -3.583   0.208  1.00  0.00     0.064 C 
HETATM    2  C2  UNL     1       1.724  -3.202  -0.591  1.00  0.00     0.001 C 
HETATM    3  N1  UNL     1       1.019  -4.144  -1.124  1.00  0.00    -0.340 N 
ATOM      4  H1  UNL     1       1.319  -5.111  -1.004  1.00  0.00     0.167 HD
HETATM    5  C3  UNL     1      -0.164  -3.879  -1.874  1.00  0.00     0.172 C 
HETATM    6  S1  UNL     1      -1.073  -4.990  -2.596  1.00  0.00    -0.041 SA
HETATM    7  N2  UNL     1      -0.496  -2.491  -1.959  1.00  0.00    -0.357 N 
ATOM      8  H2  UNL     1      -0.932  -2.090  -2.789  1.00  0.00     0.162 HD
HETATM    9  C4  UNL     1      -0.164  -1.658  -0.753  1.00  0.00     0.143 C 
HETATM   10  C18 UNL     1       1.370  -1.805  -0.838  1.00  0.00     0.152 C 
ENDROOT
BRANCH   9  11
HETATM   11  C5  UNL     1      -0.550  -0.281  -0.987  1.00  0.00     0.019 A 
HETATM   12  S2  UNL     1       0.473   0.778  -1.806  1.00  0.00    -0.079 SA
HETATM   13  C6  UNL     1      -0.487   2.184  -1.776  1.00  0.00     0.086 A 
HETATM   14 CL1  UNL     1      -0.026   3.734  -2.512  1.00  0.00    -0.075 Cl
HETATM   15  C7  UNL     1      -1.627   1.796  -1.112  1.00  0.00     0.006 A 
HETATM   16  C11 UNL     1      -1.669   0.493  -0.684  1.00  0.00    -0.006 A 
BRANCH  15  17
HETATM   17  C8  UNL     1      -2.690   2.834  -0.896  1.00  0.00    -0.074 C 
HETATM   18  C9  UNL     1      -3.990   2.527  -1.582  1.00  0.00     0.044 C 
HETATM   19  C10 UNL     1      -2.312   4.234  -0.745  1.00  0.00     0.044 C 
ENDBRANCH  15  17
BRANCH  16  20
HETATM   20  C12 UNL     1      -2.776  -0.111   0.109  1.00  0.00    -0.068 C 
HETATM   21  C13 UNL     1      -2.704   0.374   1.566  1.00  0.00     0.035 C 
HETATM   22  C14 UNL     1      -4.073   0.375   2.175  1.00  0.00     0.004 C 
HETATM   23  C15 UNL     1      -5.017  -0.530   1.450  1.00  0.00     0.001 C 
HETATM   24  C16 UNL     1      -4.391  -1.735   0.864  1.00  0.00     0.004 C 
HETATM   25  C17 UNL     1      -3.236  -1.452  -0.122  1.00  0.00     0.035 C 
ENDBRANCH  16  20
ENDBRANCH   9  11
BRANCH  10  26
HETATM   26  C19 UNL     1       2.096  -0.792  -0.050  1.00  0.00     0.248 C 
HETATM   27  O1  UNL     1       1.588  -0.200   0.901  1.00  0.00    -0.271 OA
HETATM   28  N3  UNL     1       3.429  -0.512  -0.425  1.00  0.00    -0.264 N 
ATOM     29  H3  UNL     1       3.800  -1.023  -1.226  1.00  0.00     0.190 HD
BRANCH  28  30
HETATM   30  N4  UNL     1       4.288   0.398   0.196  1.00  0.00    -0.280 N 
HETATM   31  C20 UNL     1       5.565   0.438  -0.390  1.00  0.00     0.114 C 
HETATM   32  C21 UNL     1       6.608   1.070   0.480  1.00  0.00     0.214 C 
HETATM   33  O2  UNL     1       6.418   0.651   1.816  1.00  0.00    -0.381 OA
HETATM   34  C22 UNL     1       5.246   1.274   2.246  1.00  0.00     0.214 C 
HETATM   35  C23 UNL     1       4.059   0.665   1.544  1.00  0.00     0.114 C 
ENDBRANCH  28  30
ENDBRANCH  10  26
TORSDOF 5
