REMARK  7 active torsions:
REMARK  status: ('A' for Active; 'I' for Inactive)
REMARK    1  A    between atoms: C2_2  and  C3_3 
REMARK    2  A    between atoms: C8_8  and  C10_10 
REMARK    3  A    between atoms: C10_10  and  C11_11 
REMARK       I    between atoms: C11_11  and  N1_13 
REMARK    4  A    between atoms: C14_16  and  C15_17 
REMARK    5  A    between atoms: C20_26  and  O2_27 
REMARK    6  A    between atoms: C21_29  and  C22_30 
REMARK    7  A    between atoms: C22_30  and  C23_31 
ROOT
HETATM    1  C3  UNL     1      -4.518   1.364  -0.332  1.00  0.00    -0.076 C 
HETATM    2  C4  UNL     1      -3.708   1.867   0.571  1.00  0.00    -0.022 C 
HETATM    3  C5  UNL     1      -2.313   1.471   0.719  1.00  0.00     0.040 C 
HETATM    4  C6  UNL     1      -1.891   0.207   0.046  1.00  0.00    -0.005 C 
HETATM    5  C7  UNL     1      -0.673   0.382  -0.878  1.00  0.00     0.025 C 
HETATM    6  C8  UNL     1       0.027  -0.756  -0.169  1.00  0.00    -0.008 C 
HETATM    7  C9  UNL     1      -0.016  -2.071  -0.922  1.00  0.00     0.018 C 
HETATM    8  C20 UNL     1      -1.007  -0.623   0.920  1.00  0.00     0.136 C 
HETATM    9  C21 UNL     1      -3.023  -0.551  -0.580  1.00  0.00     0.012 C 
HETATM   10  C27 UNL     1      -4.002   0.344  -1.269  1.00  0.00    -0.020 C 
HETATM   11  C28 UNL     1      -5.061  -0.431  -1.989  1.00  0.00     0.020 C 
HETATM   12  C29 UNL     1      -3.256   1.130  -2.373  1.00  0.00     0.020 C 
ENDROOT
BRANCH   6  13
HETATM   13  C10 UNL     1       1.414  -0.472   0.291  1.00  0.00     0.114 C 
BRANCH  13  14
HETATM   14  C11 UNL     1       2.321  -0.116  -0.849  1.00  0.00     0.220 C 
HETATM   15  O1  UNL     1       1.831  -0.100  -1.997  1.00  0.00    -0.273 OA
HETATM   16  N1  UNL     1       3.689   0.198  -0.674  1.00  0.00    -0.352 N 
HETATM   17  C12 UNL     1       4.490   0.528  -1.811  1.00  0.00     0.126 C 
HETATM   18  C19 UNL     1       4.196   0.161   0.686  1.00  0.00     0.126 C 
HETATM   19  C13 UNL     1       5.957   0.311  -1.653  1.00  0.00     0.030 C 
HETATM   20  C14 UNL     1       6.463   0.363  -0.252  1.00  0.00     0.041 C 
HETATM   21  C18 UNL     1       5.587  -0.409   0.713  1.00  0.00     0.030 C 
BRANCH  20  22
HETATM   22  C15 UNL     1       7.812  -0.256  -0.197  1.00  0.00     0.045 A 
HETATM   23  C16 UNL     1       8.984   0.347   0.203  1.00  0.00     0.134 A 
HETATM   24  N2  UNL     1       9.976  -0.556   0.104  1.00  0.00    -0.289 N 
HETATM   25  C17 UNL     1      11.393  -0.332   0.432  1.00  0.00     0.174 C 
HETATM   26  N3  UNL     1       9.460  -1.688  -0.340  1.00  0.00    -0.021 NA
HETATM   27  N4  UNL     1       8.163  -1.512  -0.522  1.00  0.00    -0.286 N 
ATOM     28  H4  UNL     1       7.520  -2.227  -0.861  1.00  0.00     0.184 HD
ENDBRANCH  20  22
ENDBRANCH  13  14
ENDBRANCH   6  13
BRANCH   8  29
HETATM   29  O2  UNL     1      -0.541  -0.025   2.089  1.00  0.00    -0.394 OA
ATOM     30  H2  UNL     1       0.021  -0.553   2.644  1.00  0.00     0.210 HD
ENDBRANCH   8  29
BRANCH   9  31
HETATM   31  C22 UNL     1      -3.621  -1.626   0.253  1.00  0.00     0.034 C 
BRANCH  31  32
HETATM   32  C23 UNL     1      -4.175  -1.240   1.548  1.00  0.00    -0.024 C 
HETATM   33  C24 UNL     1      -5.407  -1.446   1.960  1.00  0.00    -0.091 C 
HETATM   34  C25 UNL     1      -5.784  -0.964   3.344  1.00  0.00     0.042 C 
HETATM   35  C26 UNL     1      -6.460  -2.137   1.167  1.00  0.00     0.042 C 
ENDBRANCH  31  32
ENDBRANCH   9  31
BRANCH   1  36
HETATM   36  C2  UNL     1      -5.929   1.823  -0.416  1.00  0.00     0.030 C 
HETATM   37  C1  UNL     1      -6.201   2.883   0.651  1.00  0.00     0.010 C 
ENDBRANCH   1  36
TORSDOF 7
