REMARK  8 active torsions:
REMARK  status: ('A' for Active; 'I' for Inactive)
REMARK    1  A    between atoms: C2_2  and  C4_4 
REMARK    2  A    between atoms: C4_4  and  C5_5 
REMARK    3  A    between atoms: C6_6  and  C7_7 
REMARK    4  A    between atoms: C7_7  and  O1_8 
REMARK    5  A    between atoms: C7_7  and  C25_33 
REMARK    6  A    between atoms: O1_8  and  C8_9 
REMARK    7  A    between atoms: C13_15  and  O2_16 
REMARK    8  A    between atoms: C17_22  and  O4_23 
ROOT
HETATM    1  C8  UNL     1      -0.108  -0.580   0.356  1.00  0.00     0.163 C 
HETATM    2  C9  UNL     1      -0.564   0.110  -0.886  1.00  0.00     0.050 C 
HETATM    3  C10 UNL     1      -2.011  -0.024  -1.299  1.00  0.00     0.000 C 
HETATM    4  C11 UNL     1      -1.920   0.462  -2.792  1.00  0.00     0.021 C 
HETATM    5  C12 UNL     1      -2.406  -1.407  -1.416  1.00  0.00     0.030 C 
HETATM    6 CL1  UNL     1      -4.097  -1.668  -1.915  1.00  0.00    -0.090 Cl
HETATM    7  C13 UNL     1      -2.044  -2.421  -0.381  1.00  0.00     0.197 C 
HETATM    8  C14 UNL     1      -2.095  -1.954   1.021  1.00  0.00     0.125 A 
HETATM    9  C15 UNL     1      -3.146  -2.611   1.858  1.00  0.00     0.052 C 
HETATM   10  O3  UNL     1      -0.896  -2.200   1.865  1.00  0.00    -0.355 OA
HETATM   11  C16 UNL     1      -1.149  -0.996   1.286  1.00  0.00     0.147 A 
HETATM   12  C17 UNL     1      -1.571   0.220   2.066  1.00  0.00     0.159 C 
HETATM   13  C18 UNL     1      -2.943   0.705   1.846  1.00  0.00     0.052 C 
HETATM   14  C19 UNL     1      -3.422   1.189   0.563  1.00  0.00     0.024 C 
HETATM   15  C20 UNL     1      -3.635   2.721   0.799  1.00  0.00     0.024 C 
HETATM   16  C21 UNL     1      -4.841   0.759   0.334  1.00  0.00     0.135 C 
HETATM   17  O5  UNL     1      -5.551   0.026   0.973  1.00  0.00    -0.297 OA
HETATM   18  C22 UNL     1      -5.204   1.468  -0.917  1.00  0.00     0.079 C 
HETATM   19  C23 UNL     1      -3.916   1.540  -1.664  1.00  0.00     0.014 C 
HETATM   20  C24 UNL     1      -2.815   1.056  -0.708  1.00  0.00     0.015 C 
ENDROOT
BRANCH   1  21
HETATM   21  O1  UNL     1       0.903  -1.482  -0.002  1.00  0.00    -0.373 OA
BRANCH  21  22
HETATM   22  C7  UNL     1       2.193  -1.026   0.232  1.00  0.00     0.152 C 
BRANCH  22  23
HETATM   23  C6  UNL     1       2.748  -0.666  -1.138  1.00  0.00     0.001 C 
HETATM   24  C5  UNL     1       3.189   0.507  -1.468  1.00  0.00    -0.028 C 
BRANCH  24  25
HETATM   25  C4  UNL     1       3.255   1.735  -0.652  1.00  0.00     0.030 C 
BRANCH  25  26
HETATM   26  C2  UNL     1       4.701   2.185  -0.543  1.00  0.00    -0.019 C 
HETATM   27  C1  UNL     1       4.756   3.454   0.296  1.00  0.00     0.010 C 
HETATM   28  C3  UNL     1       5.289   2.472  -1.896  1.00  0.00     0.010 C 
ENDBRANCH  25  26
ENDBRANCH  24  25
ENDBRANCH  22  23
BRANCH  22  29
HETATM   29  C25 UNL     1       3.027  -2.038   0.889  1.00  0.00    -0.022 C 
HETATM   30  C26 UNL     1       2.534  -2.409   2.258  1.00  0.00     0.017 C 
HETATM   31  C27 UNL     1       4.475  -1.605   1.068  1.00  0.00     0.017 C 
HETATM   32  C28 UNL     1       3.033  -3.288   0.002  1.00  0.00     0.017 C 
ENDBRANCH  22  29
ENDBRANCH  21  22
ENDBRANCH   1  21
BRANCH  12  33
HETATM   33  O4  UNL     1      -0.698   1.299   1.964  1.00  0.00    -0.392 OA
ATOM     34  H4  UNL     1      -0.964   2.067   2.456  1.00  0.00     0.210 HD
ENDBRANCH  12  33
BRANCH   7  35
HETATM   35  O2  UNL     1      -2.889  -3.525  -0.569  1.00  0.00    -0.387 OA
ATOM     36  H2  UNL     1      -2.659  -4.170   0.089  1.00  0.00     0.210 HD
ENDBRANCH   7  35
TORSDOF 8
