REMARK  7 active torsions:
REMARK  status: ('A' for Active; 'I' for Inactive)
REMARK       I    between atoms: N1_2  and  C2_4 
REMARK       I    between atoms: C2_4  and  N2_6 
REMARK    1  A    between atoms: N2_6  and  C3_8 
REMARK    2  A    between atoms: C3_8  and  C5_10 
REMARK    3  A    between atoms: C7_14  and  N4_15 
REMARK    4  A    between atoms: C13_21  and  N5_22 
REMARK       I    between atoms: N5_22  and  C14_23 
REMARK    5  A    between atoms: N5_22  and  C19_30 
REMARK    6  A    between atoms: C14_23  and  O3_25 
REMARK    7  A    between atoms: O3_25  and  C15_26 
ROOT
HETATM    1  N4  UNL     1       1.841  -1.650   0.189  1.00  0.00    -0.366 N 
HETATM    2  C8  UNL     1       1.110  -1.683   1.425  1.00  0.00     0.125 C 
HETATM    3  C9  UNL     1      -0.225  -1.025   1.356  1.00  0.00     0.029 C 
HETATM    4  C10 UNL     1      -0.923  -1.112   0.036  1.00  0.00    -0.035 C 
HETATM    5  C11 UNL     1      -0.978   0.182  -0.709  1.00  0.00     0.012 C 
HETATM    6  C12 UNL     1      -2.218   0.094  -1.533  1.00  0.00     0.026 C 
HETATM    7  C13 UNL     1      -3.107  -0.947  -0.961  1.00  0.00     0.090 C 
HETATM    8  C22 UNL     1      -2.391  -1.405   0.280  1.00  0.00     0.035 C 
HETATM    9  C23 UNL     1      -0.300  -2.224  -0.780  1.00  0.00     0.029 C 
HETATM   10  C24 UNL     1       1.131  -1.898  -1.046  1.00  0.00     0.125 C 
ENDROOT
BRANCH   1  11
HETATM   11  C7  UNL     1       3.246  -1.377   0.212  1.00  0.00     0.125 A 
HETATM   12  N3  UNL     1       4.128  -2.340  -0.186  1.00  0.00    -0.350 N 
HETATM   13  C6  UNL     1       5.447  -2.137  -0.175  1.00  0.00     0.099 A 
ATOM     14  H3  UNL     1       3.768  -3.241  -0.501  1.00  0.00     0.166 HD
HETATM   15  C5  UNL     1       6.016  -0.954   0.233  1.00  0.00    -0.019 A 
HETATM   16  C26 UNL     1       5.144   0.033   0.639  1.00  0.00     0.038 A 
HETATM   17  C25 UNL     1       3.785  -0.184   0.625  1.00  0.00     0.078 A 
HETATM   18 CL1  UNL     1       2.726   1.098   1.136  1.00  0.00    -0.080 Cl
BRANCH  15  19
HETATM   19  C3  UNL     1       7.501  -0.726   0.245  1.00  0.00     0.116 C 
HETATM   20  C4  UNL     1       8.161  -1.719  -0.657  1.00  0.00     0.037 C 
BRANCH  19  21
HETATM   21  N2  UNL     1       7.695   0.609  -0.339  1.00  0.00    -0.335 N 
HETATM   22  C2  UNL     1       8.300   1.642   0.416  1.00  0.00     0.316 C 
HETATM   23  N1  UNL     1       8.478   2.919  -0.159  1.00  0.00    -0.347 N 
HETATM   24  O1  UNL     1       8.671   1.424   1.577  1.00  0.00    -0.247 OA
HETATM   25  C1  UNL     1       9.094   3.988   0.593  1.00  0.00     0.151 C 
ATOM     26  H1  UNL     1       8.168   3.089  -1.116  1.00  0.00     0.163 HD
ATOM     27  H2  UNL     1       7.391   0.792  -1.295  1.00  0.00     0.165 HD
ENDBRANCH  19  21
ENDBRANCH  15  19
ENDBRANCH   1  11
BRANCH   7  28
HETATM   28  N5  UNL     1      -4.457  -0.495  -0.739  1.00  0.00    -0.319 N 
HETATM   29  C14 UNL     1      -4.696   0.617   0.110  1.00  0.00     0.364 C 
HETATM   30  O2  UNL     1      -3.743   1.207   0.661  1.00  0.00    -0.238 OA
BRANCH  29  31
HETATM   31  O3  UNL     1      -5.971   1.093   0.365  1.00  0.00    -0.294 OA
BRANCH  31  32
HETATM   32  C15 UNL     1      -6.242   2.200   1.207  1.00  0.00     0.061 C 
HETATM   33  C16 UNL     1      -5.727   1.895   2.587  1.00  0.00     0.046 C 
HETATM   34  C17 UNL     1      -7.762   2.314   1.320  1.00  0.00     0.046 C 
HETATM   35  C18 UNL     1      -5.665   3.478   0.669  1.00  0.00     0.046 C 
ENDBRANCH  31  32
ENDBRANCH  29  31
BRANCH  28  36
HETATM   36  C19 UNL     1      -5.606  -1.136  -1.356  1.00  0.00     0.081 C 
HETATM   37  C20 UNL     1      -5.550  -1.087  -2.852  1.00  0.00     0.032 C 
HETATM   38  C21 UNL     1      -5.720  -2.562  -0.836  1.00  0.00     0.032 C 
ENDBRANCH  28  36
ENDBRANCH   7  28
TORSDOF 7
