REMARK  7 active torsions:
REMARK  status: ('A' for Active; 'I' for Inactive)
REMARK    1  A    between atoms: C3_3  and  C4_5 
REMARK    2  A    between atoms: C7_8  and  N1_9 
REMARK    3  A    between atoms: C11_16  and  N3_17 
REMARK    4  A    between atoms: N3_17  and  C12_19 
REMARK    5  A    between atoms: C12_19  and  C13_20 
REMARK    6  A    between atoms: C13_20  and  N4_21 
REMARK    7  A    between atoms: C18_26  and  N5_27 
ROOT
HETATM    1  C4  UNL     1      -4.908   0.800  -0.178  1.00  0.00     0.073 C 
HETATM    2  C5  UNL     1      -4.053  -0.441  -0.180  1.00  0.00    -0.018 A 
HETATM    3  C6  UNL     1      -4.682  -1.631  -0.476  1.00  0.00     0.061 A 
HETATM    4  C7  UNL     1      -3.919  -2.794  -0.468  1.00  0.00     0.115 A 
HETATM    5  N2  UNL     1      -2.617  -2.730  -0.178  1.00  0.00    -0.341 N 
ATOM      6  H2  UNL     1      -2.076  -3.594  -0.177  1.00  0.00     0.167 HD
HETATM    7  C9  UNL     1      -1.985  -1.575   0.114  1.00  0.00     0.046 A 
HETATM    8  C10 UNL     1      -0.638  -1.550   0.409  1.00  0.00     0.059 A 
HETATM    9  C11 UNL     1       0.036  -0.390   0.710  1.00  0.00     0.030 A 
HETATM   10  C22 UNL     1      -0.697   0.763   0.704  1.00  0.00     0.030 A 
HETATM   11  C23 UNL     1      -2.056   0.790   0.415  1.00  0.00     0.016 A 
HETATM   12  C24 UNL     1      -2.708  -0.386   0.118  1.00  0.00    -0.001 A 
HETATM   13  C25 UNL     1      -6.084  -1.770  -0.804  1.00  0.00     0.164 C 
HETATM   14  O1  UNL     1      -6.608  -2.862  -1.131  1.00  0.00    -0.292 OA
HETATM   15  C26 UNL     1      -6.926  -0.550  -0.744  1.00  0.00     0.093 C 
HETATM   16  C27 UNL     1      -6.290   0.393   0.218  1.00  0.00    -0.028 C 
HETATM   17  C28 UNL     1      -6.191  -0.284   1.591  1.00  0.00     0.016 C 
HETATM   18  C29 UNL     1      -7.214   1.577   0.413  1.00  0.00     0.016 C 
ENDROOT
BRANCH   9  19
HETATM   19  N3  UNL     1       1.437  -0.445   1.028  1.00  0.00    -0.388 N 
ATOM     20  H3  UNL     1       1.879  -1.359   1.126  1.00  0.00     0.159 HD
BRANCH  19  21
HETATM   21  C12 UNL     1       2.228   0.712   1.211  1.00  0.00     0.150 C 
BRANCH  21  22
HETATM   22  C13 UNL     1       3.659   0.568   1.544  1.00  0.00     0.292 C 
BRANCH  22  23
HETATM   23  N4  UNL     1       4.541  -0.069   0.661  1.00  0.00     0.092 N 
HETATM   24  C14 UNL     1       4.409  -1.474   0.514  1.00  0.00     0.272 C 
HETATM   25  C15 UNL     1       5.755  -2.162   0.291  1.00  0.00     0.030 C 
HETATM   26  C16 UNL     1       6.875  -1.167   0.133  1.00  0.00     0.004 C 
HETATM   27  C17 UNL     1       6.826  -0.466  -1.205  1.00  0.00     0.037 C 
HETATM   28  C18 UNL     1       6.136   0.862  -0.986  1.00  0.00     0.250 C 
HETATM   29  C21 UNL     1       4.710   0.604  -0.611  1.00  0.00     0.308 C 
BRANCH  28  30
HETATM   30  N5  UNL     1       6.854   1.679  -0.056  1.00  0.00     0.086 N 
HETATM   31  C19 UNL     1       6.298   2.995   0.034  1.00  0.00     0.310 C 
HETATM   32  C20 UNL     1       8.236   1.772  -0.466  1.00  0.00     0.310 C 
ENDBRANCH  28  30
ENDBRANCH  22  23
ENDBRANCH  21  22
ENDBRANCH  19  21
ENDBRANCH   9  19
BRANCH   4  33
HETATM   33  N1  UNL     1      -4.454  -3.922  -0.735  1.00  0.00    -0.380 N 
HETATM   34  C8  UNL     1      -3.638  -5.113  -0.719  1.00  0.00     0.147 C 
ATOM     35  H1  UNL     1      -5.448  -3.981  -0.957  1.00  0.00     0.160 HD
ENDBRANCH   4  33
BRANCH   1  36
HETATM   36  C3  UNL     1      -4.783   1.418  -1.518  1.00  0.00     0.017 C 
HETATM   37  C2  UNL     1      -4.670   2.718  -1.754  1.00  0.00    -0.011 C 
HETATM   38  C1  UNL     1      -4.639   3.801  -0.761  1.00  0.00     0.037 C 
HETATM   39 CL1  UNL     1      -4.788   0.370  -2.971  1.00  0.00    -0.088 Cl
ENDBRANCH   1  36
TORSDOF 7
