REMARK  7 active torsions:
REMARK  status: ('A' for Active; 'I' for Inactive)
REMARK    1  A    between atoms: C2_2  and  C3_3 
REMARK    2  A    between atoms: C3_3  and  C4_4 
REMARK    3  A    between atoms: C4_4  and  N1_5 
REMARK    4  A    between atoms: N1_5  and  C5_7 
REMARK    5  A    between atoms: C6_10  and  N3_11 
REMARK    6  A    between atoms: N3_11  and  C7_13 
REMARK    7  A    between atoms: C10_16  and  N4_17 
ROOT
HETATM    1  C5  UNL     1      -1.555  -0.072  -0.734  1.00  0.00     0.680 A 
HETATM    2  N2  UNL     1      -0.338   0.052  -0.187  1.00  0.00    -0.176 N 
ATOM      3  H2  UNL     1      -0.162   0.878   0.384  1.00  0.00     0.186 HD
HETATM    4  C6  UNL     1       0.669  -0.825  -0.331  1.00  0.00     0.131 A 
HETATM    5  C15 UNL     1       0.482  -1.987  -1.111  1.00  0.00     0.054 A 
HETATM    6  C16 UNL     1      -0.765  -2.096  -1.660  1.00  0.00     0.106 A 
HETATM    7  N5  UNL     1      -1.745  -1.169  -1.475  1.00  0.00    -0.184 N 
ATOM      8  H5  UNL     1      -2.653  -1.316  -1.916  1.00  0.00     0.185 HD
HETATM    9  S1  UNL     1      -0.697  -3.567  -2.528  1.00  0.00    -0.070 SA
HETATM   10  C17 UNL     1       0.916  -4.013  -2.175  1.00  0.00     0.020 A 
HETATM   11  C18 UNL     1       1.709  -5.118  -2.540  1.00  0.00     0.043 A 
HETATM   12  C19 UNL     1       2.999  -5.221  -2.103  1.00  0.00     0.035 A 
HETATM   13 CL1  UNL     1       3.937  -6.594  -2.574  1.00  0.00    -0.084 Cl
HETATM   14  C20 UNL     1       3.453  -4.204  -1.308  1.00  0.00     0.025 A 
HETATM   15  C21 UNL     1       2.692  -3.132  -0.951  1.00  0.00     0.015 A 
HETATM   16  C22 UNL     1       1.355  -2.990  -1.383  1.00  0.00    -0.002 A 
ENDROOT
BRANCH   1  17
HETATM   17  N1  UNL     1      -2.429   0.829  -0.524  1.00  0.00    -0.225 N 
ATOM     18  H1  UNL     1      -2.130   1.607   0.064  1.00  0.00     0.177 HD
BRANCH  17  19
HETATM   19  C4  UNL     1      -3.764   0.896  -0.999  1.00  0.00     0.148 C 
BRANCH  19  20
HETATM   20  C3  UNL     1      -4.794   1.122   0.072  1.00  0.00    -0.012 C 
HETATM   21  C23 UNL     1      -6.184   1.133  -0.583  1.00  0.00     0.050 C 
HETATM   22  C24 UNL     1      -6.681   0.466   0.688  1.00  0.00     0.179 C 
HETATM   23  F1  UNL     1      -7.584  -0.537   0.453  1.00  0.00    -0.249 F 
HETATM   24  C25 UNL     1      -5.244  -0.043   0.870  1.00  0.00    -0.007 C 
HETATM   25  C26 UNL     1      -5.127  -1.394   0.237  1.00  0.00     0.018 C 
HETATM   26  C27 UNL     1      -4.852  -0.087   2.317  1.00  0.00     0.018 C 
BRANCH  20  27
HETATM   27  C2  UNL     1      -4.635   2.391   0.863  1.00  0.00     0.007 C 
HETATM   28  C1  UNL     1      -4.707   3.632   0.008  1.00  0.00     0.006 C 
ENDBRANCH  20  27
ENDBRANCH  19  20
ENDBRANCH  17  19
ENDBRANCH   1  17
BRANCH   4  29
HETATM   29  N3  UNL     1       1.783  -0.560   0.260  1.00  0.00    -0.370 N 
ATOM     30  H3  UNL     1       2.524  -1.248   0.128  1.00  0.00     0.161 HD
BRANCH  29  31
HETATM   31  C7  UNL     1       2.120   0.548   1.064  1.00  0.00     0.083 C 
HETATM   32  C8  UNL     1       3.325   0.300   1.947  1.00  0.00     0.027 C 
HETATM   33  C9  UNL     1       4.612   0.193   1.185  1.00  0.00     0.038 C 
HETATM   34  C10 UNL     1       4.641   1.080  -0.035  1.00  0.00     0.222 C 
HETATM   35  C13 UNL     1       3.755   2.268   0.266  1.00  0.00     0.038 C 
HETATM   36  C14 UNL     1       2.324   1.774   0.189  1.00  0.00     0.027 C 
BRANCH  34  37
HETATM   37  N4  UNL     1       5.968   1.473  -0.428  1.00  0.00     0.084 N 
HETATM   38  C11 UNL     1       6.780   0.352  -0.800  1.00  0.00     0.309 C 
HETATM   39  C12 UNL     1       6.652   2.298   0.515  1.00  0.00     0.309 C 
ENDBRANCH  34  37
ENDBRANCH  29  31
ENDBRANCH   4  29
TORSDOF 7
