REMARK  6 active torsions:
REMARK  status: ('A' for Active; 'I' for Inactive)
REMARK    1  A    between atoms: N1_5  and  C5_6 
REMARK    2  A    between atoms: C7_10  and  C8_11 
REMARK       I    between atoms: C8_11  and  N3_13 
REMARK    3  A    between atoms: N3_13  and  C9_15 
REMARK    4  A    between atoms: C17_24  and  C18_25 
REMARK    5  A    between atoms: C18_25  and  C19_26 
REMARK    6  A    between atoms: C26_33  and  O2_34 
ROOT
HETATM    1  C5  UNL     1      -1.856   1.435  -0.230  1.00  0.00     0.128 A 
HETATM    2  N2  UNL     1      -0.627   0.907  -0.263  1.00  0.00    -0.340 N 
ATOM      3  H2  UNL     1       0.165   1.534  -0.405  1.00  0.00     0.167 HD
HETATM    4  C6  UNL     1      -0.379  -0.412  -0.118  1.00  0.00     0.063 A 
HETATM    5  C7  UNL     1       0.926  -0.792  -0.165  1.00  0.00     0.059 A 
HETATM    6  C15 UNL     1       1.203  -2.140  -0.008  1.00  0.00     0.020 A 
HETATM    7  C16 UNL     1       0.183  -3.052   0.187  1.00  0.00     0.009 A 
HETATM    8  C17 UNL     1      -1.147  -2.695   0.238  1.00  0.00    -0.042 A 
HETATM    9  C25 UNL     1      -1.405  -1.337   0.080  1.00  0.00     0.033 A 
HETATM   10  C26 UNL     1      -2.668  -0.804   0.116  1.00  0.00     0.104 A 
HETATM   11  C27 UNL     1      -2.898   0.570  -0.038  1.00  0.00     0.112 A 
HETATM   12 CL1  UNL     1      -4.527   1.157   0.024  1.00  0.00    -0.077 Cl
ENDROOT
BRANCH   5  13
HETATM   13  C8  UNL     1       1.978   0.190  -0.373  1.00  0.00     0.254 C 
HETATM   14  O1  UNL     1       1.759   1.156  -1.138  1.00  0.00    -0.268 OA
HETATM   15  N3  UNL     1       3.211   0.063   0.268  1.00  0.00    -0.352 N 
ATOM     16  H3  UNL     1       3.346  -0.739   0.883  1.00  0.00     0.163 HD
BRANCH  15  17
HETATM   17  C9  UNL     1       4.312   0.993   0.119  1.00  0.00     0.087 C 
HETATM   18  C10 UNL     1       5.549   0.274  -0.357  1.00  0.00     0.044 C 
HETATM   19  C11 UNL     1       6.672   1.229  -0.536  1.00  0.00     0.118 C 
HETATM   20  N4  UNL     1       6.587   2.425   0.225  1.00  0.00    -0.416 N 
HETATM   21  C12 UNL     1       7.736   3.254   0.201  1.00  0.00     0.143 C 
HETATM   22  C13 UNL     1       5.932   2.323   1.487  1.00  0.00     0.118 C 
HETATM   23  C14 UNL     1       4.642   1.586   1.472  1.00  0.00     0.044 C 
ENDBRANCH  15  17
ENDBRANCH   5  13
BRANCH   1  24
HETATM   24  N1  UNL     1      -2.012   2.867  -0.401  1.00  0.00    -0.366 N 
HETATM   25  C4  UNL     1      -2.758   3.338  -1.536  1.00  0.00     0.125 C 
HETATM   26  C3  UNL     1      -3.608   4.511  -1.157  1.00  0.00     0.024 C 
HETATM   27  C2  UNL     1      -2.805   5.601  -0.480  1.00  0.00    -0.015 C 
HETATM   28  C1  UNL     1      -3.784   6.670  -0.033  1.00  0.00     0.010 C 
HETATM   29  C29 UNL     1      -2.113   5.065   0.758  1.00  0.00     0.024 C 
HETATM   30  C28 UNL     1      -1.417   3.780   0.521  1.00  0.00     0.125 C 
ENDBRANCH   1  24
BRANCH   8  31
HETATM   31  C18 UNL     1      -2.251  -3.630   0.438  1.00  0.00     0.044 C 
BRANCH  31  32
HETATM   32  C19 UNL     1      -1.811  -5.091   0.385  1.00  0.00    -0.007 C 
HETATM   33  C20 UNL     1      -1.225  -5.501  -0.919  1.00  0.00     0.005 C 
HETATM   34  C21 UNL     1      -2.153  -6.490  -1.587  1.00  0.00     0.001 C 
HETATM   35  C22 UNL     1      -3.469  -6.261  -0.926  1.00  0.00     0.005 C 
HETATM   36  C23 UNL     1      -3.070  -5.960   0.500  1.00  0.00    -0.014 C 
HETATM   37  C24 UNL     1      -4.188  -5.248   1.177  1.00  0.00     0.010 C 
ENDBRANCH  31  32
ENDBRANCH   8  31
BRANCH  10  38
HETATM   38  O2  UNL     1      -3.751  -1.596   0.305  1.00  0.00    -0.358 OA
ATOM     39  H2  UNL     1      -4.626  -1.227   0.330  1.00  0.00     0.217 HD
ENDBRANCH  10  38
TORSDOF 6
