REMARK  8 active torsions:
REMARK  status: ('A' for Active; 'I' for Inactive)
REMARK    1  A    between atoms: O1_2  and  C2_3 
REMARK    2  A    between atoms: C2_3  and  C3_5 
REMARK    3  A    between atoms: C8_10  and  O3_11 
REMARK    4  A    between atoms: C8_10  and  C9_13 
REMARK    5  A    between atoms: C10_14  and  C11_16 
REMARK    6  A    between atoms: C11_16  and  C12_17 
REMARK    7  A    between atoms: C21_27  and  O4_28 
REMARK    8  A    between atoms: O4_28  and  C22_29 
ROOT
HETATM    1  C9  UNL     1      -0.382  -0.937  -0.140  1.00  0.00     0.025 C 
HETATM    2  C10 UNL     1       0.712  -0.268  -0.561  1.00  0.00    -0.012 C 
HETATM    3 BR1  UNL     1       0.431   1.553  -1.038  1.00  0.00    -0.056 Br
ENDROOT
BRANCH   2   4
HETATM    4  C11 UNL     1       2.015  -0.927  -0.669  1.00  0.00     0.058 C 
BRANCH   4   5
HETATM    5  C12 UNL     1       3.115  -0.502   0.188  1.00  0.00     0.053 C 
HETATM    6  C13 UNL     1       4.390  -1.306  -0.030  1.00  0.00    -0.042 A 
HETATM    7  C14 UNL     1       4.339  -2.519  -0.657  1.00  0.00     0.008 A 
HETATM    8  C18 UNL     1       5.586  -0.832   0.398  1.00  0.00    -0.013 A 
HETATM    9  C15 UNL     1       5.505  -3.278  -0.862  1.00  0.00     0.004 A 
HETATM   10  C16 UNL     1       6.713  -2.821  -0.441  1.00  0.00     0.043 A 
HETATM   11  C17 UNL     1       6.740  -1.588   0.193  1.00  0.00     0.123 A 
HETATM   12  F1  UNL     1       7.948  -1.138   0.610  1.00  0.00    -0.206 F 
HETATM   13  C19 UNL     1       5.760   0.464   1.072  1.00  0.00     0.045 C 
HETATM   14  C20 UNL     1       4.437   0.963   1.579  1.00  0.00     0.038 C 
HETATM   15  C21 UNL     1       3.492   0.934   0.300  1.00  0.00     0.141 C 
BRANCH  15  16
HETATM   16  O4  UNL     1       4.336   1.411  -0.693  1.00  0.00    -0.316 OA
BRANCH  16  17
HETATM   17  C22 UNL     1       4.318   2.664  -1.223  1.00  0.00     0.255 C 
HETATM   18  C23 UNL     1       5.252   3.110  -2.308  1.00  0.00     0.126 C 
HETATM   19  O5  UNL     1       3.504   3.523  -0.824  1.00  0.00    -0.266 OA
ENDBRANCH  16  17
ENDBRANCH  15  16
ENDBRANCH   4   5
ENDBRANCH   2   4
BRANCH   1  20
HETATM   20  C8  UNL     1      -1.715  -0.343  -0.041  1.00  0.00     0.077 C 
HETATM   21  C7  UNL     1      -2.546  -1.137   0.972  1.00  0.00     0.047 C 
HETATM   22  C5  UNL     1      -3.812  -0.331   1.186  1.00  0.00     0.003 C 
HETATM   23  C3  UNL     1      -4.603  -0.413  -0.101  1.00  0.00     0.051 C 
HETATM   24  C6  UNL     1      -4.598  -0.802   2.368  1.00  0.00     0.011 C 
HETATM   25  C4  UNL     1      -4.819  -1.853  -0.466  1.00  0.00     0.027 C 
HETATM   26  C25 UNL     1      -3.814   0.233  -1.211  1.00  0.00     0.003 C 
HETATM   27  C24 UNL     1      -2.445  -0.326  -1.363  1.00  0.00     0.047 C 
HETATM   28  C26 UNL     1      -3.792   1.732  -1.136  1.00  0.00     0.011 C 
BRANCH  23  29
HETATM   29  C2  UNL     1      -5.885   0.245   0.110  1.00  0.00     0.267 C 
HETATM   30  O2  UNL     1      -6.949  -0.409  -0.027  1.00  0.00    -0.264 OA
BRANCH  29  31
HETATM   31  O1  UNL     1      -6.034   1.584   0.464  1.00  0.00    -0.326 OA
HETATM   32  C1  UNL     1      -7.301   2.170   0.656  1.00  0.00     0.213 C 
ENDBRANCH  29  31
ENDBRANCH  23  29
BRANCH  20  33
HETATM   33  O3  UNL     1      -1.654   0.944   0.470  1.00  0.00    -0.386 OA
ATOM     34  H3  UNL     1      -1.139   1.436  -0.158  1.00  0.00     0.211 HD
ENDBRANCH  20  33
ENDBRANCH   1  20
TORSDOF 8
