REMARK  7 active torsions:
REMARK  status: ('A' for Active; 'I' for Inactive)
REMARK    1  A    between atoms: C2_2  and  C3_3 
REMARK    2  A    between atoms: C12_13  and  O2_14 
REMARK    3  A    between atoms: O2_14  and  C13_15 
REMARK    4  A    between atoms: C13_15  and  C14_17 
REMARK    5  A    between atoms: C17_21  and  C18_22 
REMARK    6  A    between atoms: C18_22  and  C19_23 
REMARK    7  A    between atoms: C27_33  and  O5_34 
ROOT
HETATM    1  C3  UNL     1      -3.712   1.043   1.066  1.00  0.00     0.101 C 
HETATM    2  C4  UNL     1      -3.389   2.283   1.961  1.00  0.00     0.053 C 
HETATM    3  O1  UNL     1      -2.672   0.237   1.149  1.00  0.00    -0.360 OA
HETATM    4  C5  UNL     1      -2.154  -0.530   0.130  1.00  0.00     0.094 C 
HETATM    5  C6  UNL     1      -2.719  -1.934   0.473  1.00  0.00     0.050 C 
HETATM    6  C7  UNL     1      -0.675  -0.603   0.383  1.00  0.00     0.036 C 
HETATM    7  C8  UNL     1      -0.272   0.657   1.136  1.00  0.00     0.036 C 
HETATM    8  C9  UNL     1       1.131   0.845   1.397  1.00  0.00    -0.023 C 
HETATM    9  C10 UNL     1       2.079   0.071   0.900  1.00  0.00    -0.072 C 
HETATM   10  C11 UNL     1       3.461   0.397   1.260  1.00  0.00     0.067 C 
HETATM   11  C12 UNL     1       4.491   0.082   0.194  1.00  0.00     0.136 C 
HETATM   12  C15 UNL     1       3.664   0.061  -1.110  1.00  0.00     0.034 C 
HETATM   13  C16 UNL     1       2.736  -1.123  -1.061  1.00  0.00     0.017 C 
HETATM   14  C17 UNL     1       1.682  -1.035   0.053  1.00  0.00    -0.008 C 
HETATM   15  C20 UNL     1       0.309  -0.860  -0.642  1.00  0.00    -0.024 C 
HETATM   16  C21 UNL     1       0.230  -2.037  -1.533  1.00  0.00     0.017 C 
HETATM   17  C22 UNL     1       0.385   0.356  -1.593  1.00  0.00     0.037 C 
HETATM   18  C23 UNL     1      -0.753   0.293  -2.616  1.00  0.00     0.169 C 
HETATM   19  O4  UNL     1      -1.700  -0.513  -2.152  1.00  0.00    -0.377 OA
HETATM   20  C24 UNL     1      -2.598  -0.127  -1.239  1.00  0.00     0.091 C 
HETATM   21  C25 UNL     1      -3.889  -0.859  -1.657  1.00  0.00     0.049 C 
HETATM   22  C26 UNL     1      -2.976   1.347  -1.306  1.00  0.00     0.075 C 
HETATM   23  C27 UNL     1      -4.056   1.644  -0.270  1.00  0.00     0.159 C 
ENDROOT
BRANCH  11  24
HETATM   24  O2  UNL     1       5.380   1.200  -0.014  1.00  0.00    -0.315 OA
BRANCH  24  25
HETATM   25  C13 UNL     1       6.740   1.083  -0.000  1.00  0.00     0.273 C 
HETATM   26  O3  UNL     1       7.230  -0.061   0.204  1.00  0.00    -0.264 OA
BRANCH  25  27
HETATM   27  C14 UNL     1       7.578   2.284  -0.223  1.00  0.00     0.225 C 
HETATM   28 CL1  UNL     1       6.567   3.700  -0.474  1.00  0.00    -0.120 Cl
ENDBRANCH  25  27
ENDBRANCH  24  25
ENDBRANCH  11  24
BRANCH  14  29
HETATM   29  C18 UNL     1       1.632  -2.295   0.843  1.00  0.00     0.030 C 
BRANCH  29  30
HETATM   30  C19 UNL     1       2.909  -2.788   1.461  1.00  0.00     0.116 C 
HETATM   31 CL2  UNL     1       2.438  -4.326   2.304  1.00  0.00    -0.130 Cl
ENDBRANCH  29  30
ENDBRANCH  14  29
BRANCH   1  32
HETATM   32  C2  UNL     1      -4.912   0.556   1.806  1.00  0.00     0.003 C 
HETATM   33  C1  UNL     1      -6.080   1.165   1.851  1.00  0.00     0.010 C 
ENDBRANCH   1  32
BRANCH  23  34
HETATM   34  O5  UNL     1      -5.314   1.238  -0.745  1.00  0.00    -0.392 OA
ATOM     35  H5  UNL     1      -5.531   1.617  -1.588  1.00  0.00     0.210 HD
ENDBRANCH  23  34
TORSDOF 7
