REMARK  7 active torsions:
REMARK  status: ('A' for Active; 'I' for Inactive)
REMARK    1  A    between atoms: O1_2  and  C2_3 
REMARK    2  A    between atoms: C17_25  and  N4_26 
REMARK    3  A    between atoms: N4_26  and  C18_28 
REMARK    4  A    between atoms: C21_31  and  C22_32 
REMARK    5  A    between atoms: C23_33  and  C24_34 
REMARK    6  A    between atoms: C24_34  and  O2_37 
REMARK    7  A    between atoms: C27_39  and  C28_40 
ROOT
HETATM    1  C2  UNL     1       2.732  -1.130  -1.645  1.00  0.00     0.149 A 
HETATM    2  N1  UNL     1       2.596  -0.762  -2.920  1.00  0.00    -0.346 N 
ATOM      3  H1  UNL     1       3.237  -1.137  -3.619  1.00  0.00     0.167 HD
HETATM    4  C3  UNL     1       1.631   0.093  -3.302  1.00  0.00     0.091 A 
HETATM    5  C4  UNL     1       0.740   0.633  -2.416  1.00  0.00     0.030 A 
HETATM    6  C5  UNL     1       0.874   0.252  -1.078  1.00  0.00    -0.011 A 
HETATM    7  C6  UNL     1      -0.111   0.775  -0.167  1.00  0.00     0.011 A 
HETATM    8  C7  UNL     1      -0.105   2.101   0.239  1.00  0.00     0.012 A 
HETATM    9  C8  UNL     1       0.884   3.073  -0.176  1.00  0.00     0.019 A 
HETATM   10  C9  UNL     1       2.102   3.120   0.450  1.00  0.00     0.017 A 
HETATM   11  C10 UNL     1       3.089   4.016   0.093  1.00  0.00     0.027 A 
HETATM   12  C11 UNL     1       2.885   4.916  -0.923  1.00  0.00     0.086 A 
HETATM   13  C12 UNL     1       3.865   5.862  -1.332  1.00  0.00     0.102 C 
HETATM   14  N2  UNL     1       4.669   6.614  -1.670  1.00  0.00    -0.191 NA
HETATM   15  C13 UNL     1       1.675   4.895  -1.570  1.00  0.00     0.176 A 
HETATM   16  F1  UNL     1       1.428   5.766  -2.586  1.00  0.00    -0.201 F 
HETATM   17  C14 UNL     1       0.698   3.985  -1.195  1.00  0.00     0.167 A 
HETATM   18  F2  UNL     1      -0.481   4.043  -1.887  1.00  0.00    -0.202 F 
HETATM   19  C15 UNL     1      -1.151   2.461   1.093  1.00  0.00     0.019 A 
HETATM   20  C16 UNL     1      -1.214   3.878   1.574  1.00  0.00     0.069 C 
HETATM   21  N3  UNL     1      -2.099   1.597   1.499  1.00  0.00    -0.344 N 
ATOM     22  H3  UNL     1      -2.839   1.916   2.124  1.00  0.00     0.167 HD
HETATM   23  C17 UNL     1      -2.080   0.317   1.089  1.00  0.00     0.121 A 
HETATM   24  C21 UNL     1      -1.090  -0.134   0.244  1.00  0.00     0.073 A 
HETATM   25  C27 UNL     1       1.843  -0.615  -0.653  1.00  0.00     0.008 A 
ENDROOT
BRANCH  24  26
HETATM   26  C22 UNL     1      -1.144  -1.496  -0.214  1.00  0.00    -0.059 C 
HETATM   27  C23 UNL     1      -1.195  -2.635  -0.626  1.00  0.00    -0.063 C 
BRANCH  27  28
HETATM   28  C24 UNL     1      -1.256  -4.019  -1.159  1.00  0.00     0.114 C 
HETATM   29  C25 UNL     1      -2.291  -4.817  -0.381  1.00  0.00     0.060 C 
HETATM   30  C26 UNL     1       0.108  -4.603  -1.052  1.00  0.00     0.060 C 
BRANCH  28  31
HETATM   31  O2  UNL     1      -1.640  -4.016  -2.500  1.00  0.00    -0.378 OA
ATOM     32  H2  UNL     1      -1.679  -4.902  -2.841  1.00  0.00     0.211 HD
ENDBRANCH  28  31
ENDBRANCH  27  28
ENDBRANCH  24  26
BRANCH  25  33
HETATM   33  C28 UNL     1       2.115  -1.156   0.689  1.00  0.00     0.024 A 
HETATM   34  C29 UNL     1       1.807  -0.622   1.990  1.00  0.00     0.010 A 
HETATM   35  C30 UNL     1       3.218  -0.511   1.526  1.00  0.00     0.010 A 
ENDBRANCH  25  33
BRANCH  23  36
HETATM   36  N4  UNL     1      -2.975  -0.540   1.470  1.00  0.00    -0.371 N 
ATOM     37  H4  UNL     1      -2.905  -1.496   1.122  1.00  0.00     0.161 HD
BRANCH  36  38
HETATM   38  C18 UNL     1      -4.063  -0.216   2.358  1.00  0.00     0.075 C 
HETATM   39  C19 UNL     1      -5.175   0.469   1.623  1.00  0.00     0.031 C 
HETATM   40  C20 UNL     1      -4.629  -1.520   2.918  1.00  0.00     0.031 C 
ENDBRANCH  36  38
ENDBRANCH  23  36
BRANCH   1  41
HETATM   41  O1  UNL     1       3.736  -2.025  -1.240  1.00  0.00    -0.340 OA
HETATM   42  C1  UNL     1       4.601  -2.524  -2.227  1.00  0.00     0.211 C 
ENDBRANCH   1  41
TORSDOF 7
