REMARK  7 active torsions:
REMARK  status: ('A' for Active; 'I' for Inactive)
REMARK    1  A    between atoms: O1_2  and  C2_3 
REMARK    2  A    between atoms: C6_9  and  C7_10 
REMARK    3  A    between atoms: C10_13  and  C11_14 
REMARK    4  A    between atoms: C16_24  and  C17_25 
REMARK    5  A    between atoms: C20_28  and  N3_29 
REMARK    6  A    between atoms: C23_32  and  O3_33 
REMARK    7  A    between atoms: O3_33  and  C24_34 
ROOT
HETATM    1  C2  UNL     1       0.908  -2.980   2.262  1.00  0.00     0.082 A 
HETATM    2  C3  UNL     1       2.034  -3.611   2.793  1.00  0.00     0.082 A 
HETATM    3  C4  UNL     1       3.261  -3.092   2.572  1.00  0.00     0.153 A 
HETATM    4  F1  UNL     1       4.369  -3.687   3.074  1.00  0.00    -0.203 F 
HETATM    5  C5  UNL     1       3.371  -1.955   1.832  1.00  0.00     0.126 A 
HETATM    6  O2  UNL     1       4.444  -1.261   1.490  1.00  0.00    -0.306 OA
HETATM    7  C6  UNL     1       4.136  -0.225   0.784  1.00  0.00     0.087 A 
HETATM    8  C14 UNL     1       2.745  -0.242   0.653  1.00  0.00     0.053 A 
HETATM    9  C15 UNL     1       2.261  -1.340   1.314  1.00  0.00     0.017 A 
HETATM   10  C16 UNL     1       0.960  -1.833   1.507  1.00  0.00     0.013 A 
ENDROOT
BRANCH  10  11
HETATM   11  C17 UNL     1      -0.247  -1.177   1.023  1.00  0.00    -0.066 C 
HETATM   12  C18 UNL     1      -0.188  -0.351  -0.203  1.00  0.00     0.037 C 
HETATM   13  C19 UNL     1      -1.324  -0.373  -1.171  1.00  0.00     0.030 C 
HETATM   14  C20 UNL     1      -2.584  -1.042  -0.729  1.00  0.00     0.088 C 
HETATM   15  C27 UNL     1      -2.702  -0.981   0.780  1.00  0.00     0.030 C 
HETATM   16  C28 UNL     1      -1.535  -1.871   1.308  1.00  0.00     0.037 C 
BRANCH  14  17
HETATM   17  N3  UNL     1      -3.748  -0.653  -1.420  1.00  0.00    -0.369 N 
HETATM   18  C21 UNL     1      -4.922  -1.380  -1.188  1.00  0.00     0.066 C 
HETATM   19  C22 UNL     1      -6.111  -0.642  -0.682  1.00  0.00     0.077 C 
HETATM   20  C23 UNL     1      -6.355   0.671  -1.369  1.00  0.00     0.140 C 
HETATM   21  C25 UNL     1      -5.237   1.112  -2.250  1.00  0.00     0.077 C 
HETATM   22  C26 UNL     1      -3.869   0.703  -1.784  1.00  0.00     0.066 C 
BRANCH  20  23
HETATM   23  O3  UNL     1      -6.580   1.685  -0.400  1.00  0.00    -0.323 OA
BRANCH  23  24
HETATM   24  C24 UNL     1      -6.828   2.987  -0.789  1.00  0.00     0.223 C 
HETATM   25  N4  UNL     1      -5.962   4.063  -0.536  1.00  0.00    -0.063 NA
HETATM   26  S1  UNL     1      -8.233   3.275  -1.600  1.00  0.00    -0.037 SA
ENDBRANCH  23  24
ENDBRANCH  20  23
ENDBRANCH  14  17
ENDBRANCH  10  11
BRANCH   1  27
HETATM   27  O1  UNL     1      -0.278  -3.579   2.539  1.00  0.00    -0.355 OA
HETATM   28  C1  UNL     1      -0.486  -4.735   3.283  1.00  0.00     0.210 C 
ENDBRANCH   1  27
BRANCH   7  29
HETATM   29  C7  UNL     1       5.038   0.787   0.218  1.00  0.00     0.001 A 
HETATM   30  C8  UNL     1       6.395   0.715   0.386  1.00  0.00     0.015 A 
HETATM   31  C9  UNL     1       7.266   1.645  -0.131  1.00  0.00     0.019 A 
HETATM   32  C10 UNL     1       6.795   2.735  -0.872  1.00  0.00     0.043 A 
HETATM   33  C12 UNL     1       5.442   2.809  -1.040  1.00  0.00     0.130 A 
HETATM   34  F2  UNL     1       4.899   3.836  -1.746  1.00  0.00    -0.205 F 
HETATM   35  C13 UNL     1       4.560   1.848  -0.504  1.00  0.00     0.057 A 
BRANCH  32  36
HETATM   36  C11 UNL     1       7.746   3.698  -1.402  1.00  0.00     0.123 C 
HETATM   37  N1  UNL     1       7.530   4.739  -2.083  1.00  0.00    -0.387 N 
ATOM     38  H12 UNL     1       6.543   4.911  -2.275  1.00  0.00     0.157 HD
ATOM     39  H11 UNL     1       8.197   5.415  -2.455  1.00  0.00     0.157 HD
HETATM   40  N2  UNL     1       9.166   3.450  -1.126  1.00  0.00    -0.082 NA
ENDBRANCH  32  36
ENDBRANCH   7  29
TORSDOF 7
