REMARK  10 active torsions:
REMARK  status: ('A' for Active; 'I' for Inactive)
REMARK    1  A    between atoms: C2_2  and  C3_3 
REMARK    2  A    between atoms: C2_2  and  C12_15 
REMARK    3  A    between atoms: C3_3  and  C4_4 
REMARK    4  A    between atoms: C4_4  and  N1_5 
REMARK    5  A    between atoms: C15_18  and  N2_19 
REMARK    6  A    between atoms: N2_19  and  C16_21 
REMARK    7  A    between atoms: C16_21  and  O3_22 
REMARK    8  A    between atoms: C16_21  and  C17_24 
REMARK    9  A    between atoms: C20_29  and  C21_30 
REMARK   10  A    between atoms: C26_39  and  C27_40 
ROOT
HETATM    1  N2  UNL     1       2.222  -1.585   0.292  1.00  0.00    -0.336 N 
ATOM      2  H2  UNL     1       2.548  -2.544   0.169  1.00  0.00     0.168 HD
ENDROOT
BRANCH   1   3
HETATM    3  C15 UNL     1       0.821  -1.281   0.160  1.00  0.00     0.034 A 
HETATM    4  C14 UNL     1       0.121  -1.819  -0.909  1.00  0.00     0.030 A 
HETATM    5  C13 UNL     1      -1.210  -1.519  -1.098  1.00  0.00     0.010 A 
HETATM    6  C12 UNL     1      -1.877  -0.666  -0.213  1.00  0.00    -0.054 A 
HETATM    7  C29 UNL     1      -1.162  -0.159   0.829  1.00  0.00     0.010 A 
HETATM    8  C28 UNL     1       0.191  -0.458   1.029  1.00  0.00     0.030 A 
BRANCH   6   9
HETATM    9  C2  UNL     1      -3.289  -0.324  -0.508  1.00  0.00     0.019 C 
HETATM   10  C1  UNL     1      -3.264   0.513  -1.786  1.00  0.00     0.015 C 
BRANCH   9  11
HETATM   11  C3  UNL     1      -4.103  -1.573  -0.692  1.00  0.00     0.053 C 
BRANCH  11  12
HETATM   12  C4  UNL     1      -5.506  -1.318  -1.097  1.00  0.00     0.063 C 
BRANCH  12  13
HETATM   13  N1  UNL     1      -6.315  -0.549  -0.248  1.00  0.00    -0.373 N 
HETATM   14  C5  UNL     1      -6.720  -1.065   0.993  1.00  0.00     0.068 C 
HETATM   15  C6  UNL     1      -8.224  -1.214   1.138  1.00  0.00     0.113 C 
HETATM   16  C7  UNL     1      -8.888   0.054   0.695  1.00  0.00     0.169 C 
HETATM   17  C8  UNL     1      -8.565   0.261  -0.772  1.00  0.00     0.089 C 
HETATM   18  O1  UNL     1     -10.257   0.063   0.926  1.00  0.00    -0.353 OA
HETATM   19  O2  UNL     1      -8.388   1.179   1.385  1.00  0.00    -0.353 OA
HETATM   20  C9  UNL     1      -7.063   0.502  -0.826  1.00  0.00     0.132 C 
HETATM   21  C10 UNL     1     -10.559   1.421   0.715  1.00  0.00     0.197 C 
HETATM   22  C11 UNL     1      -9.286   2.184   1.017  1.00  0.00     0.197 C 
ENDBRANCH  12  13
ENDBRANCH  11  12
ENDBRANCH   9  11
ENDBRANCH   6   9
ENDBRANCH   1   3
BRANCH   1  23
HETATM   23  C16 UNL     1       3.126  -0.583   0.584  1.00  0.00     0.153 C 
BRANCH  23  24
HETATM   24  O3  UNL     1       2.597   0.611   0.720  1.00  0.00    -0.345 OA
ATOM     25  H3  UNL     1       3.219   1.300   0.921  1.00  0.00     0.219 HD
ENDBRANCH  23  24
BRANCH  23  26
HETATM   26  C17 UNL     1       4.557  -0.604   0.754  1.00  0.00     0.045 A 
HETATM   27  C18 UNL     1       5.274   0.529   0.262  1.00  0.00     0.051 A 
HETATM   28  C19 UNL     1       6.636   0.551   0.273  1.00  0.00     0.079 A 
HETATM   29  N3  UNL     1       7.509   1.479  -0.132  1.00  0.00    -0.342 N 
HETATM   30  C25 UNL     1       7.341  -0.528   0.764  1.00  0.00     0.134 A 
HETATM   31  C20 UNL     1       8.771   1.037   0.077  1.00  0.00     0.091 A 
ATOM     32  H3  UNL     1       7.262   2.382  -0.537  1.00  0.00     0.167 HD
HETATM   33  N4  UNL     1       8.646  -0.180   0.621  1.00  0.00    -0.330 N 
ATOM     34  H4  UNL     1       9.431  -0.771   0.894  1.00  0.00     0.168 HD
HETATM   35  N5  UNL     1       6.680  -1.598   1.232  1.00  0.00    -0.339 N 
HETATM   36  C26 UNL     1       5.293  -1.624   1.224  1.00  0.00     0.090 A 
ATOM     37  H5  UNL     1       7.200  -2.396   1.596  1.00  0.00     0.167 HD
BRANCH  31  38
HETATM   38  C21 UNL     1      10.021   1.803  -0.264  1.00  0.00     0.007 C 
HETATM   39  C22 UNL     1      10.632   1.091  -1.472  1.00  0.00     0.022 C 
HETATM   40  C23 UNL     1       9.648   3.221  -0.590  1.00  0.00     0.022 C 
HETATM   41  C24 UNL     1      10.989   1.677   0.868  1.00  0.00     0.022 C 
ENDBRANCH  31  38
BRANCH  36  42
HETATM   42  C27 UNL     1       4.660  -2.810   1.869  1.00  0.00     0.404 C 
HETATM   43  F1  UNL     1       5.244  -2.937   3.142  1.00  0.00    -0.207 F 
HETATM   44  F2  UNL     1       5.067  -3.984   1.204  1.00  0.00    -0.207 F 
ENDBRANCH  36  42
ENDBRANCH  23  26
ENDBRANCH   1  23
TORSDOF 10
