REMARK  6 active torsions:
REMARK  status: ('A' for Active; 'I' for Inactive)
REMARK    1  A    between atoms: N1_2  and  C3_4 
REMARK    2  A    between atoms: C5_6  and  O1_7 
REMARK    3  A    between atoms: O1_7  and  C6_8 
REMARK    4  A    between atoms: C12_15  and  C13_16 
REMARK    5  A    between atoms: C16_22  and  C17_23 
REMARK    6  A    between atoms: C18_24  and  C19_25 
ROOT
HETATM    1  C13 UNL     1      -1.019  -1.911  -0.136  1.00  0.00     0.059 A 
HETATM    2  C14 UNL     1      -1.658  -3.119  -0.031  1.00  0.00     0.121 A 
HETATM    3  N2  UNL     1      -2.999  -3.226  -0.283  1.00  0.00    -0.330 N 
ATOM      4  H2  UNL     1      -3.450  -4.137  -0.197  1.00  0.00     0.168 HD
HETATM    5  C15 UNL     1      -3.735  -2.162  -0.640  1.00  0.00     0.273 A 
HETATM    6  O3  UNL     1      -4.972  -2.296  -0.866  1.00  0.00    -0.266 OA
HETATM    7  C16 UNL     1      -3.091  -0.950  -0.745  1.00  0.00     0.115 A 
HETATM    8  N5  UNL     1      -1.774  -0.852  -0.496  1.00  0.00    -0.349 N 
ATOM      9  H5  UNL     1      -1.327   0.061  -0.583  1.00  0.00     0.166 HD
ENDROOT
BRANCH   7  10
HETATM   10  C17 UNL     1      -3.852   0.229  -1.130  1.00  0.00     0.038 A 
HETATM   11  C18 UNL     1      -4.011   1.357  -0.326  1.00  0.00     0.073 A 
HETATM   12  N4  UNL     1      -4.770   2.197  -1.050  1.00  0.00    -0.353 N 
HETATM   13  C24 UNL     1      -5.085   1.658  -2.241  1.00  0.00     0.047 A 
ATOM     14  H4  UNL     1      -5.068   3.121  -0.737  1.00  0.00     0.166 HD
HETATM   15  C25 UNL     1      -5.838   2.133  -3.320  1.00  0.00     0.075 A 
HETATM   16  C29 UNL     1      -4.518   0.403  -2.331  1.00  0.00     0.009 A 
HETATM   17  C26 UNL     1      -6.009   1.361  -4.447  1.00  0.00     0.157 A 
HETATM   18  F1  UNL     1      -6.745   1.867  -5.460  1.00  0.00    -0.203 F 
HETATM   19  C27 UNL     1      -5.442   0.109  -4.536  1.00  0.00     0.155 A 
HETATM   20  F2  UNL     1      -5.615  -0.641  -5.647  1.00  0.00    -0.203 F 
HETATM   21  C28 UNL     1      -4.691  -0.374  -3.470  1.00  0.00     0.060 A 
BRANCH  11  22
HETATM   22  C19 UNL     1      -3.455   1.548   1.011  1.00  0.00     0.059 A 
HETATM   23  C20 UNL     1      -3.854   0.696   2.040  1.00  0.00     0.032 A 
HETATM   24  C21 UNL     1      -3.386   0.805   3.312  1.00  0.00     0.004 A 
HETATM   25  C22 UNL     1      -2.476   1.802   3.595  1.00  0.00     0.017 A 
HETATM   26  C23 UNL     1      -2.089   2.643   2.554  1.00  0.00     0.088 A 
HETATM   27  N3  UNL     1      -2.570   2.512   1.303  1.00  0.00    -0.364 N 
ATOM     28  H3  UNL     1      -2.259   3.151   0.572  1.00  0.00     0.165 HD
ENDBRANCH  11  22
ENDBRANCH   7  10
BRANCH   1  29
HETATM   29  C12 UNL     1       0.414  -1.706   0.117  1.00  0.00    -0.003 A 
HETATM   30  C11 UNL     1       0.977  -0.454  -0.007  1.00  0.00     0.050 A 
HETATM   31  C5  UNL     1       2.339  -0.221   0.226  1.00  0.00     0.072 A 
HETATM   32  C4  UNL     1       3.161  -1.261   0.591  1.00  0.00     0.066 A 
HETATM   33  C3  UNL     1       2.612  -2.517   0.720  1.00  0.00     0.033 A 
HETATM   34  C30 UNL     1       1.247  -2.734   0.483  1.00  0.00     0.043 A 
BRANCH  31  35
HETATM   35  O1  UNL     1       2.839   1.045   0.086  1.00  0.00    -0.346 OA
BRANCH  35  36
HETATM   36  C6  UNL     1       4.133   1.502   0.261  1.00  0.00     0.133 C 
HETATM   37  C7  UNL     1       4.143   2.596   1.328  1.00  0.00     0.058 C 
HETATM   38  C8  UNL     1       4.213   3.972   0.726  1.00  0.00     0.170 C 
HETATM   39  O2  UNL     1       5.449   4.169   0.116  1.00  0.00    -0.391 OA
HETATM   40  C9  UNL     1       5.836   3.054  -0.607  1.00  0.00     0.170 C 
HETATM   41  C10 UNL     1       4.669   2.188  -1.004  1.00  0.00     0.058 C 
ENDBRANCH  35  36
ENDBRANCH  31  35
BRANCH  33  42
HETATM   42  N1  UNL     1       3.455  -3.597   1.097  1.00  0.00    -0.389 N 
HETATM   43  C1  UNL     1       2.977  -4.950   1.256  1.00  0.00     0.149 C 
HETATM   44  C2  UNL     1       4.856  -3.347   1.338  1.00  0.00     0.149 C 
ENDBRANCH  33  42
ENDBRANCH   1  29
TORSDOF 6
