REMARK  6 active torsions:
REMARK  status: ('A' for Active; 'I' for Inactive)
REMARK       I    between atoms: N1_5  and  C5_6 
REMARK    1  A    between atoms: C5_6  and  C6_8 
REMARK    2  A    between atoms: C8_14  and  S1_15 
REMARK    3  A    between atoms: S1_15  and  S2_16 
REMARK    4  A    between atoms: S2_16  and  C9_17 
REMARK    5  A    between atoms: C10_20  and  C11_21 
REMARK    6  A    between atoms: C17_30  and  C18_31 
ROOT
HETATM    1  C9  UNL     1       1.573  -0.526   0.532  1.00  0.00     0.110 A 
HETATM    2  N4  UNL     1       2.574  -1.460   0.354  1.00  0.00    -0.338 N 
ATOM      3  H4  UNL     1       2.422  -2.459   0.217  1.00  0.00     0.168 HD
HETATM    4  C10 UNL     1       3.762  -0.870   0.387  1.00  0.00     0.086 A 
HETATM    5  N6  UNL     1       3.580   0.437   0.584  1.00  0.00    -0.343 N 
ATOM      6  H6  UNL     1       4.310   1.146   0.654  1.00  0.00     0.167 HD
HETATM    7  C17 UNL     1       2.210   0.652   0.676  1.00  0.00     0.081 A 
ENDROOT
BRANCH   1   8
HETATM    8  S2  UNL     1      -0.140  -0.920   0.563  1.00  0.00    -0.030 SA
BRANCH   8   9
HETATM    9  S1  UNL     1      -1.413   0.723   0.427  1.00  0.00    -0.030 SA
BRANCH   9  10
HETATM   10  C8  UNL     1      -1.814   1.055  -1.262  1.00  0.00     0.112 A 
HETATM   11  C6  UNL     1      -2.875   0.491  -1.935  1.00  0.00     0.084 A 
HETATM   12  C7  UNL     1      -2.835   0.999  -3.217  1.00  0.00     0.127 A 
HETATM   13  N2  UNL     1      -1.791   1.837  -3.314  1.00  0.00    -0.310 N 
HETATM   14  N3  UNL     1      -1.179   1.863  -2.121  1.00  0.00    -0.293 N 
ATOM     15  H2  UNL     1      -1.513   2.360  -4.145  1.00  0.00     0.186 HD
ATOM     16  H3  UNL     1      -0.351   2.417  -1.900  1.00  0.00     0.187 HD
BRANCH  11  17
HETATM   17  C5  UNL     1      -3.883  -0.464  -1.443  1.00  0.00     0.258 C 
HETATM   18  N1  UNL     1      -5.095   0.009  -0.878  1.00  0.00    -0.348 N 
HETATM   19  C4  UNL     1      -5.378   1.420  -0.766  1.00  0.00     0.126 C 
HETATM   20  C24 UNL     1      -6.069  -0.938  -0.410  1.00  0.00     0.126 C 
HETATM   21  C3  UNL     1      -6.037   1.786   0.517  1.00  0.00     0.024 C 
HETATM   22  C2  UNL     1      -7.130   0.865   0.964  1.00  0.00    -0.015 C 
HETATM   23  C1  UNL     1      -8.411   1.040   0.169  1.00  0.00     0.010 C 
HETATM   24  C25 UNL     1      -6.722  -0.590   0.886  1.00  0.00     0.024 C 
HETATM   25  O1  UNL     1      -3.689  -1.701  -1.516  1.00  0.00    -0.267 OA
ENDBRANCH  11  17
ENDBRANCH   9  10
ENDBRANCH   8   9
ENDBRANCH   1   8
BRANCH   7  26
HETATM   26  C18 UNL     1       1.671   1.981   0.919  1.00  0.00     0.035 A 
HETATM   27  C19 UNL     1       0.945   2.252   2.052  1.00  0.00     0.059 A 
HETATM   28  C20 UNL     1       0.483   3.549   2.314  1.00  0.00     0.117 A 
HETATM   29  F1  UNL     1      -0.233   3.820   3.432  1.00  0.00    -0.206 F 
HETATM   30  C21 UNL     1       0.739   4.589   1.448  1.00  0.00     0.045 A 
HETATM   31  C22 UNL     1       1.467   4.311   0.311  1.00  0.00     0.046 A 
HETATM   32  C23 UNL     1       1.913   3.038   0.069  1.00  0.00     0.129 A 
HETATM   33  F2  UNL     1       2.631   2.803  -1.070  1.00  0.00    -0.205 F 
ENDBRANCH   7  26
BRANCH   4  34
HETATM   34  C11 UNL     1       5.097  -1.556   0.233  1.00  0.00     0.056 C 
HETATM   35  C12 UNL     1       5.397  -2.437   1.396  1.00  0.00     0.032 C 
HETATM   36  C13 UNL     1       6.220  -3.601   0.986  1.00  0.00     0.117 C 
HETATM   37  N5  UNL     1       7.109  -3.427  -0.102  1.00  0.00    -0.417 N 
HETATM   38  C14 UNL     1       8.424  -2.986   0.202  1.00  0.00     0.143 C 
HETATM   39  C15 UNL     1       6.512  -2.858  -1.282  1.00  0.00     0.117 C 
HETATM   40  C16 UNL     1       5.105  -2.364  -1.020  1.00  0.00     0.032 C 
ENDBRANCH   4  34
TORSDOF 6
