REMARK  6 active torsions:
REMARK  status: ('A' for Active; 'I' for Inactive)
REMARK    1  A    between atoms: O1_2  and  C2_3 
REMARK    2  A    between atoms: C5_6  and  N1_7 
REMARK       I    between atoms: N1_7  and  C6_9 
REMARK    3  A    between atoms: C6_9  and  C7_11 
REMARK    4  A    between atoms: C10_14  and  O3_15 
REMARK    5  A    between atoms: O3_15  and  C11_16 
REMARK    6  A    between atoms: C21_30  and  C22_31 
ROOT
HETATM    1  C2  UNL     1      -4.726  -2.719  -0.836  1.00  0.00     0.077 A 
HETATM    2  C3  UNL     1      -3.699  -3.351  -1.503  1.00  0.00     0.039 A 
HETATM    3  C4  UNL     1      -2.399  -2.806  -1.442  1.00  0.00     0.032 A 
HETATM    4  C5  UNL     1      -2.159  -1.664  -0.732  1.00  0.00     0.035 A 
HETATM    5  C20 UNL     1      -3.217  -1.018  -0.048  1.00  0.00     0.042 A 
HETATM    6  C21 UNL     1      -4.473  -1.563  -0.118  1.00  0.00     0.005 A 
ENDROOT
BRANCH   4   7
HETATM    7  N1  UNL     1      -0.865  -1.098  -0.682  1.00  0.00    -0.323 N 
HETATM    8  C6  UNL     1       0.217  -1.311  -1.533  1.00  0.00     0.257 C 
HETATM    9  O2  UNL     1       0.159  -2.081  -2.514  1.00  0.00    -0.267 OA
ATOM     10  H1  UNL     1      -0.701  -0.443   0.083  1.00  0.00     0.169 HD
BRANCH   8  11
HETATM   11  C7  UNL     1       1.496  -0.609  -1.279  1.00  0.00     0.047 A 
HETATM   12  C8  UNL     1       2.533  -1.197  -0.618  1.00  0.00     0.022 A 
HETATM   13  C9  UNL     1       3.742  -0.547  -0.377  1.00  0.00     0.057 A 
HETATM   14  C10 UNL     1       3.865   0.744  -0.838  1.00  0.00     0.142 A 
HETATM   15  N2  UNL     1       2.817   1.331  -1.503  1.00  0.00    -0.346 N 
HETATM   16  C19 UNL     1       1.659   0.683  -1.724  1.00  0.00     0.107 A 
ATOM     17  H2  UNL     1       2.920   2.288  -1.840  1.00  0.00     0.167 HD
BRANCH  14  18
HETATM   18  O3  UNL     1       5.019   1.485  -0.655  1.00  0.00    -0.330 OA
BRANCH  18  19
HETATM   19  C11 UNL     1       6.176   1.067   0.004  1.00  0.00     0.134 C 
HETATM   20  C12 UNL     1       6.396   2.016   1.188  1.00  0.00     0.036 C 
HETATM   21  C13 UNL     1       7.667   1.725   1.915  1.00  0.00     0.049 C 
HETATM   22  C14 UNL     1       8.838   1.742   0.961  1.00  0.00     0.135 C 
HETATM   23  C15 UNL     1      10.087   1.304   1.720  1.00  0.00     0.055 C 
HETATM   24  F1  UNL     1       8.995   2.977   0.380  1.00  0.00    -0.240 F 
HETATM   25  C16 UNL     1       8.587   0.706  -0.117  1.00  0.00     0.137 C 
HETATM   26  C17 UNL     1       9.834   0.652  -0.974  1.00  0.00     0.055 C 
HETATM   27  F2  UNL     1       8.344  -0.505   0.493  1.00  0.00    -0.240 F 
HETATM   28  C18 UNL     1       7.386   1.149  -0.918  1.00  0.00     0.079 C 
ENDBRANCH  18  19
ENDBRANCH  14  18
ENDBRANCH   8  11
ENDBRANCH   4   7
BRANCH   6  29
HETATM   29  C22 UNL     1      -5.604  -0.886   0.564  1.00  0.00     0.058 C 
HETATM   30  C23 UNL     1      -6.349  -1.922   1.429  1.00  0.00     0.044 C 
HETATM   31  C24 UNL     1      -5.208   0.239   1.464  1.00  0.00     0.037 C 
HETATM   32  C25 UNL     1      -5.321   1.591   0.743  1.00  0.00     0.024 C 
HETATM   33  C26 UNL     1      -6.809   1.827   0.602  1.00  0.00     0.060 C 
HETATM   34  C27 UNL     1      -7.521   2.266   1.855  1.00  0.00     0.187 C 
HETATM   35  C28 UNL     1      -7.193   3.191   0.091  1.00  0.00     0.187 C 
HETATM   36  C29 UNL     1      -7.397   0.675  -0.099  1.00  0.00     0.084 C 
HETATM   37  O4  UNL     1      -8.214   3.193   1.060  1.00  0.00    -0.389 OA
HETATM   38  N3  UNL     1      -8.643   0.699  -0.441  1.00  0.00    -0.388 N 
HETATM   39  N4  UNL     1      -6.602  -0.457  -0.410  1.00  0.00    -0.366 N 
ATOM     40  H32 UNL     1      -9.215   1.513  -0.217  1.00  0.00     0.157 HD
ATOM     41  H31 UNL     1      -9.051  -0.100  -0.927  1.00  0.00     0.157 HD
ATOM     42  H4  UNL     1      -6.724  -0.958  -1.290  1.00  0.00     0.162 HD
ENDBRANCH   6  29
BRANCH   1  43
HETATM   43  O1  UNL     1      -6.024  -3.206  -0.855  1.00  0.00    -0.355 OA
HETATM   44  C1  UNL     1      -6.280  -4.387  -1.590  1.00  0.00     0.210 C 
ENDBRANCH   1  43
TORSDOF 6
