REMARK  9 active torsions:
REMARK  status: ('A' for Active; 'I' for Inactive)
REMARK    1  A    between atoms: C3_5  and  C4_6 
REMARK    2  A    between atoms: N2_16  and  C13_17 
REMARK    3  A    between atoms: C14_20  and  N4_21 
REMARK    4  A    between atoms: N4_21  and  C15_23 
REMARK    5  A    between atoms: C15_23  and  N5_25 
REMARK    6  A    between atoms: N5_25  and  C16_27 
REMARK    7  A    between atoms: C16_27  and  C18_29 
REMARK    8  A    between atoms: C18_29  and  C19_30 
REMARK    9  A    between atoms: C19_30  and  C20_31 
ROOT
HETATM    1  C13 UNL     1      -0.472  -1.297  -1.055  1.00  0.00     0.707 A 
HETATM    2  N3  UNL     1       0.473  -1.240  -0.113  1.00  0.00    -0.174 N 
ATOM      3  H3  UNL     1       0.702  -0.326   0.277  1.00  0.00     0.186 HD
HETATM    4  C14 UNL     1       1.139  -2.300   0.353  1.00  0.00     0.126 A 
HETATM    5  C23 UNL     1       0.823  -3.543  -0.183  1.00  0.00     0.092 A 
HETATM    6  C24 UNL     1      -0.155  -3.582  -1.155  1.00  0.00     0.123 A 
HETATM    7 CL1  UNL     1      -0.579  -5.131  -1.852  1.00  0.00    -0.064 Cl
HETATM    8  N6  UNL     1      -0.793  -2.483  -1.585  1.00  0.00    -0.179 N 
ATOM      9  H6  UNL     1      -1.512  -2.550  -2.305  1.00  0.00     0.185 HD
ENDROOT
BRANCH   1  10
HETATM   10  N2  UNL     1      -1.108  -0.070  -1.461  1.00  0.00    -0.072 N 
HETATM   11  C3  UNL     1      -2.406   0.211  -1.257  1.00  0.00     0.127 A 
HETATM   12  N1  UNL     1      -2.615   1.430  -1.771  1.00  0.00    -0.333 N 
HETATM   13  C2  UNL     1      -1.469   1.901  -2.285  1.00  0.00     0.094 A 
ATOM     14  H1  UNL     1      -3.508   1.924  -1.772  1.00  0.00     0.168 HD
HETATM   15  C1  UNL     1      -1.231   3.220  -2.960  1.00  0.00     0.090 C 
HETATM   16  N7  UNL     1      -0.547   0.952  -2.081  1.00  0.00    -0.267 N 
ATOM     17  H7  UNL     1       0.432   1.009  -2.360  1.00  0.00     0.189 HD
BRANCH  11  18
HETATM   18  C4  UNL     1      -3.392  -0.691  -0.583  1.00  0.00     0.061 C 
HETATM   19  C5  UNL     1      -4.473  -1.034  -1.571  1.00  0.00     0.038 C 
HETATM   20  C6  UNL     1      -5.453   0.063  -1.810  1.00  0.00     0.169 C 
HETATM   21  O1  UNL     1      -5.535   1.003  -0.819  1.00  0.00    -0.380 OA
HETATM   22  C7  UNL     1      -5.318   0.539   0.448  1.00  0.00     0.061 C 
HETATM   23  C8  UNL     1      -6.420  -0.421   0.815  1.00  0.00     0.038 C 
HETATM   24  C11 UNL     1      -5.497   1.680   1.427  1.00  0.00     0.038 C 
HETATM   25  C12 UNL     1      -3.944  -0.036   0.664  1.00  0.00     0.050 C 
HETATM   26  C9  UNL     1      -7.525   0.409   1.434  1.00  0.00     0.003 C 
HETATM   27  C10 UNL     1      -6.994   1.831   1.503  1.00  0.00     0.003 C 
ENDBRANCH  11  18
ENDBRANCH   1  10
BRANCH   4  28
HETATM   28  N4  UNL     1       2.054  -2.242   1.266  1.00  0.00    -0.319 N 
ATOM     29  H4  UNL     1       2.539  -3.077   1.594  1.00  0.00     0.169 HD
BRANCH  28  30
HETATM   30  C15 UNL     1       2.349  -0.940   1.792  1.00  0.00     0.173 C 
HETATM   31  S1  UNL     1       1.381  -0.306   2.981  1.00  0.00    -0.041 SA
BRANCH  30  32
HETATM   32  N5  UNL     1       3.422  -0.155   1.359  1.00  0.00    -0.363 N 
ATOM     33  H5  UNL     1       3.574   0.764   1.774  1.00  0.00     0.162 HD
BRANCH  32  34
HETATM   34  C16 UNL     1       4.320  -0.634   0.327  1.00  0.00     0.079 C 
HETATM   35  C17 UNL     1       5.096  -1.829   0.720  1.00  0.00     0.032 C 
BRANCH  34  36
HETATM   36  C18 UNL     1       5.037   0.478  -0.361  1.00  0.00     0.025 C 
BRANCH  36  37
HETATM   37  C19 UNL     1       5.866   1.382   0.457  1.00  0.00     0.006 C 
BRANCH  37  38
HETATM   38  C20 UNL     1       7.034   0.791   1.177  1.00  0.00    -0.023 C 
HETATM   39  C21 UNL     1       8.066   0.164   0.278  1.00  0.00     0.009 C 
HETATM   40  C22 UNL     1       7.703   1.986   1.906  1.00  0.00     0.009 C 
ENDBRANCH  37  38
ENDBRANCH  36  37
ENDBRANCH  34  36
ENDBRANCH  32  34
ENDBRANCH  30  32
ENDBRANCH  28  30
ENDBRANCH   4  28
TORSDOF 9
