REMARK  9 active torsions:
REMARK  status: ('A' for Active; 'I' for Inactive)
REMARK    1  A    between atoms: C12_14  and  O1_15 
REMARK    2  A    between atoms: O1_15  and  C13_16 
REMARK    3  A    between atoms: C13_16  and  C14_17 
REMARK    4  A    between atoms: C14_17  and  O2_18 
REMARK    5  A    between atoms: C14_17  and  C15_20 
REMARK    6  A    between atoms: C15_20  and  N1_21 
REMARK    7  A    between atoms: C18_24  and  N2_25 
REMARK       I    between atoms: N2_25  and  C19_27 
REMARK    8  A    between atoms: C19_27  and  O4_29 
REMARK    9  A    between atoms: O4_29  and  C20_30 
ROOT
HETATM    1  C14 UNL     1      -0.869   2.822  -1.754  1.00  0.00     0.170 C 
ENDROOT
BRANCH   1   2
HETATM    2  C13 UNL     1      -1.826   2.499  -2.888  1.00  0.00     0.209 C 
BRANCH   2   3
HETATM    3  O1  UNL     1      -2.160   1.236  -3.128  1.00  0.00    -0.345 OA
BRANCH   3   4
HETATM    4  C12 UNL     1      -2.819   0.179  -2.637  1.00  0.00     0.107 A 
HETATM    5  C11 UNL     1      -2.789  -1.016  -3.396  1.00  0.00     0.150 A 
HETATM    6  C10 UNL     1      -3.423  -2.164  -3.009  1.00  0.00     0.053 A 
HETATM    7  F1  UNL     1      -2.078  -0.972  -4.566  1.00  0.00    -0.203 F 
HETATM    8  C9  UNL     1      -4.132  -2.186  -1.830  1.00  0.00    -0.047 A 
HETATM    9  C8  UNL     1      -4.899  -3.304  -1.166  1.00  0.00     0.041 C 
HETATM   10  C27 UNL     1      -4.202  -1.060  -1.051  1.00  0.00    -0.030 A 
HETATM   11  C7  UNL     1      -4.822  -2.857   0.303  1.00  0.00     0.030 C 
HETATM   12  C6  UNL     1      -5.032  -1.362   0.101  1.00  0.00     0.039 C 
HETATM   13  C2  UNL     1      -4.800  -0.577   1.341  1.00  0.00     0.005 C 
HETATM   14  S1  UNL     1      -6.824  -1.184  -0.265  1.00  0.00    -0.154 SA
HETATM   15  C1  UNL     1      -5.342   0.818   1.163  1.00  0.00     0.012 C 
HETATM   16  C3  UNL     1      -5.465  -1.299   2.483  1.00  0.00     0.007 C 
HETATM   17  C4  UNL     1      -6.952  -1.238   2.497  1.00  0.00     0.010 C 
HETATM   18  C5  UNL     1      -7.642  -1.734   1.272  1.00  0.00     0.075 C 
HETATM   19  C26 UNL     1      -3.546   0.092  -1.472  1.00  0.00     0.049 A 
ENDBRANCH   3   4
ENDBRANCH   2   3
ENDBRANCH   1   2
BRANCH   1  20
HETATM   20  O2  UNL     1      -1.335   2.355  -0.566  1.00  0.00    -0.392 OA
ATOM     21  H2  UNL     1      -0.736   2.557   0.143  1.00  0.00     0.210 HD
ENDBRANCH   1  20
BRANCH   1  22
HETATM   22  C15 UNL     1       0.517   2.369  -2.045  1.00  0.00     0.306 C 
BRANCH  22  23
HETATM   23  N1  UNL     1       1.432   2.812  -1.005  1.00  0.00     0.091 N 
HETATM   24  C16 UNL     1       2.814   2.604  -1.439  1.00  0.00     0.274 C 
HETATM   25  C17 UNL     1       3.332   1.239  -1.149  1.00  0.00     0.055 C 
HETATM   26  C18 UNL     1       3.361   0.936   0.338  1.00  0.00     0.090 C 
HETATM   27  C24 UNL     1       2.410   1.816   1.051  1.00  0.00     0.055 C 
HETATM   28  C25 UNL     1       1.196   2.094   0.240  1.00  0.00     0.274 C 
BRANCH  26  29
HETATM   29  N2  UNL     1       4.729   1.080   0.801  1.00  0.00    -0.332 N 
HETATM   30  C19 UNL     1       5.664   0.011   0.868  1.00  0.00     0.361 C 
HETATM   31  O3  UNL     1       5.315  -1.133   0.503  1.00  0.00    -0.238 OA
ATOM     32  H2  UNL     1       5.039   2.006   1.097  1.00  0.00     0.165 HD
BRANCH  30  33
HETATM   33  O4  UNL     1       6.958   0.195   1.327  1.00  0.00    -0.294 OA
BRANCH  33  34
HETATM   34  C20 UNL     1       7.943  -0.805   1.398  1.00  0.00     0.061 C 
HETATM   35  C21 UNL     1       9.188  -0.118   1.967  1.00  0.00     0.046 C 
HETATM   36  C22 UNL     1       8.353  -1.294   0.014  1.00  0.00     0.046 C 
HETATM   37  C23 UNL     1       7.584  -1.966   2.268  1.00  0.00     0.046 C 
ENDBRANCH  33  34
ENDBRANCH  30  33
ENDBRANCH  26  29
ENDBRANCH  22  23
ENDBRANCH   1  22
TORSDOF 9
