REMARK  7 active torsions:
REMARK  status: ('A' for Active; 'I' for Inactive)
REMARK    1  A    between atoms: C2_2  and  C3_3 
REMARK    2  A    between atoms: C2_2  and  C8_9 
REMARK    3  A    between atoms: C3_3  and  C4_4 
REMARK    4  A    between atoms: C4_4  and  C5_5 
REMARK    5  A    between atoms: C5_5  and  N1_6 
REMARK    6  A    between atoms: C21_22  and  C22_23 
REMARK    7  A    between atoms: C28_36  and  O3_37 
ROOT
HETATM    1  C8  UNL     1       1.731  -0.411  -0.771  1.00  0.00    -0.006 C 
HETATM    2  C9  UNL     1       1.314  -1.612   0.047  1.00  0.00     0.006 C 
HETATM    3  C10 UNL     1      -0.173  -1.634   0.079  1.00  0.00     0.006 C 
HETATM    4  C11 UNL     1      -0.601  -0.482  -0.844  1.00  0.00    -0.005 C 
HETATM    5  C12 UNL     1       0.541   0.520  -0.751  1.00  0.00    -0.006 C 
HETATM    6  C13 UNL     1       0.459   1.333   0.493  1.00  0.00     0.006 C 
HETATM    7  C14 UNL     1      -0.822   2.126   0.555  1.00  0.00     0.013 C 
HETATM    8  C15 UNL     1      -1.915   1.617  -0.312  1.00  0.00    -0.008 C 
HETATM    9  C16 UNL     1      -1.782   2.221  -1.676  1.00  0.00     0.019 C 
HETATM   10  C17 UNL     1      -1.827   0.103  -0.296  1.00  0.00     0.002 C 
HETATM   11  C18 UNL     1      -3.116  -0.356  -0.921  1.00  0.00     0.021 C 
HETATM   12  C19 UNL     1      -4.110   0.562  -0.232  1.00  0.00     0.020 C 
HETATM   13  C20 UNL     1      -5.156   0.935  -1.263  1.00  0.00     0.021 C 
HETATM   14  C21 UNL     1      -4.718  -0.073   0.988  1.00  0.00     0.178 C 
HETATM   15  O1  UNL     1      -5.573   0.926   1.569  1.00  0.00    -0.310 OA
HETATM   16  C26 UNL     1      -4.850   2.034   2.059  1.00  0.00     0.262 C 
HETATM   17  O2  UNL     1      -5.376   2.935   2.749  1.00  0.00    -0.265 OA
HETATM   18  C27 UNL     1      -3.399   2.035   1.682  1.00  0.00     0.150 C 
HETATM   19  C28 UNL     1      -3.316   1.787   0.219  1.00  0.00     0.084 C 
ENDROOT
BRANCH  14  20
HETATM   20  C22 UNL     1      -5.417  -1.342   0.749  1.00  0.00     0.003 A 
HETATM   21  C23 UNL     1      -6.642  -1.421   0.135  1.00  0.00     0.101 A 
HETATM   22  N2  UNL     1      -7.198  -2.632  -0.028  1.00  0.00    -0.342 N 
HETATM   23  C24 UNL     1      -6.638  -3.786   0.368  1.00  0.00     0.178 A 
ATOM     24  H2  UNL     1      -8.109  -2.679  -0.484  1.00  0.00     0.167 HD
HETATM   25 CL1  UNL     1      -7.432  -5.350   0.121  1.00  0.00    -0.045 Cl
HETATM   26  N3  UNL     1      -5.441  -3.714   0.968  1.00  0.00    -0.342 N 
HETATM   27  C25 UNL     1      -4.842  -2.528   1.156  1.00  0.00     0.101 A 
ATOM     28  H3  UNL     1      -4.982  -4.568   1.284  1.00  0.00     0.167 HD
ENDBRANCH  14  20
BRANCH  19  29
HETATM   29  O3  UNL     1      -3.874   2.894  -0.421  1.00  0.00    -0.388 OA
ATOM     30  H3  UNL     1      -4.757   3.001  -0.086  1.00  0.00     0.210 HD
ENDBRANCH  19  29
BRANCH   1  31
HETATM   31  C2  UNL     1       2.993   0.168  -0.238  1.00  0.00    -0.014 C 
HETATM   32  C1  UNL     1       3.432   1.374  -1.059  1.00  0.00     0.010 C 
BRANCH  31  33
HETATM   33  C3  UNL     1       4.046  -0.941  -0.348  1.00  0.00     0.006 C 
BRANCH  33  34
HETATM   34  C4  UNL     1       5.397  -0.471   0.160  1.00  0.00     0.030 C 
BRANCH  34  35
HETATM   35  C5  UNL     1       6.319  -1.676  -0.013  1.00  0.00     0.271 C 
BRANCH  35  36
HETATM   36  N1  UNL     1       7.664  -1.424   0.409  1.00  0.00     0.080 N 
HETATM   37  C6  UNL     1       8.374  -0.492  -0.427  1.00  0.00     0.309 C 
HETATM   38  C7  UNL     1       7.723  -0.953   1.772  1.00  0.00     0.309 C 
ENDBRANCH  35  36
ENDBRANCH  34  35
ENDBRANCH  33  34
ENDBRANCH  31  33
ENDBRANCH   1  31
TORSDOF 7
