REMARK  7 active torsions:
REMARK  status: ('A' for Active; 'I' for Inactive)
REMARK    1  A    between atoms: C4_7  and  C5_8 
REMARK    2  A    between atoms: C5_8  and  O1_9 
REMARK    3  A    between atoms: C5_8  and  C6_11 
REMARK    4  A    between atoms: C10_15  and  N2_16 
REMARK       I    between atoms: N2_16  and  C11_18 
REMARK    5  A    between atoms: C11_18  and  C12_20 
REMARK    6  A    between atoms: C22_31  and  N4_32 
REMARK    7  A    between atoms: C26_36  and  C27_37 
ROOT
HETATM    1  C12 UNL     1      -4.417   1.206  -0.862  1.00  0.00     0.129 C 
HETATM    2  C13 UNL     1      -4.521   0.646  -2.242  1.00  0.00     0.079 C 
HETATM    3  N3  UNL     1      -4.614   0.211  -3.309  1.00  0.00    -0.196 NA
HETATM    4  C14 UNL     1      -4.899   2.597  -0.891  1.00  0.00     0.034 C 
HETATM    5  C15 UNL     1      -5.878   2.987   0.205  1.00  0.00     0.002 C 
HETATM    6  C16 UNL     1      -7.304   3.007  -0.283  1.00  0.00     0.000 C 
HETATM    7  C17 UNL     1      -8.202   1.956   0.230  1.00  0.00     0.000 C 
HETATM    8  C18 UNL     1      -7.549   0.695   0.706  1.00  0.00     0.000 C 
HETATM    9  C19 UNL     1      -6.601   0.110  -0.321  1.00  0.00     0.002 C 
HETATM   10  C20 UNL     1      -5.163   0.277   0.068  1.00  0.00     0.034 C 
ENDROOT
BRANCH   1  11
HETATM   11  C11 UNL     1      -2.958   1.185  -0.572  1.00  0.00     0.240 C 
HETATM   12  N2  UNL     1      -2.214  -0.028  -0.559  1.00  0.00    -0.355 N 
ATOM     13  H2  UNL     1      -2.708  -0.899  -0.753  1.00  0.00     0.162 HD
HETATM   14  O2  UNL     1      -2.386   2.270  -0.337  1.00  0.00    -0.272 OA
BRANCH  12  15
HETATM   15  C10 UNL     1      -0.812  -0.091  -0.289  1.00  0.00     0.084 C 
HETATM   16  C9  UNL     1      -0.511  -0.763   1.040  1.00  0.00     0.025 C 
HETATM   17  C8  UNL     1      -0.241  -2.240   0.902  1.00  0.00     0.002 C 
HETATM   18  C7  UNL     1       1.114  -2.375   0.258  1.00  0.00     0.007 C 
HETATM   19  C6  UNL     1       1.343  -1.189  -0.687  1.00  0.00     0.021 C 
HETATM   20  C21 UNL     1      -0.043  -0.843  -1.337  1.00  0.00     0.032 C 
BRANCH  19  21
HETATM   21  C5  UNL     1       2.263  -1.643  -1.754  1.00  0.00     0.163 C 
BRANCH  21  22
HETATM   22  C4  UNL     1       3.604  -2.083  -1.429  1.00  0.00     0.071 A 
HETATM   23  C3  UNL     1       4.122  -3.163  -2.225  1.00  0.00     0.202 A 
HETATM   24  N1  UNL     1       5.350  -3.586  -2.041  1.00  0.00    -0.322 N 
HETATM   25  F1  UNL     1       3.284  -3.704  -3.166  1.00  0.00    -0.185 F 
HETATM   26  C2  UNL     1       6.164  -3.033  -1.113  1.00  0.00     0.080 A 
ATOM     27  H1  UNL     1       5.701  -4.354  -2.614  1.00  0.00     0.169 HD
HETATM   28  C1  UNL     1       7.545  -3.544  -0.939  1.00  0.00     0.089 C 
HETATM   29  N5  UNL     1       5.696  -2.047  -0.386  1.00  0.00    -0.332 N 
HETATM   30  C22 UNL     1       4.423  -1.525  -0.501  1.00  0.00     0.118 A 
ATOM     31  H5  UNL     1       6.316  -1.637   0.313  1.00  0.00     0.168 HD
BRANCH  30  32
HETATM   32  N4  UNL     1       4.166  -0.350   0.240  1.00  0.00    -0.366 N 
HETATM   33  C23 UNL     1       4.190   0.919  -0.523  1.00  0.00     0.124 C 
HETATM   34  C24 UNL     1       5.308   1.756  -0.009  1.00  0.00     0.020 C 
HETATM   35  C25 UNL     1       5.849   1.393   1.333  1.00  0.00     0.017 C 
HETATM   36  C26 UNL     1       4.838   0.806   2.283  1.00  0.00     0.111 C 
HETATM   37  C28 UNL     1       3.965  -0.230   1.651  1.00  0.00     0.138 C 
BRANCH  36  38
HETATM   38  C27 UNL     1       4.098   1.928   2.962  1.00  0.00     0.393 C 
HETATM   39  F2  UNL     1       4.996   2.723   3.682  1.00  0.00    -0.171 F 
HETATM   40  F3  UNL     1       3.551   2.818   2.022  1.00  0.00    -0.171 F 
HETATM   41  F4  UNL     1       3.144   1.498   3.852  1.00  0.00    -0.171 F 
ENDBRANCH  36  38
ENDBRANCH  30  32
ENDBRANCH  21  22
BRANCH  21  42
HETATM   42  O1  UNL     1       1.620  -2.621  -2.571  1.00  0.00    -0.390 OA
ATOM     43  H1  UNL     1       0.740  -2.332  -2.784  1.00  0.00     0.210 HD
ENDBRANCH  21  42
ENDBRANCH  19  21
ENDBRANCH  12  15
ENDBRANCH   1  11
TORSDOF 7
