REMARK  8 active torsions:
REMARK  status: ('A' for Active; 'I' for Inactive)
REMARK    1  A    between atoms: N1_2  and  C2_4 
REMARK    2  A    between atoms: C5_7  and  O1_8 
REMARK    3  A    between atoms: C7_10  and  N2_11 
REMARK    4  A    between atoms: N3_14  and  C10_15 
REMARK    5  A    between atoms: C10_15  and  C11_16 
REMARK    6  A    between atoms: C12_17  and  O2_18 
REMARK    7  A    between atoms: C16_24  and  C17_25 
REMARK    8  A    between atoms: C18_29  and  C19_30 
ROOT
HETATM    1  C11 UNL     1      -3.010  -0.400  -0.364  1.00  0.00     0.016 A 
HETATM    2  C12 UNL     1      -2.548  -1.732  -0.376  1.00  0.00     0.079 A 
HETATM    3  C13 UNL     1      -3.407  -2.731  -0.078  1.00  0.00     0.060 A 
HETATM    4  C14 UNL     1      -4.718  -2.442   0.224  1.00  0.00     0.058 A 
HETATM    5  C15 UNL     1      -5.585  -3.546   0.625  1.00  0.00     0.100 C 
HETATM    6  N4  UNL     1      -6.251  -4.463   0.974  1.00  0.00    -0.191 NA
HETATM    7  C16 UNL     1      -5.229  -1.121   0.240  1.00  0.00     0.025 A 
HETATM    8  C18 UNL     1      -4.338  -0.087  -0.049  1.00  0.00    -0.009 A 
ENDROOT
BRANCH   7   9
HETATM    9  C17 UNL     1      -6.640  -0.960   0.378  1.00  0.00     0.218 C 
HETATM   10 CL1  UNL     1      -7.235  -2.289  -0.868  1.00  0.00    -0.078 Cl
HETATM   11 CL2  UNL     1      -7.457  -1.591   1.791  1.00  0.00    -0.078 Cl
HETATM   12 CL3  UNL     1      -7.528   0.293  -0.517  1.00  0.00    -0.078 Cl
ENDBRANCH   7   9
BRANCH   2  13
HETATM   13  O2  UNL     1      -1.194  -2.008  -0.703  1.00  0.00    -0.360 OA
ATOM     14  H2  UNL     1      -0.883  -2.906  -0.711  1.00  0.00     0.217 HD
ENDBRANCH   2  13
BRANCH   8  15
HETATM   15  C19 UNL     1      -4.714   1.282   0.165  1.00  0.00     0.058 C 
HETATM   16  C20 UNL     1      -4.581   2.263  -0.950  1.00  0.00     0.037 C 
HETATM   17  C21 UNL     1      -3.671   1.787   1.253  1.00  0.00     0.037 C 
HETATM   18 CL4  UNL     1      -6.161   1.700   1.096  1.00  0.00    -0.115 Cl
ENDBRANCH   8  15
BRANCH   1  19
HETATM   19  C10 UNL     1      -2.041   0.537  -0.894  1.00  0.00     0.074 C 
BRANCH  19  20
HETATM   20  N3  UNL     1      -0.654   0.235  -0.585  1.00  0.00    -0.289 NA
HETATM   21  C9  UNL     1       0.084   1.275  -1.372  1.00  0.00     0.114 C 
HETATM   22  C8  UNL     1       1.544   0.861  -1.463  1.00  0.00     0.138 C 
HETATM   23  N2  UNL     1       2.013   0.375  -0.209  1.00  0.00    -0.376 N 
HETATM   24  C23 UNL     1       1.216   0.105   0.955  1.00  0.00     0.138 C 
HETATM   25  C22 UNL     1      -0.213   0.462   0.752  1.00  0.00     0.114 C 
BRANCH  23  26
HETATM   26  C7  UNL     1       3.431   0.121  -0.072  1.00  0.00     0.066 A 
HETATM   27  C5  UNL     1       4.331   1.149  -0.126  1.00  0.00     0.094 A 
HETATM   28  C4  UNL     1       5.677   0.868  -0.001  1.00  0.00     0.041 A 
HETATM   29  C3  UNL     1       6.156  -0.412   0.176  1.00  0.00     0.032 A 
HETATM   30  C2  UNL     1       5.218  -1.422   0.225  1.00  0.00     0.029 A 
HETATM   31  C24 UNL     1       3.871  -1.169   0.103  1.00  0.00     0.061 A 
BRANCH  27  32
HETATM   32  O1  UNL     1       3.882   2.465  -0.303  1.00  0.00    -0.354 OA
HETATM   33  C6  UNL     1       4.786   3.531  -0.360  1.00  0.00     0.210 C 
ENDBRANCH  27  32
BRANCH  30  34
HETATM   34  N1  UNL     1       5.687  -2.754   0.407  1.00  0.00    -0.394 N 
HETATM   35  C1  UNL     1       7.101  -3.031   0.538  1.00  0.00     0.146 C 
ATOM     36  H1  UNL     1       5.018  -3.523   0.446  1.00  0.00     0.159 HD
ENDBRANCH  30  34
ENDBRANCH  23  26
ENDBRANCH  19  20
ENDBRANCH   1  19
TORSDOF 8
