REMARK  7 active torsions:
REMARK  status: ('A' for Active; 'I' for Inactive)
REMARK    1  A    between atoms: C2_2  and  N1_4 
REMARK    2  A    between atoms: N1_4  and  C4_6 
REMARK    3  A    between atoms: C5_9  and  C6_10 
REMARK       I    between atoms: C6_10  and  N3_12 
REMARK    4  A    between atoms: N3_12  and  C7_14 
REMARK    5  A    between atoms: C7_14  and  C8_15 
REMARK    6  A    between atoms: N4_23  and  C16_24 
REMARK    7  A    between atoms: C17_29  and  C18_30 
ROOT
HETATM    1  C8  UNL     1       0.261   0.132   1.154  1.00  0.00     0.003 C 
HETATM    2  C9  UNL     1      -0.138  -1.255   0.714  1.00  0.00     0.007 C 
HETATM    3  C10 UNL     1      -0.881  -1.200  -0.616  1.00  0.00     0.010 C 
HETATM    4  C11 UNL     1      -2.085  -0.268  -0.521  1.00  0.00    -0.037 C 
HETATM    5  C12 UNL     1      -1.592   1.129  -0.180  1.00  0.00     0.010 C 
HETATM    6  C13 UNL     1      -0.109   1.163   0.142  1.00  0.00     0.007 C 
HETATM    7  C14 UNL     1      -2.665  -0.172  -1.915  1.00  0.00     0.030 C 
HETATM    8  C15 UNL     1      -4.017   0.517  -1.940  1.00  0.00     0.142 C 
HETATM    9  N4  UNL     1      -4.816   0.206  -0.750  1.00  0.00    -0.212 N 
HETATM   10  C20 UNL     1      -4.457  -1.019  -0.071  1.00  0.00     0.098 C 
HETATM   11  C21 UNL     1      -4.499  -2.242  -0.968  1.00  0.00     0.033 C 
HETATM   12  C22 UNL     1      -3.037  -0.808   0.490  1.00  0.00     0.035 C 
ENDROOT
BRANCH   1  13
HETATM   13  C7  UNL     1       1.624   0.234   1.735  1.00  0.00     0.127 C 
BRANCH  13  14
HETATM   14  N3  UNL     1       2.657  -0.192   0.848  1.00  0.00    -0.355 N 
HETATM   15  C6  UNL     1       3.979  -0.139   1.313  1.00  0.00     0.270 C 
HETATM   16  O1  UNL     1       4.260   0.296   2.453  1.00  0.00    -0.266 OA
ATOM     17  H3  UNL     1       2.441  -0.524  -0.092  1.00  0.00     0.162 HD
BRANCH  15  18
HETATM   18  C5  UNL     1       5.126  -0.597   0.438  1.00  0.00     0.131 A 
HETATM   19  N2  UNL     1       6.302  -0.092   0.582  1.00  0.00    -0.330 N 
HETATM   20  C4  UNL     1       7.324  -0.556  -0.171  1.00  0.00     0.146 A 
ATOM     21  H2  UNL     1       6.461   0.653   1.260  1.00  0.00     0.168 HD
HETATM   22  S1  UNL     1       6.539  -1.763  -1.121  1.00  0.00    -0.040 SA
HETATM   23  C23 UNL     1       4.946  -1.586  -0.476  1.00  0.00     0.110 A 
HETATM   24 CL1  UNL     1       3.511  -2.529  -0.936  1.00  0.00    -0.073 Cl
BRANCH  20  25
HETATM   25  N1  UNL     1       8.508  -0.178  -0.146  1.00  0.00    -0.366 N 
ATOM     26  H1  UNL     1       8.466   0.551   0.567  1.00  0.00     0.162 HD
BRANCH  25  27
HETATM   27  C2  UNL     1       9.776  -0.139  -0.471  1.00  0.00     0.075 C 
HETATM   28  C1  UNL     1      10.299   1.330  -0.446  1.00  0.00     0.032 C 
HETATM   29  C3  UNL     1      10.778  -0.882   0.417  1.00  0.00     0.032 C 
ENDBRANCH  25  27
ENDBRANCH  20  25
ENDBRANCH  15  18
ENDBRANCH  13  14
ENDBRANCH   1  13
BRANCH   9  30
HETATM   30  C16 UNL     1      -5.787   1.125  -0.329  1.00  0.00     0.698 A 
HETATM   31  N5  UNL     1      -5.615   2.491  -0.287  1.00  0.00    -0.130 N 
HETATM   32  N6  UNL     1      -6.677   3.100   0.135  1.00  0.00    -0.267 N 
ATOM     33  H5  UNL     1      -4.754   2.966  -0.556  1.00  0.00     0.205 HD
HETATM   34  C17 UNL     1      -7.607   2.147   0.387  1.00  0.00     0.222 A 
ATOM     35  H6  UNL     1      -6.792   4.106   0.255  1.00  0.00     0.189 HD
HETATM   36  N7  UNL     1      -7.031   0.947   0.093  1.00  0.00    -0.165 N 
HETATM   37  C19 UNL     1      -7.745  -0.312   0.250  1.00  0.00     0.177 C 
BRANCH  34  38
HETATM   38  C18 UNL     1      -8.976   2.390   0.916  1.00  0.00     0.451 C 
HETATM   39  F1  UNL     1      -9.029   2.058   2.289  1.00  0.00    -0.163 F 
HETATM   40  F2  UNL     1      -9.946   1.763   0.214  1.00  0.00    -0.163 F 
HETATM   41  F3  UNL     1      -9.262   3.777   0.868  1.00  0.00    -0.163 F 
ENDBRANCH  34  38
ENDBRANCH   9  30
TORSDOF 7
