REMARK  10 active torsions:
REMARK  status: ('A' for Active; 'I' for Inactive)
REMARK    1  A    between atoms: C2_2  and  O2_4 
REMARK    2  A    between atoms: O2_4  and  C3_5 
REMARK    3  A    between atoms: C3_5  and  C4_6 
REMARK    4  A    between atoms: C3_5  and  C23_32 
REMARK    5  A    between atoms: C4_6  and  C5_7 
REMARK    6  A    between atoms: C6_8  and  O3_9 
REMARK    7  A    between atoms: C6_8  and  C7_11 
REMARK    8  A    between atoms: C7_11  and  O4_12 
REMARK    9  A    between atoms: C7_11  and  C8_14 
REMARK   10  A    between atoms: C15_23  and  C17_25 
ROOT
HETATM    1  C5  UNL     1      -1.118  -0.350   0.626  1.00  0.00    -0.035 C 
HETATM    2  C6  UNL     1      -1.263  -1.811   0.250  1.00  0.00     0.111 C 
HETATM    3  C10 UNL     1       0.067  -2.529   0.092  1.00  0.00     0.046 C 
HETATM    4  C11 UNL     1       0.785  -2.241   1.363  1.00  0.00     0.013 C 
HETATM    5  C12 UNL     1       1.325  -0.809   1.218  1.00  0.00    -0.032 C 
HETATM    6  C13 UNL     1       1.914  -0.618   2.597  1.00  0.00     0.016 C 
HETATM    7  C14 UNL     1       2.502  -1.017   0.304  1.00  0.00     0.023 C 
HETATM    8  C15 UNL     1       3.222   0.183  -0.195  1.00  0.00    -0.025 C 
HETATM    9  C16 UNL     1       4.437   0.549   0.585  1.00  0.00     0.019 C 
HETATM   10  C19 UNL     1       2.262   1.319  -0.261  1.00  0.00     0.014 C 
HETATM   11  C20 UNL     1       0.877   0.759  -0.486  1.00  0.00     0.015 C 
HETATM   12  C21 UNL     1       0.280   0.157   0.781  1.00  0.00    -0.010 C 
HETATM   13  C22 UNL     1       0.293   1.277   1.805  1.00  0.00     0.021 C 
ENDROOT
BRANCH   1  14
HETATM   14  C4  UNL     1      -2.212   0.471   0.114  1.00  0.00     0.021 C 
BRANCH  14  15
HETATM   15  C3  UNL     1      -2.522   1.881   0.220  1.00  0.00     0.262 C 
BRANCH  15  16
HETATM   16  O2  UNL     1      -1.755   2.927  -0.242  1.00  0.00    -0.303 OA
BRANCH  16  17
HETATM   17  C2  UNL     1      -1.576   4.156   0.370  1.00  0.00     0.255 C 
HETATM   18  C1  UNL     1      -0.732   5.202  -0.217  1.00  0.00     0.126 C 
HETATM   19  O1  UNL     1      -2.165   4.359   1.462  1.00  0.00    -0.266 OA
ENDBRANCH  16  17
ENDBRANCH  15  16
BRANCH  15  20
HETATM   20  C23 UNL     1      -3.838   2.132  -0.676  1.00  0.00     0.417 C 
HETATM   21  F1  UNL     1      -4.769   1.202  -0.388  1.00  0.00    -0.168 F 
HETATM   22  F2  UNL     1      -3.463   2.097  -1.994  1.00  0.00    -0.168 F 
HETATM   23  F3  UNL     1      -4.271   3.368  -0.266  1.00  0.00    -0.168 F 
ENDBRANCH  15  20
ENDBRANCH  14  15
ENDBRANCH   1  14
BRANCH   2  24
HETATM   24  O3  UNL     1      -1.812  -2.535   1.362  1.00  0.00    -0.383 OA
ATOM     25  H3  UNL     1      -1.903  -3.451   1.126  1.00  0.00     0.211 HD
ENDBRANCH   2  24
BRANCH   2  26
HETATM   26  C7  UNL     1      -2.082  -2.174  -0.899  1.00  0.00     0.195 C 
BRANCH  26  27
HETATM   27  O4  UNL     1      -3.451  -1.916  -0.657  1.00  0.00    -0.389 OA
ATOM     28  H4  UNL     1      -3.985  -2.153  -1.406  1.00  0.00     0.210 HD
ENDBRANCH  26  27
BRANCH  26  29
HETATM   29  C8  UNL     1      -2.071  -3.537  -1.459  1.00  0.00     0.138 C 
HETATM   30  C9  UNL     1      -3.110  -3.523  -2.634  1.00  0.00     0.053 C 
HETATM   31 CL1  UNL     1      -2.593  -4.842  -0.441  1.00  0.00    -0.099 Cl
HETATM   32 CL2  UNL     1      -0.600  -3.941  -2.430  1.00  0.00    -0.099 Cl
ENDBRANCH  26  29
ENDBRANCH   2  26
BRANCH   8  33
HETATM   33  C17 UNL     1       3.716  -0.124  -1.595  1.00  0.00    -0.006 C 
HETATM   34  C18 UNL     1       4.467   0.680  -2.304  1.00  0.00     0.081 C 
HETATM   35 CL3  UNL     1       5.045   2.237  -1.799  1.00  0.00    -0.097 Cl
ENDBRANCH   8  33
TORSDOF 10
