REMARK  8 active torsions:
REMARK  status: ('A' for Active; 'I' for Inactive)
REMARK    1  A    between atoms: O1_2  and  C2_3 
REMARK    2  A    between atoms: C4_6  and  O2_7 
REMARK    3  A    between atoms: C8_12  and  C9_13 
REMARK    4  A    between atoms: C14_20  and  O3_21 
REMARK    5  A    between atoms: O3_21  and  C15_22 
REMARK    6  A    between atoms: C15_22  and  C16_24 
REMARK    7  A    between atoms: C16_24  and  C17_25 
REMARK    8  A    between atoms: C17_25  and  C18_26 
ROOT
HETATM    1  C9  UNL     1      -0.753   0.353   0.874  1.00  0.00     0.007 C 
HETATM    2  C10 UNL     1      -1.638   0.503   2.073  1.00  0.00     0.008 C 
HETATM    3  C11 UNL     1      -0.663   1.156   3.065  1.00  0.00     0.030 C 
HETATM    4  C12 UNL     1       0.593   0.384   2.826  1.00  0.00     0.080 A 
HETATM    5 CL1  UNL     1       0.865  -0.793   4.121  1.00  0.00    -0.115 Cl
HETATM    6  C13 UNL     1       1.802   1.197   2.433  1.00  0.00     0.224 A 
HETATM    7  F1  UNL     1       1.482   2.542   2.461  1.00  0.00    -0.245 F 
HETATM    8  C14 UNL     1       1.769   0.545   1.087  1.00  0.00     0.178 A 
HETATM    9  C19 UNL     1       0.538  -0.201   1.433  1.00  0.00     0.014 A 
HETATM   10  C20 UNL     1       0.615  -1.698   1.489  1.00  0.00     0.020 C 
ENDROOT
BRANCH   1  11
HETATM   11  C8  UNL     1      -1.336  -0.512  -0.204  1.00  0.00     0.027 C 
HETATM   12  C7  UNL     1      -2.616   0.046  -0.703  1.00  0.00    -0.012 A 
HETATM   13  C2  UNL     1      -3.941  -0.089  -0.333  1.00  0.00     0.095 A 
HETATM   14  C6  UNL     1      -2.334   0.873  -1.770  1.00  0.00    -0.046 A 
HETATM   15  C3  UNL     1      -4.932   0.580  -1.009  1.00  0.00     0.077 A 
HETATM   16 BR1  UNL     1      -6.763   0.402  -0.508  1.00  0.00    -0.045 Br
HETATM   17  C4  UNL     1      -4.651   1.408  -2.077  1.00  0.00     0.086 A 
HETATM   18  C5  UNL     1      -3.333   1.543  -2.447  1.00  0.00     0.045 A 
HETATM   19  C22 UNL     1      -0.856   0.887  -2.019  1.00  0.00     0.040 C 
HETATM   20  C21 UNL     1      -0.463  -0.454  -1.439  1.00  0.00     0.014 C 
BRANCH  13  21
HETATM   21  O1  UNL     1      -4.268  -0.911   0.735  1.00  0.00    -0.354 OA
HETATM   22  C1  UNL     1      -4.563  -2.286   0.589  1.00  0.00     0.210 C 
ENDBRANCH  13  21
BRANCH  17  23
HETATM   23  O2  UNL     1      -5.674   2.073  -2.744  1.00  0.00    -0.359 OA
ATOM     24  H2  UNL     1      -5.481   2.643  -3.479  1.00  0.00     0.217 HD
ENDBRANCH  17  23
ENDBRANCH   1  11
BRANCH   8  25
HETATM   25  O3  UNL     1       2.887  -0.160   0.662  1.00  0.00    -0.312 OA
BRANCH  25  26
HETATM   26  C15 UNL     1       3.595   0.073  -0.486  1.00  0.00     0.259 C 
HETATM   27  O4  UNL     1       3.138   1.023  -1.171  1.00  0.00    -0.265 OA
BRANCH  26  28
HETATM   28  C16 UNL     1       4.785  -0.698  -0.912  1.00  0.00     0.120 C 
BRANCH  28  29
HETATM   29  C17 UNL     1       5.259  -0.120  -2.226  1.00  0.00     0.127 C 
BRANCH  29  30
HETATM   30  C18 UNL     1       6.481  -0.847  -2.747  1.00  0.00     0.388 C 
HETATM   31  F2  UNL     1       7.535  -0.772  -1.868  1.00  0.00    -0.171 F 
HETATM   32  F3  UNL     1       6.199  -2.161  -3.023  1.00  0.00    -0.171 F 
HETATM   33  F4  UNL     1       6.878  -0.232  -3.915  1.00  0.00    -0.171 F 
ENDBRANCH  29  30
ENDBRANCH  28  29
ENDBRANCH  26  28
ENDBRANCH  25  26
ENDBRANCH   8  25
TORSDOF 8
