REMARK  6 active torsions:
REMARK  status: ('A' for Active; 'I' for Inactive)
REMARK    1  A    between atoms: O1_2  and  C2_3 
REMARK    2  A    between atoms: C5_7  and  N1_8 
REMARK    3  A    between atoms: N1_8  and  S1_10 
REMARK    4  A    between atoms: S1_10  and  C6_13 
REMARK    5  A    between atoms: C8_17  and  N3_18 
REMARK    6  A    between atoms: N3_18  and  C9_20 
ROOT
HETATM    1  C6  UNL     1      -0.402   1.393   1.650  1.00  0.00     0.097 A 
HETATM    2  C7  UNL     1      -0.905   0.175   1.250  1.00  0.00     0.115 A 
HETATM    3  N2  UNL     1      -2.197   0.061   0.817  1.00  0.00    -0.349 N 
ATOM      4  H2  UNL     1      -2.552  -0.849   0.525  1.00  0.00     0.166 HD
HETATM    5  C8  UNL     1      -3.003   1.132   0.772  1.00  0.00     0.127 A 
HETATM    6  C15 UNL     1      -2.527   2.363   1.166  1.00  0.00     0.079 A 
HETATM    7 CL4  UNL     1      -3.612   3.733   1.091  1.00  0.00    -0.080 Cl
HETATM    8  C16 UNL     1      -1.204   2.509   1.615  1.00  0.00     0.054 A 
ENDROOT
BRANCH   1   9
HETATM    9  S1  UNL     1       1.259   1.555   2.210  1.00  0.00     0.264 S 
HETATM   10  O2  UNL     1       1.629   0.327   2.976  1.00  0.00    -0.200 OA
HETATM   11  O3  UNL     1       1.352   2.712   3.194  1.00  0.00    -0.200 OA
BRANCH   9  12
HETATM   12  N1  UNL     1       2.297   1.904   0.910  1.00  0.00    -0.279 N 
ATOM     13  H1  UNL     1       2.201   2.807   0.445  1.00  0.00     0.179 HD
BRANCH  12  14
HETATM   14  C5  UNL     1       3.283   1.014   0.440  1.00  0.00     0.066 A 
HETATM   15  C4  UNL     1       3.547   0.963  -0.941  1.00  0.00     0.064 A 
HETATM   16  C3  UNL     1       4.510   0.121  -1.444  1.00  0.00     0.064 A 
HETATM   17 CL1  UNL     1       2.599   2.015  -2.006  1.00  0.00    -0.082 Cl
HETATM   18  C2  UNL     1       5.267  -0.710  -0.652  1.00  0.00     0.091 A 
HETATM   19  C18 UNL     1       5.012  -0.663   0.699  1.00  0.00     0.069 A 
HETATM   20  C17 UNL     1       4.036   0.186   1.232  1.00  0.00     0.058 A 
HETATM   21 CL5  UNL     1       5.954  -1.709   1.754  1.00  0.00    -0.081 Cl
BRANCH  18  22
HETATM   22  O1  UNL     1       6.223  -1.535  -1.218  1.00  0.00    -0.354 OA
HETATM   23  C1  UNL     1       6.414  -1.515  -2.619  1.00  0.00     0.210 C 
ENDBRANCH  18  22
ENDBRANCH  12  14
ENDBRANCH   9  12
ENDBRANCH   1   9
BRANCH   5  24
HETATM   24  N3  UNL     1      -4.201   1.023   0.370  1.00  0.00    -0.339 N 
ATOM     25  H3  UNL     1      -4.759   1.877   0.362  1.00  0.00     0.167 HD
BRANCH  24  26
HETATM   26  C9  UNL     1      -4.837  -0.145  -0.063  1.00  0.00     0.074 A 
HETATM   27  C10 UNL     1      -5.213  -1.122   0.838  1.00  0.00     0.058 A 
HETATM   28  C11 UNL     1      -5.839  -2.276   0.432  1.00  0.00     0.058 A 
HETATM   29 CL2  UNL     1      -6.298  -3.493   1.630  1.00  0.00    -0.082 Cl
HETATM   30  C12 UNL     1      -6.102  -2.468  -0.915  1.00  0.00     0.058 A 
HETATM   31 CL3  UNL     1      -6.908  -3.944  -1.465  1.00  0.00    -0.082 Cl
HETATM   32  C13 UNL     1      -5.736  -1.505  -1.830  1.00  0.00     0.070 A 
HETATM   33  C14 UNL     1      -5.109  -0.355  -1.404  1.00  0.00     0.144 A 
HETATM   34  F1  UNL     1      -4.767   0.567  -2.354  1.00  0.00    -0.204 F 
ENDBRANCH  24  26
ENDBRANCH   5  24
TORSDOF 6
