REMARK  5 active torsions:
REMARK  status: ('A' for Active; 'I' for Inactive)
REMARK    1  A    between atoms: C4_6  and  O1_7 
REMARK    2  A    between atoms: O1_7  and  C5_8 
REMARK    3  A    between atoms: C7_10  and  C8_11 
REMARK    4  A    between atoms: N3_21  and  C14_23 
REMARK    5  A    between atoms: C14_23  and  C15_24 
ROOT
HETATM    1  C5  UNL     1      -0.798  -1.551   0.293  1.00  0.00     0.081 A 
HETATM    2  C6  UNL     1      -1.415  -0.312   0.416  1.00  0.00     0.062 A 
HETATM    3  C7  UNL     1      -0.689   0.843   0.241  1.00  0.00     0.018 A 
HETATM    4  N2  UNL     1       0.622   0.796  -0.050  1.00  0.00    -0.346 N 
ATOM      5  H2  UNL     1       1.139   1.666  -0.176  1.00  0.00     0.167 HD
HETATM    6  C13 UNL     1       1.272  -0.394  -0.180  1.00  0.00     0.104 A 
HETATM    7  N3  UNL     1       2.527  -0.339  -0.460  1.00  0.00    -0.372 N 
ATOM      8  H3  UNL     1       3.012   0.550  -0.579  1.00  0.00     0.161 HD
HETATM    9  C19 UNL     1       0.549  -1.553  -0.006  1.00  0.00     0.085 A 
ENDROOT
BRANCH   7  10
HETATM   10  C14 UNL     1       3.218  -1.615  -0.598  1.00  0.00     0.159 C 
BRANCH  10  11
HETATM   11  C15 UNL     1       4.669  -1.424  -0.845  1.00  0.00    -0.015 C 
HETATM   12  C16 UNL     1       5.660  -1.864  -0.090  1.00  0.00     0.083 C 
HETATM   13 CL2  UNL     1       5.478  -2.786   1.400  1.00  0.00    -0.083 Cl
HETATM   14  C17 UNL     1       6.923  -1.443  -0.718  1.00  0.00     0.256 C 
HETATM   15 CL3  UNL     1       7.741  -2.888  -1.398  1.00  0.00    -0.064 Cl
HETATM   16 CL4  UNL     1       7.961  -0.696   0.540  1.00  0.00    -0.064 Cl
HETATM   17  O2  UNL     1       6.598  -0.528  -1.688  1.00  0.00    -0.343 OA
HETATM   18  C18 UNL     1       5.249  -0.705  -1.987  1.00  0.00     0.209 C 
ENDBRANCH  10  11
ENDBRANCH   7  10
BRANCH   3  19
HETATM   19  C8  UNL     1      -1.352   2.157   0.373  1.00  0.00     0.045 C 
HETATM   20  C9  UNL     1      -0.750   2.983   1.487  1.00  0.00     0.055 C 
HETATM   21  C10 UNL     1      -1.658   4.184   1.626  1.00  0.00     0.061 C 
HETATM   22  N1  UNL     1      -1.829   4.950   0.463  1.00  0.00    -0.382 N 
HETATM   23  C11 UNL     1      -1.604   4.373  -0.791  1.00  0.00     0.061 C 
ATOM     24  H1  UNL     1      -2.117   5.926   0.532  1.00  0.00     0.163 HD
HETATM   25  C12 UNL     1      -1.256   2.952  -0.887  1.00  0.00     0.055 C 
ENDBRANCH   3  19
BRANCH   1  26
HETATM   26  O1  UNL     1      -1.445  -2.756   0.452  1.00  0.00    -0.307 OA
BRANCH  26  27
HETATM   27  C4  UNL     1      -2.794  -2.867   0.753  1.00  0.00     0.119 A 
HETATM   28  C3  UNL     1      -3.237  -2.911   2.056  1.00  0.00     0.072 A 
HETATM   29  C2  UNL     1      -4.585  -3.022   2.322  1.00  0.00     0.069 A 
HETATM   30 CL1  UNL     1      -2.052  -2.823   3.364  1.00  0.00    -0.081 Cl
HETATM   31  C1  UNL     1      -5.519  -3.092   1.310  1.00  0.00     0.119 A 
HETATM   32  F1  UNL     1      -6.834  -3.201   1.615  1.00  0.00    -0.206 F 
HETATM   33  C21 UNL     1      -5.046  -3.045   0.022  1.00  0.00     0.069 A 
HETATM   34  C20 UNL     1      -3.702  -2.934  -0.280  1.00  0.00     0.072 A 
HETATM   35 CL5  UNL     1      -3.164  -2.880  -1.967  1.00  0.00    -0.081 Cl
ENDBRANCH  26  27
ENDBRANCH   1  26
TORSDOF 5
