REMARK  6 active torsions:
REMARK  status: ('A' for Active; 'I' for Inactive)
REMARK    1  A    between atoms: C2_2  and  C3_3 
REMARK    2  A    between atoms: C2_2  and  C8_12 
REMARK    3  A    between atoms: C8_12  and  C9_14 
REMARK    4  A    between atoms: C8_12  and  C24_35 
REMARK    5  A    between atoms: C13_19  and  N2_20 
REMARK       I    between atoms: N2_20  and  C14_22 
REMARK    6  A    between atoms: C14_22  and  C15_24 
ROOT
HETATM    1  C9  UNL     1      -1.915   1.082  -0.779  1.00  0.00    -0.023 A 
HETATM    2  C10 UNL     1      -2.261   1.176  -2.107  1.00  0.00     0.011 A 
HETATM    3  C11 UNL     1      -1.322   0.963  -3.087  1.00  0.00     0.027 A 
HETATM    4  C12 UNL     1      -0.032   0.657  -2.773  1.00  0.00     0.060 A 
HETATM    5 CL2  UNL     1       1.178   0.382  -4.030  1.00  0.00    -0.082 Cl
HETATM    6  C13 UNL     1       0.386   0.547  -1.430  1.00  0.00     0.057 A 
HETATM    7  C23 UNL     1      -0.593   0.767  -0.500  1.00  0.00     0.040 A 
ENDROOT
BRANCH   1   8
HETATM    8  C8  UNL     1      -2.926   1.376   0.285  1.00  0.00     0.166 C 
HETATM    9 CL1  UNL     1      -3.911   2.793  -0.329  1.00  0.00    -0.104 Cl
BRANCH   8  10
HETATM   10  C2  UNL     1      -3.881   0.342   0.636  1.00  0.00     0.049 C 
HETATM   11  C1  UNL     1      -4.872   0.695   1.698  1.00  0.00     0.015 C 
BRANCH  10  12
HETATM   12  C3  UNL     1      -4.628  -0.367  -0.486  1.00  0.00     0.192 C 
HETATM   13  C4  UNL     1      -5.237  -1.657   0.073  1.00  0.00     0.036 C 
HETATM   14  C5  UNL     1      -6.681  -1.613   0.390  1.00  0.00     0.041 C 
HETATM   15  C6  UNL     1      -7.569  -1.009  -0.660  1.00  0.00     0.195 C 
HETATM   16  F1  UNL     1      -8.392  -1.920  -1.292  1.00  0.00    -0.248 F 
HETATM   17  C7  UNL     1      -6.692  -0.362  -1.700  1.00  0.00     0.269 C 
HETATM   18  N1  UNL     1      -5.690   0.466  -1.024  1.00  0.00    -0.068 N 
ATOM     19  H12 UNL     1      -6.108   1.060  -0.308  1.00  0.00     0.277 HD
ATOM     20  H11 UNL     1      -5.327   1.198  -1.634  1.00  0.00     0.277 HD
ENDBRANCH  10  12
ENDBRANCH   8  10
BRANCH   8  21
HETATM   21  C24 UNL     1      -2.205   1.981   1.495  1.00  0.00     0.413 C 
HETATM   22  F2  UNL     1      -1.236   2.895   1.041  1.00  0.00    -0.169 F 
HETATM   23  F3  UNL     1      -1.694   1.128   2.372  1.00  0.00    -0.169 F 
HETATM   24  F4  UNL     1      -3.065   2.868   2.195  1.00  0.00    -0.169 F 
ENDBRANCH   8  21
ENDBRANCH   1   8
BRANCH   6  25
HETATM   25  N2  UNL     1       1.746   0.311  -1.168  1.00  0.00    -0.325 N 
HETATM   26  C14 UNL     1       2.401   0.121   0.049  1.00  0.00     0.226 C 
HETATM   27  O1  UNL     1       1.776   0.116   1.131  1.00  0.00    -0.273 OA
ATOM     28  H2  UNL     1       2.345   0.273  -1.993  1.00  0.00     0.169 HD
BRANCH  26  29
HETATM   29  C15 UNL     1       3.860  -0.081   0.145  1.00  0.00     0.078 C 
HETATM   30  C16 UNL     1       4.260  -0.178   1.596  1.00  0.00     0.019 C 
HETATM   31  C17 UNL     1       5.755   0.061   1.675  1.00  0.00     0.069 C 
HETATM   32  C18 UNL     1       6.569  -0.639   0.656  1.00  0.00     0.164 C 
HETATM   33  C19 UNL     1       5.929  -1.038  -0.616  1.00  0.00     0.069 C 
HETATM   34  O2  UNL     1       7.642   0.210   0.353  1.00  0.00    -0.353 OA
HETATM   35  O3  UNL     1       7.103  -1.779   1.258  1.00  0.00    -0.353 OA
HETATM   36  C20 UNL     1       4.418  -1.279  -0.538  1.00  0.00     0.019 C 
HETATM   37  C21 UNL     1       8.795  -0.362   0.792  1.00  0.00     0.197 C 
HETATM   38  C22 UNL     1       8.382  -1.509   1.666  1.00  0.00     0.197 C 
ENDBRANCH  26  29
ENDBRANCH   6  25
TORSDOF 6
