REMARK  7 active torsions:
REMARK  status: ('A' for Active; 'I' for Inactive)
REMARK    1  A    between atoms: C3_3  and  N1_4 
REMARK       I    between atoms: N1_4  and  C4_6 
REMARK       I    between atoms: C4_6  and  N2_8 
REMARK    2  A    between atoms: N2_8  and  C5_9 
REMARK    3  A    between atoms: N2_8  and  C7_13 
REMARK    4  A    between atoms: C5_9  and  C6_10 
REMARK    5  A    between atoms: N3_18  and  O2_19 
REMARK    6  A    between atoms: C18_28  and  N4_29 
REMARK    7  A    between atoms: C21_32  and  C22_33 
ROOT
HETATM    1  N1  UNL     1      -0.101  -0.016   0.098  1.00  0.00    -0.308 N 
ATOM      2  H1  UNL     1       0.021   0.174   1.093  1.00  0.00     0.170 HD
HETATM    3  C4  UNL     1      -1.414  -0.073  -0.331  1.00  0.00     0.323 C 
HETATM    4  O1  UNL     1      -1.656  -0.306  -1.550  1.00  0.00    -0.247 OA
HETATM    5  N2  UNL     1      -2.579   0.121   0.537  1.00  0.00    -0.322 N 
ENDROOT
BRANCH   1   6
HETATM    6  C3  UNL     1       1.094  -0.180  -0.629  1.00  0.00     0.044 A 
HETATM    7  C2  UNL     1       2.321  -0.066   0.082  1.00  0.00    -0.007 A 
HETATM    8  C1  UNL     1       2.310   0.217   1.538  1.00  0.00     0.053 C 
HETATM    9  C18 UNL     1       3.544  -0.206  -0.516  1.00  0.00     0.060 A 
HETATM   10  C17 UNL     1       3.552  -0.466  -1.860  1.00  0.00     0.061 A 
HETATM   11  C16 UNL     1       2.386  -0.583  -2.585  1.00  0.00     0.028 A 
HETATM   12 CL1  UNL     1       5.034  -0.683  -2.753  1.00  0.00    -0.082 Cl
HETATM   13  C15 UNL     1       1.159  -0.439  -1.965  1.00  0.00     0.032 A 
BRANCH   9  14
HETATM   14  N4  UNL     1       4.775  -0.106   0.194  1.00  0.00    -0.379 N 
HETATM   15  C19 UNL     1       5.432  -1.253   0.769  1.00  0.00     0.123 C 
HETATM   16  C20 UNL     1       6.906  -1.333   0.533  1.00  0.00     0.033 C 
HETATM   17  C21 UNL     1       7.605  -0.018   0.502  1.00  0.00     0.096 C 
HETATM   18  C23 UNL     1       6.805   1.119  -0.014  1.00  0.00     0.033 C 
HETATM   19  C24 UNL     1       5.383   1.187   0.383  1.00  0.00     0.123 C 
BRANCH  17  20
HETATM   20  C22 UNL     1       8.874  -0.118  -0.314  1.00  0.00     0.391 C 
HETATM   21  F3  UNL     1       9.750  -1.048   0.205  1.00  0.00    -0.171 F 
HETATM   22  F4  UNL     1       9.434   1.147  -0.348  1.00  0.00    -0.171 F 
HETATM   23  F5  UNL     1       8.534  -0.458  -1.604  1.00  0.00    -0.171 F 
ENDBRANCH  17  20
ENDBRANCH   9  14
ENDBRANCH   1   6
BRANCH   5  24
HETATM   24  C5  UNL     1      -2.286   0.408   1.901  1.00  0.00     0.199 C 
BRANCH  24  25
HETATM   25  C6  UNL     1      -2.067  -0.783   2.791  1.00  0.00     0.370 C 
HETATM   26  F1  UNL     1      -1.789  -0.349   4.099  1.00  0.00    -0.213 F 
HETATM   27  F2  UNL     1      -3.056  -1.703   2.818  1.00  0.00    -0.213 F 
ENDBRANCH  24  25
ENDBRANCH   5  24
BRANCH   5  28
HETATM   28  C7  UNL     1      -3.842   0.029  -0.079  1.00  0.00     0.115 C 
HETATM   29  C8  UNL     1      -4.825  -0.983   0.356  1.00  0.00     0.054 C 
HETATM   30  C9  UNL     1      -5.962  -0.665  -0.650  1.00  0.00     0.034 C 
HETATM   31  C10 UNL     1      -5.760  -1.603  -1.804  1.00  0.00     0.034 C 
HETATM   32  C11 UNL     1      -7.304  -0.931  -0.049  1.00  0.00     0.034 C 
HETATM   33  N3  UNL     1      -5.768   0.725  -1.006  1.00  0.00    -0.180 NA
HETATM   34  C12 UNL     1      -4.699   1.254  -0.168  1.00  0.00     0.052 C 
HETATM   35  C13 UNL     1      -3.951   2.317  -0.947  1.00  0.00     0.036 C 
HETATM   36  C14 UNL     1      -5.323   1.755   1.069  1.00  0.00     0.036 C 
BRANCH  33  37
HETATM   37  O2  UNL     1      -5.489   0.886  -2.322  1.00  0.00    -0.311 OA
ATOM     38  H2  UNL     1      -5.362   1.798  -2.556  1.00  0.00     0.237 HD
ENDBRANCH  33  37
ENDBRANCH   5  28
TORSDOF 7
