REMARK  7 active torsions:
REMARK  status: ('A' for Active; 'I' for Inactive)
REMARK    1  A    between atoms: C2_2  and  O1_3 
REMARK    2  A    between atoms: C2_2  and  C15_24 
REMARK    3  A    between atoms: O1_3  and  C3_4 
REMARK       I    between atoms: C3_4  and  N1_6 
REMARK    4  A    between atoms: N1_6  and  C4_8 
REMARK    5  A    between atoms: C8_12  and  N2_13 
REMARK    6  A    between atoms: N2_13  and  C9_15 
REMARK    7  A    between atoms: C17_27  and  C18_28 
ROOT
HETATM    1  C3  UNL     1      -1.213   1.312  -0.961  1.00  0.00     0.361 C 
HETATM    2  O2  UNL     1      -1.142   2.351  -1.686  1.00  0.00    -0.238 OA
HETATM    3  N1  UNL     1      -0.935   0.063  -1.605  1.00  0.00    -0.332 N 
ATOM      4  H1  UNL     1      -0.980  -0.794  -1.054  1.00  0.00     0.165 HD
ENDROOT
BRANCH   1   5
HETATM    5  O1  UNL     1      -1.545   1.479   0.350  1.00  0.00    -0.293 OA
BRANCH   5   6
HETATM    6  C2  UNL     1      -1.828   2.692   0.978  1.00  0.00     0.181 C 
HETATM    7  C1  UNL     1      -3.279   2.812   1.451  1.00  0.00     0.047 C 
BRANCH   6   8
HETATM    8  C15 UNL     1      -0.917   3.051   2.092  1.00  0.00     0.063 A 
HETATM    9  C16 UNL     1       0.451   2.916   2.018  1.00  0.00     0.172 A 
HETATM   10  O3  UNL     1       0.945   3.336   3.180  1.00  0.00    -0.301 OA
HETATM   11  C17 UNL     1       0.031   3.717   3.971  1.00  0.00     0.182 A 
HETATM   12  N5  UNL     1      -1.168   3.539   3.285  1.00  0.00    -0.334 N 
ATOM     13  H5  UNL     1      -2.095   3.754   3.652  1.00  0.00     0.168 HD
BRANCH  11  14
HETATM   14  C18 UNL     1      -0.082   4.266   5.336  1.00  0.00     0.127 A 
HETATM   15  N4  UNL     1      -0.157   4.705   6.429  1.00  0.00    -0.341 N 
HETATM   16  C19 UNL     1       0.420   5.015   7.465  1.00  0.00     0.087 A 
ATOM     17  H4  UNL     1      -1.142   4.924   6.578  1.00  0.00     0.167 HD
HETATM   18 BR1  UNL     1      -0.370   5.768   9.062  1.00  0.00    -0.031 Br
HETATM   19  C20 UNL     1       1.768   4.761   7.372  1.00  0.00     0.089 A 
HETATM   20  S1  UNL     1       1.887   4.142   5.828  1.00  0.00    -0.077 SA
ENDBRANCH  11  14
ENDBRANCH   6   8
ENDBRANCH   5   6
ENDBRANCH   1   5
BRANCH   3  21
HETATM   21  C4  UNL     1      -0.596  -0.027  -2.997  1.00  0.00     0.088 C 
HETATM   22  C5  UNL     1      -1.786  -0.640  -3.699  1.00  0.00     0.025 C 
HETATM   23  C6  UNL     1      -1.417  -1.896  -4.412  1.00  0.00     0.004 C 
HETATM   24  C7  UNL     1      -0.650  -2.834  -3.551  1.00  0.00     0.025 C 
HETATM   25  C8  UNL     1       0.641  -2.215  -3.032  1.00  0.00     0.083 C 
HETATM   26  C14 UNL     1       0.681  -0.728  -3.309  1.00  0.00     0.050 C 
BRANCH  25  27
HETATM   27  N2  UNL     1       0.807  -2.519  -1.644  1.00  0.00    -0.384 N 
ATOM     28  H2  UNL     1       0.282  -1.930  -0.998  1.00  0.00     0.160 HD
BRANCH  27  29
HETATM   29  C9  UNL     1       1.518  -3.421  -1.108  1.00  0.00     0.053 A 
HETATM   30  C10 UNL     1       2.314  -4.333  -1.773  1.00  0.00     0.048 A 
HETATM   31  C11 UNL     1       3.056  -5.313  -1.132  1.00  0.00     0.090 A 
HETATM   32  N3  UNL     1       2.973  -5.351   0.207  1.00  0.00    -0.373 N 
HETATM   33  C12 UNL     1       2.230  -4.510   0.930  1.00  0.00     0.113 A 
ATOM     34  H3  UNL     1       3.509  -6.064   0.701  1.00  0.00     0.164 HD
HETATM   35  C13 UNL     1       1.489  -3.528   0.265  1.00  0.00     0.075 A 
HETATM   36 CL1  UNL     1       0.497  -2.441   1.221  1.00  0.00    -0.080 Cl
ENDBRANCH  27  29
ENDBRANCH  25  27
ENDBRANCH   3  21
TORSDOF 7
