REMARK  16 active torsions:
REMARK  status: ('A' for Active; 'I' for Inactive)
REMARK    1  A    between atoms: C1_4  and  O1_6 
REMARK    2  A    between atoms: O1_6  and  N3_7 
REMARK    3  A    between atoms: C2_9  and  C3_11 
REMARK    4  A    between atoms: C3_11  and  C4_12 
REMARK    5  A    between atoms: C4_12  and  N5_13 
REMARK    6  A    between atoms: C4_12  and  C5_17 
REMARK       I    between atoms: C5_17  and  N6_19 
REMARK       I    between atoms: N6_19  and  C6_21 
REMARK    7  A    between atoms: C6_21  and  C7_23 
REMARK    8  A    between atoms: C7_23  and  O4_24 
REMARK    9  A    between atoms: O4_24  and  C8_25 
REMARK   10  A    between atoms: C9_26  and  N7_27 
REMARK   11  A    between atoms: C10_31  and  O5_32 
REMARK   12  A    between atoms: C11_34  and  O6_35 
REMARK   13  A    between atoms: C12_37  and  S1_38 
REMARK   14  A    between atoms: C14_42  and  O8_43 
REMARK   15  A    between atoms: C15_45  and  N8_46 
REMARK   16  A    between atoms: C16_50  and  O9_51 
ROOT
HETATM    1  C8  UNL     1      -2.323   0.058  -1.611  1.00  0.00     0.193 C 
HETATM    2  C9  UNL     1      -2.343   1.458  -2.125  1.00  0.00     0.246 C 
HETATM    3  C10 UNL     1      -3.322   2.367  -1.487  1.00  0.00     0.181 C 
HETATM    4  C11 UNL     1      -3.388   2.273   0.011  1.00  0.00     0.166 C 
HETATM    5  C12 UNL     1      -3.147   0.908   0.543  1.00  0.00     0.131 C 
HETATM    6  C13 UNL     1      -3.292  -0.188  -0.474  1.00  0.00     0.135 C 
HETATM    7  O7  UNL     1      -2.903  -1.361   0.132  1.00  0.00    -0.342 OA
HETATM    8  C14 UNL     1      -3.855  -2.307   0.001  1.00  0.00     0.291 C 
HETATM    9  C15 UNL     1      -4.927  -1.844  -0.923  1.00  0.00     0.269 C 
HETATM   10  C16 UNL     1      -4.673  -0.359  -1.008  1.00  0.00     0.192 C 
ENDROOT
BRANCH   1  11
HETATM   11  O4  UNL     1      -1.031  -0.208  -1.158  1.00  0.00    -0.371 OA
BRANCH  11  12
HETATM   12  C7  UNL     1      -0.474  -1.302  -1.818  1.00  0.00     0.271 C 
BRANCH  12  13
HETATM   13  C6  UNL     1       0.917  -1.543  -1.297  1.00  0.00     0.247 C 
HETATM   14  N6  UNL     1       1.448  -0.716  -0.302  1.00  0.00    -0.294 N 
HETATM   15  C5  UNL     1       2.708  -0.802   0.284  1.00  0.00     0.255 C 
ATOM     16  H6  UNL     1       0.844   0.035   0.032  1.00  0.00     0.171 HD
HETATM   17  O2  UNL     1       2.960   0.015   1.247  1.00  0.00    -0.271 OA
HETATM   18  O3  UNL     1       1.541  -2.491  -1.790  1.00  0.00    -0.271 OA
BRANCH  15  19
HETATM   19  C4  UNL     1       3.739  -1.757  -0.133  1.00  0.00     0.281 C 
BRANCH  19  20
HETATM   20  C3  UNL     1       4.911  -1.825   0.824  1.00  0.00     0.117 C 
BRANCH  20  21
HETATM   21  C2  UNL     1       5.721  -0.603   0.871  1.00  0.00     0.116 C 
HETATM   22  N3  UNL     1       5.868   0.016   1.991  1.00  0.00    -0.248 N 
ATOM     23  H3  UNL     1       5.412  -0.358   2.823  1.00  0.00     0.196 HD
HETATM   24  N4  UNL     1       6.362  -0.069  -0.278  1.00  0.00    -0.086 NA
BRANCH  22  25
HETATM   25  O1  UNL     1       6.621   1.168   2.105  1.00  0.00    -0.203 OA
BRANCH  25  26
HETATM   26  C1  UNL     1       7.577   1.326   3.120  1.00  0.00     0.249 C 
HETATM   27  N1  UNL     1       7.463   0.600   4.178  1.00  0.00    -0.366 N 
ATOM     28  H12 UNL     1       8.158   0.715   4.916  1.00  0.00     0.159 HD
ATOM     29  H11 UNL     1       6.701  -0.071   4.276  1.00  0.00     0.159 HD
HETATM   30  N2  UNL     1       8.636   2.258   2.984  1.00  0.00    -0.055 NA
ENDBRANCH  25  26
ENDBRANCH  22  25
ENDBRANCH  20  21
ENDBRANCH  19  20
BRANCH  19  31
HETATM   31  N5  UNL     1       4.167  -1.519  -1.482  1.00  0.00    -0.066 N 
ATOM     32  H53 UNL     1       4.748  -0.683  -1.546  1.00  0.00     0.275 HD
ATOM     33  H52 UNL     1       4.852  -2.212  -1.782  1.00  0.00     0.275 HD
ATOM     34  H51 UNL     1       3.378  -1.473  -2.126  1.00  0.00     0.275 HD
ENDBRANCH  19  31
ENDBRANCH  15  19
ENDBRANCH  12  13
ENDBRANCH  11  12
ENDBRANCH   1  11
BRANCH   2  35
HETATM   35  N7  UNL     1      -1.016   2.090  -2.063  1.00  0.00    -0.070 N 
ATOM     36  H73 UNL     1      -0.631   2.048  -1.119  1.00  0.00     0.274 HD
ATOM     37  H72 UNL     1      -0.316   1.528  -2.548  1.00  0.00     0.274 HD
ATOM     38  H71 UNL     1      -1.030   3.047  -2.415  1.00  0.00     0.274 HD
ENDBRANCH   2  35
BRANCH   3  39
HETATM   39  O5  UNL     1      -2.925   3.694  -1.782  1.00  0.00    -0.391 OA
ATOM     40  H5  UNL     1      -3.553   4.277  -1.373  1.00  0.00     0.210 HD
ENDBRANCH   3  39
BRANCH   5  41
HETATM   41  S1  UNL     1      -4.189   0.623   1.983  1.00  0.00    -0.074 SA
HETATM   42  S2  UNL     1      -3.635   1.883   3.608  1.00  0.00    -0.013 SA
ENDBRANCH   5  41
BRANCH  10  43
HETATM   43  O9  UNL     1      -5.657   0.281  -0.289  1.00  0.00    -0.390 OA
ATOM     44  H9  UNL     1      -6.537   0.172  -0.629  1.00  0.00     0.210 HD
ENDBRANCH  10  43
BRANCH   4  45
HETATM   45  O6  UNL     1      -2.460   3.145   0.583  1.00  0.00    -0.392 OA
ATOM     46  H6  UNL     1      -2.502   3.086   1.530  1.00  0.00     0.210 HD
ENDBRANCH   4  45
BRANCH   8  47
HETATM   47  O8  UNL     1      -4.309  -2.697   1.248  1.00  0.00    -0.369 OA
ATOM     48  H8  UNL     1      -4.980  -3.363   1.156  1.00  0.00     0.212 HD
ENDBRANCH   8  47
BRANCH   9  49
HETATM   49  N8  UNL     1      -6.240  -2.158  -0.396  1.00  0.00    -0.068 N 
ATOM     50  H83 UNL     1      -6.331  -3.151  -0.182  1.00  0.00     0.275 HD
ATOM     51  H82 UNL     1      -6.367  -1.784   0.544  1.00  0.00     0.275 HD
ATOM     52  H81 UNL     1      -6.974  -1.841  -1.029  1.00  0.00     0.275 HD
ENDBRANCH   9  49
TORSDOF 16
