REMARK  20 active torsions:
REMARK  status: ('A' for Active; 'I' for Inactive)
REMARK    1  A    between atoms: N1_1  and  N2_4 
REMARK    2  A    between atoms: N3_6  and  C1_8 
REMARK    3  A    between atoms: C1_8  and  C2_9 
REMARK    4  A    between atoms: C3_11  and  N4_12 
REMARK    5  A    between atoms: N4_12  and  O2_13 
REMARK    6  A    between atoms: C4_15  and  N5_16 
REMARK    7  A    between atoms: C5_20  and  O3_21 
REMARK    8  A    between atoms: O3_21  and  C6_22 
REMARK    9  A    between atoms: C7_23  and  N6_24 
REMARK   10  A    between atoms: C9_29  and  N7_30 
REMARK   11  A    between atoms: C10_34  and  O4_35 
REMARK   12  A    between atoms: O4_35  and  C11_36 
REMARK   13  A    between atoms: C12_37  and  N8_38 
REMARK   14  A    between atoms: C14_43  and  N9_44 
REMARK   15  A    between atoms: C15_48  and  O5_49 
REMARK   16  A    between atoms: C16_51  and  O6_52 
REMARK   17  A    between atoms: C17_54  and  O7_55 
REMARK   18  A    between atoms: O7_55  and  C18_56 
REMARK   19  A    between atoms: C18_56  and  O8_57 
REMARK   20  A    between atoms: C18_56  and  O9_59 
ROOT
HETATM    1  C6  UNL     1      -0.931   0.268   1.022  1.00  0.00     0.186 C 
HETATM    2  C7  UNL     1      -0.946   0.638   2.517  1.00  0.00     0.217 C 
HETATM    3  C8  UNL     1       0.079   1.719   2.632  1.00  0.00     0.071 C 
HETATM    4  C9  UNL     1       1.431   1.136   2.425  1.00  0.00     0.217 C 
HETATM    5  C10 UNL     1       1.579   0.214   1.274  1.00  0.00     0.184 C 
HETATM    6  C17 UNL     1       0.340  -0.465   0.794  1.00  0.00     0.189 C 
ENDROOT
BRANCH   1   7
HETATM    7  O3  UNL     1      -2.036  -0.525   0.841  1.00  0.00    -0.349 OA
BRANCH   7   8
HETATM    8  C5  UNL     1      -3.037   0.032   0.062  1.00  0.00     0.298 C 
HETATM    9  C4  UNL     1      -3.268  -0.875  -1.125  1.00  0.00     0.284 C 
HETATM   10  C3  UNL     1      -4.410  -0.336  -1.912  1.00  0.00     0.279 C 
HETATM   11  O1  UNL     1      -5.253   0.521  -1.319  1.00  0.00    -0.334 OA
HETATM   12  C2  UNL     1      -5.160   0.799  -0.016  1.00  0.00     0.284 C 
HETATM   13  O10 UNL     1      -4.261   0.074   0.732  1.00  0.00    -0.328 OA
BRANCH   9  14
HETATM   14  N5  UNL     1      -2.102  -1.035  -1.963  1.00  0.00    -0.067 N 
ATOM     15  H53 UNL     1      -2.301  -1.609  -2.783  1.00  0.00     0.275 HD
ATOM     16  H52 UNL     1      -1.857  -0.167  -2.440  1.00  0.00     0.275 HD
ATOM     17  H51 UNL     1      -1.319  -1.404  -1.424  1.00  0.00     0.275 HD
ENDBRANCH   9  14
BRANCH  10  18
HETATM   18  N4  UNL     1      -5.198  -1.435  -2.495  1.00  0.00    -0.069 NA
BRANCH  18  19
HETATM   19  O2  UNL     1      -5.900  -2.090  -1.544  1.00  0.00    -0.294 OA
ATOM     20  H2  UNL     1      -6.408  -2.799  -1.920  1.00  0.00     0.238 HD
ENDBRANCH  18  19
ENDBRANCH  10  18
BRANCH  12  21
HETATM   21  C1  UNL     1      -6.521   0.685   0.655  1.00  0.00     0.201 C 
BRANCH  21  22
HETATM   22  N3  UNL     1      -7.479   1.606   0.070  1.00  0.00    -0.318 N 
HETATM   23  N2  UNL     1      -8.619   1.200  -0.227  1.00  0.00    -0.254 N 
ATOM     24  H2  UNL     1      -8.495   0.984  -1.216  1.00  0.00     0.207 HD
ATOM     25  H3  UNL     1      -7.221   2.579  -0.097  1.00  0.00     0.181 HD
BRANCH  23  26
HETATM   26  N1  UNL     1      -9.817   0.894  -0.066  1.00  0.00    -0.331 N 
ATOM     27  H12 UNL     1      -9.890   1.125   0.925  1.00  0.00     0.178 HD
ATOM     28  H11 UNL     1     -10.750   0.562  -0.309  1.00  0.00     0.178 HD
ENDBRANCH  23  26
ENDBRANCH  21  22
ENDBRANCH  12  21
ENDBRANCH   7   8
ENDBRANCH   1   7
BRANCH   2  29
HETATM   29  N6  UNL     1      -2.276   1.070   2.891  1.00  0.00    -0.072 N 
ATOM     30  H63 UNL     1      -2.615   1.830   2.302  1.00  0.00     0.274 HD
ATOM     31  H62 UNL     1      -2.987   0.377   2.657  1.00  0.00     0.274 HD
ATOM     32  H61 UNL     1      -2.286   1.315   3.881  1.00  0.00     0.274 HD
ENDBRANCH   2  29
BRANCH   6  33
HETATM   33  O7  UNL     1       0.186  -1.725   1.419  1.00  0.00    -0.329 OA
BRANCH  33  34
HETATM   34  C18 UNL     1       0.174  -2.771   0.533  1.00  0.00     0.408 C 
BRANCH  34  35
HETATM   35  O8  UNL     1      -1.058  -3.439   0.676  1.00  0.00    -0.350 OA
ATOM     36  H8  UNL     1      -1.066  -4.164   0.062  1.00  0.00     0.215 HD
ENDBRANCH  34  35
BRANCH  34  37
HETATM   37  O9  UNL     1       1.221  -3.648   0.835  1.00  0.00    -0.350 OA
ATOM     38  H9  UNL     1       1.213  -4.373   0.221  1.00  0.00     0.215 HD
ENDBRANCH  34  37
ENDBRANCH  33  34
ENDBRANCH   6  33
BRANCH   5  39
HETATM   39  O4  UNL     1       2.171   0.866   0.193  1.00  0.00    -0.371 OA
BRANCH  39  40
HETATM   40  C11 UNL     1       3.412   0.336  -0.149  1.00  0.00     0.183 C 
HETATM   41  C12 UNL     1       3.475  -0.131  -1.579  1.00  0.00     0.217 C 
HETATM   42  C13 UNL     1       4.842  -0.138  -2.171  1.00  0.00     0.071 C 
HETATM   43  C14 UNL     1       5.675   1.061  -1.881  1.00  0.00     0.216 C 
HETATM   44  C15 UNL     1       5.767   1.191  -0.372  1.00  0.00     0.179 C 
HETATM   45  C16 UNL     1       4.401   1.452   0.148  1.00  0.00     0.180 C 
BRANCH  41  46
HETATM   46  N8  UNL     1       2.996  -1.519  -1.678  1.00  0.00    -0.072 N 
ATOM     47  H83 UNL     1       3.502  -2.143  -1.050  1.00  0.00     0.274 HD
ATOM     48  H82 UNL     1       2.063  -1.631  -1.280  1.00  0.00     0.274 HD
ATOM     49  H81 UNL     1       3.039  -1.835  -2.647  1.00  0.00     0.274 HD
ENDBRANCH  41  46
BRANCH  43  50
HETATM   50  N9  UNL     1       6.994   0.875  -2.407  1.00  0.00    -0.072 N 
ATOM     51  H93 UNL     1       7.426   0.017  -2.065  1.00  0.00     0.274 HD
ATOM     52  H92 UNL     1       6.982   0.648  -3.401  1.00  0.00     0.274 HD
ATOM     53  H91 UNL     1       7.565   1.697  -2.208  1.00  0.00     0.274 HD
ENDBRANCH  43  50
BRANCH  44  54
HETATM   54  O5  UNL     1       6.265   0.002   0.137  1.00  0.00    -0.391 OA
ATOM     55  H5  UNL     1       6.323   0.083   1.082  1.00  0.00     0.210 HD
ENDBRANCH  44  54
BRANCH  45  56
HETATM   56  O6  UNL     1       3.919   2.675  -0.255  1.00  0.00    -0.390 OA
ATOM     57  H6  UNL     1       4.537   3.372  -0.069  1.00  0.00     0.210 HD
ENDBRANCH  45  56
ENDBRANCH  39  40
ENDBRANCH   5  39
BRANCH   4  58
HETATM   58  N7  UNL     1       1.853   0.551   3.686  1.00  0.00    -0.072 N 
ATOM     59  H73 UNL     1       1.820   1.212   4.462  1.00  0.00     0.274 HD
ATOM     60  H72 UNL     1       1.182  -0.122   4.056  1.00  0.00     0.274 HD
ATOM     61  H71 UNL     1       2.781   0.151   3.544  1.00  0.00     0.274 HD
ENDBRANCH   4  58
TORSDOF 20
