REMARK  17 active torsions:
REMARK  status: ('A' for Active; 'I' for Inactive)
REMARK    1  A    between atoms: C2_2  and  O1_3 
REMARK    2  A    between atoms: C3_5  and  C4_6 
REMARK    3  A    between atoms: C4_6  and  N2_11 
REMARK    4  A    between atoms: N1_7  and  O2_9 
REMARK    5  A    between atoms: N2_11  and  C5_13 
REMARK    6  A    between atoms: C5_13  and  C6_14 
REMARK    7  A    between atoms: N6_21  and  C7_22 
REMARK    8  A    between atoms: C7_22  and  O3_23 
REMARK    9  A    between atoms: C7_22  and  N7_25 
REMARK   10  A    between atoms: N7_25  and  C8_28 
REMARK   11  A    between atoms: C8_28  and  C9_29 
REMARK   12  A    between atoms: C9_29  and  N8_30 
REMARK   13  A    between atoms: C11_32  and  O4_33 
REMARK   14  A    between atoms: C12_35  and  O5_36 
REMARK   15  A    between atoms: C13_38  and  O6_39 
REMARK   16  A    between atoms: C16_43  and  O7_44 
REMARK   17  A    between atoms: C17_46  and  O8_47 
ROOT
HETATM    1  C6  UNL     1      -0.663   0.831   0.384  1.00  0.00     0.138 A 
HETATM    2  N3  UNL     1      -1.616   0.917   1.309  1.00  0.00    -0.271 N 
ATOM      3  H3  UNL     1      -2.484   0.383   1.345  1.00  0.00     0.190 HD
HETATM    4  N4  UNL     1      -1.214   1.827   2.165  1.00  0.00    -0.226 N 
ATOM      5  H4  UNL     1      -1.732   2.120   2.993  1.00  0.00     0.210 HD
HETATM    6  N5  UNL     1      -0.040   2.307   1.796  1.00  0.00    -0.221 N 
ATOM      7  H5  UNL     1       0.498   3.025   2.281  1.00  0.00     0.210 HD
HETATM    8  N6  UNL     1       0.303   1.696   0.700  1.00  0.00    -0.208 N 
ENDROOT
BRANCH   1   9
HETATM    9  C5  UNL     1      -0.650  -0.058  -0.798  1.00  0.00     0.200 C 
BRANCH   9  10
HETATM   10  N2  UNL     1      -1.855  -0.768  -1.018  1.00  0.00    -0.371 N 
ATOM     11  H2  UNL     1      -1.798  -1.786  -0.990  1.00  0.00     0.161 HD
BRANCH  10  12
HETATM   12  C4  UNL     1      -3.130  -0.209  -1.273  1.00  0.00     0.104 C 
HETATM   13  N1  UNL     1      -3.215   0.977  -1.721  1.00  0.00    -0.257 N 
ATOM     14  H1  UNL     1      -4.170   1.300  -1.877  1.00  0.00     0.195 HD
BRANCH  12  15
HETATM   15  C3  UNL     1      -4.375  -1.024  -1.013  1.00  0.00     0.092 C 
HETATM   16  C2  UNL     1      -5.632  -0.379  -1.391  1.00  0.00     0.080 C 
HETATM   17  C1  UNL     1      -6.615  -1.421  -1.983  1.00  0.00     0.048 C 
HETATM   18  C18 UNL     1      -6.376   0.313  -0.283  1.00  0.00     0.124 C 
HETATM   19  C17 UNL     1      -6.426  -0.516   0.981  1.00  0.00     0.164 C 
HETATM   20  S1  UNL     1      -5.762   1.986   0.043  1.00  0.00    -0.086 SA
HETATM   21  C16 UNL     1      -5.020  -0.770   1.420  1.00  0.00     0.149 C 
HETATM   22  C15 UNL     1      -4.316  -1.568   0.388  1.00  0.00     0.050 C 
BRANCH  16  23
HETATM   23  O1  UNL     1      -5.443   0.529  -2.416  1.00  0.00    -0.388 OA
ATOM     24  H1  UNL     1      -4.841   1.168  -2.053  1.00  0.00     0.210 HD
ENDBRANCH  16  23
BRANCH  19  25
HETATM   25  O8  UNL     1      -7.127   0.248   1.932  1.00  0.00    -0.392 OA
ATOM     26  H8  UNL     1      -8.021   0.409   1.653  1.00  0.00     0.210 HD
ENDBRANCH  19  25
BRANCH  21  27
HETATM   27  O7  UNL     1      -5.070  -1.565   2.588  1.00  0.00    -0.393 OA
ATOM     28  H7  UNL     1      -5.521  -1.054   3.249  1.00  0.00     0.210 HD
ENDBRANCH  21  27
ENDBRANCH  12  15
BRANCH  13  29
HETATM   29  O2  UNL     1      -2.276   1.874  -2.023  1.00  0.00    -0.288 OA
ATOM     30  H2  UNL     1      -2.340   2.761  -2.358  1.00  0.00     0.244 HD
ENDBRANCH  13  29
ENDBRANCH  10  12
ENDBRANCH   9  10
ENDBRANCH   1   9
BRANCH   8  31
HETATM   31  C7  UNL     1       1.535   1.922  -0.054  1.00  0.00     0.450 C 
BRANCH  31  32
HETATM   32  O3  UNL     1       1.634   3.314  -0.249  1.00  0.00    -0.353 OA
ATOM     33  H3  UNL     1       2.435   3.461  -0.739  1.00  0.00     0.214 HD
ENDBRANCH  31  32
BRANCH  31  34
HETATM   34  N7  UNL     1       2.699   1.533   0.698  1.00  0.00    -0.027 N 
ATOM     35  H72 UNL     1       3.551   1.783   0.197  1.00  0.00     0.282 HD
ATOM     36  H71 UNL     1       2.808   2.122   1.523  1.00  0.00     0.282 HD
BRANCH  34  37
HETATM   37  C8  UNL     1       2.714   0.135   1.064  1.00  0.00     0.268 C 
BRANCH  37  38
HETATM   38  C9  UNL     1       3.982  -0.115   1.839  1.00  0.00     0.300 C 
BRANCH  38  39
HETATM   39  N8  UNL     1       5.119   0.217   1.005  1.00  0.00     0.095 N 
HETATM   40  C10 UNL     1       6.310  -0.025   1.745  1.00  0.00     0.306 C 
HETATM   41  C11 UNL     1       7.557  -0.227   0.959  1.00  0.00     0.177 C 
HETATM   42  C12 UNL     1       7.323  -1.107  -0.273  1.00  0.00     0.179 C 
HETATM   43  C13 UNL     1       6.274  -0.372  -1.078  1.00  0.00     0.177 C 
HETATM   44  C14 UNL     1       4.987  -0.442  -0.247  1.00  0.00     0.306 C 
BRANCH  41  45
HETATM   45  O4  UNL     1       8.057   0.988   0.499  1.00  0.00    -0.391 OA
ATOM     46  H4  UNL     1       8.853   0.859  -0.003  1.00  0.00     0.210 HD
ENDBRANCH  41  45
BRANCH  42  47
HETATM   47  O5  UNL     1       6.834  -2.353   0.096  1.00  0.00    -0.390 OA
ATOM     48  H5  UNL     1       6.689  -2.899  -0.668  1.00  0.00     0.210 HD
ENDBRANCH  42  47
BRANCH  43  49
HETATM   49  O6  UNL     1       6.072  -0.903  -2.327  1.00  0.00    -0.391 OA
ATOM     50  H6  UNL     1       5.413  -0.441  -2.833  1.00  0.00     0.210 HD
ENDBRANCH  43  49
ENDBRANCH  38  39
ENDBRANCH  37  38
ENDBRANCH  34  37
ENDBRANCH  31  34
ENDBRANCH   8  31
TORSDOF 17
