REMARK  14 active torsions:
REMARK  status: ('A' for Active; 'I' for Inactive)
REMARK    1  A    between atoms: C2_5  and  O1_6 
REMARK    2  A    between atoms: O1_6  and  C3_7 
REMARK    3  A    between atoms: C4_8  and  O2_9 
REMARK    4  A    between atoms: C5_11  and  N3_12 
REMARK    5  A    between atoms: C7_17  and  N4_18 
REMARK    6  A    between atoms: C8_22  and  O3_23 
REMARK    7  A    between atoms: O3_23  and  C9_24 
REMARK    8  A    between atoms: C10_25  and  N5_26 
REMARK    9  A    between atoms: C12_31  and  N6_32 
REMARK   10  A    between atoms: C13_36  and  O4_37 
REMARK   11  A    between atoms: C14_39  and  S1_40 
REMARK   12  A    between atoms: C15_42  and  O5_43 
REMARK   13  A    between atoms: C16_45  and  C17_46 
REMARK   14  A    between atoms: C17_46  and  N7_47 
REMARK       I    between atoms: N7_47  and  C18_50 
REMARK       I    between atoms: C18_50  and  N8_51 
REMARK       I    between atoms: C18_50  and  N9_55 
ROOT
HETATM    1  C3  UNL     1      -0.430   0.395   1.202  1.00  0.00     0.186 C 
HETATM    2  C4  UNL     1      -0.306   1.482   2.309  1.00  0.00     0.180 C 
HETATM    3  C5  UNL     1      -0.109   2.819   1.679  1.00  0.00     0.216 C 
HETATM    4  C6  UNL     1      -1.147   3.204   0.689  1.00  0.00     0.071 C 
HETATM    5  C7  UNL     1      -1.257   2.130  -0.390  1.00  0.00     0.217 C 
HETATM    6  C8  UNL     1      -1.571   0.849   0.352  1.00  0.00     0.184 C 
ENDROOT
BRANCH   1   7
HETATM    7  O1  UNL     1       0.759   0.480   0.532  1.00  0.00    -0.354 OA
BRANCH   7   8
HETATM    8  C2  UNL     1       1.580  -0.605   0.533  1.00  0.00     0.252 C 
HETATM    9  N2  UNL     1       1.874  -0.992  -0.807  1.00  0.00    -0.353 N 
HETATM   10  C1  UNL     1       3.027  -0.655  -1.233  1.00  0.00     0.099 C 
ATOM     11  H2  UNL     1       1.207  -1.504  -1.385  1.00  0.00     0.163 HD
HETATM   12  N1  UNL     1       3.617  -0.893  -2.520  1.00  0.00    -0.087 NA
HETATM   13  C16 UNL     1       3.716   0.064  -0.123  1.00  0.00     0.109 C 
HETATM   14  C15 UNL     1       2.953  -0.328   1.113  1.00  0.00     0.179 C 
BRANCH  13  15
HETATM   15  C17 UNL     1       5.172  -0.344  -0.035  1.00  0.00     0.251 C 
BRANCH  15  16
HETATM   16  N7  UNL     1       5.801  -0.015  -1.285  1.00  0.00    -0.021 N 
HETATM   17  C18 UNL     1       7.200  -0.356  -1.338  1.00  0.00     0.575 C 
HETATM   18  N8  UNL     1       7.415  -1.764  -1.147  1.00  0.00    -0.026 N 
HETATM   19  N9  UNL     1       7.948   0.387  -0.357  1.00  0.00    -0.026 N 
ATOM     20  H83 UNL     1       6.986  -2.091  -0.281  1.00  0.00     0.278 HD
ATOM     21  H82 UNL     1       6.873  -2.316  -1.812  1.00  0.00     0.278 HD
ATOM     22  H81 UNL     1       8.405  -2.005  -1.185  1.00  0.00     0.278 HD
ATOM     23  H93 UNL     1       7.801   1.392  -0.453  1.00  0.00     0.278 HD
ATOM     24  H92 UNL     1       7.566   0.264   0.581  1.00  0.00     0.278 HD
ATOM     25  H91 UNL     1       8.938   0.146  -0.395  1.00  0.00     0.278 HD
ATOM     26  H72 UNL     1       5.298  -0.440  -2.064  1.00  0.00     0.281 HD
ATOM     27  H71 UNL     1       5.662   0.970  -1.509  1.00  0.00     0.281 HD
ENDBRANCH  15  16
ENDBRANCH  13  15
BRANCH  14  28
HETATM   28  O5  UNL     1       3.422  -1.468   1.720  1.00  0.00    -0.390 OA
ATOM     29  H5  UNL     1       4.282  -1.294   2.083  1.00  0.00     0.210 HD
ENDBRANCH  14  28
ENDBRANCH   7   8
ENDBRANCH   1   7
BRANCH   2  30
HETATM   30  O2  UNL     1      -1.493   1.496   3.031  1.00  0.00    -0.391 OA
ATOM     31  H2  UNL     1      -1.417   2.159   3.707  1.00  0.00     0.210 HD
ENDBRANCH   2  30
BRANCH   6  32
HETATM   32  O3  UNL     1      -2.140  -0.146  -0.386  1.00  0.00    -0.372 OA
BRANCH  32  33
HETATM   33  C9  UNL     1      -3.454  -0.391  -0.067  1.00  0.00     0.169 C 
HETATM   34  C10 UNL     1      -4.323   0.058  -1.233  1.00  0.00     0.215 C 
HETATM   35  C11 UNL     1      -5.792  -0.050  -0.790  1.00  0.00     0.070 C 
HETATM   36  C12 UNL     1      -6.056  -1.517  -0.557  1.00  0.00     0.215 C 
HETATM   37  C13 UNL     1      -5.231  -1.977   0.620  1.00  0.00     0.165 C 
HETATM   38  C14 UNL     1      -3.737  -1.791   0.329  1.00  0.00     0.121 C 
BRANCH  34  39
HETATM   39  N5  UNL     1      -4.139  -0.894  -2.306  1.00  0.00    -0.072 N 
ATOM     40  H53 UNL     1      -3.160  -1.017  -2.564  1.00  0.00     0.274 HD
ATOM     41  H52 UNL     1      -4.324  -1.856  -2.020  1.00  0.00     0.274 HD
ATOM     42  H51 UNL     1      -4.721  -0.593  -3.087  1.00  0.00     0.274 HD
ENDBRANCH  34  39
BRANCH  36  43
HETATM   43  N6  UNL     1      -7.443  -1.713  -0.250  1.00  0.00    -0.072 N 
ATOM     44  H63 UNL     1      -7.748  -1.138   0.535  1.00  0.00     0.274 HD
ATOM     45  H62 UNL     1      -8.055  -1.321  -0.966  1.00  0.00     0.274 HD
ATOM     46  H61 UNL     1      -7.621  -2.705  -0.092  1.00  0.00     0.274 HD
ENDBRANCH  36  43
BRANCH  37  47
HETATM   47  O4  UNL     1      -5.620  -1.361   1.798  1.00  0.00    -0.392 OA
ATOM     48  H4  UNL     1      -5.101  -1.651   2.539  1.00  0.00     0.210 HD
ENDBRANCH  37  47
BRANCH  38  49
HETATM   49  S1  UNL     1      -3.278  -3.021  -0.911  1.00  0.00    -0.075 SA
HETATM   50  S2  UNL     1      -1.189  -3.152  -1.190  1.00  0.00    -0.013 SA
ENDBRANCH  38  49
ENDBRANCH  32  33
ENDBRANCH   6  32
BRANCH   3  51
HETATM   51  N3  UNL     1       1.218   3.034   1.135  1.00  0.00    -0.072 N 
ATOM     52  H33 UNL     1       1.927   2.869   1.850  1.00  0.00     0.274 HD
ATOM     53  H32 UNL     1       1.458   2.292   0.478  1.00  0.00     0.274 HD
ATOM     54  H31 UNL     1       1.353   3.949   0.704  1.00  0.00     0.274 HD
ENDBRANCH   3  51
BRANCH   5  55
HETATM   55  N4  UNL     1      -0.082   2.089  -1.191  1.00  0.00    -0.072 N 
ATOM     56  H43 UNL     1       0.133   3.003  -1.590  1.00  0.00     0.274 HD
ATOM     57  H42 UNL     1       0.756   1.967  -0.623  1.00  0.00     0.274 HD
ATOM     58  H41 UNL     1      -0.156   1.371  -1.912  1.00  0.00     0.274 HD
ENDBRANCH   5  55
TORSDOF 14
