REMARK  14 active torsions:
REMARK  status: ('A' for Active; 'I' for Inactive)
REMARK    1  A    between atoms: C2_2  and  O2_4 
REMARK    2  A    between atoms: O2_4  and  C3_5 
REMARK    3  A    between atoms: C3_5  and  C4_6 
REMARK    4  A    between atoms: N2_13  and  C8_14 
REMARK    5  A    between atoms: C8_14  and  N3_15 
REMARK    6  A    between atoms: N3_15  and  C9_17 
REMARK    7  A    between atoms: C12_20  and  C13_21 
REMARK    8  A    between atoms: C15_28  and  O5_29 
REMARK    9  A    between atoms: C16_33  and  O6_34 
REMARK   10  A    between atoms: C17_39  and  C18_40 
REMARK   11  A    between atoms: C17_39  and  C19_43 
REMARK   12  A    between atoms: C18_40  and  O7_41 
REMARK   13  A    between atoms: C19_43  and  O8_44 
REMARK   14  A    between atoms: C20_46  and  O9_47 
ROOT
HETATM    1  C13 UNL     1       3.339   0.116  -0.236  1.00  0.00     0.254 C 
HETATM    2  N4  UNL     1       3.836   0.503  -1.571  1.00  0.00    -0.327 N 
ATOM      3  H4  UNL     1       3.144   0.391  -2.312  1.00  0.00     0.165 HD
HETATM    4  C14 UNL     1       4.970   0.955  -1.990  1.00  0.00     0.189 C 
HETATM    5  N5  UNL     1       4.991   1.197  -3.419  1.00  0.00    -0.064 NA
HETATM    6  N6  UNL     1       6.212   1.272  -1.359  1.00  0.00    -0.322 N 
ATOM      7  H6  UNL     1       6.745   1.981  -1.862  1.00  0.00     0.166 HD
HETATM    8  C15 UNL     1       6.867   0.815  -0.182  1.00  0.00     0.328 C 
HETATM    9  N7  UNL     1       6.278  -0.189   0.565  1.00  0.00    -0.325 N 
ATOM     10  H7  UNL     1       6.866  -0.984   0.817  1.00  0.00     0.162 HD
HETATM   11  C16 UNL     1       4.974  -0.215   0.999  1.00  0.00     0.323 C 
HETATM   12  N8  UNL     1       4.116   0.879   0.758  1.00  0.00     0.009 N 
ATOM     13  H81 UNL     1       3.630   1.311   1.543  1.00  0.00     0.286 HD
ATOM     14  H82 UNL     1       4.519   1.777   0.491  1.00  0.00     0.286 HD
HETATM   15  C17 UNL     1       3.999  -1.107   0.274  1.00  0.00     0.137 C 
ENDROOT
BRANCH   1  16
HETATM   16  C12 UNL     1       1.912   0.330  -0.048  1.00  0.00     0.033 A 
HETATM   17  C11 UNL     1       1.447   1.177   0.929  1.00  0.00     0.017 A 
HETATM   18  C10 UNL     1       0.111   1.423   1.147  1.00  0.00     0.030 A 
HETATM   19  C9  UNL     1      -0.808   0.790   0.346  1.00  0.00     0.031 A 
HETATM   20  C21 UNL     1      -0.388  -0.054  -0.629  1.00  0.00     0.066 A 
HETATM   21  C20 UNL     1       0.974  -0.299  -0.844  1.00  0.00     0.078 A 
BRANCH  19  22
HETATM   22  N3  UNL     1      -2.207   1.059   0.587  1.00  0.00    -0.372 N 
ATOM     23  H3  UNL     1      -2.488   1.701   1.328  1.00  0.00     0.161 HD
BRANCH  22  24
HETATM   24  C8  UNL     1      -3.221   0.399  -0.245  1.00  0.00     0.264 C 
BRANCH  24  25
HETATM   25  N2  UNL     1      -4.502   0.827   0.188  1.00  0.00    -0.269 N 
HETATM   26  C3  UNL     1      -5.631   0.309  -0.476  1.00  0.00     0.247 C 
HETATM   27  C5  UNL     1      -6.793   0.587   0.423  1.00  0.00     0.097 C 
HETATM   28  C6  UNL     1      -6.145   1.057   1.692  1.00  0.00     0.100 C 
HETATM   29  C7  UNL     1      -6.520   2.502   1.998  1.00  0.00     0.030 C 
HETATM   30  N1  UNL     1      -4.748   1.005   1.478  1.00  0.00    -0.134 NA
BRANCH  26  31
HETATM   31  O2  UNL     1      -5.541  -1.060  -0.831  1.00  0.00    -0.277 OA
BRANCH  31  32
HETATM   32  C2  UNL     1      -5.347  -2.098   0.029  1.00  0.00     0.257 C 
HETATM   33  C1  UNL     1      -5.264  -3.495  -0.482  1.00  0.00     0.126 C 
HETATM   34  O1  UNL     1      -5.233  -1.924   1.252  1.00  0.00    -0.266 OA
ENDBRANCH  31  32
ENDBRANCH  26  31
BRANCH  26  35
HETATM   35  C4  UNL     1      -5.885   1.055  -1.759  1.00  0.00     0.233 C 
HETATM   36  O3  UNL     1      -6.004   2.288  -1.712  1.00  0.00    -0.644 OA
HETATM   37  O4  UNL     1      -5.978   0.363  -2.929  1.00  0.00    -0.644 OA
ENDBRANCH  26  35
ENDBRANCH  24  25
ENDBRANCH  22  24
ENDBRANCH  19  22
BRANCH  21  38
HETATM   38  O9  UNL     1       1.335  -1.173  -1.860  1.00  0.00    -0.360 OA
ATOM     39  H9  UNL     1       0.690  -1.605  -2.407  1.00  0.00     0.217 HD
ENDBRANCH  21  38
ENDBRANCH   1  16
BRANCH  15  40
HETATM   40  C18 UNL     1       4.619  -2.062  -0.712  1.00  0.00     0.187 C 
BRANCH  40  41
HETATM   41  O7  UNL     1       5.165  -3.111   0.049  1.00  0.00    -0.400 OA
ATOM     42  H7  UNL     1       5.556  -3.713  -0.573  1.00  0.00     0.209 HD
ENDBRANCH  40  41
ENDBRANCH  15  40
BRANCH  15  43
HETATM   43  C19 UNL     1       3.108  -1.911   1.195  1.00  0.00     0.187 C 
BRANCH  43  44
HETATM   44  O8  UNL     1       2.693  -1.250   2.319  1.00  0.00    -0.400 OA
ATOM     45  H8  UNL     1       2.133  -1.755   2.897  1.00  0.00     0.209 HD
ENDBRANCH  43  44
ENDBRANCH  15  43
BRANCH  11  46
HETATM   46  O6  UNL     1       4.948  -0.512   2.372  1.00  0.00    -0.348 OA
ATOM     47  H6  UNL     1       4.047  -0.530   2.672  1.00  0.00     0.214 HD
ENDBRANCH  11  46
BRANCH   8  48
HETATM   48  O5  UNL     1       7.031   1.950   0.654  1.00  0.00    -0.360 OA
ATOM     49  H5  UNL     1       7.468   1.645   1.440  1.00  0.00     0.214 HD
ENDBRANCH   8  48
TORSDOF 14
