REMARK  14 active torsions:
REMARK  status: ('A' for Active; 'I' for Inactive)
REMARK    1  A    between atoms: O1_2  and  N1_3 
REMARK    2  A    between atoms: C2_5  and  S1_7 
REMARK    3  A    between atoms: S1_7  and  C3_8 
REMARK    4  A    between atoms: C4_10  and  O3_11 
REMARK    5  A    between atoms: O3_11  and  N3_12 
REMARK    6  A    between atoms: C5_15  and  O4_16 
REMARK    7  A    between atoms: C6_18  and  O5_19 
REMARK    8  A    between atoms: C7_21  and  N4_22 
REMARK    9  A    between atoms: C8_26  and  O6_27 
REMARK   10  A    between atoms: O6_27  and  C9_28 
REMARK   11  A    between atoms: C10_29  and  O7_30 
REMARK   12  A    between atoms: C11_32  and  N5_33 
REMARK   13  A    between atoms: C13_38  and  N6_39 
REMARK   14  A    between atoms: C14_43  and  O8_44 
ROOT
HETATM    1  C3  UNL     1       1.319  -0.269  -0.240  1.00  0.00     0.224 C 
HETATM    2  O2  UNL     1       2.311  -1.135  -0.693  1.00  0.00    -0.338 OA
HETATM    3  C4  UNL     1       2.637  -2.135   0.199  1.00  0.00     0.320 C 
HETATM    4  C5  UNL     1       2.063  -3.425  -0.353  1.00  0.00     0.206 C 
HETATM    5  C6  UNL     1       0.539  -3.260  -0.345  1.00  0.00     0.184 C 
HETATM    6  C7  UNL     1       0.104  -2.188  -1.294  1.00  0.00     0.246 C 
HETATM    7  C8  UNL     1      -0.021  -0.826  -0.654  1.00  0.00     0.194 C 
ENDROOT
BRANCH   7   8
HETATM    8  O6  UNL     1      -0.962  -0.771   0.344  1.00  0.00    -0.370 OA
BRANCH   8   9
HETATM    9  C9  UNL     1      -2.033   0.039   0.089  1.00  0.00     0.183 C 
HETATM   10  C10 UNL     1      -1.997   1.163   1.138  1.00  0.00     0.180 C 
HETATM   11  C11 UNL     1      -2.922   2.299   0.689  1.00  0.00     0.216 C 
HETATM   12  C12 UNL     1      -3.944   1.774  -0.272  1.00  0.00     0.071 C 
HETATM   13  C13 UNL     1      -4.471   0.436   0.216  1.00  0.00     0.216 C 
HETATM   14  C14 UNL     1      -3.380  -0.611   0.246  1.00  0.00     0.180 C 
BRANCH  10  15
HETATM   15  O7  UNL     1      -2.501   0.700   2.349  1.00  0.00    -0.391 OA
ATOM     16  H7  UNL     1      -2.479   1.394   2.997  1.00  0.00     0.210 HD
ENDBRANCH  10  15
BRANCH  11  17
HETATM   17  N5  UNL     1      -2.120   3.346   0.047  1.00  0.00    -0.072 N 
ATOM     18  H53 UNL     1      -1.363   3.676   0.645  1.00  0.00     0.274 HD
ATOM     19  H52 UNL     1      -1.551   2.984  -0.718  1.00  0.00     0.274 HD
ATOM     20  H51 UNL     1      -2.736   4.102  -0.252  1.00  0.00     0.274 HD
ENDBRANCH  11  17
BRANCH  13  21
HETATM   21  N6  UNL     1      -5.508  -0.008  -0.693  1.00  0.00    -0.072 N 
ATOM     22  H63 UNL     1      -6.247   0.684  -0.812  1.00  0.00     0.274 HD
ATOM     23  H62 UNL     1      -5.191  -0.042  -1.662  1.00  0.00     0.274 HD
ATOM     24  H61 UNL     1      -5.862  -0.907  -0.365  1.00  0.00     0.274 HD
ENDBRANCH  13  21
BRANCH  14  25
HETATM   25  O8  UNL     1      -3.504  -1.291   1.454  1.00  0.00    -0.391 OA
ATOM     26  H8  UNL     1      -4.355  -1.702   1.553  1.00  0.00     0.210 HD
ENDBRANCH  14  25
ENDBRANCH   8   9
ENDBRANCH   7   8
BRANCH   1  27
HETATM   27  S1  UNL     1       1.655   1.335  -1.020  1.00  0.00    -0.061 SA
BRANCH  27  28
HETATM   28  C2  UNL     1       3.187   1.964  -0.384  1.00  0.00     0.176 C 
HETATM   29  N1  UNL     1       3.591   3.107  -0.831  1.00  0.00    -0.248 N 
ATOM     30  H1  UNL     1       3.045   3.621  -1.523  1.00  0.00     0.196 HD
HETATM   31  N2  UNL     1       3.930   1.231   0.578  1.00  0.00    -0.073 NA
BRANCH  29  32
HETATM   32  O1  UNL     1       4.762   3.607  -0.356  1.00  0.00    -0.284 OA
HETATM   33  C1  UNL     1       5.458   4.695  -0.912  1.00  0.00     0.237 C 
ENDBRANCH  29  32
ENDBRANCH  27  28
ENDBRANCH   1  27
BRANCH   6  34
HETATM   34  N4  UNL     1      -1.104  -2.604  -1.934  1.00  0.00    -0.070 N 
ATOM     35  H43 UNL     1      -1.012  -3.513  -2.388  1.00  0.00     0.274 HD
ATOM     36  H42 UNL     1      -1.833  -2.853  -1.266  1.00  0.00     0.274 HD
ATOM     37  H41 UNL     1      -1.401  -1.873  -2.581  1.00  0.00     0.274 HD
ENDBRANCH   6  34
BRANCH   5  38
HETATM   38  O5  UNL     1       0.049  -3.088   0.941  1.00  0.00    -0.391 OA
ATOM     39  H5  UNL     1      -0.895  -2.986   0.946  1.00  0.00     0.210 HD
ENDBRANCH   5  38
BRANCH   3  40
HETATM   40  O3  UNL     1       2.185  -1.946   1.476  1.00  0.00    -0.252 OA
BRANCH  40  41
HETATM   41  N3  UNL     1       3.215  -1.933   2.349  1.00  0.00    -0.308 N 
ATOM     42  H32 UNL     1       4.191  -2.050   2.078  1.00  0.00     0.184 HD
ATOM     43  H31 UNL     1       2.878  -1.792   3.301  1.00  0.00     0.184 HD
ENDBRANCH  40  41
ENDBRANCH   3  40
BRANCH   4  44
HETATM   44  O4  UNL     1       2.433  -3.593  -1.682  1.00  0.00    -0.388 OA
ATOM     45  H4  UNL     1       2.073  -4.401  -2.028  1.00  0.00     0.210 HD
ENDBRANCH   4  44
TORSDOF 14
