REMARK  13 active torsions:
REMARK  status: ('A' for Active; 'I' for Inactive)
REMARK    1  A    between atoms: O1_2  and  C2_3 
REMARK    2  A    between atoms: C2_3  and  O2_4 
REMARK    3  A    between atoms: C2_3  and  C3_6 
REMARK    4  A    between atoms: C5_8  and  O3_9 
REMARK    5  A    between atoms: C9_15  and  N1_16 
REMARK    6  A    between atoms: N2_18  and  C10_20 
REMARK    7  A    between atoms: C11_21  and  N3_22 
REMARK    8  A    between atoms: C11_21  and  N4_26 
REMARK    9  A    between atoms: C12_30  and  N5_31 
REMARK   10  A    between atoms: C13_35  and  N6_36 
REMARK   11  A    between atoms: C13_35  and  O5_40 
REMARK   12  A    between atoms: C15_44  and  O7_45 
REMARK   13  A    between atoms: C15_44  and  C16_47 
ROOT
HETATM    1  N1  UNL     1      -1.069  -0.622   0.468  1.00  0.00    -0.300 N 
ATOM      2  H1  UNL     1      -1.520  -1.234   1.148  1.00  0.00     0.186 HD
HETATM    3  N2  UNL     1      -1.781   0.187  -0.202  1.00  0.00    -0.322 N 
ATOM      4  H2  UNL     1      -1.363   0.814  -0.890  1.00  0.00     0.180 HD
ENDROOT
BRANCH   1   5
HETATM    5  C9  UNL     1       0.331  -0.697   0.297  1.00  0.00     0.112 C 
HETATM    6  C3  UNL     1       0.952  -1.849   0.755  1.00  0.00     0.031 C 
HETATM    7  C4  UNL     1       2.261  -2.209   0.541  1.00  0.00     0.052 C 
HETATM    8  C5  UNL     1       3.341  -1.381   0.310  1.00  0.00     0.083 C 
HETATM    9  C6  UNL     1       3.324  -0.067  -0.174  1.00  0.00     0.084 C 
HETATM   10  C7  UNL     1       2.233   0.723  -0.449  1.00  0.00     0.138 C 
HETATM   11  C17 UNL     1       4.647   0.483  -0.396  1.00  0.00     0.212 C 
HETATM   12  C8  UNL     1       0.907   0.389  -0.306  1.00  0.00     0.234 C 
HETATM   13  O6  UNL     1       2.468   1.998  -0.922  1.00  0.00    -0.342 OA
HETATM   14  O4  UNL     1       0.101   1.233  -0.820  1.00  0.00    -0.283 OA
HETATM   15  C14 UNL     1       3.600   2.325  -1.704  1.00  0.00     0.234 C 
HETATM   16  C15 UNL     1       4.875   1.748  -1.177  1.00  0.00     0.233 C 
HETATM   17  O10 UNL     1       5.642  -0.099   0.067  1.00  0.00    -0.288 OA
BRANCH   6  18
HETATM   18  C2  UNL     1       0.154  -2.790   1.548  1.00  0.00     0.293 C 
BRANCH  18  19
HETATM   19  O1  UNL     1       0.843  -3.233   2.671  1.00  0.00    -0.362 OA
HETATM   20  C1  UNL     1       0.964  -4.616   2.733  1.00  0.00     0.205 C 
ENDBRANCH  18  19
BRANCH  18  21
HETATM   21  O2  UNL     1      -1.007  -2.115   1.965  1.00  0.00    -0.367 OA
ATOM     22  H2  UNL     1      -1.478  -1.812   1.197  1.00  0.00     0.213 HD
ENDBRANCH  18  21
ENDBRANCH   6  18
BRANCH   8  23
HETATM   23  O3  UNL     1       4.615  -1.850   0.570  1.00  0.00    -0.360 OA
ATOM     24  H3  UNL     1       5.358  -1.280   0.411  1.00  0.00     0.217 HD
ENDBRANCH   8  23
BRANCH  16  25
HETATM   25  O7  UNL     1       5.683   1.385  -2.263  1.00  0.00    -0.370 OA
ATOM     26  H7  UNL     1       6.493   1.018  -1.928  1.00  0.00     0.212 HD
ENDBRANCH  16  25
BRANCH  16  27
HETATM   27  C16 UNL     1       5.641   2.728  -0.377  1.00  0.00     0.219 C 
HETATM   28  O8  UNL     1       6.785   3.111  -0.676  1.00  0.00    -0.645 OA
HETATM   29  O9  UNL     1       5.022   3.238   0.775  1.00  0.00    -0.645 OA
ENDBRANCH  16  27
ENDBRANCH   1   5
BRANCH   3  30
HETATM   30  C10 UNL     1      -3.205   0.189   0.044  1.00  0.00     0.231 C 
HETATM   31  C11 UNL     1      -4.089   0.238  -1.155  1.00  0.00     0.340 C 
HETATM   32  C12 UNL     1      -4.953   1.238  -0.429  1.00  0.00     0.314 C 
HETATM   33  C13 UNL     1      -3.779   1.506   0.488  1.00  0.00     0.280 C 
BRANCH  31  34
HETATM   34  N3  UNL     1      -4.762  -1.035  -1.388  1.00  0.00    -0.040 N 
ATOM     35  H33 UNL     1      -4.092  -1.802  -1.452  1.00  0.00     0.277 HD
ATOM     36  H32 UNL     1      -5.276  -1.339  -0.561  1.00  0.00     0.277 HD
ATOM     37  H31 UNL     1      -5.367  -1.001  -2.209  1.00  0.00     0.277 HD
ENDBRANCH  31  34
BRANCH  31  38
HETATM   38  N4  UNL     1      -3.490   0.701  -2.382  1.00  0.00    -0.040 N 
ATOM     39  H43 UNL     1      -3.066   1.617  -2.232  1.00  0.00     0.277 HD
ATOM     40  H42 UNL     1      -2.662   0.143  -2.590  1.00  0.00     0.277 HD
ATOM     41  H41 UNL     1      -4.095   0.735  -3.203  1.00  0.00     0.277 HD
ENDBRANCH  31  38
BRANCH  32  42
HETATM   42  N5  UNL     1      -5.366   2.377  -1.224  1.00  0.00    -0.066 N 
ATOM     43  H53 UNL     1      -4.551   2.841  -1.626  1.00  0.00     0.275 HD
ATOM     44  H52 UNL     1      -5.830   2.063  -2.076  1.00  0.00     0.275 HD
ATOM     45  H51 UNL     1      -5.950   3.053  -0.733  1.00  0.00     0.275 HD
ENDBRANCH  32  42
BRANCH  33  46
HETATM   46  N6  UNL     1      -4.213   1.559   1.866  1.00  0.00    -0.043 N 
ATOM     47  H63 UNL     1      -4.876   0.807   2.053  1.00  0.00     0.278 HD
ATOM     48  H62 UNL     1      -3.450   1.284   2.484  1.00  0.00     0.278 HD
ATOM     49  H61 UNL     1      -4.602   2.452   2.167  1.00  0.00     0.278 HD
ENDBRANCH  33  46
BRANCH  33  50
HETATM   50  O5  UNL     1      -3.032   2.630   0.171  1.00  0.00    -0.362 OA
ATOM     51  H5  UNL     1      -3.395   3.462   0.452  1.00  0.00     0.212 HD
ENDBRANCH  33  50
ENDBRANCH   3  30
TORSDOF 13
