REMARK  14 active torsions:
REMARK  status: ('A' for Active; 'I' for Inactive)
REMARK    1  A    between atoms: C2_3  and  O1_4 
REMARK    2  A    between atoms: C3_6  and  O2_7 
REMARK    3  A    between atoms: C4_9  and  N2_10 
REMARK    4  A    between atoms: C6_15  and  N3_16 
REMARK    5  A    between atoms: C7_20  and  O3_21 
REMARK    6  A    between atoms: O3_21  and  C8_22 
REMARK    7  A    between atoms: C10_24  and  S1_25 
REMARK    8  A    between atoms: S1_25  and  N4_26 
REMARK    9  A    between atoms: N4_26  and  C11_28 
REMARK   10  A    between atoms: C11_28  and  C12_29 
REMARK   11  A    between atoms: C11_28  and  C13_34 
REMARK   12  A    between atoms: N5_30  and  O4_32 
REMARK   13  A    between atoms: C15_39  and  O8_40 
REMARK   14  A    between atoms: C15_39  and  O9_42 
ROOT
HETATM    1  N1  UNL     1      -1.936   2.032  -2.087  1.00  0.00    -0.194 NA
HETATM    2  C1  UNL     1      -2.191   1.670  -1.003  1.00  0.00     0.103 C 
HETATM    3  C2  UNL     1      -2.484   1.221   0.356  1.00  0.00     0.202 C 
HETATM    4  C3  UNL     1      -3.855   1.689   0.779  1.00  0.00     0.200 C 
HETATM    5  C4  UNL     1      -4.911   0.997  -0.004  1.00  0.00     0.218 C 
HETATM    6  C5  UNL     1      -4.478  -0.213  -0.747  1.00  0.00     0.071 C 
HETATM    7  C6  UNL     1      -3.457  -1.050  -0.009  1.00  0.00     0.218 C 
HETATM    8  C7  UNL     1      -2.300  -0.275   0.517  1.00  0.00     0.204 C 
ENDROOT
BRANCH   3   9
HETATM    9  O1  UNL     1      -1.513   1.811   1.197  1.00  0.00    -0.371 OA
ATOM     10  H1  UNL     1      -1.704   1.519   2.081  1.00  0.00     0.212 HD
ENDBRANCH   3   9
BRANCH   4  11
HETATM   11  O2  UNL     1      -3.871   3.082   0.555  1.00  0.00    -0.389 OA
ATOM     12  H2  UNL     1      -4.734   3.377   0.821  1.00  0.00     0.210 HD
ENDBRANCH   4  11
BRANCH   8  13
HETATM   13  O3  UNL     1      -1.091  -0.589  -0.062  1.00  0.00    -0.369 OA
BRANCH  13  14
HETATM   14  C8  UNL     1      -0.103  -1.014   0.771  1.00  0.00     0.189 C 
HETATM   15  C9  UNL     1       1.222  -0.310   0.601  1.00  0.00     0.082 C 
HETATM   16  C10 UNL     1       1.916  -0.707  -0.682  1.00  0.00     0.206 C 
HETATM   17  O7  UNL     1       1.103  -1.386  -1.558  1.00  0.00    -0.368 OA
HETATM   18  C14 UNL     1       0.494  -2.507  -1.051  1.00  0.00     0.240 C 
HETATM   19  C15 UNL     1       0.187  -2.476   0.393  1.00  0.00     0.208 C 
BRANCH  16  20
HETATM   20  S1  UNL     1       3.477  -1.578  -0.370  1.00  0.00    -0.026 SA
BRANCH  20  21
HETATM   21  N4  UNL     1       4.670  -0.571   0.373  1.00  0.00    -0.343 N 
ATOM     22  H4  UNL     1       5.042  -0.760   1.304  1.00  0.00     0.169 HD
BRANCH  21  23
HETATM   23  C11 UNL     1       5.098   0.547  -0.411  1.00  0.00     0.230 C 
BRANCH  23  24
HETATM   24  C12 UNL     1       6.129   1.306   0.372  1.00  0.00     0.123 C 
HETATM   25  N5  UNL     1       6.274   2.567   0.158  1.00  0.00    -0.282 N 
ATOM     26  H5  UNL     1       5.686   3.026  -0.538  1.00  0.00     0.193 HD
BRANCH  25  27
HETATM   27  O4  UNL     1       7.202   3.308   0.846  1.00  0.00    -0.290 OA
ATOM     28  H4  UNL     1       7.309   4.239   0.688  1.00  0.00     0.244 HD
ENDBRANCH  25  27
ENDBRANCH  23  24
BRANCH  23  29
HETATM   29  C13 UNL     1       5.804   0.069  -1.650  1.00  0.00     0.202 C 
HETATM   30  O5  UNL     1       5.959  -1.135  -1.895  1.00  0.00    -0.646 OA
HETATM   31  O6  UNL     1       6.278   1.031  -2.512  1.00  0.00    -0.646 OA
ENDBRANCH  23  29
ENDBRANCH  21  23
ENDBRANCH  20  21
ENDBRANCH  16  20
BRANCH  19  32
HETATM   32  O8  UNL     1      -0.987  -3.185   0.633  1.00  0.00    -0.362 OA
ATOM     33  H8  UNL     1      -0.808  -4.088   0.399  1.00  0.00     0.213 HD
ENDBRANCH  19  32
BRANCH  19  34
HETATM   34  O9  UNL     1       1.165  -3.014   1.213  1.00  0.00    -0.362 OA
ATOM     35  H9  UNL     1       1.344  -3.917   0.979  1.00  0.00     0.213 HD
ENDBRANCH  19  34
ENDBRANCH  13  14
ENDBRANCH   8  13
BRANCH   5  36
HETATM   36  N2  UNL     1      -5.504   1.955  -0.947  1.00  0.00    -0.072 N 
ATOM     37  H23 UNL     1      -5.850   2.795  -0.484  1.00  0.00     0.274 HD
ATOM     38  H22 UNL     1      -4.805   2.399  -1.542  1.00  0.00     0.274 HD
ATOM     39  H21 UNL     1      -6.229   1.480  -1.485  1.00  0.00     0.274 HD
ENDBRANCH   5  36
BRANCH   7  40
HETATM   40  N3  UNL     1      -4.199  -1.737   1.062  1.00  0.00    -0.072 N 
ATOM     41  H33 UNL     1      -4.722  -1.104   1.667  1.00  0.00     0.274 HD
ATOM     42  H32 UNL     1      -4.999  -2.273   0.725  1.00  0.00     0.274 HD
ATOM     43  H31 UNL     1      -3.510  -2.301   1.560  1.00  0.00     0.274 HD
ENDBRANCH   7  40
TORSDOF 14
