REMARK  3 active torsions:
REMARK  status: ('A' for Active; 'I' for Inactive)
REMARK    1  A    between atoms: C2_3  and  S1_4 
REMARK    2  A    between atoms: S1_4  and  C3_5 
REMARK    3  A    between atoms: C5_7  and  N2_8 
ROOT
HETATM    1  N1  UNL     1       3.663   1.354  -0.502  1.00  0.00    -0.197 NA
HETATM    2  C1  UNL     1       3.450   0.496   0.230  1.00  0.00     0.069 C 
HETATM    3  C2  UNL     1       3.218  -0.558   1.224  1.00  0.00     0.197 C 
ENDROOT
BRANCH   3   4
HETATM    4  S1  UNL     1       1.527  -1.204   1.140  1.00  0.00    -0.150 SA
BRANCH   4   5
HETATM    5  C3  UNL     1       0.470  -0.173   0.126  1.00  0.00     0.054 C 
HETATM    6  C4  UNL     1      -0.593   0.542   0.971  1.00  0.00     0.048 C 
HETATM    7  C5  UNL     1      -1.727   0.784  -0.026  1.00  0.00     0.189 C 
HETATM    8  C6  UNL     1      -1.068   0.452  -1.299  1.00  0.00     0.022 A 
HETATM    9  C7  UNL     1      -0.939  -0.713  -2.085  1.00  0.00     0.013 A 
HETATM   10  C8  UNL     1      -0.455  -0.897  -0.770  1.00  0.00     0.006 A 
BRANCH   7  11
HETATM   11  N2  UNL     1      -2.921   0.078   0.283  1.00  0.00    -0.075 N 
ATOM     12  H23 UNL     1      -2.734  -0.920   0.380  1.00  0.00     0.274 HD
ATOM     13  H22 UNL     1      -3.227   0.287   1.233  1.00  0.00     0.274 HD
ATOM     14  H21 UNL     1      -3.677   0.239  -0.382  1.00  0.00     0.274 HD
ENDBRANCH   7  11
ENDBRANCH   4   5
ENDBRANCH   3   4
TORSDOF 3
