REMARK  4 active torsions:
REMARK  status: ('A' for Active; 'I' for Inactive)
REMARK    1  A    between atoms: C2_3  and  C3_4 
REMARK    2  A    between atoms: C3_4  and  N2_5 
REMARK    3  A    between atoms: N2_5  and  N3_6 
REMARK    4  A    between atoms: N2_5  and  N4_9 
ROOT
HETATM    1  N1  UNL     1       0.446  -1.548  -2.288  1.00  0.00    -0.196 NA
HETATM    2  C1  UNL     1       0.297  -0.995  -1.282  1.00  0.00     0.070 C 
HETATM    3  C2  UNL     1       0.123  -0.272  -0.001  1.00  0.00     0.064 C 
HETATM    4  C4  UNL     1      -0.924  -0.993   0.824  1.00  0.00     0.026 C 
HETATM    5  C5  UNL     1      -2.247  -1.094   0.133  1.00  0.00     0.002 C 
HETATM    6  C6  UNL     1      -2.521   0.074  -0.787  1.00  0.00     0.000 C 
HETATM    7  C7  UNL     1      -1.831   1.280  -0.183  1.00  0.00     0.002 C 
HETATM    8  C8  UNL     1      -0.326   1.136  -0.186  1.00  0.00     0.026 C 
ENDROOT
BRANCH   3   9
HETATM    9  C3  UNL     1       1.429  -0.413   0.742  1.00  0.00     0.162 C 
BRANCH   9  10
HETATM   10  N2  UNL     1       2.550   0.139   0.031  1.00  0.00    -0.151 NA
BRANCH  10  11
HETATM   11  N3  UNL     1       2.453   1.485  -0.240  1.00  0.00    -0.346 NA
ATOM     12  H32 UNL     1       1.593   1.666  -0.758  1.00  0.00     0.172 HD
ATOM     13  H31 UNL     1       3.248   1.877  -0.744  1.00  0.00     0.172 HD
ENDBRANCH  10  11
BRANCH  10  14
HETATM   14  N4  UNL     1       3.711  -0.105   0.730  1.00  0.00    -0.346 NA
ATOM     15  H42 UNL     1       3.783  -1.102   0.931  1.00  0.00     0.172 HD
ATOM     16  H41 UNL     1       4.506   0.287   0.226  1.00  0.00     0.172 HD
ENDBRANCH  10  14
ENDBRANCH   9  10
ENDBRANCH   3   9
TORSDOF 4
