REMARK  5 active torsions:
REMARK  status: ('A' for Active; 'I' for Inactive)
REMARK    1  A    between atoms: C2_2  and  C3_3 
REMARK    2  A    between atoms: C5_5  and  O1_6 
REMARK    3  A    between atoms: O1_6  and  O2_7 
REMARK    4  A    between atoms: C7_10  and  O3_11 
REMARK    5  A    between atoms: O3_11  and  C8_12 
REMARK       I    between atoms: C8_12  and  N1_14 
ROOT
HETATM    1  C3  UNL     1      -1.559   0.156   0.396  1.00  0.00    -0.010 C 
HETATM    2  C4  UNL     1      -1.456  -1.107  -0.383  1.00  0.00     0.039 C 
HETATM    3  C5  UNL     1      -0.199  -1.869  -0.249  1.00  0.00     0.163 C 
HETATM    4  C6  UNL     1       0.815  -1.225   0.674  1.00  0.00     0.067 C 
HETATM    5  C7  UNL     1       0.945   0.213   0.151  1.00  0.00     0.136 C 
HETATM    6  C9  UNL     1      -0.311   0.899   0.632  1.00  0.00     0.037 C 
ENDROOT
BRANCH   5   7
HETATM    7  O3  UNL     1       2.047   0.862   0.701  1.00  0.00    -0.298 OA
BRANCH   7   8
HETATM    8  C8  UNL     1       3.026   1.370  -0.137  1.00  0.00     0.371 C 
HETATM    9  O4  UNL     1       2.865   1.214  -1.373  1.00  0.00    -0.238 OA
HETATM   10  N1  UNL     1       4.166   2.040   0.389  1.00  0.00    -0.266 N 
HETATM   11  S1  UNL     1       5.370   2.660  -0.715  1.00  0.00     0.046 SA
ATOM     12  H1  UNL     1       4.279   2.157   1.396  1.00  0.00     0.180 HD
ENDBRANCH   7   8
ENDBRANCH   5   7
BRANCH   3  13
HETATM   13  O1  UNL     1      -0.407  -3.162   0.213  1.00  0.00    -0.238 OA
BRANCH  13  14
HETATM   14  O2  UNL     1       0.053  -4.081  -0.600  1.00  0.00    -0.250 OA
ATOM     15  H2  UNL     1      -0.089  -4.966  -0.284  1.00  0.00     0.253 HD
ENDBRANCH  13  14
ENDBRANCH   3  13
BRANCH   1  16
HETATM   16  C2  UNL     1      -2.561   1.114  -0.264  1.00  0.00     0.000 C 
HETATM   17  C1  UNL     1      -3.939   0.491  -0.339  1.00  0.00     0.005 C 
ENDBRANCH   1  16
TORSDOF 5
