REMARK  7 active torsions:
REMARK  status: ('A' for Active; 'I' for Inactive)
REMARK    1  A    between atoms: C2_2  and  C3_3 
REMARK    2  A    between atoms: C3_3  and  C4_4 
REMARK    3  A    between atoms: C4_4  and  C9_18 
REMARK    4  A    between atoms: C5_5  and  O1_6 
REMARK    5  A    between atoms: C5_5  and  N1_8 
REMARK    6  A    between atoms: C6_11  and  O2_12 
REMARK    7  A    between atoms: C8_15  and  O3_16 
ROOT
HETATM    1  C4  UNL     1      -0.650  -0.136   0.499  1.00  0.00    -0.020 C 
HETATM    2  C5  UNL     1       0.673   0.122   0.998  1.00  0.00     0.167 C 
ENDROOT
BRANCH   2   3
HETATM    3  O1  UNL     1       0.714   0.151   2.333  1.00  0.00    -0.344 OA
ATOM      4  H1  UNL     1       1.588   0.322   2.663  1.00  0.00     0.219 HD
ENDBRANCH   2   3
BRANCH   2   5
HETATM    5  N1  UNL     1       1.927   0.350   0.421  1.00  0.00    -0.209 N 
HETATM    6  N2  UNL     1       3.055   0.568   1.159  1.00  0.00    -0.269 N 
HETATM    7  C6  UNL     1       4.103   0.756   0.373  1.00  0.00     0.159 A 
ATOM      8  H2  UNL     1       3.086   0.584   2.178  1.00  0.00     0.190 HD
HETATM    9  C7  UNL     1       3.676   0.664  -0.922  1.00  0.00     0.115 A 
HETATM   10  C8  UNL     1       2.292   0.406  -0.847  1.00  0.00     0.168 A 
BRANCH   7  11
HETATM   11  O2  UNL     1       5.388   1.001   0.830  1.00  0.00    -0.345 OA
ATOM     12  H2  UNL     1       6.140   1.136   0.266  1.00  0.00     0.219 HD
ENDBRANCH   7  11
BRANCH  10  13
HETATM   13  O3  UNL     1       1.587   0.264  -2.031  1.00  0.00    -0.345 OA
ATOM     14  H3  UNL     1       1.850   0.304  -2.943  1.00  0.00     0.219 HD
ENDBRANCH  10  13
ENDBRANCH   2   5
BRANCH   1  15
HETATM   15  C3  UNL     1      -1.272   0.771  -0.497  1.00  0.00     0.039 C 
BRANCH  15  16
HETATM   16  C2  UNL     1      -1.349   2.188   0.099  1.00  0.00     0.000 C 
HETATM   17  C1  UNL     1      -1.974   3.144  -0.874  1.00  0.00     0.005 C 
ENDBRANCH  15  16
ENDBRANCH   1  15
BRANCH   1  18
HETATM   18  C9  UNL     1      -1.017  -1.604   0.322  1.00  0.00    -0.024 C 
HETATM   19  C10 UNL     1      -2.548  -1.677   0.474  1.00  0.00     0.019 C 
HETATM   20  C11 UNL     1      -0.682  -2.197  -0.990  1.00  0.00     0.019 C 
HETATM   21  C12 UNL     1      -0.439  -2.413   1.436  1.00  0.00     0.019 C 
ENDBRANCH   1  18
TORSDOF 7
