REMARK  6 active torsions:
REMARK  status: ('A' for Active; 'I' for Inactive)
REMARK    1  A    between atoms: C2_2  and  C4_4 
REMARK    2  A    between atoms: C4_4  and  O1_5 
REMARK    3  A    between atoms: C4_4  and  C5_7 
REMARK    4  A    between atoms: C6_9  and  N1_10 
REMARK    5  A    between atoms: N2_13  and  C7_14 
REMARK    6  A    between atoms: C10_17  and  O2_18 
ROOT
HETATM    1  C5  UNL     1      -0.678  -0.269  -0.693  1.00  0.00     0.088 A 
HETATM    2  S1  UNL     1       0.159   0.564  -1.965  1.00  0.00    -0.047 SA
HETATM    3  C6  UNL     1       1.706   0.646  -1.211  1.00  0.00     0.147 A 
HETATM    4  N2  UNL     1       1.514   0.058  -0.054  1.00  0.00    -0.303 N 
HETATM    5  C10 UNL     1       0.316  -0.412   0.228  1.00  0.00     0.164 A 
ENDROOT
BRANCH   1   6
HETATM    6  C4  UNL     1      -2.023  -0.852  -0.735  1.00  0.00     0.068 C 
BRANCH   6   7
HETATM    7  C2  UNL     1      -3.163   0.048  -0.477  1.00  0.00     0.035 C 
HETATM    8  C1  UNL     1      -2.966   1.510  -0.731  1.00  0.00     0.016 C 
HETATM    9  C3  UNL     1      -3.777  -0.259   0.871  1.00  0.00     0.016 C 
ENDBRANCH   6   7
BRANCH   6  10
HETATM   10  O1  UNL     1      -2.112  -2.179  -0.431  1.00  0.00    -0.363 OA
ATOM     11  H1  UNL     1      -1.378  -2.759  -0.597  1.00  0.00     0.217 HD
ENDBRANCH   6  10
ENDBRANCH   1   6
BRANCH   5  12
HETATM   12  O2  UNL     1      -0.017  -1.049   1.458  1.00  0.00    -0.345 OA
ATOM     13  H2  UNL     1       0.676  -1.149   2.100  1.00  0.00     0.219 HD
ENDBRANCH   5  12
BRANCH   3  14
HETATM   14  N1  UNL     1       2.773   1.156  -1.769  1.00  0.00    -0.379 N 
ATOM     15  H12 UNL     1       2.922   1.613  -2.669  1.00  0.00     0.158 HD
ATOM     16  H11 UNL     1       3.689   1.205  -1.323  1.00  0.00     0.158 HD
ENDBRANCH   3  14
BRANCH   4  17
HETATM   17  C7  UNL     1       2.633   0.039   0.937  1.00  0.00     0.086 C 
HETATM   18  C8  UNL     1       3.416   1.325   0.857  1.00  0.00     0.032 C 
HETATM   19  C9  UNL     1       3.479  -1.167   0.657  1.00  0.00     0.032 C 
ENDBRANCH   4  17
TORSDOF 6
