REMARK  5 active torsions:
REMARK  status: ('A' for Active; 'I' for Inactive)
REMARK    1  A    between atoms: C2_2  and  O2_4 
REMARK    2  A    between atoms: O2_4  and  C3_5 
REMARK    3  A    between atoms: C3_5  and  C4_6 
REMARK    4  A    between atoms: C5_7  and  C6_8 
REMARK    5  A    between atoms: N1_14  and  O3_16 
ROOT
HETATM    1  C6  UNL     1      -1.111  -0.108   0.667  1.00  0.00    -0.015 C 
HETATM    2  C7  UNL     1      -1.385   0.215   1.958  1.00  0.00     0.003 C 
HETATM    3  C8  UNL     1      -2.834   0.041   2.227  1.00  0.00     0.087 C 
HETATM    4  S1  UNL     1      -3.746   1.529   1.766  1.00  0.00    -0.088 SA
HETATM    5  C9  UNL     1      -3.194  -1.031   1.183  1.00  0.00     0.080 C 
HETATM    6  C10 UNL     1      -2.367  -0.486   0.038  1.00  0.00     0.043 C 
HETATM    7  N1  UNL     1      -2.726  -0.385  -1.184  1.00  0.00    -0.273 N 
ATOM      8  H1  UNL     1      -2.052   0.016  -1.836  1.00  0.00     0.194 HD
ENDROOT
BRANCH   1   9
HETATM    9  C5  UNL     1       0.206  -0.054   0.065  1.00  0.00     0.011 C 
HETATM   10  C4  UNL     1       0.409  -0.383  -1.175  1.00  0.00     0.000 C 
BRANCH  10  11
HETATM   11  C3  UNL     1       1.796  -0.310  -1.755  1.00  0.00     0.206 C 
BRANCH  11  12
HETATM   12  O2  UNL     1       2.692   0.140  -0.762  1.00  0.00    -0.318 OA
BRANCH  12  13
HETATM   13  C2  UNL     1       4.028   0.285  -1.069  1.00  0.00     0.255 C 
HETATM   14  C1  UNL     1       5.031   0.760  -0.057  1.00  0.00     0.126 C 
HETATM   15  O1  UNL     1       4.423   0.014  -2.228  1.00  0.00    -0.266 OA
ENDBRANCH  12  13
ENDBRANCH  11  12
ENDBRANCH  10  11
ENDBRANCH   1   9
BRANCH   7  16
HETATM   16  O3  UNL     1      -3.919  -0.763  -1.686  1.00  0.00    -0.290 OA
ATOM     17  H3  UNL     1      -4.186  -0.688  -2.595  1.00  0.00     0.244 HD
ENDBRANCH   7  16
TORSDOF 5
