REMARK  5 active torsions:
REMARK  status: ('A' for Active; 'I' for Inactive)
REMARK    1  A    between atoms: C2_2  and  O1_4 
REMARK    2  A    between atoms: C2_2  and  C4_6 
REMARK    3  A    between atoms: C4_6  and  O2_7 
REMARK    4  A    between atoms: O2_7  and  N1_8 
REMARK    5  A    between atoms: C11_16  and  O3_17 
ROOT
HETATM    1  N1  UNL     1      -0.095  -1.027   0.716  1.00  0.00    -0.272 N 
ATOM      2  H1  UNL     1      -0.272  -1.837   1.310  1.00  0.00     0.193 HD
HETATM    3  C5  UNL     1       1.119  -0.620   0.556  1.00  0.00     0.038 C 
HETATM    4  C6  UNL     1       2.093  -1.461   1.314  1.00  0.00     0.057 C 
HETATM    5  C7  UNL     1       3.516  -1.169   0.932  1.00  0.00     0.006 C 
HETATM    6  C8  UNL     1       3.678  -1.151  -0.554  1.00  0.00     0.000 C 
HETATM    7  C9  UNL     1       3.605   0.245  -1.121  1.00  0.00     0.003 C 
HETATM    8  C10 UNL     1       2.632   1.120  -0.369  1.00  0.00     0.038 C 
HETATM    9  C11 UNL     1       1.255   0.549  -0.314  1.00  0.00     0.165 C 
ENDROOT
BRANCH   1  10
HETATM   10  O2  UNL     1      -1.151  -0.401   0.111  1.00  0.00    -0.278 OA
BRANCH  10  11
HETATM   11  C4  UNL     1      -2.371  -0.142   0.783  1.00  0.00     0.238 C 
BRANCH  11  12
HETATM   12  C2  UNL     1      -3.364   0.556  -0.110  1.00  0.00     0.074 C 
HETATM   13  C1  UNL     1      -3.642  -0.340  -1.297  1.00  0.00     0.047 C 
HETATM   14  C3  UNL     1      -4.666   0.749   0.623  1.00  0.00     0.047 C 
BRANCH  12  15
HETATM   15  O1  UNL     1      -2.910   1.767  -0.572  1.00  0.00    -0.388 OA
ATOM     16  H1  UNL     1      -2.735   2.330   0.173  1.00  0.00     0.210 HD
ENDBRANCH  12  15
ENDBRANCH  11  12
ENDBRANCH  10  11
ENDBRANCH   1  10
BRANCH   9  17
HETATM   17  O3  UNL     1       0.399   1.546   0.186  1.00  0.00    -0.390 OA
ATOM     18  H3  UNL     1       0.487   2.305  -0.379  1.00  0.00     0.210 HD
ENDBRANCH   9  17
TORSDOF 5
