REMARK  5 active torsions:
REMARK  status: ('A' for Active; 'I' for Inactive)
REMARK    1  A    between atoms: C1_2  and  N1_3 
REMARK    2  A    between atoms: C1_2  and  N3_17 
REMARK    3  A    between atoms: N1_3  and  C2_5 
REMARK    4  A    between atoms: C2_5  and  C3_6 
REMARK    5  A    between atoms: N2_9  and  C6_10 
ROOT
HETATM    1  C3  UNL     1      -0.072   0.193  -0.905  1.00  0.00     0.013 C 
HETATM    2  C4  UNL     1       0.583   0.939   0.209  1.00  0.00     0.051 C 
HETATM    3  C5  UNL     1       2.034   1.158  -0.085  1.00  0.00     0.064 C 
HETATM    4  N2  UNL     1       2.714   0.032  -0.571  1.00  0.00    -0.369 N 
HETATM    5  C11 UNL     1       2.037  -1.160  -0.858  1.00  0.00     0.064 C 
HETATM    6  C12 UNL     1       0.628  -1.013  -1.348  1.00  0.00     0.051 C 
ENDROOT
BRANCH   1   7
HETATM    7  C2  UNL     1      -1.571   0.038  -0.625  1.00  0.00     0.127 C 
BRANCH   7   8
HETATM    8  N1  UNL     1      -1.809  -0.625   0.603  1.00  0.00    -0.367 N 
ATOM      9  H1  UNL     1      -0.988  -1.026   1.056  1.00  0.00     0.161 HD
BRANCH   8  10
HETATM   10  C1  UNL     1      -3.014  -0.802   1.272  1.00  0.00     0.169 C 
HETATM   11  S1  UNL     1      -2.991  -1.612   2.740  1.00  0.00    -0.041 SA
BRANCH  10  12
HETATM   12  N3  UNL     1      -4.257  -0.327   0.788  1.00  0.00    -0.358 N 
HETATM   13  C13 UNL     1      -5.487  -0.550   1.591  1.00  0.00     0.125 C 
HETATM   14  C14 UNL     1      -6.430   0.479   0.995  1.00  0.00     0.021 C 
HETATM   15  C15 UNL     1      -6.119   0.218  -0.487  1.00  0.00     0.021 C 
HETATM   16  C16 UNL     1      -4.596   0.376  -0.412  1.00  0.00     0.125 C 
ENDBRANCH  10  12
ENDBRANCH   8  10
ENDBRANCH   7   8
ENDBRANCH   1   7
BRANCH   4  17
HETATM   17  C6  UNL     1       4.040   0.201  -1.017  1.00  0.00     0.088 C 
HETATM   18  C7  UNL     1       4.889  -0.982  -0.598  1.00  0.00     0.026 C 
HETATM   19  C8  UNL     1       4.989  -0.778   0.904  1.00  0.00     0.002 C 
HETATM   20  C9  UNL     1       5.184   0.729   1.034  1.00  0.00     0.002 C 
HETATM   21  C10 UNL     1       4.737   1.330  -0.286  1.00  0.00     0.026 C 
ENDBRANCH   4  17
TORSDOF 5
