REMARK  3 active torsions:
REMARK  status: ('A' for Active; 'I' for Inactive)
REMARK    1  A    between atoms: C1_2  and  C2_3 
REMARK       I    between atoms: C1_2  and  N2_16 
REMARK    2  A    between atoms: C2_3  and  N1_4 
REMARK    3  A    between atoms: N1_4  and  C3_6 
ROOT
HETATM    1  N1  UNL     1      -0.673  -0.916   0.419  1.00  0.00    -0.404 N 
ATOM      2  H1  UNL     1      -0.548  -1.885   0.712  1.00  0.00     0.154 HD
ENDROOT
BRANCH   1   3
HETATM    3  C2  UNL     1       0.425  -0.131  -0.039  1.00  0.00     0.218 C 
BRANCH   3   4
HETATM    4  C1  UNL     1       1.624  -1.061  -0.106  1.00  0.00     0.237 C 
HETATM    5  O1  UNL     1       1.504  -2.262   0.221  1.00  0.00    -0.272 OA
HETATM    6  N2  UNL     1       2.883  -0.586  -0.536  1.00  0.00    -0.351 N 
HETATM    7  C13 UNL     1       2.997   0.816  -0.881  1.00  0.00     0.126 C 
HETATM    8  C18 UNL     1       3.910  -1.633  -0.582  1.00  0.00     0.126 C 
HETATM    9  C14 UNL     1       4.047   1.511  -0.049  1.00  0.00     0.020 C 
HETATM   10  C15 UNL     1       5.213   0.599   0.266  1.00  0.00     0.002 C 
HETATM   11  C16 UNL     1       5.819  -0.046  -0.937  1.00  0.00     0.002 C 
HETATM   12  C17 UNL     1       5.017  -1.174  -1.505  1.00  0.00     0.020 C 
ENDBRANCH   3   4
ENDBRANCH   1   3
BRANCH   1  13
HETATM   13  C3  UNL     1      -1.951  -0.290   0.450  1.00  0.00     0.027 C 
HETATM   14  C4  UNL     1      -2.112   0.884   1.347  1.00  0.00     0.035 C 
HETATM   15  C5  UNL     1      -3.572   1.275   1.390  1.00  0.00    -0.012 C 
HETATM   16  C6  UNL     1      -4.460   0.143   1.855  1.00  0.00     0.009 C 
HETATM   17  C10 UNL     1      -3.997   1.729   0.030  1.00  0.00     0.009 C 
HETATM   18  C7  UNL     1      -4.349  -0.967   0.852  1.00  0.00    -0.012 C 
HETATM   19  C8  UNL     1      -4.728  -0.538  -0.547  1.00  0.00     0.009 C 
HETATM   20  C12 UNL     1      -2.929  -1.420   0.813  1.00  0.00     0.035 C 
HETATM   21  C9  UNL     1      -3.810   0.579  -0.938  1.00  0.00    -0.012 C 
HETATM   22  C11 UNL     1      -2.377   0.156  -0.961  1.00  0.00     0.035 C 
ENDBRANCH   1  13
TORSDOF 3
