REMARK  3 active torsions:
REMARK  status: ('A' for Active; 'I' for Inactive)
REMARK    1  A    between atoms: O1_2  and  C2_3 
REMARK    2  A    between atoms: C4_5  and  N1_6 
REMARK       I    between atoms: N1_6  and  C5_8 
REMARK    3  A    between atoms: C5_8  and  C6_10 
ROOT
HETATM    1  C2  UNL     1      -3.035   1.183  -0.543  1.00  0.00     0.128 C 
HETATM    2  C3  UNL     1      -1.733   1.386   0.141  1.00  0.00     0.063 C 
HETATM    3  C4  UNL     1      -0.934   0.040   0.108  1.00  0.00     0.039 C 
HETATM    4  C12 UNL     1      -0.875  -0.338  -1.350  1.00  0.00     0.036 C 
HETATM    5  C13 UNL     1      -2.219  -0.788  -1.873  1.00  0.00    -0.005 C 
HETATM    6  C14 UNL     1      -2.580  -2.120  -1.195  1.00  0.00     0.010 C 
HETATM    7  C15 UNL     1      -2.980  -1.275  -0.008  1.00  0.00    -0.001 C 
HETATM    8  C16 UNL     1      -3.288  -0.194  -1.017  1.00  0.00     0.023 C 
HETATM    9  C17 UNL     1      -1.776  -0.890   0.860  1.00  0.00     0.014 C 
HETATM   10  C18 UNL     1      -1.223  -2.135   1.428  1.00  0.00     0.013 C 
ENDROOT
BRANCH   3  11
HETATM   11  N1  UNL     1       0.377   0.345   0.549  1.00  0.00    -0.351 N 
HETATM   12  C5  UNL     1       1.532  -0.426   0.623  1.00  0.00     0.222 C 
HETATM   13  O2  UNL     1       1.543  -1.613   0.258  1.00  0.00    -0.273 OA
ATOM     14  H1  UNL     1       0.496   1.306   0.871  1.00  0.00     0.163 HD
BRANCH  12  15
HETATM   15  C6  UNL     1       2.799   0.137   1.143  1.00  0.00     0.078 C 
HETATM   16  C7  UNL     1       3.909  -0.889   1.158  1.00  0.00     0.014 C 
HETATM   17  C8  UNL     1       4.508  -1.129  -0.186  1.00  0.00     0.001 C 
HETATM   18  C9  UNL     1       5.134   0.195  -0.640  1.00  0.00     0.000 C 
HETATM   19  C10 UNL     1       4.008   1.169  -0.805  1.00  0.00     0.001 C 
HETATM   20  C11 UNL     1       3.214   1.406   0.440  1.00  0.00     0.014 C 
ENDBRANCH  12  15
ENDBRANCH   3  11
BRANCH   1  21
HETATM   21  O1  UNL     1      -4.130   1.591   0.209  1.00  0.00    -0.390 OA
HETATM   22  C1  UNL     1      -4.812   2.626  -0.390  1.00  0.00     0.202 C 
ENDBRANCH   1  21
TORSDOF 3
