REMARK  3 active torsions:
REMARK  status: ('A' for Active; 'I' for Inactive)
REMARK       I    between atoms: C1_2  and  N1_3 
REMARK    1  A    between atoms: C1_2  and  C14_18 
REMARK    2  A    between atoms: N1_3  and  C2_5 
REMARK    3  A    between atoms: N2_8  and  C5_9 
ROOT
HETATM    1  C2  UNL     1      -1.056  -0.224  -0.029  1.00  0.00     0.087 C 
HETATM    2  C3  UNL     1      -0.234  -0.398  -1.279  1.00  0.00     0.055 C 
HETATM    3  C4  UNL     1       1.247  -0.225  -0.995  1.00  0.00     0.276 C 
HETATM    4  N2  UNL     1       1.454  -0.393   0.393  1.00  0.00     0.103 N 
HETATM    5  C12 UNL     1       0.833   0.610   1.230  1.00  0.00     0.276 C 
HETATM    6  C13 UNL     1      -0.498   1.001   0.682  1.00  0.00     0.055 C 
ENDROOT
BRANCH   1   7
HETATM    7  N1  UNL     1      -2.441  -0.029  -0.263  1.00  0.00    -0.356 N 
HETATM    8  C1  UNL     1      -3.394  -0.947   0.240  1.00  0.00     0.222 C 
HETATM    9  O1  UNL     1      -3.025  -1.963   0.911  1.00  0.00    -0.273 OA
ATOM     10  H1  UNL     1      -2.754   0.781  -0.799  1.00  0.00     0.162 HD
BRANCH   8  11
HETATM   11  C14 UNL     1      -4.845  -0.805   0.034  1.00  0.00     0.078 C 
HETATM   12  C15 UNL     1      -5.368   0.507   0.633  1.00  0.00     0.014 C 
HETATM   13  C16 UNL     1      -6.795   0.484   0.074  1.00  0.00     0.001 C 
HETATM   14  C17 UNL     1      -6.679  -0.172  -1.291  1.00  0.00     0.001 C 
HETATM   15  C18 UNL     1      -5.223  -0.616  -1.416  1.00  0.00     0.014 C 
ENDBRANCH   8  11
ENDBRANCH   1   7
BRANCH   4  16
HETATM   16  C5  UNL     1       2.855  -0.420   0.816  1.00  0.00     0.288 C 
HETATM   17  C6  UNL     1       3.649   0.721   0.603  1.00  0.00    -0.148 C 
HETATM   18  C7  UNL     1       4.482   1.808   0.289  1.00  0.00     0.082 C 
HETATM   19  C8  UNL     1       5.593   1.264  -0.668  1.00  0.00     0.011 C 
HETATM   20  C9  UNL     1       5.705  -0.265  -0.577  1.00  0.00     0.001 C 
HETATM   21  C10 UNL     1       4.599  -1.124  -0.901  1.00  0.00     0.003 C 
HETATM   22  C11 UNL     1       3.596  -1.614   0.127  1.00  0.00     0.048 C 
ENDBRANCH   4  16
TORSDOF 3
