REMARK  1 active torsions:
REMARK  status: ('A' for Active; 'I' for Inactive)
REMARK    1  A    between atoms: C4_4  and  C5_5 
ROOT
HETATM    1  C1  UNL     1       5.284   1.185  -1.102  1.00  0.00     0.017 C 
HETATM    2  C2  UNL     1       4.177   1.094  -0.636  1.00  0.00    -0.090 C 
HETATM    3  C3  UNL     1       2.835   0.962  -0.059  1.00  0.00     0.060 C 
HETATM    4  C4  UNL     1       2.480  -0.116   0.567  1.00  0.00    -0.013 C 
ENDROOT
BRANCH   4   5
HETATM    5  C5  UNL     1       1.246  -0.488   1.209  1.00  0.00     0.015 C 
HETATM    6  C6  UNL     1       0.727  -1.857   0.767  1.00  0.00     0.014 C 
HETATM    7  C7  UNL     1      -0.176  -1.838  -0.401  1.00  0.00    -0.008 C 
HETATM    8  C8  UNL     1      -1.124  -3.037  -0.283  1.00  0.00     0.005 C 
HETATM    9  C11 UNL     1      -1.100  -0.695  -0.555  1.00  0.00     0.023 C 
HETATM   10  C9  UNL     1      -2.507  -2.506  -0.138  1.00  0.00     0.001 C 
HETATM   11  C10 UNL     1      -2.390  -0.998   0.110  1.00  0.00     0.007 C 
HETATM   12  C12 UNL     1      -0.467   0.608  -0.145  1.00  0.00     0.231 C 
HETATM   13  C13 UNL     1       0.091   0.418   1.224  1.00  0.00     0.029 C 
HETATM   14  N1  UNL     1      -1.408   1.685   0.061  1.00  0.00     0.089 N 
HETATM   15  C14 UNL     1       0.222   1.769   1.781  1.00  0.00     0.037 C 
HETATM   16  C15 UNL     1      -0.672   2.635   0.920  1.00  0.00     0.273 C 
HETATM   17  C16 UNL     1      -1.609   2.374  -1.224  1.00  0.00     0.310 C 
ENDBRANCH   4   5
TORSDOF 1
