REMARK  3 active torsions:
REMARK  status: ('A' for Active; 'I' for Inactive)
REMARK    1  A    between atoms: C7_8  and  C8_9 
REMARK    2  A    between atoms: C10_11  and  C16_17 
REMARK    3  A    between atoms: C13_14  and  C14_15 
ROOT
HETATM    1  C8  UNL     1      -0.431   0.182   0.579  1.00  0.00    -0.003 C 
HETATM    2  C9  UNL     1      -0.974   1.353  -0.240  1.00  0.00     0.010 C 
HETATM    3  C10 UNL     1      -2.436   1.144  -0.553  1.00  0.00    -0.010 C 
HETATM    4  C11 UNL     1      -3.184   0.838   0.745  1.00  0.00     0.005 C 
HETATM    5  C12 UNL     1      -2.652  -0.426   1.352  1.00  0.00     0.006 C 
HETATM    6  C13 UNL     1      -1.438  -0.907   0.543  1.00  0.00    -0.005 C 
ENDROOT
BRANCH   1   7
HETATM    7  C7  UNL     1       0.909  -0.163   0.039  1.00  0.00     0.019 C 
HETATM    8  C3  UNL     1       1.795   1.078   0.185  1.00  0.00     0.126 C 
HETATM    9  C2  UNL     1       2.551   1.373  -1.076  1.00  0.00     0.035 C 
HETATM   10  O1  UNL     1       2.805   0.861   1.111  1.00  0.00    -0.380 OA
HETATM   11  C1  UNL     1       3.738   0.450  -0.982  1.00  0.00     0.034 C 
HETATM   12  C4  UNL     1       3.649  -0.032   0.457  1.00  0.00     0.122 C 
HETATM   13  C5  UNL     1       3.035  -1.399   0.499  1.00  0.00     0.032 C 
HETATM   14  C6  UNL     1       1.535  -1.376   0.635  1.00  0.00     0.010 C 
ENDBRANCH   1   7
BRANCH   6  15
HETATM   15  C14 UNL     1      -1.955  -1.224  -0.841  1.00  0.00    -0.005 A 
HETATM   16  C15 UNL     1      -3.390  -1.188  -1.161  1.00  0.00     0.011 A 
HETATM   17  C16 UNL     1      -2.535  -0.025  -1.499  1.00  0.00    -0.006 A 
ENDBRANCH   6  15
TORSDOF 3
