REMARK  1 active torsions:
REMARK  status: ('A' for Active; 'I' for Inactive)
REMARK    1  A    between atoms: C4_4  and  N1_5 
ROOT
HETATM    1  N1  UNL     1      -0.165   0.144   0.081  1.00  0.00    -0.400 N 
HETATM    2  C5  UNL     1      -0.673  -0.890  -0.710  1.00  0.00     0.080 C 
HETATM    3  C6  UNL     1      -1.626  -0.358  -1.794  1.00  0.00     0.029 C 
HETATM    4  C7  UNL     1      -2.661   0.501  -1.114  1.00  0.00    -0.010 C 
HETATM    5  C8  UNL     1      -3.499  -0.303  -0.179  1.00  0.00     0.009 C 
HETATM    6  C9  UNL     1      -2.572  -0.895   0.877  1.00  0.00    -0.010 C 
HETATM    7  C10 UNL     1      -1.565  -1.765   0.169  1.00  0.00     0.029 C 
HETATM    8  C11 UNL     1      -1.965   0.246   1.626  1.00  0.00     0.029 C 
HETATM    9  C12 UNL     1      -1.085   1.049   0.659  1.00  0.00     0.080 C 
HETATM   10  C13 UNL     1      -1.961   1.639  -0.425  1.00  0.00     0.029 C 
ENDROOT
BRANCH   1  11
HETATM   11  C4  UNL     1       1.193   0.378   0.221  1.00  0.00     0.080 C 
HETATM   12  C3  UNL     1       1.880  -0.788   0.867  1.00  0.00     0.025 C 
HETATM   13  C2  UNL     1       3.278  -1.031   0.384  1.00  0.00     0.002 C 
HETATM   14  C1  UNL     1       4.070   0.201   0.089  1.00  0.00     0.000 C 
HETATM   15  C15 UNL     1       3.286   1.328  -0.511  1.00  0.00     0.002 C 
HETATM   16  C14 UNL     1       1.969   0.752  -1.013  1.00  0.00     0.025 C 
ENDBRANCH   1  11
TORSDOF 1
