REMARK  2 active torsions:
REMARK  status: ('A' for Active; 'I' for Inactive)
REMARK    1  A    between atoms: N1_1  and  N2_4 
REMARK    2  A    between atoms: N2_4  and  C1_6 
ROOT
HETATM    1  C1  UNL     1      -0.579   0.127   0.422  1.00  0.00     0.204 A 
HETATM    2  N3  UNL     1       0.628   0.584   0.051  1.00  0.00    -0.276 N 
ATOM      3  H3  UNL     1       0.979   1.451   0.457  1.00  0.00     0.189 HD
HETATM    4  N4  UNL     1       1.373  -0.065  -0.830  1.00  0.00    -0.250 N 
ATOM      5  H4  UNL     1       2.284   0.317  -1.085  1.00  0.00     0.192 HD
HETATM    6  C2  UNL     1       0.958  -1.230  -1.407  1.00  0.00     0.341 A 
HETATM    7  O1  UNL     1       1.692  -1.822  -2.241  1.00  0.00    -0.245 OA
HETATM    8  N5  UNL     1      -0.238  -1.727  -1.071  1.00  0.00    -0.271 N 
ATOM      9  H5  UNL     1      -0.575  -2.595  -1.486  1.00  0.00     0.174 HD
HETATM   10  C3  UNL     1      -0.988  -1.060  -0.175  1.00  0.00     0.296 A 
HETATM   11  O2  UNL     1      -2.108  -1.506   0.153  1.00  0.00    -0.264 OA
ENDROOT
BRANCH   1  12
HETATM   12  N2  UNL     1      -1.314   0.748   1.280  1.00  0.00    -0.286 N 
ATOM     13  H2  UNL     1      -2.228   0.381   1.546  1.00  0.00     0.188 HD
BRANCH  12  14
HETATM   14  N1  UNL     1      -0.832   1.934   1.837  1.00  0.00    -0.343 N 
ATOM     15  H12 UNL     1       0.084   2.288   1.560  1.00  0.00     0.176 HD
ATOM     16  H11 UNL     1      -1.414   2.425   2.516  1.00  0.00     0.176 HD
ENDBRANCH  12  14
ENDBRANCH   1  12
TORSDOF 2
