REMARK  2 active torsions:
REMARK  status: ('A' for Active; 'I' for Inactive)
REMARK    1  A    between atoms: C1_2  and  C2_4 
REMARK       I    between atoms: C2_4  and  N2_6 
REMARK    2  A    between atoms: N2_6  and  C3_8 
ROOT
HETATM    1  C3  UNL     1      -1.269  -0.406   0.346  1.00  0.00     0.716 A 
HETATM    2  N3  UNL     1      -1.838   0.626  -0.268  1.00  0.00    -0.116 N 
ATOM      3  H3  UNL     1      -1.529   1.295  -0.973  1.00  0.00     0.207 HD
HETATM    4  N4  UNL     1      -2.950   0.442   0.390  1.00  0.00    -0.214 N 
ATOM      5  H4  UNL     1      -3.860   0.901   0.414  1.00  0.00     0.209 HD
HETATM    6  N5  UNL     1      -2.408  -0.581   1.009  1.00  0.00    -0.116 N 
ATOM      7  H5  UNL     1      -2.731  -1.243   1.714  1.00  0.00     0.207 HD
ENDROOT
BRANCH   1   8
HETATM    8  N2  UNL     1      -0.144  -1.034   0.367  1.00  0.00    -0.149 N 
HETATM    9  C2  UNL     1       0.971  -0.697  -0.421  1.00  0.00     0.325 C 
HETATM   10  O2  UNL     1       0.967  -1.008  -1.636  1.00  0.00    -0.262 OA
ATOM     11  H2  UNL     1      -0.056  -1.830   0.998  1.00  0.00     0.188 HD
BRANCH   9  12
HETATM   12  C1  UNL     1       2.124  -0.006   0.115  1.00  0.00     0.323 C 
HETATM   13  N1  UNL     1       3.258   0.356  -0.609  1.00  0.00    -0.053 NA
HETATM   14  O1  UNL     1       2.098   0.295   1.345  1.00  0.00    -0.266 OA
ENDBRANCH   9  12
ENDBRANCH   1   8
TORSDOF 2
