REMARK  2 active torsions:
REMARK  status: ('A' for Active; 'I' for Inactive)
REMARK    1  A    between atoms: C3_9  and  C4_10 
REMARK    2  A    between atoms: N4_11  and  N5_13 
ROOT
HETATM    1  C1  UNL     1      -1.960  -1.399  -0.069  1.00  0.00     0.179 C 
HETATM    2  N1  UNL     1      -1.255  -0.136  -0.038  1.00  0.00    -0.276 N 
HETATM    3  N2  UNL     1      -1.832   1.048   0.000  1.00  0.00    -0.237 N 
ATOM      4  H2  UNL     1      -2.839   1.210   0.012  1.00  0.00     0.208 HD
HETATM    5  N3  UNL     1      -0.913   1.989   0.020  1.00  0.00    -0.250 N 
ATOM      6  H3  UNL     1      -1.077   2.995   0.051  1.00  0.00     0.192 HD
HETATM    7  C2  UNL     1       0.307   1.363  -0.008  1.00  0.00     0.290 A 
HETATM    8  O1  UNL     1       1.386   1.973   0.002  1.00  0.00    -0.264 OA
HETATM    9  C3  UNL     1       0.111   0.009  -0.045  1.00  0.00     0.138 A 
ENDROOT
BRANCH   9  10
HETATM   10  C4  UNL     1       1.060  -1.109  -0.085  1.00  0.00     0.143 C 
HETATM   11  N4  UNL     1       2.288  -1.079  -0.094  1.00  0.00    -0.316 N 
ATOM     12  H4  UNL     1       2.671  -2.024  -0.125  1.00  0.00     0.185 HD
BRANCH  11  13
HETATM   13  N5  UNL     1       3.273  -0.168  -0.075  1.00  0.00    -0.345 N 
ATOM     14  H52 UNL     1       2.865   0.766  -0.044  1.00  0.00     0.176 HD
ATOM     15  H51 UNL     1       4.293  -0.143  -0.082  1.00  0.00     0.176 HD
ENDBRANCH  11  13
ENDBRANCH   9  10
TORSDOF 2
