REMARK  3 active torsions:
REMARK  status: ('A' for Active; 'I' for Inactive)
REMARK    1  A    between atoms: N1_1  and  S1_4 
REMARK    2  A    between atoms: S1_4  and  N2_6 
REMARK    3  A    between atoms: N2_6  and  C1_8 
ROOT
HETATM    1  C1  UNL     1       0.121   0.608  -0.343  1.00  0.00     0.710 A 
HETATM    2  N3  UNL     1       1.056   1.550  -0.138  1.00  0.00    -0.127 N 
ATOM      3  H3  UNL     1       0.890   2.556  -0.131  1.00  0.00     0.205 HD
HETATM    4  N4  UNL     1       2.239   0.957   0.055  1.00  0.00    -0.237 N 
ATOM      5  H4  UNL     1       3.126   1.427   0.234  1.00  0.00     0.192 HD
HETATM    6  C2  UNL     1       2.048  -0.369  -0.030  1.00  0.00     0.353 A 
HETATM    7  O2  UNL     1       2.952  -1.225   0.103  1.00  0.00    -0.245 OA
HETATM    8  N5  UNL     1       0.747  -0.578  -0.274  1.00  0.00    -0.138 N 
ATOM      9  H5  UNL     1       0.304  -1.490  -0.389  1.00  0.00     0.189 HD
ENDROOT
BRANCH   1  10
HETATM   10  N2  UNL     1      -1.115   0.900  -0.557  1.00  0.00    -0.120 N 
ATOM     11  H2  UNL     1      -1.424   1.872  -0.577  1.00  0.00     0.196 HD
BRANCH  10  12
HETATM   12  S1  UNL     1      -2.239  -0.386  -0.809  1.00  0.00     0.229 S 
HETATM   13  O1  UNL     1      -3.762   0.238  -1.163  1.00  0.00    -0.212 OA
BRANCH  12  14
HETATM   14  N1  UNL     1      -2.378  -1.297   0.645  1.00  0.00    -0.332 NA
ATOM     15  H12 UNL     1      -3.042  -2.057   0.496  1.00  0.00     0.168 HD
ATOM     16  H11 UNL     1      -1.455  -1.675   0.859  1.00  0.00     0.168 HD
ENDBRANCH  12  14
ENDBRANCH  10  12
ENDBRANCH   1  10
TORSDOF 3
