REMARK  3 active torsions:
REMARK  status: ('A' for Active; 'I' for Inactive)
REMARK       I    between atoms: C1_2  and  N2_4 
REMARK    1  A    between atoms: N2_4  and  N3_5 
REMARK    2  A    between atoms: N2_4  and  N4_8 
REMARK    3  A    between atoms: N4_8  and  C2_10 
ROOT
HETATM    1  C2  UNL     1       0.746  -0.473   0.280  1.00  0.00     0.717 A 
HETATM    2  N5  UNL     1       1.936  -0.851   0.800  1.00  0.00    -0.127 N 
ATOM      3  H5  UNL     1       2.097  -1.724   1.303  1.00  0.00     0.206 HD
HETATM    4  N6  UNL     1       2.858   0.060   0.569  1.00  0.00    -0.237 N 
ATOM      5  H6  UNL     1       3.837   0.020   0.854  1.00  0.00     0.192 HD
HETATM    6  C3  UNL     1       2.262   1.054  -0.115  1.00  0.00     0.353 A 
HETATM    7  O2  UNL     1       2.851   2.099  -0.507  1.00  0.00    -0.245 OA
HETATM    8  N7  UNL     1       0.967   0.720  -0.289  1.00  0.00    -0.137 N 
ATOM      9  H7  UNL     1       0.269   1.284  -0.775  1.00  0.00     0.189 HD
ENDROOT
BRANCH   1  10
HETATM   10  N4  UNL     1      -0.345  -1.164   0.350  1.00  0.00    -0.106 N 
ATOM     11  H4  UNL     1      -0.357  -2.068   0.823  1.00  0.00     0.208 HD
BRANCH  10  12
HETATM   12  N2  UNL     1      -1.500  -0.654  -0.230  1.00  0.00    -0.137 N 
HETATM   13  C1  UNL     1      -2.283   0.312   0.433  1.00  0.00     0.369 C 
HETATM   14  N1  UNL     1      -1.878   0.773   1.728  1.00  0.00    -0.037 NA
HETATM   15  O1  UNL     1      -3.328   0.807  -0.033  1.00  0.00    -0.247 OA
BRANCH  12  16
HETATM   16  N3  UNL     1      -1.858  -1.133  -1.495  1.00  0.00    -0.320 N 
ATOM     17  H32 UNL     1      -2.706  -0.759  -1.921  1.00  0.00     0.179 HD
ATOM     18  H31 UNL     1      -1.291  -1.832  -1.975  1.00  0.00     0.179 HD
ENDBRANCH  12  16
ENDBRANCH  10  12
ENDBRANCH   1  10
TORSDOF 3
