REMARK  4 active torsions:
REMARK  status: ('A' for Active; 'I' for Inactive)
REMARK    1  A    between atoms: N1_1  and  N2_4 
REMARK       I    between atoms: N2_4  and  C1_5 
REMARK    2  A    between atoms: C1_5  and  C2_7 
REMARK    3  A    between atoms: C2_7  and  N3_8 
REMARK    4  A    between atoms: C2_7  and  C3_12 
REMARK       I    between atoms: C3_12  and  N4_14 
ROOT
HETATM    1  C2  UNL     1      -0.809  -1.162   0.204  1.00  0.00     0.382 C 
ENDROOT
BRANCH   1   2
HETATM    2  C1  UNL     1      -2.047  -0.468  -0.398  1.00  0.00     0.351 C 
HETATM    3  N2  UNL     1      -1.919   0.713  -1.074  1.00  0.00    -0.291 NA
HETATM    4  O1  UNL     1      -3.099  -1.118  -0.171  1.00  0.00    -0.252 OA
BRANCH   3   5
HETATM    5  N1  UNL     1      -1.797   1.839  -1.719  1.00  0.00    -0.277 N 
ATOM      6  H12 UNL     1      -1.895   0.950  -1.229  1.00  0.00     0.191 HD
ATOM      7  H11 UNL     1      -1.701   2.720  -2.223  1.00  0.00     0.191 HD
ENDBRANCH   3   5
ENDBRANCH   1   2
BRANCH   1   8
HETATM    8  N3  UNL     1      -1.310  -2.278   0.962  1.00  0.00    -0.056 N 
ATOM      9  H33 UNL     1      -2.009  -2.017   1.658  1.00  0.00     0.275 HD
ATOM     10  H32 UNL     1      -1.904  -2.905   0.419  1.00  0.00     0.275 HD
ATOM     11  H31 UNL     1      -0.491  -2.737   1.360  1.00  0.00     0.275 HD
ENDBRANCH   1   8
BRANCH   1  12
HETATM   12  C3  UNL     1      -0.058  -0.221   1.017  1.00  0.00     0.265 C 
HETATM   13  O2  UNL     1      -0.152  -0.378   2.292  1.00  0.00    -0.270 OA
HETATM   14  N4  UNL     1       0.766   0.839   0.616  1.00  0.00    -0.301 N 
HETATM   15  C4  UNL     1       2.017   0.678   0.363  1.00  0.00     0.203 C 
ATOM     16  H4  UNL     1       0.360   1.770   0.521  1.00  0.00     0.171 HD
HETATM   17  N5  UNL     1       2.902   1.707  -0.046  1.00  0.00    -0.066 NA
HETATM   18  N6  UNL     1       2.557  -0.636   0.496  1.00  0.00    -0.066 NA
ENDBRANCH   1  12
TORSDOF 4
