REMARK  0 active torsions:
REMARK  status: ('A' for Active; 'I' for Inactive)
ROOT
HETATM    1  N1  UNL     1      -2.847  -0.656  -0.388  1.00  0.00    -0.233 N 
ATOM      2  H11 UNL     1      -3.084  -1.647  -0.346  1.00  0.00     0.174 HD
ATOM      3  H12 UNL     1      -3.403   0.160  -0.643  1.00  0.00     0.174 HD
HETATM    4  C1  UNL     1      -1.632  -0.355  -0.063  1.00  0.00     0.693 C 
HETATM    5  N2  UNL     1      -1.303   1.023  -0.122  1.00  0.00    -0.128 N 
ATOM      6  H2  UNL     1      -2.123   1.608  -0.283  1.00  0.00     0.205 HD
HETATM    7  N3  UNL     1      -0.114   1.785  -0.012  1.00  0.00    -0.237 N 
ATOM      8  H3  UNL     1      -0.304   2.762   0.210  1.00  0.00     0.192 HD
HETATM    9  C2  UNL     1       1.280   1.525  -0.135  1.00  0.00     0.342 C 
HETATM   10  O1  UNL     1       1.960   2.579  -0.184  1.00  0.00    -0.245 OA
HETATM   11  N4  UNL     1       2.039   0.321  -0.212  1.00  0.00    -0.270 N 
ATOM     12  H4  UNL     1       2.976   0.466  -0.589  1.00  0.00     0.174 HD
HETATM   13  C3  UNL     1       1.780  -1.037   0.120  1.00  0.00     0.318 C 
HETATM   14  O2  UNL     1       2.816  -1.751   0.141  1.00  0.00    -0.262 OA
HETATM   15  C4  UNL     1       0.553  -1.759   0.439  1.00  0.00     0.328 C 
HETATM   16  O3  UNL     1       0.766  -2.878   0.967  1.00  0.00    -0.261 OA
HETATM   17  N5  UNL     1      -0.853  -1.499   0.295  1.00  0.00    -0.150 N 
ATOM     18  H5  UNL     1      -1.427  -2.319   0.494  1.00  0.00     0.188 HD
ENDROOT
TORSDOF 0
