REMARK  1 active torsions:
REMARK  status: ('A' for Active; 'I' for Inactive)
REMARK       I    between atoms: C1_4  and  N3_6 
REMARK    1  A    between atoms: N3_6  and  C2_8 
ROOT
HETATM    1  C2  UNL     1      -0.212  -0.485  -0.267  1.00  0.00     0.182 A 
HETATM    2  N4  UNL     1      -0.424   0.713   0.284  1.00  0.00    -0.289 N 
ATOM      3  H4  UNL     1       0.298   1.433   0.289  1.00  0.00     0.172 HD
HETATM    4  C3  UNL     1      -1.645   0.928   0.837  1.00  0.00     0.340 A 
HETATM    5  O1  UNL     1      -1.862   2.071   1.368  1.00  0.00    -0.245 OA
HETATM    6  N5  UNL     1      -2.613  -0.006   0.841  1.00  0.00    -0.248 N 
ATOM      7  H5  UNL     1      -3.513   0.209   1.269  1.00  0.00     0.192 HD
HETATM    8  N6  UNL     1      -2.421  -1.200   0.300  1.00  0.00    -0.259 N 
ATOM      9  H6  UNL     1      -3.153  -1.910   0.303  1.00  0.00     0.190 HD
HETATM   10  C4  UNL     1      -1.207  -1.436  -0.259  1.00  0.00     0.304 A 
HETATM   11  O2  UNL     1      -0.973  -2.562  -0.790  1.00  0.00    -0.263 OA
ENDROOT
BRANCH   1  12
HETATM   12  N3  UNL     1       0.931  -0.761  -0.813  1.00  0.00    -0.312 N 
HETATM   13  C1  UNL     1       1.998   0.182  -0.852  1.00  0.00     0.187 C 
HETATM   14  N1  UNL     1       2.003   1.160  -1.688  1.00  0.00    -0.373 N 
HETATM   15  N2  UNL     1       3.069   0.016   0.063  1.00  0.00    -0.064 NA
ATOM     16  H12 UNL     1       2.767   1.835  -1.716  1.00  0.00     0.158 HD
ATOM     17  H11 UNL     1       1.233   1.279  -2.346  1.00  0.00     0.158 HD
ATOM     18  H3  UNL     1       1.071  -1.682  -1.228  1.00  0.00     0.170 HD
ENDBRANCH   1  12
TORSDOF 1
