REMARK  1 active torsions:
REMARK  status: ('A' for Active; 'I' for Inactive)
REMARK    1  A    between atoms: C2_2  and  C3_3 
REMARK       I    between atoms: C3_3  and  N1_5 
ROOT
HETATM    1  C1  UNL     1      -0.769  -0.896  -1.005  1.00  0.00     0.060 C 
HETATM    2  C2  UNL     1      -0.945   0.187   0.030  1.00  0.00     0.194 C 
HETATM    3  N4  UNL     1      -2.071  -0.163   0.869  1.00  0.00    -0.317 N 
ATOM      4  H4  UNL     1      -2.050  -0.765   1.692  1.00  0.00     0.166 HD
HETATM    5  C5  UNL     1      -3.211   0.492   0.329  1.00  0.00     0.324 C 
HETATM    6  O2  UNL     1      -4.435   0.223   0.592  1.00  0.00    -0.247 OA
HETATM    7  N5  UNL     1      -2.768   1.509  -0.562  1.00  0.00    -0.277 N 
ATOM      8  H5  UNL     1      -3.361   2.144  -1.097  1.00  0.00     0.173 HD
HETATM    9  C6  UNL     1      -1.344   1.478  -0.570  1.00  0.00     0.263 C 
HETATM   10  O3  UNL     1      -0.592   2.401  -1.015  1.00  0.00    -0.270 OA
ENDROOT
BRANCH   2  11
HETATM   11  C3  UNL     1       0.317   0.300   0.808  1.00  0.00     0.261 C 
HETATM   12  O1  UNL     1       0.249   0.087   2.046  1.00  0.00    -0.270 OA
HETATM   13  N1  UNL     1       1.487   0.636   0.109  1.00  0.00    -0.301 N 
HETATM   14  C4  UNL     1       2.473  -0.164  -0.097  1.00  0.00     0.203 C 
ATOM     15  H1  UNL     1       1.561   1.583  -0.262  1.00  0.00     0.171 HD
HETATM   16  N2  UNL     1       3.582   0.343  -0.825  1.00  0.00    -0.066 NA
HETATM   17  N3  UNL     1       2.515  -1.501   0.356  1.00  0.00    -0.066 NA
ENDBRANCH   2  11
TORSDOF 1
