REMARK  2 active torsions:
REMARK  status: ('A' for Active; 'I' for Inactive)
REMARK    1  A    between atoms: N1_1  and  N2_4 
REMARK       I    between atoms: N2_4  and  C1_6 
REMARK    2  A    between atoms: C1_6  and  C2_8 
REMARK       I    between atoms: C2_8  and  N3_10 
ROOT
HETATM    1  C2  UNL     1      -0.871   0.265   0.735  1.00  0.00     0.316 C 
HETATM    2  O2  UNL     1      -0.735   1.508   0.912  1.00  0.00    -0.262 OA
HETATM    3  N3  UNL     1       0.215  -0.576   1.096  1.00  0.00    -0.300 N 
ATOM      4  H3  UNL     1       0.016  -1.402   1.661  1.00  0.00     0.171 HD
HETATM    5  C3  UNL     1       1.423  -0.359   0.755  1.00  0.00     0.181 A 
HETATM    6  N4  UNL     1       1.895   0.720  -0.019  1.00  0.00    -0.290 N 
ATOM      7  H4  UNL     1       1.317   1.467  -0.404  1.00  0.00     0.172 HD
HETATM    8  C4  UNL     1       3.324   0.602  -0.181  1.00  0.00     0.328 A 
HETATM    9  O3  UNL     1       4.030   1.421  -0.826  1.00  0.00    -0.247 OA
HETATM   10  N5  UNL     1       3.705  -0.578   0.516  1.00  0.00    -0.272 N 
ATOM     11  H5  UNL     1       4.658  -0.934   0.587  1.00  0.00     0.174 HD
HETATM   12  C5  UNL     1       2.548  -1.196   1.106  1.00  0.00     0.293 A 
HETATM   13  O4  UNL     1       2.564  -2.263   1.791  1.00  0.00    -0.264 OA
ENDROOT
BRANCH   1  14
HETATM   14  C1  UNL     1      -2.104  -0.231   0.183  1.00  0.00     0.327 C 
HETATM   15  N2  UNL     1      -3.189   0.609  -0.177  1.00  0.00    -0.268 N 
ATOM     16  H2  UNL     1      -3.080   1.613  -0.034  1.00  0.00     0.190 HD
HETATM   17  O1  UNL     1      -2.237  -1.470   0.008  1.00  0.00    -0.261 OA
BRANCH  15  18
HETATM   18  N1  UNL     1      -4.394   0.158  -0.713  1.00  0.00    -0.342 N 
ATOM     19  H12 UNL     1      -4.486  -0.849  -0.849  1.00  0.00     0.176 HD
ATOM     20  H11 UNL     1      -5.174   0.762  -0.972  1.00  0.00     0.176 HD
ENDBRANCH  15  18
ENDBRANCH   1  14
TORSDOF 2
