REMARK  6 active torsions:
REMARK  status: ('A' for Active; 'I' for Inactive)
REMARK    1  A    between atoms: C2_2  and  N1_3 
REMARK    2  A    between atoms: C2_2  and  C3_7 
REMARK    3  A    between atoms: C2_2  and  C10_18 
REMARK    4  A    between atoms: C3_7  and  N2_8 
REMARK    5  A    between atoms: N2_8  and  C4_10 
REMARK    6  A    between atoms: C9_15  and  O1_16 
ROOT
HETATM    1  C1  UNL     1      -0.752   1.142   1.600  1.00  0.00     0.052 C 
HETATM    2  C2  UNL     1      -0.909   0.036   0.559  1.00  0.00     0.155 C 
ENDROOT
BRANCH   2   3
HETATM    3  N1  UNL     1      -0.752  -1.219   1.196  1.00  0.00    -0.066 N 
ATOM      4  H13 UNL     1       0.128  -1.288   1.708  1.00  0.00     0.275 HD
ATOM      5  H12 UNL     1      -1.386  -1.336   1.987  1.00  0.00     0.275 HD
ATOM      6  H11 UNL     1      -0.857  -1.958   0.501  1.00  0.00     0.275 HD
ENDBRANCH   2   3
BRANCH   2   7
HETATM    7  C3  UNL     1      -0.009   0.224  -0.610  1.00  0.00     0.094 C 
BRANCH   7   8
HETATM    8  N2  UNL     1       1.377   0.329  -0.468  1.00  0.00    -0.393 N 
ATOM      9  H2  UNL     1       1.812   1.225  -0.690  1.00  0.00     0.159 HD
BRANCH   8  10
HETATM   10  C4  UNL     1       2.205  -0.709  -0.043  1.00  0.00     0.109 C 
HETATM   11  C5  UNL     1       2.998  -0.386   1.211  1.00  0.00     0.028 C 
HETATM   12  C6  UNL     1       4.347   0.195   0.906  1.00  0.00     0.002 C 
HETATM   13  C7  UNL     1       4.458   0.939  -0.381  1.00  0.00     0.003 C 
HETATM   14  C8  UNL     1       4.045   0.071  -1.547  1.00  0.00     0.034 C 
HETATM   15  C9  UNL     1       3.240  -1.129  -1.090  1.00  0.00     0.140 C 
BRANCH  15  16
HETATM   16  O1  UNL     1       4.043  -2.095  -0.550  1.00  0.00    -0.394 OA
ATOM     17  H1  UNL     1       4.685  -2.356  -1.200  1.00  0.00     0.210 HD
ENDBRANCH  15  16
ENDBRANCH   8  10
ENDBRANCH   7   8
ENDBRANCH   2   7
BRANCH   2  18
HETATM   18  C10 UNL     1      -2.361   0.190   0.119  1.00  0.00     0.026 C 
HETATM   19  C11 UNL     1      -3.304  -0.009   1.263  1.00  0.00     0.007 C 
HETATM   20  C12 UNL     1      -4.735   0.119   0.733  1.00  0.00     0.000 C 
HETATM   21  C13 UNL     1      -4.763   0.894  -0.576  1.00  0.00     0.000 C 
HETATM   22  C14 UNL     1      -3.973   0.233  -1.669  1.00  0.00     0.000 C 
HETATM   23  C15 UNL     1      -2.797  -0.571  -1.062  1.00  0.00     0.007 C 
ENDBRANCH   2  18
TORSDOF 6
