REMARK  5 active torsions:
REMARK  status: ('A' for Active; 'I' for Inactive)
REMARK    1  A    between atoms: C2_2  and  C3_3 
REMARK    2  A    between atoms: C3_3  and  C4_4 
REMARK    3  A    between atoms: C4_4  and  N1_5 
REMARK    4  A    between atoms: C4_4  and  C9_15 
REMARK    5  A    between atoms: N1_5  and  C5_7 
ROOT
HETATM    1  C4  UNL     1      -0.622   0.343  -0.536  1.00  0.00     0.088 C 
ENDROOT
BRANCH   1   2
HETATM    2  C3  UNL     1      -0.699   1.635  -1.228  1.00  0.00     0.025 C 
BRANCH   2   3
HETATM    3  C2  UNL     1       0.402   2.593  -0.940  1.00  0.00    -0.002 C 
HETATM    4  C1  UNL     1       0.450   3.004   0.534  1.00  0.00     0.005 C 
ENDBRANCH   2   3
ENDBRANCH   1   2
BRANCH   1   5
HETATM    5  N1  UNL     1       0.522  -0.412  -0.902  1.00  0.00    -0.357 N 
ATOM      6  H1  UNL     1       0.317  -1.221  -1.488  1.00  0.00     0.163 HD
BRANCH   5   7
HETATM    7  C5  UNL     1       1.888  -0.249  -0.604  1.00  0.00     0.171 C 
HETATM    8  N2  UNL     1       2.794  -0.298  -1.561  1.00  0.00    -0.360 N 
HETATM    9  C6  UNL     1       4.108  -0.107  -1.024  1.00  0.00     0.147 C 
ATOM     10  H2  UNL     1       2.587  -0.451  -2.548  1.00  0.00     0.162 HD
HETATM   11  C7  UNL     1       3.946  -0.418   0.473  1.00  0.00     0.098 C 
HETATM   12  C8  UNL     1       4.876   0.528   1.195  1.00  0.00     0.034 C 
HETATM   13  N3  UNL     1       2.557  -0.047   0.630  1.00  0.00    -0.357 N 
ATOM     14  H3  UNL     1       2.129   0.302   1.487  1.00  0.00     0.163 HD
ENDBRANCH   5   7
ENDBRANCH   1   5
BRANCH   1  15
HETATM   15  C9  UNL     1      -1.858  -0.528  -0.776  1.00  0.00     0.012 C 
HETATM   16  C10 UNL     1      -3.114   0.121  -0.306  1.00  0.00     0.007 C 
HETATM   17  C11 UNL     1      -3.144   0.371   1.181  1.00  0.00     0.000 C 
HETATM   18  C12 UNL     1      -2.973  -0.949   1.875  1.00  0.00     0.000 C 
HETATM   19  C13 UNL     1      -2.767  -2.100   0.944  1.00  0.00     0.005 C 
HETATM   20  C14 UNL     1      -1.704  -1.867  -0.090  1.00  0.00    -0.013 C 
HETATM   21  C15 UNL     1      -1.740  -3.020  -1.072  1.00  0.00     0.010 C 
ENDBRANCH   1  15
TORSDOF 5
