REMARK  5 active torsions:
REMARK  status: ('A' for Active; 'I' for Inactive)
REMARK    1  A    between atoms: C3_5  and  N2_6 
REMARK    2  A    between atoms: C5_13  and  C6_14 
REMARK    3  A    between atoms: C7_15  and  C8_16 
REMARK    4  A    between atoms: C8_16  and  S2_17 
REMARK    5  A    between atoms: S2_17  and  C9_18 
ROOT
HETATM    1  C1  UNL     1       2.527   0.893  -1.382  1.00  0.00     0.070 C 
HETATM    2  C2  UNL     1       2.435  -0.005  -0.206  1.00  0.00     0.036 A 
HETATM    3  N1  UNL     1       3.475  -0.850   0.023  1.00  0.00    -0.195 N 
ATOM      4  H1  UNL     1       4.265  -0.887  -0.621  1.00  0.00     0.184 HD
HETATM    5  C3  UNL     1       3.445  -1.627   1.100  1.00  0.00     0.677 A 
HETATM    6  N3  UNL     1       2.418  -1.601   1.967  1.00  0.00    -0.181 N 
ATOM      7  H3  UNL     1       2.432  -2.213   2.783  1.00  0.00     0.185 HD
HETATM    8  C4  UNL     1       1.381  -0.785   1.773  1.00  0.00     0.128 A 
HETATM    9  S1  UNL     1       0.156  -0.789   2.849  1.00  0.00    -0.059 SA
HETATM   10  C5  UNL     1       1.370   0.062   0.635  1.00  0.00     0.025 A 
ENDROOT
BRANCH  10  11
HETATM   11  C6  UNL     1       0.179   0.850   0.480  1.00  0.00     0.013 C 
HETATM   12  C7  UNL     1      -0.320   1.545  -0.492  1.00  0.00    -0.015 C 
BRANCH  12  13
HETATM   13  C8  UNL     1      -1.635   2.252  -0.241  1.00  0.00     0.101 C 
BRANCH  13  14
HETATM   14  S2  UNL     1      -2.942   1.789  -1.349  1.00  0.00    -0.161 SA
BRANCH  14  15
HETATM   15  C9  UNL     1      -3.422   0.080  -1.069  1.00  0.00     0.039 C 
HETATM   16  C10 UNL     1      -3.975  -0.012   0.357  1.00  0.00     0.021 C 
HETATM   17  C11 UNL     1      -2.286  -0.881  -1.264  1.00  0.00     0.021 C 
ENDBRANCH  14  15
ENDBRANCH  13  14
ENDBRANCH  12  13
ENDBRANCH  10  11
BRANCH   5  18
HETATM   18  N2  UNL     1       4.466  -2.420   1.273  1.00  0.00    -0.234 N 
ATOM     19  H22 UNL     1       5.245  -2.440   0.615  1.00  0.00     0.174 HD
ATOM     20  H21 UNL     1       4.443  -3.017   2.100  1.00  0.00     0.174 HD
ENDBRANCH   5  18
TORSDOF 5
