REMARK  6 active torsions:
REMARK  status: ('A' for Active; 'I' for Inactive)
REMARK    1  A    between atoms: C1_2  and  C2_3 
REMARK       I    between atoms: C1_2  and  N2_16 
REMARK    2  A    between atoms: C2_3  and  O2_4 
REMARK    3  A    between atoms: O2_4  and  C3_5 
REMARK    4  A    between atoms: C3_5  and  C4_7 
REMARK    5  A    between atoms: C7_10  and  N1_11 
REMARK    6  A    between atoms: N2_16  and  C10_18 
ROOT
HETATM    1  C2  UNL     1       1.202   1.285   1.040  1.00  0.00     0.282 C 
ENDROOT
BRANCH   1   2
HETATM    2  C1  UNL     1       2.030   0.078   1.206  1.00  0.00     0.247 C 
HETATM    3  O1  UNL     1       1.607  -1.010   0.750  1.00  0.00    -0.271 OA
HETATM    4  N2  UNL     1       3.285   0.060   1.852  1.00  0.00    -0.305 N 
ATOM      5  H2  UNL     1       3.363   0.004   2.867  1.00  0.00     0.171 HD
BRANCH   4   6
HETATM    6  C10 UNL     1       4.349   0.119   1.082  1.00  0.00     0.153 A 
HETATM    7  N3  UNL     1       4.427   0.195  -0.248  1.00  0.00    -0.343 N 
HETATM    8  C11 UNL     1       5.603   0.243  -0.803  1.00  0.00     0.140 A 
ATOM      9  H3  UNL     1       3.582   0.215  -0.818  1.00  0.00     0.167 HD
HETATM   10  C12 UNL     1       6.704   0.215   0.002  1.00  0.00     0.176 A 
HETATM   11  F1  UNL     1       8.024   0.256  -0.391  1.00  0.00    -0.197 F 
HETATM   12  S1  UNL     1       6.005   0.118   1.556  1.00  0.00    -0.022 SA
ENDBRANCH   4   6
ENDBRANCH   1   2
BRANCH   1  13
HETATM   13  O2  UNL     1      -0.022   1.002   0.425  1.00  0.00    -0.308 OA
BRANCH  13  14
HETATM   14  C3  UNL     1      -0.972   0.190   0.984  1.00  0.00     0.293 C 
HETATM   15  O3  UNL     1      -0.762  -0.331   2.105  1.00  0.00    -0.259 OA
BRANCH  14  16
HETATM   16  C4  UNL     1      -2.255  -0.095   0.301  1.00  0.00     0.039 A 
HETATM   17  C5  UNL     1      -2.542   0.442  -0.921  1.00  0.00     0.020 A 
HETATM   18  C6  UNL     1      -3.741   0.159  -1.531  1.00  0.00     0.037 A 
HETATM   19  C7  UNL     1      -4.690  -0.659  -0.959  1.00  0.00     0.102 A 
HETATM   20  C8  UNL     1      -4.386  -1.195   0.277  1.00  0.00     0.037 A 
HETATM   21  C9  UNL     1      -3.186  -0.915   0.891  1.00  0.00     0.020 A 
BRANCH  19  22
HETATM   22  N1  UNL     1      -5.920  -0.932  -1.616  1.00  0.00    -0.116 N 
HETATM   23  O4  UNL     1      -6.766  -1.668  -1.094  1.00  0.00    -0.532 OA
HETATM   24  O5  UNL     1      -6.165  -0.377  -2.828  1.00  0.00    -0.532 OA
ENDBRANCH  19  22
ENDBRANCH  14  16
ENDBRANCH  13  14
ENDBRANCH   1  13
TORSDOF 6
