REMARK  7 active torsions:
REMARK  status: ('A' for Active; 'I' for Inactive)
REMARK    1  A    between atoms: C2_2  and  O1_5 
REMARK    2  A    between atoms: O1_5  and  C5_6 
REMARK    3  A    between atoms: C5_6  and  O3_8 
REMARK    4  A    between atoms: O3_8  and  C6_9 
REMARK    5  A    between atoms: C6_9  and  C7_10 
REMARK    6  A    between atoms: C7_10  and  N1_11 
REMARK       I    between atoms: N1_11  and  C8_13 
REMARK    7  A    between atoms: C8_13  and  C9_15 
ROOT
HETATM    1  C7  UNL     1       0.437  -0.112   2.702  1.00  0.00     0.149 C 
ENDROOT
BRANCH   1   2
HETATM    2  C6  UNL     1      -0.269   1.218   2.679  1.00  0.00     0.200 C 
BRANCH   2   3
HETATM    3  O3  UNL     1      -0.661   1.496   1.363  1.00  0.00    -0.296 OA
BRANCH   3   4
HETATM    4  C5  UNL     1      -1.530   0.803   0.587  1.00  0.00     0.407 C 
HETATM    5  O2  UNL     1      -2.089  -0.210   1.033  1.00  0.00    -0.229 OA
BRANCH   4   6
HETATM    6  O1  UNL     1      -1.859   1.155  -0.733  1.00  0.00    -0.288 OA
BRANCH   6   7
HETATM    7  C2  UNL     1      -2.753   0.431  -1.513  1.00  0.00     0.062 C 
HETATM    8  C1  UNL     1      -2.343  -1.000  -1.737  1.00  0.00     0.046 C 
HETATM    9  C3  UNL     1      -4.179   0.477  -1.010  1.00  0.00     0.046 C 
HETATM   10  C4  UNL     1      -2.761   1.097  -2.898  1.00  0.00     0.046 C 
ENDBRANCH   6   7
ENDBRANCH   4   6
ENDBRANCH   3   4
ENDBRANCH   2   3
ENDBRANCH   1   2
BRANCH   1  11
HETATM   11  N1  UNL     1       1.603   0.009   1.814  1.00  0.00    -0.353 N 
HETATM   12  C8  UNL     1       2.453  -1.102   1.646  1.00  0.00     0.275 C 
HETATM   13  O4  UNL     1       2.214  -2.172   2.246  1.00  0.00    -0.265 OA
ATOM     14  H1  UNL     1       1.794   0.885   1.327  1.00  0.00     0.162 HD
BRANCH  12  15
HETATM   15  C9  UNL     1       3.614  -1.019   0.776  1.00  0.00     0.144 A 
HETATM   16  C10 UNL     1       3.997   0.106   0.049  1.00  0.00     0.046 A 
HETATM   17  C11 UNL     1       5.134  -0.238  -0.633  1.00  0.00     0.048 A 
HETATM   18  C12 UNL     1       5.401  -1.543  -0.303  1.00  0.00     0.122 A 
HETATM   19 BR1  UNL     1       6.858  -2.555  -0.949  1.00  0.00    -0.023 Br
HETATM   20  O5  UNL     1       4.481  -1.949   0.523  1.00  0.00    -0.298 OA
ENDBRANCH  12  15
ENDBRANCH   1  11
TORSDOF 7
