REMARK  8 active torsions:
REMARK  status: ('A' for Active; 'I' for Inactive)
REMARK    1  A    between atoms: C2_2  and  C3_3 
REMARK    2  A    between atoms: C3_3  and  N1_4 
REMARK    3  A    between atoms: N1_4  and  C4_6 
REMARK    4  A    between atoms: N3_9  and  C5_10 
REMARK    5  A    between atoms: N4_13  and  C8_14 
REMARK    6  A    between atoms: C8_14  and  O1_15 
REMARK    7  A    between atoms: C8_14  and  C9_17 
REMARK    8  A    between atoms: C9_17  and  C10_18 
ROOT
HETATM    1  C5  UNL     1       0.709  -1.626   2.235  1.00  0.00     0.110 C 
HETATM    2  C6  UNL     1      -0.143  -0.489   2.690  1.00  0.00     0.047 C 
HETATM    3  C7  UNL     1      -0.957   0.099   1.540  1.00  0.00     0.127 C 
HETATM    4  N4  UNL     1      -1.896  -0.884   1.073  1.00  0.00    -0.365 N 
HETATM    5  C16 UNL     1      -1.554  -2.236   1.592  1.00  0.00     0.127 C 
HETATM    6  C17 UNL     1      -0.062  -2.485   1.295  1.00  0.00     0.047 C 
ENDROOT
BRANCH   1   7
HETATM    7  N3  UNL     1       1.992  -1.172   1.676  1.00  0.00    -0.294 N 
HETATM    8  N2  UNL     1       2.319  -1.021   0.414  1.00  0.00    -0.281 N 
HETATM    9  C4  UNL     1       3.592  -0.586   0.264  1.00  0.00     0.158 A 
ATOM     10  H2  UNL     1       1.687  -1.210  -0.364  1.00  0.00     0.189 HD
HETATM   11  C19 UNL     1       4.096  -0.457   1.524  1.00  0.00     0.178 A 
HETATM   12  C18 UNL     1       3.083  -0.827   2.378  1.00  0.00     0.156 A 
HETATM   13  F3  UNL     1       5.347  -0.045   1.936  1.00  0.00    -0.201 F 
BRANCH   9  14
HETATM   14  N1  UNL     1       4.184  -0.352  -0.839  1.00  0.00    -0.356 N 
ATOM     15  H1  UNL     1       3.657  -0.503  -1.699  1.00  0.00     0.162 HD
BRANCH  14  16
HETATM   16  C3  UNL     1       5.539   0.109  -0.961  1.00  0.00     0.098 A 
HETATM   17  C20 UNL     1       6.233  -0.515  -2.190  1.00  0.00     0.120 A 
HETATM   18  C21 UNL     1       6.701  -0.734  -0.748  1.00  0.00     0.158 A 
HETATM   19  O2  UNL     1       7.626  -1.375  -0.222  1.00  0.00    -0.295 OA
BRANCH  16  20
HETATM   20  C2  UNL     1       5.706   1.643  -0.910  1.00  0.00     0.035 C 
HETATM   21  C1  UNL     1       4.893   2.184  -2.087  1.00  0.00     0.008 C 
ENDBRANCH  16  20
ENDBRANCH  14  16
ENDBRANCH   9  14
ENDBRANCH   1   7
BRANCH   4  22
HETATM   22  C8  UNL     1      -3.000  -0.753   0.251  1.00  0.00     0.123 C 
BRANCH  22  23
HETATM   23  O1  UNL     1      -3.639  -1.877   0.036  1.00  0.00    -0.349 OA
ATOM     24  H1  UNL     1      -4.398  -1.787  -0.529  1.00  0.00     0.219 HD
ENDBRANCH  22  23
BRANCH  22  25
HETATM   25  C9  UNL     1      -3.620   0.377  -0.439  1.00  0.00     0.038 C 
HETATM   26  C13 UNL     1      -2.782   1.457  -1.010  1.00  0.00     0.097 C 
HETATM   27  C14 UNL     1      -3.413   2.536  -0.117  1.00  0.00     0.246 C 
HETATM   28  F1  UNL     1      -4.229   3.432  -0.788  1.00  0.00    -0.206 F 
HETATM   29  F2  UNL     1      -2.501   3.286   0.610  1.00  0.00    -0.206 F 
HETATM   30  C15 UNL     1      -4.098   1.419   0.593  1.00  0.00     0.097 C 
BRANCH  25  31
HETATM   31  C10 UNL     1      -4.780  -0.063  -1.311  1.00  0.00    -0.006 C 
HETATM   32  C11 UNL     1      -5.878  -0.722  -0.519  1.00  0.00     0.011 C 
HETATM   33  C12 UNL     1      -5.387   0.934  -2.205  1.00  0.00     0.011 C 
ENDBRANCH  25  31
ENDBRANCH  22  25
ENDBRANCH   4  22
TORSDOF 8
