REMARK  6 active torsions:
REMARK  status: ('A' for Active; 'I' for Inactive)
REMARK    1  A    between atoms: C2_2  and  C3_3 
REMARK    2  A    between atoms: C5_5  and  C6_6 
REMARK    3  A    between atoms: C6_6  and  C7_7 
REMARK    4  A    between atoms: C7_7  and  C8_8 
REMARK    5  A    between atoms: C14_18  and  O1_19 
REMARK    6  A    between atoms: C17_24  and  C18_25 
ROOT
HETATM    1  C3  UNL     1      -1.093  -0.196  -0.799  1.00  0.00     0.055 C 
HETATM    2  C4  UNL     1      -0.010   0.215   0.179  1.00  0.00     0.021 C 
HETATM    3  C5  UNL     1       0.841  -1.018   0.397  1.00  0.00     0.061 C 
HETATM    4  C13 UNL     1       0.298  -2.060  -0.564  1.00  0.00     0.273 C 
HETATM    5  F1  UNL     1       0.480  -3.336  -0.106  1.00  0.00    -0.203 F 
HETATM    6  F2  UNL     1       0.845  -1.824  -1.794  1.00  0.00    -0.203 F 
HETATM    7  C14 UNL     1      -1.191  -1.685  -0.524  1.00  0.00     0.197 C 
ENDROOT
BRANCH   1   8
HETATM    8  C2  UNL     1      -2.410   0.513  -0.485  1.00  0.00     0.068 C 
HETATM    9  C1  UNL     1      -2.099   2.012  -0.607  1.00  0.00     0.047 C 
HETATM   10  C15 UNL     1      -3.402   0.208  -1.561  1.00  0.00     0.064 C 
HETATM   11  C16 UNL     1      -4.440  -0.788  -1.191  1.00  0.00     0.174 C 
HETATM   12  O2  UNL     1      -4.740  -0.900   0.120  1.00  0.00    -0.360 OA
HETATM   13  C17 UNL     1      -4.107  -0.074   0.993  1.00  0.00     0.270 C 
HETATM   14  O3  UNL     1      -2.785   0.165   0.770  1.00  0.00    -0.349 OA
BRANCH  13  15
HETATM   15  C18 UNL     1      -4.883   1.225   1.249  1.00  0.00     0.146 C 
HETATM   16 BR1  UNL     1      -3.835   2.259   2.504  1.00  0.00    -0.091 Br
ENDBRANCH  13  15
ENDBRANCH   1   8
BRANCH   7  17
HETATM   17  O1  UNL     1      -1.574  -1.932   0.804  1.00  0.00    -0.389 OA
ATOM     18  H1  UNL     1      -1.635  -2.864   0.976  1.00  0.00     0.210 HD
ENDBRANCH   7  17
BRANCH   3  19
HETATM   19  C6  UNL     1       2.283  -0.783   0.043  1.00  0.00     0.017 C 
BRANCH  19  20
HETATM   20  C7  UNL     1       2.891   0.324   0.877  1.00  0.00     0.057 C 
BRANCH  20  21
HETATM   21  C8  UNL     1       4.299   0.530   0.508  1.00  0.00     0.009 A 
HETATM   22  C9  UNL     1       4.866  -0.241  -0.471  1.00  0.00     0.025 A 
HETATM   23  C10 UNL     1       6.190  -0.090  -0.860  1.00  0.00     0.003 A 
HETATM   24  C11 UNL     1       6.928   0.876  -0.218  1.00  0.00     0.017 A 
HETATM   25  C12 UNL     1       6.358   1.645   0.762  1.00  0.00     0.088 A 
HETATM   26  N1  UNL     1       5.051   1.459   1.109  1.00  0.00    -0.369 N 
ATOM     27  H1  UNL     1       4.640   2.039   1.840  1.00  0.00     0.165 HD
ENDBRANCH  20  21
ENDBRANCH  19  20
ENDBRANCH   3  19
TORSDOF 6
