REMARK  5 active torsions:
REMARK  status: ('A' for Active; 'I' for Inactive)
REMARK    1  A    between atoms: C2_2  and  C4_4 
REMARK    2  A    between atoms: C4_4  and  C5_5 
REMARK    3  A    between atoms: N2_10  and  C8_11 
REMARK    4  A    between atoms: N3_14  and  C11_15 
REMARK    5  A    between atoms: C11_15  and  C12_16 
ROOT
HETATM    1  C8  UNL     1       0.273  -1.266  -0.599  1.00  0.00     0.229 C 
HETATM    2  C9  UNL     1       1.193  -1.432   0.541  1.00  0.00     0.080 C 
HETATM    3  C10 UNL     1       2.539  -0.786   0.456  1.00  0.00     0.065 C 
HETATM    4  N3  UNL     1       2.924  -0.259  -0.769  1.00  0.00    -0.368 N 
HETATM    5  C17 UNL     1       1.953   0.359  -1.589  1.00  0.00     0.129 C 
HETATM    6  C18 UNL     1       0.824  -0.566  -1.808  1.00  0.00     0.056 C 
ENDROOT
BRANCH   1   7
HETATM    7  N2  UNL     1      -1.023  -0.768  -0.209  1.00  0.00     0.093 N 
HETATM    8  C7  UNL     1      -1.068   0.514   0.367  1.00  0.00     0.274 C 
HETATM    9  C6  UNL     1      -2.427   1.071   0.526  1.00  0.00     0.049 C 
HETATM   10  C4  UNL     1      -3.585   0.134   0.419  1.00  0.00     0.044 C 
HETATM   11  C20 UNL     1      -3.351  -1.066  -0.445  1.00  0.00     0.049 C 
HETATM   12  C19 UNL     1      -2.033  -0.986  -1.205  1.00  0.00     0.274 C 
BRANCH  10  13
HETATM   13  C2  UNL     1      -4.766   0.949  -0.120  1.00  0.00    -0.005 C 
HETATM   14  C1  UNL     1      -5.097   2.110   0.759  1.00  0.00     0.011 C 
HETATM   15  C3  UNL     1      -5.972   0.128  -0.370  1.00  0.00     0.011 C 
ENDBRANCH  10  13
BRANCH  10  16
HETATM   16  C5  UNL     1      -4.005  -0.342   1.764  1.00  0.00     0.240 C 
HETATM   17  N1  UNL     1      -3.171  -1.175   2.548  1.00  0.00    -0.061 NA
HETATM   18  O1  UNL     1      -5.112  -0.033   2.268  1.00  0.00    -0.276 OA
ENDBRANCH  10  16
ENDBRANCH   1   7
BRANCH   4  19
HETATM   19  C11 UNL     1       4.204  -0.447  -1.288  1.00  0.00     0.121 C 
BRANCH  19  20
HETATM   20  C12 UNL     1       5.289   0.107  -0.440  1.00  0.00     0.072 A 
HETATM   21  N4  UNL     1       5.025   0.726   0.718  1.00  0.00    -0.360 N 
HETATM   22  C13 UNL     1       5.987   1.247   1.519  1.00  0.00     0.134 A 
ATOM     23  H4  UNL     1       4.052   0.810   1.012  1.00  0.00     0.165 HD
HETATM   24  C14 UNL     1       7.327   1.172   1.188  1.00  0.00     0.172 A 
HETATM   25  F1  UNL     1       8.291   1.682   1.968  1.00  0.00    -0.201 F 
HETATM   26  C15 UNL     1       7.625   0.530  -0.015  1.00  0.00     0.180 A 
HETATM   27  F2  UNL     1       8.910   0.408  -0.420  1.00  0.00    -0.201 F 
HETATM   28  C16 UNL     1       6.624   0.014  -0.802  1.00  0.00     0.103 A 
HETATM   29 CL1  UNL     1       7.071  -0.775  -2.296  1.00  0.00    -0.078 Cl
ENDBRANCH  19  20
ENDBRANCH   4  19
TORSDOF 5
