REMARK  7 active torsions:
REMARK  status: ('A' for Active; 'I' for Inactive)
REMARK    1  A    between atoms: C4_4  and  C5_5 
REMARK    2  A    between atoms: C5_5  and  C6_6 
REMARK       I    between atoms: C6_6  and  N1_8 
REMARK    3  A    between atoms: N1_8  and  C7_10 
REMARK    4  A    between atoms: C12_18  and  S2_19 
REMARK    5  A    between atoms: S2_19  and  C13_22 
REMARK    6  A    between atoms: C13_22  and  C14_23 
REMARK    7  A    between atoms: C14_23  and  C15_24 
ROOT
HETATM    1  C1  UNL     1       1.470  -2.097   0.873  1.00  0.00     0.015 C 
HETATM    2  C2  UNL     1       0.651  -1.215   0.355  1.00  0.00    -0.070 C 
HETATM    3  C3  UNL     1      -0.635  -1.665  -0.232  1.00  0.00     0.039 C 
HETATM    4  C4  UNL     1      -1.725  -0.896   0.469  1.00  0.00    -0.002 C 
HETATM    5  C10 UNL     1      -1.459   0.549   0.675  1.00  0.00     0.007 C 
HETATM    6  C11 UNL     1      -0.094   0.883   1.221  1.00  0.00     0.025 C 
HETATM    7  C12 UNL     1       0.937   0.215   0.331  1.00  0.00     0.136 C 
ENDROOT
BRANCH   4   8
HETATM    8  C5  UNL     1      -3.029  -1.024  -0.312  1.00  0.00     0.108 C 
BRANCH   8   9
HETATM    9  C6  UNL     1      -4.106  -0.255   0.394  1.00  0.00     0.224 C 
HETATM   10  O1  UNL     1      -4.680  -0.751   1.422  1.00  0.00    -0.273 OA
HETATM   11  N1  UNL     1      -4.430   1.014  -0.137  1.00  0.00    -0.307 N 
ATOM     12  H1  UNL     1      -3.745   1.770  -0.164  1.00  0.00     0.171 HD
BRANCH  11  13
HETATM   13  C7  UNL     1      -5.653   1.180  -0.596  1.00  0.00     0.150 A 
HETATM   14  N2  UNL     1      -6.653   0.299  -0.631  1.00  0.00    -0.346 N 
HETATM   15  C8  UNL     1      -7.799   0.669  -1.130  1.00  0.00     0.097 A 
ATOM     16  H2  UNL     1      -6.524  -0.648  -0.274  1.00  0.00     0.167 HD
HETATM   17  C9  UNL     1      -7.912   1.952  -1.594  1.00  0.00     0.070 A 
HETATM   18  S1  UNL     1      -6.355   2.577  -1.292  1.00  0.00    -0.064 SA
ENDBRANCH  11  13
ENDBRANCH   8   9
ENDBRANCH   4   8
BRANCH   7  19
HETATM   19  S2  UNL     1       2.595   0.668   0.763  1.00  0.00     0.153 S 
HETATM   20  O2  UNL     1       2.966   0.384   2.159  1.00  0.00    -0.227 OA
HETATM   21  O3  UNL     1       2.595   2.200   0.621  1.00  0.00    -0.227 OA
BRANCH  19  22
HETATM   22  C13 UNL     1       3.689   0.025  -0.445  1.00  0.00     0.159 C 
BRANCH  22  23
HETATM   23  C14 UNL     1       5.158   0.256  -0.205  1.00  0.00     0.070 A 
HETATM   24  C16 UNL     1       6.035  -0.665  -1.046  1.00  0.00     0.020 A 
HETATM   25  C17 UNL     1       5.957  -0.834   0.437  1.00  0.00     0.020 A 
BRANCH  23  26
HETATM   26  C15 UNL     1       5.734   1.641  -0.090  1.00  0.00     0.396 C 
HETATM   27  F1  UNL     1       7.115   1.484   0.090  1.00  0.00    -0.170 F 
HETATM   28  F2  UNL     1       5.313   2.327   1.038  1.00  0.00    -0.170 F 
HETATM   29  F3  UNL     1       5.554   2.320  -1.259  1.00  0.00    -0.170 F 
ENDBRANCH  23  26
ENDBRANCH  22  23
ENDBRANCH  19  22
ENDBRANCH   7  19
TORSDOF 7
