REMARK  8 active torsions:
REMARK  status: ('A' for Active; 'I' for Inactive)
REMARK       I    between atoms: N1_5  and  C5_6 
REMARK    1  A    between atoms: C5_6  and  O2_8 
REMARK    2  A    between atoms: O2_8  and  C6_9 
REMARK    3  A    between atoms: C6_9  and  C7_10 
REMARK    4  A    between atoms: C7_10  and  O3_11 
REMARK    5  A    between atoms: C7_10  and  C8_13 
REMARK    6  A    between atoms: C7_10  and  C10_17 
REMARK    7  A    between atoms: C8_13  and  S1_14 
REMARK    8  A    between atoms: C11_21  and  C12_22 
ROOT
HETATM    1  C1  UNL     1      -2.803   4.280   0.184  1.00  0.00     0.010 C 
HETATM    2  C2  UNL     1      -2.392   2.857   0.517  1.00  0.00    -0.015 C 
HETATM    3  C3  UNL     1      -1.000   2.856   1.032  1.00  0.00     0.024 C 
HETATM    4  C4  UNL     1      -0.525   1.431   1.250  1.00  0.00     0.129 C 
HETATM    5  N1  UNL     1      -0.754   0.625   0.064  1.00  0.00    -0.323 N 
HETATM    6  C5  UNL     1       0.298  -0.111  -0.497  1.00  0.00     0.363 C 
HETATM    7  O1  UNL     1       0.110  -0.824  -1.538  1.00  0.00    -0.238 OA
HETATM    8  C11 UNL     1      -2.098   0.607  -0.543  1.00  0.00     0.094 C 
HETATM    9  C18 UNL     1      -2.514   2.051  -0.755  1.00  0.00     0.030 C 
ENDROOT
BRANCH   6  10
HETATM   10  O2  UNL     1       1.585  -0.130   0.010  1.00  0.00    -0.301 OA
BRANCH  10  11
HETATM   11  C6  UNL     1       2.588  -0.904  -0.607  1.00  0.00     0.228 C 
BRANCH  11  12
HETATM   12  C7  UNL     1       3.947  -0.756   0.141  1.00  0.00     0.188 C 
BRANCH  12  13
HETATM   13  O3  UNL     1       3.672  -1.170   1.464  1.00  0.00    -0.378 OA
ATOM     14  H3  UNL     1       4.501  -1.080   1.920  1.00  0.00     0.211 HD
ENDBRANCH  12  13
BRANCH  12  15
HETATM   15  C8  UNL     1       4.787  -1.813  -0.459  1.00  0.00     0.157 C 
BRANCH  15  16
HETATM   16  S1  UNL     1       6.391  -2.126  -0.028  1.00  0.00     0.014 S 
HETATM   17  C9  UNL     1       7.600  -0.908  -0.272  1.00  0.00     0.127 C 
HETATM   18  O4  UNL     1       6.966  -3.647  -0.422  1.00  0.00    -0.258 OA
ENDBRANCH  15  16
ENDBRANCH  12  15
BRANCH  12  19
HETATM   19  C10 UNL     1       4.334   0.654   0.109  1.00  0.00     0.421 C 
HETATM   20  F1  UNL     1       5.468   0.988   0.759  1.00  0.00    -0.168 F 
HETATM   21  F2  UNL     1       4.472   1.110  -1.205  1.00  0.00    -0.168 F 
HETATM   22  F3  UNL     1       3.312   1.389   0.739  1.00  0.00    -0.168 F 
ENDBRANCH  12  19
ENDBRANCH  11  12
ENDBRANCH  10  11
ENDBRANCH   6  10
BRANCH   8  23
HETATM   23  C12 UNL     1      -3.068  -0.184   0.235  1.00  0.00     0.012 C 
HETATM   24  C13 UNL     1      -4.449  -0.268  -0.315  1.00  0.00     0.007 C 
HETATM   25  C14 UNL     1      -4.522  -1.506  -1.175  1.00  0.00     0.001 C 
HETATM   26  C15 UNL     1      -3.302  -2.333  -0.834  1.00  0.00     0.005 C 
HETATM   27  C16 UNL     1      -2.727  -1.643   0.412  1.00  0.00    -0.013 C 
HETATM   28  C17 UNL     1      -3.493  -2.251   1.578  1.00  0.00     0.010 C 
ENDBRANCH   8  23
TORSDOF 8
