REMARK  6 active torsions:
REMARK  status: ('A' for Active; 'I' for Inactive)
REMARK    1  A    between atoms: C4_8  and  C5_9 
REMARK    2  A    between atoms: C5_9  and  C6_10 
REMARK    3  A    between atoms: N3_13  and  C9_14 
REMARK    4  A    between atoms: N4_17  and  C12_18 
REMARK    5  A    between atoms: C12_18  and  C13_19 
REMARK    6  A    between atoms: C12_18  and  C17_24 
ROOT
HETATM    1  C9  UNL     1       0.362   0.915  -0.076  1.00  0.00     0.094 C 
HETATM    2  C10 UNL     1       0.864  -0.489  -0.342  1.00  0.00     0.070 C 
HETATM    3  C11 UNL     1       2.157  -0.249  -1.135  1.00  0.00     0.066 C 
HETATM    4  N4  UNL     1       3.028   0.686  -0.616  1.00  0.00    -0.358 N 
HETATM    5  C18 UNL     1       2.642   1.629   0.360  1.00  0.00     0.130 C 
HETATM    6  C19 UNL     1       1.302   1.433   0.982  1.00  0.00     0.046 C 
ENDROOT
BRANCH   1   7
HETATM    7  N3  UNL     1      -1.007   1.080   0.140  1.00  0.00    -0.369 N 
HETATM    8  C8  UNL     1      -1.621   0.481   1.228  1.00  0.00     0.064 C 
HETATM    9  C7  UNL     1      -3.120   0.312   1.129  1.00  0.00     0.050 C 
HETATM   10  C6  UNL     1      -3.747   1.315   0.241  1.00  0.00     0.001 C 
HETATM   11  C21 UNL     1      -3.125   1.049  -1.145  1.00  0.00     0.050 C 
HETATM   12  C20 UNL     1      -1.692   1.397  -1.036  1.00  0.00     0.064 C 
BRANCH  10  13
HETATM   13  C5  UNL     1      -5.221   1.308   0.184  1.00  0.00     0.064 C 
BRANCH  13  14
HETATM   14  C4  UNL     1      -5.893   0.098  -0.263  1.00  0.00     0.032 A 
HETATM   15  C2  UNL     1      -6.245  -1.023   0.432  1.00  0.00     0.029 A 
HETATM   16  C1  UNL     1      -6.111  -1.329   1.881  1.00  0.00     0.070 C 
HETATM   17  N1  UNL     1      -6.826  -1.923  -0.419  1.00  0.00    -0.354 N 
HETATM   18  C3  UNL     1      -6.840  -1.370  -1.635  1.00  0.00     0.180 A 
ATOM     19  H1  UNL     1      -7.183  -2.846  -0.171  1.00  0.00     0.166 HD
HETATM   20  N2  UNL     1      -6.285  -0.164  -1.550  1.00  0.00    -0.354 N 
ATOM     21  H2  UNL     1      -6.167   0.477  -2.334  1.00  0.00     0.166 HD
ENDBRANCH  13  14
ENDBRANCH  10  13
ENDBRANCH   1   7
BRANCH   4  22
HETATM   22  C12 UNL     1       4.418   0.530  -0.785  1.00  0.00     0.124 C 
BRANCH  22  23
HETATM   23  C13 UNL     1       5.088  -0.491   0.045  1.00  0.00     0.176 C 
HETATM   24  C14 UNL     1       4.622  -1.881  -0.221  1.00  0.00     0.040 C 
HETATM   25  C15 UNL     1       5.790  -2.669   0.396  1.00  0.00     0.029 C 
HETATM   26  C16 UNL     1       6.937  -1.792  -0.011  1.00  0.00     0.168 C 
HETATM   27  O1  UNL     1       6.480  -0.522  -0.171  1.00  0.00    -0.380 OA
ENDBRANCH  22  23
BRANCH  22  28
HETATM   28  C17 UNL     1       5.182   1.822  -0.953  1.00  0.00     0.431 C 
HETATM   29  F1  UNL     1       6.513   1.511  -1.135  1.00  0.00    -0.165 F 
HETATM   30  F2  UNL     1       5.133   2.679   0.101  1.00  0.00    -0.165 F 
HETATM   31  F3  UNL     1       4.751   2.401  -2.133  1.00  0.00    -0.165 F 
ENDBRANCH  22  28
ENDBRANCH   4  22
TORSDOF 6
