REMARK  5 active torsions:
REMARK  status: ('A' for Active; 'I' for Inactive)
REMARK    1  A    between atoms: N1_1  and  C1_5 
REMARK    2  A    between atoms: C1_5  and  C2_6 
REMARK    3  A    between atoms: C2_6  and  C3_7 
REMARK    4  A    between atoms: C5_12  and  C6_13 
REMARK    5  A    between atoms: C6_13  and  N3_14 
ROOT
HETATM    1  C3  UNL     1       0.070   0.158   0.663  1.00  0.00     0.194 C 
HETATM    2  N2  UNL     1       0.653   1.297   1.364  1.00  0.00    -0.070 N 
ATOM      3  H21 UNL     1       0.958   1.213   2.334  1.00  0.00     0.277 HD
ATOM      4  H22 UNL     1       0.078   2.095   1.632  1.00  0.00     0.277 HD
HETATM    5  C4  UNL     1       1.612   1.405   0.296  1.00  0.00     0.241 C 
HETATM    6  C5  UNL     1       0.829   0.456  -0.590  1.00  0.00     0.067 C 
ENDROOT
BRANCH   1   7
HETATM    7  C2  UNL     1      -1.425   0.364   0.570  1.00  0.00     0.060 C 
BRANCH   7   8
HETATM    8  C1  UNL     1      -2.121  -0.768  -0.142  1.00  0.00     0.231 C 
BRANCH   8   9
HETATM    9  N1  UNL     1      -3.539  -0.451  -0.164  1.00  0.00    -0.079 N 
ATOM     10  H13 UNL     1      -3.922  -0.266   0.763  1.00  0.00     0.274 HD
ATOM     11  H12 UNL     1      -3.739   0.462  -0.573  1.00  0.00     0.274 HD
ATOM     12  H11 UNL     1      -4.010  -1.217  -0.646  1.00  0.00     0.274 HD
ENDBRANCH   8   9
ENDBRANCH   7   8
ENDBRANCH   1   7
BRANCH   6  13
HETATM   13  C6  UNL     1       1.728  -0.635  -1.099  1.00  0.00     0.237 C 
BRANCH  13  14
HETATM   14  N3  UNL     1       2.741  -0.977  -0.117  1.00  0.00    -0.079 N 
ATOM     15  H33 UNL     1       3.273  -0.157   0.175  1.00  0.00     0.274 HD
ATOM     16  H32 UNL     1       2.326  -1.221   0.782  1.00  0.00     0.274 HD
ATOM     17  H31 UNL     1       3.351  -1.718  -0.463  1.00  0.00     0.274 HD
ENDBRANCH  13  14
ENDBRANCH   6  13
TORSDOF 5
