REMARK  3 active torsions:
REMARK  status: ('A' for Active; 'I' for Inactive)
REMARK    1  A    between atoms: N2_3  and  C2_5 
REMARK    2  A    between atoms: C2_5  and  C3_6 
REMARK    3  A    between atoms: C3_6  and  C4_7 
ROOT
HETATM    1  C4  UNL     1       1.289  -0.196   0.462  1.00  0.00     0.082 A 
HETATM    2  N3  UNL     1       1.508  -0.391  -0.841  1.00  0.00    -0.354 N 
ATOM      3  H3  UNL     1       0.790  -0.664  -1.512  1.00  0.00     0.166 HD
HETATM    4  C5  UNL     1       2.797  -0.180  -1.151  1.00  0.00     0.106 A 
HETATM    5  C6  UNL     1       3.408   0.167   0.037  1.00  0.00     0.106 A 
HETATM    6  N4  UNL     1       2.473   0.149   0.995  1.00  0.00    -0.354 N 
ATOM      7  H4  UNL     1       2.635   0.364   1.979  1.00  0.00     0.166 HD
ENDROOT
BRANCH   1   8
HETATM    8  C3  UNL     1       0.041  -0.308   1.260  1.00  0.00     0.096 C 
BRANCH   8   9
HETATM    9  C2  UNL     1      -1.130  -0.716   0.375  1.00  0.00     0.127 C 
BRANCH   9  10
HETATM   10  N2  UNL     1      -1.346   0.266  -0.670  1.00  0.00    -0.388 N 
HETATM   11  C1  UNL     1      -2.473   0.837  -0.824  1.00  0.00     0.185 C 
HETATM   12  N1  UNL     1      -3.535   0.510   0.037  1.00  0.00    -0.097 NA
ATOM     13  H2  UNL     1      -0.577   0.505  -1.296  1.00  0.00     0.159 HD
ENDBRANCH   9  10
ENDBRANCH   8   9
ENDBRANCH   1   8
TORSDOF 3
