REMARK  2 active torsions:
REMARK  status: ('A' for Active; 'I' for Inactive)
REMARK    1  A    between atoms: N1_2  and  C2_5 
REMARK    2  A    between atoms: C2_5  and  C3_6 
ROOT
HETATM    1  C3  UNL     1      -0.175  -0.494  -0.856  1.00  0.00     0.141 C 
HETATM    2  C4  UNL     1      -1.311   0.340  -1.319  1.00  0.00     0.086 C 
HETATM    3  N2  UNL     1      -2.075   0.936  -0.303  1.00  0.00    -0.379 N 
ATOM      4  H2  UNL     1      -2.699   1.714  -0.517  1.00  0.00     0.164 HD
HETATM    5  C5  UNL     1      -1.972   0.453   1.006  1.00  0.00     0.079 C 
HETATM    6  C6  UNL     1      -1.308  -0.839   1.240  1.00  0.00     0.159 C 
HETATM    7  N3  UNL     1      -0.618  -1.416   0.134  1.00  0.00    -0.407 N 
ATOM      8  H3  UNL     1      -0.453  -2.420   0.057  1.00  0.00     0.154 HD
ENDROOT
BRANCH   1   9
HETATM    9  C2  UNL     1       1.010   0.339  -0.413  1.00  0.00     0.261 C 
BRANCH   9  10
HETATM   10  N1  UNL     1       2.099  -0.505   0.032  1.00  0.00    -0.077 N 
HETATM   11  C1  UNL     1       3.192   0.381   0.438  1.00  0.00     0.267 C 
ATOM     12  H12 UNL     1       2.381  -1.195  -0.664  1.00  0.00     0.276 HD
ATOM     13  H11 UNL     1       1.824  -1.162   0.762  1.00  0.00     0.276 HD
ENDBRANCH   9  10
ENDBRANCH   1   9
TORSDOF 2
