REMARK  4 active torsions:
REMARK  status: ('A' for Active; 'I' for Inactive)
REMARK    1  A    between atoms: N1_2  and  C2_5 
REMARK    2  A    between atoms: C2_5  and  C3_6 
REMARK    3  A    between atoms: C3_6  and  N2_7 
REMARK    4  A    between atoms: N2_7  and  C4_9 
ROOT
HETATM    1  C4  UNL     1       1.575   0.282   0.191  1.00  0.00     0.693 A 
HETATM    2  N3  UNL     1       2.324   1.405  -0.051  1.00  0.00    -0.185 N 
ATOM      3  H3  UNL     1       2.052   2.364   0.165  1.00  0.00     0.185 HD
HETATM    4  C5  UNL     1       3.470   1.025  -0.618  1.00  0.00     0.215 A 
HETATM    5  N4  UNL     1       3.454  -0.318  -0.735  1.00  0.00    -0.281 N 
ATOM      6  H4  UNL     1       4.191  -0.903  -1.130  1.00  0.00     0.188 HD
HETATM    7  N5  UNL     1       2.319  -0.725  -0.248  1.00  0.00    -0.131 N 
ATOM      8  H5  UNL     1       2.034  -1.704  -0.208  1.00  0.00     0.205 HD
ENDROOT
BRANCH   1   9
HETATM    9  N2  UNL     1       0.441   0.377   0.732  1.00  0.00    -0.223 N 
ATOM     10  H2  UNL     1       0.156   1.330   0.959  1.00  0.00     0.177 HD
BRANCH   9  11
HETATM   11  C3  UNL     1      -0.502  -0.618   1.077  1.00  0.00     0.165 C 
BRANCH  11  12
HETATM   12  C2  UNL     1      -1.513  -0.710  -0.046  1.00  0.00     0.252 C 
BRANCH  12  13
HETATM   13  N1  UNL     1      -2.176   0.513  -0.262  1.00  0.00    -0.077 N 
HETATM   14  C1  UNL     1      -3.080   0.854   0.795  1.00  0.00     0.267 C 
ATOM     15  H12 UNL     1      -2.653   0.514  -1.164  1.00  0.00     0.276 HD
ATOM     16  H11 UNL     1      -1.507   1.266  -0.426  1.00  0.00     0.276 HD
ENDBRANCH  12  13
ENDBRANCH  11  12
ENDBRANCH   9  11
ENDBRANCH   1   9
TORSDOF 4
