REMARK  3 active torsions:
REMARK  status: ('A' for Active; 'I' for Inactive)
REMARK    1  A    between atoms: C2_3  and  N2_4 
REMARK    2  A    between atoms: N2_4  and  C3_7 
REMARK    3  A    between atoms: C3_7  and  C4_8 
ROOT
HETATM    1  N1  UNL     1       3.478   1.456   1.271  1.00  0.00    -0.196 NA
HETATM    2  C1  UNL     1       3.100   0.471   0.787  1.00  0.00     0.086 C 
HETATM    3  C2  UNL     1       2.635  -0.764   0.163  1.00  0.00     0.355 C 
ENDROOT
BRANCH   3   4
HETATM    4  N2  UNL     1       1.238  -1.012   0.422  1.00  0.00    -0.063 N 
ATOM      5  H22 UNL     1       0.974  -1.970   0.192  1.00  0.00     0.278 HD
ATOM      6  H21 UNL     1       1.035  -1.034   1.421  1.00  0.00     0.278 HD
BRANCH   4   7
HETATM    7  C3  UNL     1       0.403  -0.031  -0.283  1.00  0.00     0.241 C 
BRANCH   7   8
HETATM    8  C4  UNL     1      -1.049  -0.303  -0.052  1.00  0.00     0.062 C 
HETATM    9  C5  UNL     1      -1.972   0.697  -0.769  1.00  0.00     0.240 C 
HETATM   10  N3  UNL     1      -2.869   0.513   0.376  1.00  0.00    -0.074 N 
HETATM   11  C6  UNL     1      -1.684   0.280   1.179  1.00  0.00     0.240 C 
ATOM     12  H32 UNL     1      -3.550   1.227   0.634  1.00  0.00     0.277 HD
ATOM     13  H31 UNL     1      -3.630  -0.166   0.347  1.00  0.00     0.277 HD
ENDBRANCH   7   8
ENDBRANCH   4   7
ENDBRANCH   3   4
TORSDOF 3
