REMARK  3 active torsions:
REMARK  status: ('A' for Active; 'I' for Inactive)
REMARK    1  A    between atoms: N1_2  and  N2_3 
REMARK    2  A    between atoms: N1_2  and  N3_6 
REMARK    3  A    between atoms: N3_6  and  C2_8 
ROOT
HETATM    1  C2  UNL     1       0.911  -0.070  -0.453  1.00  0.00     0.693 A 
HETATM    2  N4  UNL     1       1.260   1.088   0.172  1.00  0.00    -0.199 N 
ATOM      3  H4  UNL     1       0.604   1.809   0.473  1.00  0.00     0.183 HD
HETATM    4  C3  UNL     1       2.594   1.146   0.336  1.00  0.00     0.123 A 
HETATM    5  C4  UNL     1       3.120  -0.003  -0.198  1.00  0.00     0.123 A 
HETATM    6  N5  UNL     1       2.096  -0.711  -0.661  1.00  0.00    -0.199 N 
ATOM      7  H5  UNL     1       2.185  -1.620  -1.115  1.00  0.00     0.183 HD
ENDROOT
BRANCH   1   8
HETATM    8  N3  UNL     1      -0.385  -0.511  -0.808  1.00  0.00    -0.135 N 
ATOM      9  H3  UNL     1      -0.516  -1.407  -1.278  1.00  0.00     0.201 HD
BRANCH   8  10
HETATM   10  N1  UNL     1      -1.472   0.291  -0.508  1.00  0.00    -0.136 NA
HETATM   11  C1  UNL     1      -2.739  -0.303  -0.770  1.00  0.00     0.163 C 
BRANCH  10  12
HETATM   12  N2  UNL     1      -1.457   0.727   0.821  1.00  0.00    -0.346 NA
ATOM     13  H22 UNL     1      -2.258   1.318   1.042  1.00  0.00     0.172 HD
ATOM     14  H21 UNL     1      -0.549   1.153   1.009  1.00  0.00     0.172 HD
ENDBRANCH  10  12
ENDBRANCH   8  10
ENDBRANCH   1   8
TORSDOF 3
