REMARK  3 active torsions:
REMARK  status: ('A' for Active; 'I' for Inactive)
REMARK    1  A    between atoms: C2_5  and  N2_6 
REMARK    2  A    between atoms: N2_6  and  O1_8 
REMARK    3  A    between atoms: O1_8  and  C3_9 
ROOT
HETATM    1  N2  UNL     1      -0.899  -0.005   0.401  1.00  0.00    -0.269 N 
ATOM      2  H2  UNL     1      -0.945   0.335   1.361  1.00  0.00     0.190 HD
ENDROOT
BRANCH   1   3
HETATM    3  C2  UNL     1      -2.069  -0.201  -0.402  1.00  0.00     0.330 A 
HETATM    4  C1  UNL     1      -3.367   0.149   0.324  1.00  0.00     0.290 A 
HETATM    5  N1  UNL     1      -3.040  -1.210  -0.060  1.00  0.00    -0.047 N 
ATOM      6  H12 UNL     1      -2.978  -2.083   0.464  1.00  0.00     0.279 HD
ATOM      7  H11 UNL     1      -3.533  -1.913  -0.611  1.00  0.00     0.279 HD
ENDBRANCH   1   3
BRANCH   1   8
HETATM    8  O1  UNL     1       0.248  -0.299  -0.197  1.00  0.00    -0.274 OA
BRANCH   8   9
HETATM    9  C3  UNL     1       1.275   0.306   0.558  1.00  0.00     0.203 C 
HETATM   10  C4  UNL     1       2.229   0.975  -0.377  1.00  0.00     0.268 C 
HETATM   11  N3  UNL     1       3.085  -0.209  -0.276  1.00  0.00    -0.070 N 
HETATM   12  C5  UNL     1       2.376  -0.685   0.916  1.00  0.00     0.268 C 
ATOM     13  H32 UNL     1       3.173  -0.828  -1.082  1.00  0.00     0.277 HD
ATOM     14  H31 UNL     1       4.097  -0.088  -0.236  1.00  0.00     0.277 HD
ENDBRANCH   8   9
ENDBRANCH   1   8
TORSDOF 3
