REMARK  4 active torsions:
REMARK  status: ('A' for Active; 'I' for Inactive)
REMARK    1  A    between atoms: N1_2  and  C2_5 
REMARK    2  A    between atoms: C2_5  and  C3_6 
REMARK    3  A    between atoms: C3_6  and  C4_7 
REMARK    4  A    between atoms: C6_12  and  N3_13 
ROOT
HETATM    1  C4  UNL     1       1.026   0.325  -0.974  1.00  0.00     0.219 C 
HETATM    2  N2  UNL     1       1.302   1.679  -0.608  1.00  0.00    -0.067 N 
ATOM      3  H21 UNL     1       0.641   2.229  -0.060  1.00  0.00     0.277 HD
ATOM      4  H22 UNL     1       1.303   2.429  -1.299  1.00  0.00     0.277 HD
HETATM    5  C5  UNL     1       2.554   1.170  -0.021  1.00  0.00     0.267 C 
HETATM    6  C6  UNL     1       1.751  -0.096   0.289  1.00  0.00     0.239 C 
ENDROOT
BRANCH   1   7
HETATM    7  C3  UNL     1      -0.393  -0.097  -1.084  1.00  0.00     0.062 C 
BRANCH   7   8
HETATM    8  C2  UNL     1      -1.200   0.037   0.158  1.00  0.00     0.233 C 
BRANCH   8   9
HETATM    9  N1  UNL     1      -2.560  -0.427  -0.158  1.00  0.00    -0.079 N 
HETATM   10  C1  UNL     1      -3.430  -0.340   0.981  1.00  0.00     0.266 C 
ATOM     11  H12 UNL     1      -2.550  -1.370  -0.547  1.00  0.00     0.276 HD
ATOM     12  H11 UNL     1      -2.946   0.072  -0.960  1.00  0.00     0.276 HD
ENDBRANCH   8   9
ENDBRANCH   7   8
ENDBRANCH   1   7
BRANCH   6  13
HETATM   13  N3  UNL     1       2.461  -1.323   0.070  1.00  0.00    -0.071 N 
ATOM     14  H33 UNL     1       1.849  -2.060  -0.281  1.00  0.00     0.274 HD
ATOM     15  H32 UNL     1       3.093  -1.260  -0.728  1.00  0.00     0.274 HD
ATOM     16  H31 UNL     1       2.949  -1.606   0.920  1.00  0.00     0.274 HD
ENDBRANCH   6  13
TORSDOF 4
