REMARK  3 active torsions:
REMARK  status: ('A' for Active; 'I' for Inactive)
REMARK    1  A    between atoms: O1_2  and  C2_3 
REMARK    2  A    between atoms: C4_5  and  N1_6 
REMARK    3  A    between atoms: N1_6  and  C5_8 
ROOT
HETATM    1  C2  UNL     1      -1.180  -0.165  -0.444  1.00  0.00     0.326 C 
HETATM    2  C3  UNL     1       0.182  -0.730  -0.074  1.00  0.00     0.115 C 
HETATM    3  C4  UNL     1       0.515   0.652   0.401  1.00  0.00     0.291 C 
HETATM    4  N3  UNL     1      -0.574   1.174  -0.388  1.00  0.00    -0.028 N 
ATOM      5  H31 UNL     1      -1.118   1.965  -0.044  1.00  0.00     0.282 HD
ATOM      6  H32 UNL     1      -0.380   1.681  -1.251  1.00  0.00     0.282 HD
ENDROOT
BRANCH   3   7
HETATM    7  N1  UNL     1       1.790   1.179   0.016  1.00  0.00    -0.359 N 
ATOM      8  H1  UNL     1       1.801   2.036  -0.537  1.00  0.00     0.162 HD
BRANCH   7   9
HETATM    9  C5  UNL     1       3.041   0.592   0.350  1.00  0.00     0.170 C 
HETATM   10  N2  UNL     1       3.316  -0.568  -0.110  1.00  0.00    -0.395 N 
ATOM     11  H22 UNL     1       2.641  -1.050  -0.704  1.00  0.00     0.156 HD
ATOM     12  H21 UNL     1       4.214  -0.989   0.130  1.00  0.00     0.156 HD
ENDBRANCH   7   9
ENDBRANCH   3   7
BRANCH   1  13
HETATM   13  O1  UNL     1      -2.126  -0.262   0.573  1.00  0.00    -0.364 OA
HETATM   14  C1  UNL     1      -3.321  -0.687  -0.020  1.00  0.00     0.204 C 
ENDBRANCH   1  13
TORSDOF 3
