REMARK  4 active torsions:
REMARK  status: ('A' for Active; 'I' for Inactive)
REMARK    1  A    between atoms: N1_2  and  C2_4 
REMARK    2  A    between atoms: C2_4  and  C3_5 
REMARK    3  A    between atoms: C5_7  and  C6_8 
REMARK    4  A    between atoms: C6_8  and  N2_9 
ROOT
HETATM    1  C3  UNL     1      -0.306  -0.935  -0.402  1.00  0.00     0.226 C 
HETATM    2  C4  UNL     1       0.186  -0.132   0.738  1.00  0.00     0.073 C 
HETATM    3  C5  UNL     1       1.074   0.533  -0.303  1.00  0.00     0.214 C 
HETATM    4  N3  UNL     1       0.915  -0.600  -1.136  1.00  0.00    -0.060 N 
ATOM      5  H31 UNL     1       0.897  -0.497  -2.151  1.00  0.00     0.278 HD
ATOM      6  H32 UNL     1       1.667  -1.283  -1.228  1.00  0.00     0.278 HD
ENDROOT
BRANCH   3   7
HETATM    7  C6  UNL     1       2.428   0.857   0.236  1.00  0.00     0.262 C 
BRANCH   7   8
HETATM    8  N2  UNL     1       3.172  -0.287   0.701  1.00  0.00    -0.077 N 
ATOM      9  H23 UNL     1       2.630  -0.808   1.390  1.00  0.00     0.274 HD
ATOM     10  H22 UNL     1       3.241  -0.990  -0.035  1.00  0.00     0.274 HD
ATOM     11  H21 UNL     1       4.097  -0.066   1.069  1.00  0.00     0.274 HD
ENDBRANCH   7   8
ENDBRANCH   3   7
BRANCH   1  12
HETATM   12  C2  UNL     1      -1.505  -0.525  -1.167  1.00  0.00     0.088 C 
BRANCH  12  13
HETATM   13  N1  UNL     1      -2.744  -0.427  -0.512  1.00  0.00    -0.405 N 
HETATM   14  C1  UNL     1      -2.950   0.609   0.438  1.00  0.00     0.145 C 
ATOM     15  H1  UNL     1      -3.489  -1.093  -0.717  1.00  0.00     0.158 HD
ENDBRANCH  12  13
ENDBRANCH   1  12
TORSDOF 4
