REMARK  3 active torsions:
REMARK  status: ('A' for Active; 'I' for Inactive)
REMARK    1  A    between atoms: C2_4  and  C3_5 
REMARK    2  A    between atoms: C3_5  and  N2_6 
REMARK    3  A    between atoms: N2_6  and  C4_8 
ROOT
HETATM    1  C3  UNL     1       0.269  -1.451   0.019  1.00  0.00     0.181 C 
ENDROOT
BRANCH   1   2
HETATM    2  C2  UNL     1      -0.767  -0.373  -0.077  1.00  0.00     0.043 A 
HETATM    3  N1  UNL     1      -0.644   0.825  -0.680  1.00  0.00    -0.353 N 
HETATM    4  C1  UNL     1      -1.798   1.498  -0.542  1.00  0.00     0.180 A 
ATOM      5  H1  UNL     1       0.188   1.165  -1.162  1.00  0.00     0.166 HD
HETATM    6  N5  UNL     1      -2.686   0.756   0.146  1.00  0.00    -0.360 N 
HETATM    7  C5  UNL     1      -2.043  -0.396   0.430  1.00  0.00     0.115 A 
ATOM      8  H5  UNL     1      -3.641   1.010   0.399  1.00  0.00     0.166 HD
ENDBRANCH   1   2
BRANCH   1   9
HETATM    9  N2  UNL     1       1.477  -1.032  -0.633  1.00  0.00    -0.354 N 
ATOM     10  H2  UNL     1       1.821  -1.584  -1.418  1.00  0.00     0.163 HD
BRANCH   9  11
HETATM   11  C4  UNL     1       2.214   0.111  -0.239  1.00  0.00     0.209 A 
HETATM   12  N3  UNL     1       2.249   1.169   0.501  1.00  0.00    -0.267 N 
HETATM   13  N4  UNL     1       3.341   0.977  -0.268  1.00  0.00    -0.267 N 
ATOM     14  H3  UNL     1       1.776   1.751   1.192  1.00  0.00     0.190 HD
ATOM     15  H4  UNL     1       4.264   1.246  -0.608  1.00  0.00     0.190 HD
ENDBRANCH   9  11
ENDBRANCH   1   9
TORSDOF 3
