REMARK  13 active torsions:
REMARK  status: ('A' for Active; 'I' for Inactive)
REMARK    1  A    between atoms: C6_9  and  O2_10 
REMARK    2  A    between atoms: C7_12  and  O3_13 
REMARK    3  A    between atoms: C8_15  and  O4_16 
REMARK    4  A    between atoms: C10_19  and  N2_20 
REMARK    5  A    between atoms: N2_20  and  N3_22 
REMARK    6  A    between atoms: C11_26  and  C12_27 
REMARK       I    between atoms: C12_27  and  N6_29 
REMARK    7  A    between atoms: N6_29  and  C13_31 
REMARK    8  A    between atoms: C13_31  and  O6_32 
REMARK    9  A    between atoms: C13_31  and  C14_34 
REMARK   10  A    between atoms: C14_34  and  O7_35 
REMARK   11  A    between atoms: C14_34  and  C15_37 
REMARK   12  A    between atoms: C15_37  and  O8_38 
REMARK   13  A    between atoms: C16_40  and  O9_41 
ROOT
HETATM    1  N3  UNL     1      -0.235   0.562   0.449  1.00  0.00    -0.153 N 
HETATM    2  N4  UNL     1      -0.116   0.057  -0.777  1.00  0.00     0.004 NA
HETATM    3  N5  UNL     1       1.140  -0.226  -1.069  1.00  0.00    -0.274 N 
ATOM      4  H5  UNL     1       1.470  -0.620  -1.950  1.00  0.00     0.184 HD
HETATM    5  C11 UNL     1       1.910   0.090  -0.018  1.00  0.00     0.168 A 
HETATM    6  C16 UNL     1       1.042   0.583   0.927  1.00  0.00     0.211 A 
ENDROOT
BRANCH   1   7
HETATM    7  N2  UNL     1      -1.391   0.991   1.100  1.00  0.00    -0.273 N 
ATOM      8  H2  UNL     1      -1.340   1.342   2.056  1.00  0.00     0.189 HD
BRANCH   7   9
HETATM    9  C10 UNL     1      -2.622   0.938   0.435  1.00  0.00     0.131 C 
HETATM   10  C1  UNL     1      -2.730   2.014  -0.589  1.00  0.00     0.270 C 
HETATM   11  O1  UNL     1      -1.684   2.633  -0.905  1.00  0.00    -0.266 OA
HETATM   12  N1  UNL     1      -3.917   2.411  -1.248  1.00  0.00    -0.352 N 
HETATM   13  C2  UNL     1      -5.039   1.632  -1.694  1.00  0.00     0.151 C 
ATOM     14  H1  UNL     1      -3.988   3.411  -1.437  1.00  0.00     0.163 HD
HETATM   15  C3  UNL     1      -5.383   0.493  -0.828  1.00  0.00     0.005 C 
HETATM   16  C4  UNL     1      -4.803  -0.169   0.145  1.00  0.00    -0.020 A 
HETATM   17  C5  UNL     1      -5.636  -1.177   0.590  1.00  0.00     0.051 A 
HETATM   18  C9  UNL     1      -3.549   0.037   0.697  1.00  0.00     0.044 A 
HETATM   19  C6  UNL     1      -5.248  -2.013   1.598  1.00  0.00     0.102 A 
HETATM   20  C7  UNL     1      -4.015  -1.838   2.166  1.00  0.00     0.133 A 
HETATM   21  C8  UNL     1      -3.177  -0.823   1.718  1.00  0.00     0.115 A 
BRANCH  19  22
HETATM   22  O2  UNL     1      -6.056  -3.030   2.068  1.00  0.00    -0.358 OA
ATOM     23  H2  UNL     1      -5.786  -3.611   2.769  1.00  0.00     0.217 HD
ENDBRANCH  19  22
BRANCH  20  24
HETATM   24  O3  UNL     1      -3.571  -2.659   3.193  1.00  0.00    -0.356 OA
ATOM     25  H3  UNL     1      -2.715  -2.538   3.587  1.00  0.00     0.218 HD
ENDBRANCH  20  24
BRANCH  21  26
HETATM   26  O4  UNL     1      -1.973  -0.708   2.323  1.00  0.00    -0.357 OA
ATOM     27  H4  UNL     1      -1.400  -0.014   2.017  1.00  0.00     0.217 HD
ENDBRANCH  21  26
ENDBRANCH   7   9
ENDBRANCH   1   7
BRANCH   6  28
HETATM   28  O9  UNL     1       1.400   1.039   2.189  1.00  0.00    -0.342 OA
ATOM     29  H9  UNL     1       2.290   1.054   2.522  1.00  0.00     0.219 HD
ENDBRANCH   6  28
BRANCH   5  30
HETATM   30  C12 UNL     1       3.350  -0.024   0.177  1.00  0.00     0.275 C 
HETATM   31  O5  UNL     1       3.880   0.338   1.262  1.00  0.00    -0.266 OA
HETATM   32  N6  UNL     1       4.210  -0.540  -0.832  1.00  0.00    -0.327 N 
ATOM     33  H6  UNL     1       3.817  -0.843  -1.723  1.00  0.00     0.165 HD
BRANCH  32  34
HETATM   34  C13 UNL     1       5.620  -0.639  -0.610  1.00  0.00     0.251 C 
BRANCH  34  35
HETATM   35  O6  UNL     1       5.996  -1.984  -0.629  1.00  0.00    -0.374 OA
ATOM     36  H6  UNL     1       6.932  -2.050  -0.482  1.00  0.00     0.212 HD
ENDBRANCH  34  35
BRANCH  34  37
HETATM   37  C14 UNL     1       6.433   0.105  -1.637  1.00  0.00     0.190 C 
BRANCH  37  38
HETATM   38  O7  UNL     1       6.184  -0.396  -2.913  1.00  0.00    -0.389 OA
ATOM     39  H7  UNL     1       6.697   0.073  -3.561  1.00  0.00     0.210 HD
ENDBRANCH  37  38
BRANCH  37  40
HETATM   40  C15 UNL     1       6.158   1.593  -1.602  1.00  0.00     0.200 C 
BRANCH  40  41
HETATM   41  O8  UNL     1       6.411   2.079  -0.316  1.00  0.00    -0.398 OA
ATOM     42  H8  UNL     1       6.238   3.013  -0.294  1.00  0.00     0.209 HD
ENDBRANCH  40  41
ENDBRANCH  37  40
ENDBRANCH  34  37
ENDBRANCH  32  34
ENDBRANCH   5  30
TORSDOF 13
