REMARK  13 active torsions:
REMARK  status: ('A' for Active; 'I' for Inactive)
REMARK    1  A    between atoms: N1_2  and  C2_4 
REMARK    2  A    between atoms: C4_8  and  C5_9 
REMARK    3  A    between atoms: C5_9  and  O1_10 
REMARK    4  A    between atoms: C5_9  and  O2_12 
REMARK    5  A    between atoms: C7_15  and  N3_16 
REMARK    6  A    between atoms: N3_16  and  C8_18 
REMARK    7  A    between atoms: C8_18  and  O3_19 
REMARK    8  A    between atoms: C8_18  and  C9_21 
REMARK    9  A    between atoms: N6_27  and  O4_28 
REMARK   10  A    between atoms: C12_30  and  N7_31 
REMARK   11  A    between atoms: N7_31  and  O5_32 
REMARK   12  A    between atoms: N7_31  and  N8_34 
REMARK   13  A    between atoms: N8_34  and  O6_35 
ROOT
HETATM    1  C9  UNL     1       0.560   1.932   0.365  1.00  0.00     0.134 A 
HETATM    2  N4  UNL     1       0.658   0.623   0.076  1.00  0.00    -0.337 N 
ATOM      3  H4  UNL     1      -0.111  -0.012   0.290  1.00  0.00     0.167 HD
HETATM    4  C10 UNL     1       1.784   0.162  -0.499  1.00  0.00     0.110 A 
HETATM    5  C11 UNL     1       1.906  -1.186  -0.804  1.00  0.00     0.176 A 
HETATM    6  N5  UNL     1       0.829  -2.063  -0.500  1.00  0.00    -0.077 NA
HETATM    7  N6  UNL     1       3.056  -1.583  -1.376  1.00  0.00    -0.177 N 
HETATM    8  C12 UNL     1       4.061  -0.743  -1.654  1.00  0.00     0.232 A 
HETATM    9  N9  UNL     1       3.978   0.561  -1.374  1.00  0.00    -0.321 N 
ATOM     10  H9  UNL     1       4.748   1.195  -1.589  1.00  0.00     0.169 HD
HETATM   11  C13 UNL     1       2.839   1.017  -0.795  1.00  0.00     0.134 A 
HETATM   12  C14 UNL     1       2.730   2.361  -0.496  1.00  0.00     0.276 A 
HETATM   13  O7  UNL     1       3.647   3.185  -0.739  1.00  0.00    -0.266 OA
HETATM   14  N10 UNL     1       1.585   2.771   0.078  1.00  0.00    -0.307 N 
ATOM     15  H10 UNL     1       1.483   3.759   0.308  1.00  0.00     0.170 HD
ENDROOT
BRANCH   1  16
HETATM   16  C8  UNL     1      -0.675   2.483   1.004  1.00  0.00     0.287 C 
BRANCH  16  17
HETATM   17  N3  UNL     1      -1.880   2.031   0.413  1.00  0.00    -0.356 N 
ATOM     18  H3  UNL     1      -2.229   2.597  -0.361  1.00  0.00     0.162 HD
BRANCH  17  19
HETATM   19  C7  UNL     1      -2.592   1.012   0.714  1.00  0.00     0.060 A 
HETATM   20  C2  UNL     1      -3.760   0.726   0.012  1.00  0.00     0.070 A 
HETATM   21  C3  UNL     1      -4.497  -0.374   0.355  1.00  0.00     0.119 A 
HETATM   22  N2  UNL     1      -4.142  -1.212   1.358  1.00  0.00    -0.363 N 
HETATM   23  C4  UNL     1      -3.033  -0.975   2.054  1.00  0.00     0.066 A 
ATOM     24  H2  UNL     1      -4.722  -2.021   1.579  1.00  0.00     0.165 HD
HETATM   25  C6  UNL     1      -2.268   0.140   1.722  1.00  0.00     0.061 A 
BRANCH  20  26
HETATM   26  N1  UNL     1      -4.179   1.580  -1.055  1.00  0.00    -0.391 N 
HETATM   27  C1  UNL     1      -5.391   1.320  -1.806  1.00  0.00     0.146 C 
ATOM     28  H1  UNL     1      -3.611   2.393  -1.294  1.00  0.00     0.159 HD
ENDBRANCH  20  26
BRANCH  23  29
HETATM   29  C5  UNL     1      -2.626  -1.892   3.167  1.00  0.00     0.305 C 
BRANCH  29  30
HETATM   30  O1  UNL     1      -3.699  -2.219   3.973  1.00  0.00    -0.366 OA
ATOM     31  H1  UNL     1      -3.441  -2.800   4.679  1.00  0.00     0.213 HD
ENDBRANCH  29  30
BRANCH  29  32
HETATM   32  O2  UNL     1      -2.065  -3.026   2.576  1.00  0.00    -0.366 OA
ATOM     33  H2  UNL     1      -1.807  -3.607   3.282  1.00  0.00     0.213 HD
ENDBRANCH  29  32
ENDBRANCH  23  29
ENDBRANCH  17  19
ENDBRANCH  16  17
BRANCH  16  34
HETATM   34  O3  UNL     1      -0.594   3.876   0.999  1.00  0.00    -0.370 OA
ATOM     35  H3  UNL     1       0.214   4.179   1.395  1.00  0.00     0.212 HD
ENDBRANCH  16  34
ENDBRANCH   1  16
BRANCH   7  36
HETATM   36  O4  UNL     1       3.160  -2.931  -1.674  1.00  0.00    -0.279 OA
ATOM     37  H4  UNL     1       3.973  -3.212  -2.078  1.00  0.00     0.245 HD
ENDBRANCH   7  36
BRANCH   8  38
HETATM   38  N7  UNL     1       5.251  -1.223  -2.256  1.00  0.00    -0.011 NA
BRANCH  38  39
HETATM   39  O5  UNL     1       5.035  -2.493  -2.656  1.00  0.00    -0.288 OA
ATOM     40  H5  UNL     1       5.833  -2.815  -3.059  1.00  0.00     0.239 HD
ENDBRANCH  38  39
BRANCH  38  41
HETATM   41  N8  UNL     1       6.260  -1.104  -1.306  1.00  0.00     0.026 NA
BRANCH  41  42
HETATM   42  O6  UNL     1       7.036  -2.183  -1.207  1.00  0.00    -0.279 OA
ATOM     43  H6  UNL     1       7.725  -2.102  -0.558  1.00  0.00     0.240 HD
ENDBRANCH  41  42
ENDBRANCH  38  41
ENDBRANCH   8  38
TORSDOF 13
