REMARK  8 active torsions:
REMARK  status: ('A' for Active; 'I' for Inactive)
REMARK    1  A    between atoms: C2_2  and  C3_3 
REMARK    2  A    between atoms: C3_3  and  N1_4 
REMARK       I    between atoms: N1_4  and  C4_6 
REMARK    3  A    between atoms: C4_6  and  C5_8 
REMARK    4  A    between atoms: C5_8  and  C6_9 
REMARK       I    between atoms: C6_9  and  N2_11 
REMARK    5  A    between atoms: N2_11  and  C7_13 
REMARK    6  A    between atoms: C13_19  and  O3_20 
REMARK    7  A    between atoms: C14_22  and  O4_23 
REMARK    8  A    between atoms: C21_31  and  O5_32 
ROOT
HETATM    1  C7  UNL     1       0.518   0.592   0.901  1.00  0.00     0.045 C 
HETATM    2  C8  UNL     1       1.462   0.739   2.034  1.00  0.00     0.039 C 
HETATM    3  C9  UNL     1       1.380  -0.717   2.557  1.00  0.00     0.020 C 
HETATM    4  C10 UNL     1       0.024  -1.274   2.136  1.00  0.00     0.020 C 
HETATM    5  C11 UNL     1      -0.626   0.001   1.712  1.00  0.00    -0.004 C 
HETATM    6  C12 UNL     1      -0.786   0.695   3.079  1.00  0.00     0.047 C 
HETATM    7  C13 UNL     1      -0.028   0.185   4.228  1.00  0.00     0.148 C 
HETATM    8  C14 UNL     1       1.263  -0.520   4.055  1.00  0.00     0.151 C 
HETATM    9  C15 UNL     1      -1.924  -0.099   0.992  1.00  0.00    -0.029 C 
HETATM   10  C16 UNL     1      -3.044   0.724   1.637  1.00  0.00     0.016 C 
HETATM   11  C17 UNL     1      -2.325  -1.553   0.903  1.00  0.00     0.011 C 
HETATM   12  C18 UNL     1      -3.746  -1.560   0.380  1.00  0.00     0.006 C 
HETATM   13  C19 UNL     1      -3.885  -1.016  -0.999  1.00  0.00    -0.004 C 
HETATM   14  C20 UNL     1      -5.371  -0.671  -1.192  1.00  0.00     0.037 C 
HETATM   15  C21 UNL     1      -5.642  -0.126  -2.567  1.00  0.00     0.118 C 
HETATM   16  C22 UNL     1      -4.641   0.871  -3.036  1.00  0.00     0.032 C 
HETATM   17  C23 UNL     1      -3.807   1.309  -1.814  1.00  0.00     0.012 C 
HETATM   18  C24 UNL     1      -2.976   0.117  -1.349  1.00  0.00    -0.036 C 
HETATM   19  C25 UNL     1      -2.380  -0.298  -2.736  1.00  0.00     0.016 C 
HETATM   20  C26 UNL     1      -1.865   0.391  -0.456  1.00  0.00     0.003 C 
HETATM   21  C27 UNL     1      -1.299   1.758  -0.381  1.00  0.00     0.013 C 
HETATM   22  C28 UNL     1       0.126   1.790   0.145  1.00  0.00     0.011 C 
HETATM   23  C29 UNL     1       0.364   3.112   0.837  1.00  0.00     0.012 C 
ENDROOT
BRANCH   1  24
HETATM   24  N2  UNL     1       1.248  -0.350   0.101  1.00  0.00    -0.350 N 
HETATM   25  C6  UNL     1       2.484  -0.054  -0.513  1.00  0.00     0.227 C 
HETATM   26  O2  UNL     1       2.984   1.077  -0.381  1.00  0.00    -0.273 OA
ATOM     27  H2  UNL     1       0.853  -1.281  -0.031  1.00  0.00     0.163 HD
BRANCH  25  28
HETATM   28  C5  UNL     1       3.235  -1.039  -1.324  1.00  0.00     0.205 C 
BRANCH  28  29
HETATM   29  C4  UNL     1       4.479  -0.461  -1.844  1.00  0.00     0.226 C 
HETATM   30  N1  UNL     1       5.379  -1.246  -2.649  1.00  0.00    -0.361 N 
ATOM     31  H1  UNL     1       5.145  -2.216  -2.861  1.00  0.00     0.162 HD
HETATM   32  O1  UNL     1       4.832   0.726  -1.628  1.00  0.00    -0.273 OA
BRANCH  30  33
HETATM   33  C3  UNL     1       6.581  -0.697  -3.151  1.00  0.00     0.122 C 
BRANCH  33  34
HETATM   34  C2  UNL     1       7.573  -0.219  -2.126  1.00  0.00     0.015 C 
HETATM   35  C1  UNL     1       7.986  -1.370  -1.222  1.00  0.00     0.006 C 
ENDBRANCH  33  34
ENDBRANCH  30  33
ENDBRANCH  28  29
ENDBRANCH  25  28
ENDBRANCH   1  24
BRANCH   8  36
HETATM   36  O4  UNL     1       2.361   0.231   4.462  1.00  0.00    -0.393 OA
ATOM     37  H4  UNL     1       2.288   0.354   5.401  1.00  0.00     0.210 HD
ENDBRANCH   8  36
BRANCH   7  38
HETATM   38  O3  UNL     1       0.250   1.308   5.058  1.00  0.00    -0.393 OA
ATOM     39  H3  UNL     1       0.741   0.978   5.802  1.00  0.00     0.210 HD
ENDBRANCH   7  38
BRANCH  15  40
HETATM   40  O5  UNL     1      -5.877  -1.157  -3.500  1.00  0.00    -0.396 OA
ATOM     41  H5  UNL     1      -6.048  -0.813  -4.369  1.00  0.00     0.210 HD
ENDBRANCH  15  40
TORSDOF 8
