REMARK  6 active torsions:
REMARK  status: ('A' for Active; 'I' for Inactive)
REMARK    1  A    between atoms: C3_3  and  C4_4 
REMARK    2  A    between atoms: C4_4  and  N1_5 
REMARK       I    between atoms: N1_5  and  C5_7 
REMARK    3  A    between atoms: C5_7  and  C6_9 
REMARK    4  A    between atoms: C20_23  and  N2_24 
REMARK    5  A    between atoms: C21_28  and  O2_29 
REMARK    6  A    between atoms: C28_37  and  C29_38 
ROOT
HETATM    1  C6  UNL     1      -2.202   0.231   1.069  1.00  0.00     0.042 C 
HETATM    2  C7  UNL     1      -3.303   0.564   2.142  1.00  0.00     0.026 C 
HETATM    3  C8  UNL     1      -1.066   0.980   1.695  1.00  0.00     0.020 C 
HETATM    4  C9  UNL     1       0.231   1.100   1.001  1.00  0.00     0.011 C 
HETATM    5  C10 UNL     1       0.903  -0.223   1.120  1.00  0.00    -0.031 A 
HETATM    6  C11 UNL     1       1.751  -0.267   2.253  1.00  0.00     0.016 A 
HETATM    7  C12 UNL     1       2.339  -0.587   1.036  1.00  0.00     0.004 A 
HETATM    8  C13 UNL     1       2.893  -0.033  -0.163  1.00  0.00    -0.032 C 
HETATM    9  C14 UNL     1       2.116  -0.698  -1.316  1.00  0.00     0.011 C 
HETATM   10  C15 UNL     1       1.179  -1.796  -0.817  1.00  0.00     0.007 C 
HETATM   11  C16 UNL     1       0.243  -1.105   0.179  1.00  0.00     0.003 C 
HETATM   12  C17 UNL     1      -0.879  -1.963   0.690  1.00  0.00    -0.033 C 
HETATM   13  C18 UNL     1      -0.377  -2.904   1.799  1.00  0.00     0.016 C 
HETATM   14  C19 UNL     1      -1.180  -2.924  -0.472  1.00  0.00     0.045 C 
HETATM   15  C20 UNL     1      -2.232  -3.923  -0.145  1.00  0.00     0.212 C 
HETATM   16  C21 UNL     1      -3.360  -3.387   0.649  1.00  0.00     0.149 C 
HETATM   17  C22 UNL     1      -3.350  -1.858   0.483  1.00  0.00     0.040 C 
HETATM   18  C23 UNL     1      -2.115  -1.227   1.090  1.00  0.00     0.014 C 
HETATM   19  C24 UNL     1       4.328  -0.592  -0.345  1.00  0.00     0.011 C 
HETATM   20  C25 UNL     1       5.248   0.409   0.247  1.00  0.00     0.011 C 
HETATM   21  C26 UNL     1       4.537   1.714   0.148  1.00  0.00    -0.030 C 
HETATM   22  C27 UNL     1       4.553   2.568   1.401  1.00  0.00     0.016 C 
HETATM   23  C28 UNL     1       4.790   2.454  -1.131  1.00  0.00     0.059 C 
HETATM   24  C30 UNL     1       3.702   1.659  -1.768  1.00  0.00     0.018 C 
HETATM   25  C31 UNL     1       3.148   1.381  -0.362  1.00  0.00     0.004 C 
ENDROOT
BRANCH  23  26
HETATM   26  C29 UNL     1       6.162   2.269  -1.672  1.00  0.00     0.091 C 
HETATM   27  N3  UNL     1       6.385   1.749  -2.831  1.00  0.00    -0.391 N 
ATOM     28  H32 UNL     1       5.618   1.441  -3.428  1.00  0.00     0.157 HD
ATOM     29  H31 UNL     1       7.327   1.622  -3.202  1.00  0.00     0.157 HD
HETATM   30  N4  UNL     1       7.226   2.696  -0.844  1.00  0.00    -0.088 NA
ENDBRANCH  23  26
BRANCH   1  31
HETATM   31  C5  UNL     1      -2.769   0.936  -0.094  1.00  0.00     0.226 C 
HETATM   32  N1  UNL     1      -4.067   0.861  -0.626  1.00  0.00    -0.357 N 
ATOM     33  H1  UNL     1      -4.739   0.248  -0.165  1.00  0.00     0.162 HD
HETATM   34  O1  UNL     1      -2.030   1.751  -0.768  1.00  0.00    -0.273 OA
BRANCH  32  35
HETATM   35  C4  UNL     1      -4.508   1.603  -1.790  1.00  0.00     0.149 C 
BRANCH  35  36
HETATM   36  C3  UNL     1      -5.904   1.337  -2.123  1.00  0.00    -0.012 C 
HETATM   37  C2  UNL     1      -6.784   2.325  -2.133  1.00  0.00    -0.033 C 
HETATM   38  C1  UNL     1      -6.412   3.733  -1.813  1.00  0.00     0.036 C 
ENDBRANCH  35  36
ENDBRANCH  32  35
ENDBRANCH   1  31
BRANCH  15  39
HETATM   39  N2  UNL     1      -2.789  -4.364  -1.442  1.00  0.00    -0.073 N 
ATOM     40  H23 UNL     1      -3.123  -3.596  -2.024  1.00  0.00     0.274 HD
ATOM     41  H22 UNL     1      -2.084  -4.713  -2.091  1.00  0.00     0.274 HD
ATOM     42  H21 UNL     1      -3.511  -5.049  -1.218  1.00  0.00     0.274 HD
ENDBRANCH  15  39
BRANCH  16  43
HETATM   43  O2  UNL     1      -3.443  -3.764   1.962  1.00  0.00    -0.393 OA
ATOM     44  H2  UNL     1      -4.167  -3.420   2.472  1.00  0.00     0.210 HD
ENDBRANCH  16  43
TORSDOF 6
