REMARK  7 active torsions:
REMARK  status: ('A' for Active; 'I' for Inactive)
REMARK    1  A    between atoms: C2_2  and  C3_3 
REMARK    2  A    between atoms: C3_3  and  C4_4 
REMARK    3  A    between atoms: C4_4  and  C5_5 
REMARK       I    between atoms: C5_5  and  N1_7 
REMARK       I    between atoms: N1_7  and  C6_9 
REMARK       I    between atoms: C6_9  and  N3_13 
REMARK    4  A    between atoms: N3_13  and  C7_15 
REMARK    5  A    between atoms: C7_15  and  N4_16 
REMARK    6  A    between atoms: C7_15  and  C8_20 
REMARK    7  A    between atoms: C21_36  and  N6_37 
ROOT
HETATM    1  C8  UNL     1       1.989  -0.177   1.686  1.00  0.00     0.044 C 
HETATM    2  C9  UNL     1       0.888  -0.768   2.492  1.00  0.00     0.020 C 
HETATM    3  C10 UNL     1      -0.246  -1.348   1.725  1.00  0.00     0.011 C 
HETATM    4  C11 UNL     1      -0.571  -0.680   0.425  1.00  0.00    -0.032 C 
HETATM    5  C12 UNL     1      -0.299  -1.713  -0.683  1.00  0.00     0.016 C 
HETATM    6  C13 UNL     1       0.290   0.515   0.115  1.00  0.00    -0.000 C 
HETATM    7  C14 UNL     1       1.713  -0.015   0.224  1.00  0.00     0.025 C 
HETATM    8  C15 UNL     1       0.002   1.748   0.869  1.00  0.00    -0.004 C 
HETATM    9  C16 UNL     1       0.902   2.065   2.051  1.00  0.00     0.057 C 
HETATM   10  C17 UNL     1       2.106   1.272   2.134  1.00  0.00    -0.007 C 
HETATM   11  N5  UNL     1       3.218   1.666   2.508  1.00  0.00    -0.405 N 
ATOM     12  H51 UNL     1       3.296   2.638   2.808  1.00  0.00     0.155 HD
ATOM     13  H52 UNL     1       4.068   1.106   2.567  1.00  0.00     0.155 HD
HETATM   14  C18 UNL     1      -1.411   1.950   1.287  1.00  0.00     0.011 C 
HETATM   15  C19 UNL     1      -2.340   0.813   1.199  1.00  0.00    -0.003 C 
HETATM   16  C20 UNL     1      -3.776   1.243   0.894  1.00  0.00     0.041 C 
HETATM   17  C21 UNL     1      -3.949   1.780  -0.488  1.00  0.00     0.223 C 
HETATM   18  C27 UNL     1      -2.902   1.298  -1.463  1.00  0.00     0.036 C 
HETATM   19  C28 UNL     1      -2.377  -0.056  -1.168  1.00  0.00     0.012 C 
HETATM   20  C29 UNL     1      -2.012  -0.291   0.272  1.00  0.00    -0.033 C 
HETATM   21  C30 UNL     1      -2.825  -1.519   0.718  1.00  0.00     0.016 C 
ENDROOT
BRANCH   1  22
HETATM   22  C7  UNL     1       3.295  -0.870   1.995  1.00  0.00     0.311 C 
BRANCH  22  23
HETATM   23  N3  UNL     1       4.406  -0.377   1.259  1.00  0.00    -0.196 N 
HETATM   24  C6  UNL     1       5.703  -0.903   1.498  1.00  0.00     0.676 C 
HETATM   25  N1  UNL     1       6.487  -1.585   0.537  1.00  0.00    -0.160 N 
HETATM   26  N2  UNL     1       6.258  -0.761   2.686  1.00  0.00    -0.235 N 
HETATM   27  C5  UNL     1       5.961  -1.797  -0.782  1.00  0.00     0.235 C 
ATOM     28  H1  UNL     1       7.418  -1.923   0.780  1.00  0.00     0.187 HD
HETATM   29  O1  UNL     1       4.823  -1.377  -1.049  1.00  0.00    -0.273 OA
ATOM     30  H22 UNL     1       7.190  -1.139   2.858  1.00  0.00     0.174 HD
ATOM     31  H21 UNL     1       5.693  -0.270   3.379  1.00  0.00     0.174 HD
ATOM     32  H3  UNL     1       4.272   0.354   0.560  1.00  0.00     0.180 HD
BRANCH  27  33
HETATM   33  C4  UNL     1       6.808  -2.498  -1.725  1.00  0.00     0.103 C 
BRANCH  33  34
HETATM   34  C3  UNL     1       6.489  -2.544  -3.162  1.00  0.00     0.009 C 
BRANCH  34  35
HETATM   35  C2  UNL     1       6.515  -1.336  -3.996  1.00  0.00    -0.004 C 
HETATM   36  C1  UNL     1       5.626  -0.188  -3.716  1.00  0.00     0.005 C 
ENDBRANCH  34  35
ENDBRANCH  33  34
ENDBRANCH  27  33
ENDBRANCH  22  23
BRANCH  22  37
HETATM   37  N4  UNL     1       3.211  -2.291   1.928  1.00  0.00    -0.057 N 
ATOM     38  H43 UNL     1       3.193  -2.618   0.962  1.00  0.00     0.276 HD
ATOM     39  H42 UNL     1       4.081  -2.730   2.228  1.00  0.00     0.276 HD
ATOM     40  H41 UNL     1       2.413  -2.645   2.456  1.00  0.00     0.276 HD
ENDBRANCH  22  37
ENDBRANCH   1  22
BRANCH  17  41
HETATM   41  N6  UNL     1      -5.279   1.658  -0.985  1.00  0.00     0.093 N 
HETATM   42  C22 UNL     1      -5.810   0.357  -1.144  1.00  0.00     0.273 C 
HETATM   43  C23 UNL     1      -7.279   0.517  -1.572  1.00  0.00     0.030 C 
HETATM   44  C24 UNL     1      -8.037   0.927  -0.304  1.00  0.00     0.003 C 
HETATM   45  C25 UNL     1      -7.236   1.911   0.493  1.00  0.00     0.030 C 
HETATM   46  C26 UNL     1      -6.141   2.574  -0.297  1.00  0.00     0.273 C 
ENDBRANCH  17  41
TORSDOF 7
