REMARK  6 active torsions:
REMARK  status: ('A' for Active; 'I' for Inactive)
REMARK       I    between atoms: C2_2  and  N1_4 
REMARK    1  A    between atoms: N1_4  and  C3_6 
REMARK    2  A    between atoms: C3_6  and  C4_7 
REMARK    3  A    between atoms: C7_10  and  N2_11 
REMARK       I    between atoms: N2_11  and  C8_13 
REMARK       I    between atoms: C8_13  and  N3_15 
REMARK    4  A    between atoms: N3_15  and  C9_17 
REMARK    5  A    between atoms: C13_21  and  O3_22 
REMARK    6  A    between atoms: C23_33  and  O4_34 
ROOT
HETATM    1  C9  UNL     1      -1.481  -0.914  -0.034  1.00  0.00     0.091 C 
HETATM    2  C10 UNL     1      -2.082  -2.179  -0.627  1.00  0.00     0.031 C 
HETATM    3  C11 UNL     1      -3.310  -1.690  -1.329  1.00  0.00    -0.002 C 
HETATM    4  C12 UNL     1      -3.838  -2.635  -2.363  1.00  0.00     0.037 C 
HETATM    5  C13 UNL     1      -4.989  -1.957  -3.046  1.00  0.00     0.118 C 
HETATM    6  C14 UNL     1      -5.321  -0.620  -2.529  1.00  0.00     0.032 C 
HETATM    7  C15 UNL     1      -5.317  -0.421  -1.056  1.00  0.00     0.012 C 
HETATM    8  C16 UNL     1      -4.346  -1.317  -0.301  1.00  0.00    -0.036 C 
HETATM    9  C17 UNL     1      -5.150  -2.609  -0.051  1.00  0.00     0.016 C 
HETATM   10  C18 UNL     1      -3.822  -0.784   0.968  1.00  0.00     0.000 C 
HETATM   11  C19 UNL     1      -4.707   0.316   1.585  1.00  0.00     0.007 C 
HETATM   12  C20 UNL     1      -3.982   0.719   2.881  1.00  0.00     0.012 C 
HETATM   13  C21 UNL     1      -2.817   1.600   2.447  1.00  0.00    -0.014 C 
HETATM   14  C22 UNL     1      -1.915   1.726   3.659  1.00  0.00     0.018 C 
HETATM   15  C23 UNL     1      -3.279   2.953   1.992  1.00  0.00     0.126 C 
HETATM   16  C24 UNL     1      -2.945   3.127   0.547  1.00  0.00     0.033 C 
HETATM   17  C25 UNL     1      -2.245   1.860   0.088  1.00  0.00     0.008 C 
HETATM   18  C26 UNL     1      -2.073   1.022   1.294  1.00  0.00     0.003 C 
HETATM   19  C27 UNL     1      -2.372  -0.468   1.082  1.00  0.00     0.018 C 
ENDROOT
BRANCH   1  20
HETATM   20  N3  UNL     1      -0.154  -1.247   0.399  1.00  0.00    -0.338 N 
HETATM   21  C8  UNL     1       0.996  -0.630  -0.156  1.00  0.00     0.316 C 
HETATM   22  N2  UNL     1       2.315  -0.957   0.267  1.00  0.00    -0.339 N 
HETATM   23  O2  UNL     1       0.829   0.233  -1.054  1.00  0.00    -0.247 OA
ATOM     24  H2  UNL     1       2.442  -1.660   0.995  1.00  0.00     0.164 HD
ATOM     25  H3  UNL     1      -0.034  -1.949   1.129  1.00  0.00     0.164 HD
BRANCH  22  26
HETATM   26  C7  UNL     1       3.482  -0.320  -0.308  1.00  0.00     0.086 C 
HETATM   27  C6  UNL     1       4.250   0.338   0.798  1.00  0.00     0.026 C 
HETATM   28  C5  UNL     1       5.336   1.217   0.216  1.00  0.00     0.008 C 
HETATM   29  C4  UNL     1       5.862   0.627  -1.069  1.00  0.00     0.003 C 
HETATM   30  C29 UNL     1       5.840  -0.882  -0.928  1.00  0.00     0.008 C 
HETATM   31  C28 UNL     1       4.415  -1.381  -0.905  1.00  0.00     0.026 C 
BRANCH  29  32
HETATM   32  C3  UNL     1       7.271   1.133  -1.303  1.00  0.00     0.127 C 
BRANCH  32  33
HETATM   33  N1  UNL     1       8.168   0.767  -0.244  1.00  0.00    -0.361 N 
HETATM   34  C2  UNL     1       9.521   1.158  -0.300  1.00  0.00     0.213 C 
HETATM   35  C1  UNL     1      10.428   0.758   0.821  1.00  0.00     0.117 C 
HETATM   36  O1  UNL     1       9.985   1.835  -1.269  1.00  0.00    -0.274 OA
ATOM     37  H1  UNL     1       7.826   0.224   0.549  1.00  0.00     0.162 HD
ENDBRANCH  32  33
ENDBRANCH  29  32
ENDBRANCH  22  26
ENDBRANCH   1  20
BRANCH   5  38
HETATM   38  O3  UNL     1      -4.623  -1.810  -4.408  1.00  0.00    -0.396 OA
ATOM     39  H3  UNL     1      -5.352  -1.381  -4.840  1.00  0.00     0.210 HD
ENDBRANCH   5  38
BRANCH  15  40
HETATM   40  O4  UNL     1      -2.582   3.919   2.717  1.00  0.00    -0.395 OA
ATOM     41  H4  UNL     1      -2.875   4.776   2.429  1.00  0.00     0.210 HD
ENDBRANCH  15  40
TORSDOF 6
