REMARK  12 active torsions:
REMARK  status: ('A' for Active; 'I' for Inactive)
REMARK    1  A    between atoms: C3_3  and  C4_4 
REMARK    2  A    between atoms: C7_7  and  C8_8 
REMARK    3  A    between atoms: C8_8  and  C9_9 
REMARK    4  A    between atoms: C9_9  and  C10_10 
REMARK    5  A    between atoms: C10_10  and  N1_11 
REMARK    6  A    between atoms: C10_10  and  C16_20 
REMARK       I    between atoms: N1_11  and  C11_13 
REMARK    7  A    between atoms: C11_13  and  O2_15 
REMARK    8  A    between atoms: O2_15  and  C12_16 
REMARK       I    between atoms: C16_20  and  N2_22 
REMARK    9  A    between atoms: N2_22  and  C17_24 
REMARK   10  A    between atoms: C17_24  and  O4_26 
REMARK   11  A    between atoms: C17_24  and  C19_28 
REMARK   12  A    between atoms: C19_28  and  C20_30 
ROOT
HETATM    1  C1  UNL     1       6.990  -4.068   0.139  1.00  0.00     0.112 C 
HETATM    2  C2  UNL     1       5.960  -3.046  -0.011  1.00  0.00    -0.104 C 
HETATM    3  C3  UNL     1       5.100  -2.208  -0.116  1.00  0.00    -0.049 C 
ENDROOT
BRANCH   3   4
HETATM    4  C4  UNL     1       4.052  -1.198  -0.221  1.00  0.00     0.087 A 
HETATM    5  C5  UNL     1       3.732  -0.277   0.749  1.00  0.00     0.041 A 
HETATM    6  C6  UNL     1       2.680   0.489   0.239  1.00  0.00     0.028 A 
HETATM    7  C7  UNL     1       2.405   0.006  -1.007  1.00  0.00     0.010 A 
HETATM    8  N3  UNL     1       3.260  -1.028  -1.268  1.00  0.00    -0.353 N 
ATOM      9  H3  UNL     1       3.284  -1.577  -2.127  1.00  0.00     0.166 HD
BRANCH   7  10
HETATM   10  C8  UNL     1       1.376   0.444  -1.957  1.00  0.00     0.059 C 
BRANCH  10  11
HETATM   11  C9  UNL     1       0.369   1.405  -1.456  1.00  0.00     0.041 C 
BRANCH  11  12
HETATM   12  C10 UNL     1      -0.534   0.944  -0.372  1.00  0.00     0.179 C 
BRANCH  12  13
HETATM   13  N1  UNL     1      -1.334  -0.207  -0.760  1.00  0.00    -0.324 N 
HETATM   14  C11 UNL     1      -1.337  -1.428  -0.069  1.00  0.00     0.362 C 
HETATM   15  O1  UNL     1      -0.624  -1.566   0.940  1.00  0.00    -0.238 OA
ATOM     16  H1  UNL     1      -1.929  -0.121  -1.584  1.00  0.00     0.165 HD
BRANCH  14  17
HETATM   17  O2  UNL     1      -2.116  -2.474  -0.489  1.00  0.00    -0.294 OA
BRANCH  17  18
HETATM   18  C12 UNL     1      -2.188  -3.728   0.131  1.00  0.00     0.061 C 
HETATM   19  C13 UNL     1      -2.653  -3.696   1.545  1.00  0.00     0.046 C 
HETATM   20  C14 UNL     1      -3.200  -4.554  -0.674  1.00  0.00     0.046 C 
HETATM   21  C15 UNL     1      -0.882  -4.498   0.061  1.00  0.00     0.046 C 
ENDBRANCH  17  18
ENDBRANCH  14  17
ENDBRANCH  12  13
BRANCH  12  22
HETATM   22  C16 UNL     1      -1.433   2.047   0.017  1.00  0.00     0.243 C 
HETATM   23  O3  UNL     1      -2.676   1.888  -0.037  1.00  0.00    -0.271 OA
HETATM   24  N2  UNL     1      -0.904   3.289   0.451  1.00  0.00    -0.322 N 
ATOM     25  H2  UNL     1       0.111   3.383   0.486  1.00  0.00     0.166 HD
BRANCH  24  26
HETATM   26  C17 UNL     1      -1.694   4.432   0.848  1.00  0.00     0.193 C 
HETATM   27  C18 UNL     1      -2.619   4.053   2.011  1.00  0.00     0.080 C 
BRANCH  26  28
HETATM   28  O4  UNL     1      -0.809   5.382   1.403  1.00  0.00    -0.365 OA
ATOM     29  H4  UNL     1      -1.328   6.133   1.664  1.00  0.00     0.213 HD
ENDBRANCH  26  28
BRANCH  26  30
HETATM   30  C19 UNL     1      -2.442   5.077  -0.230  1.00  0.00     0.191 C 
HETATM   31  O5  UNL     1      -3.287   4.528  -0.891  1.00  0.00    -0.292 OA
BRANCH  30  32
HETATM   32  C20 UNL     1      -2.167   6.520  -0.570  1.00  0.00     0.168 C 
HETATM   33 BR1  UNL     1      -3.272   7.138  -2.018  1.00  0.00    -0.088 Br
ENDBRANCH  30  32
ENDBRANCH  26  30
ENDBRANCH  24  26
ENDBRANCH  12  22
ENDBRANCH  11  12
ENDBRANCH  10  11
ENDBRANCH   7  10
ENDBRANCH   3   4
TORSDOF 12
