REMARK  16 active torsions:
REMARK  status: ('A' for Active; 'I' for Inactive)
REMARK    1  A    between atoms: C2_2  and  C3_3 
REMARK    2  A    between atoms: C3_3  and  C4_4 
REMARK    3  A    between atoms: C5_5  and  C6_6 
REMARK    4  A    between atoms: C6_6  and  N1_8 
REMARK    5  A    between atoms: C6_6  and  C23_38 
REMARK    6  A    between atoms: N1_8  and  C8_10 
REMARK    7  A    between atoms: C8_10  and  O1_11 
REMARK    8  A    between atoms: C8_10  and  N2_13 
REMARK    9  A    between atoms: N2_13  and  C9_15 
REMARK   10  A    between atoms: C9_15  and  O2_16 
REMARK   11  A    between atoms: C9_15  and  C10_18 
REMARK   12  A    between atoms: C13_21  and  C14_22 
REMARK       I    between atoms: C14_22  and  N3_24 
REMARK   13  A    between atoms: N3_24  and  C15_26 
REMARK   14  A    between atoms: C15_26  and  C16_27 
REMARK   15  A    between atoms: C15_26  and  C20_32 
REMARK   16  A    between atoms: C16_27  and  C17_29 
ROOT
HETATM    1  C10 UNL     1       0.455  -1.643  -0.202  1.00  0.00     0.261 C 
HETATM    2  C11 UNL     1       0.395  -0.189   0.134  1.00  0.00     0.044 C 
HETATM    3  C12 UNL     1      -1.026   0.142   0.460  1.00  0.00     0.045 C 
HETATM    4  C13 UNL     1      -1.672  -1.217   0.651  1.00  0.00     0.278 C 
HETATM    5  N4  UNL     1      -0.926  -2.111  -0.169  1.00  0.00    -0.051 N 
ATOM      6  H41 UNL     1      -1.007  -3.083   0.131  1.00  0.00     0.279 HD
ATOM      7  H42 UNL     1      -1.328  -2.222  -1.100  1.00  0.00     0.279 HD
ENDROOT
BRANCH   1   8
HETATM    8  C9  UNL     1       1.269  -2.404   0.769  1.00  0.00     0.149 C 
BRANCH   8   9
HETATM    9  N2  UNL     1       2.644  -2.402   0.951  1.00  0.00    -0.305 N 
ATOM     10  H2  UNL     1       2.946  -2.977   1.738  1.00  0.00     0.171 HD
BRANCH   9  11
HETATM   11  C8  UNL     1       3.691  -1.787   0.293  1.00  0.00     0.220 C 
BRANCH  11  12
HETATM   12  N1  UNL     1       3.724  -0.930  -0.803  1.00  0.00    -0.330 N 
ATOM     13  H1  UNL     1       2.846  -0.670  -1.253  1.00  0.00     0.165 HD
BRANCH  12  14
HETATM   14  C6  UNL     1       4.983  -0.388  -1.333  1.00  0.00     0.154 C 
HETATM   15  C7  UNL     1       4.611   0.614  -2.423  1.00  0.00     0.061 C 
BRANCH  14  16
HETATM   16  C5  UNL     1       5.605   0.314  -0.208  1.00  0.00    -0.067 C 
HETATM   17  C4  UNL     1       6.128   0.875   0.731  1.00  0.00    -0.104 C 
BRANCH  17  18
HETATM   18  C3  UNL     1       6.759   1.528   1.877  1.00  0.00     0.093 C 
BRANCH  18  19
HETATM   19  C2  UNL     1       8.121   2.096   1.479  1.00  0.00     0.007 C 
HETATM   20  C1  UNL     1       9.037   1.006   0.991  1.00  0.00     0.006 C 
ENDBRANCH  18  19
ENDBRANCH  17  18
ENDBRANCH  14  16
BRANCH  14  21
HETATM   21  C23 UNL     1       5.837  -1.407  -1.939  1.00  0.00     0.163 C 
HETATM   22  C24 UNL     1       7.154  -1.065  -2.525  1.00  0.00     0.095 C 
HETATM   23  O5  UNL     1       5.476  -2.567  -1.973  1.00  0.00    -0.295 OA
ENDBRANCH  14  21
ENDBRANCH  12  14
ENDBRANCH  11  12
BRANCH  11  24
HETATM   24  O1  UNL     1       4.877  -2.054   0.778  1.00  0.00    -0.332 OA
ATOM     25  H1  UNL     1       4.854  -2.639   1.526  1.00  0.00     0.220 HD
ENDBRANCH  11  24
ENDBRANCH   9  11
ENDBRANCH   8   9
BRANCH   8  26
HETATM   26  O2  UNL     1       0.612  -3.200   1.582  1.00  0.00    -0.348 OA
ATOM     27  H2  UNL     1      -0.330  -3.201   1.457  1.00  0.00     0.219 HD
ENDBRANCH   8  26
ENDBRANCH   1   8
BRANCH   4  28
HETATM   28  C14 UNL     1      -3.105  -1.183   0.275  1.00  0.00     0.249 C 
HETATM   29  O3  UNL     1      -3.536  -1.931  -0.669  1.00  0.00    -0.271 OA
HETATM   30  N3  UNL     1      -3.982  -0.316   0.970  1.00  0.00    -0.347 N 
ATOM     31  H3  UNL     1      -3.622   0.275   1.719  1.00  0.00     0.163 HD
BRANCH  30  32
HETATM   32  C15 UNL     1      -5.434  -0.261   0.612  1.00  0.00     0.158 C 
BRANCH  32  33
HETATM   33  C16 UNL     1      -5.707   1.091   0.060  1.00  0.00     0.153 C 
HETATM   34  O4  UNL     1      -4.806   1.959   0.108  1.00  0.00    -0.295 OA
BRANCH  33  35
HETATM   35  C17 UNL     1      -6.965   1.530  -0.565  1.00  0.00     0.049 C 
HETATM   36  C18 UNL     1      -6.860   3.019  -0.968  1.00  0.00     0.017 C 
HETATM   37  C19 UNL     1      -7.115   0.788  -1.899  1.00  0.00     0.017 C 
ENDBRANCH  33  35
ENDBRANCH  32  33
BRANCH  32  38
HETATM   38  C20 UNL     1      -6.227  -0.651   1.806  1.00  0.00     0.007 C 
HETATM   39  C21 UNL     1      -7.684  -0.659   1.573  1.00  0.00     0.012 C 
HETATM   40  C22 UNL     1      -5.955   0.221   3.013  1.00  0.00     0.012 C 
ENDBRANCH  32  38
ENDBRANCH  30  32
ENDBRANCH   4  28
TORSDOF 16
