REMARK  8 active torsions:
REMARK  status: ('A' for Active; 'I' for Inactive)
REMARK    1  A    between atoms: C2_2  and  C15_21 
REMARK    2  A    between atoms: C3_3  and  C4_4 
REMARK    3  A    between atoms: C4_4  and  C5_5 
REMARK    4  A    between atoms: C8_9  and  O1_10 
REMARK    5  A    between atoms: O1_10  and  C9_11 
REMARK    6  A    between atoms: C9_11  and  C10_12 
REMARK    7  A    between atoms: C9_11  and  C11_15 
REMARK       I    between atoms: C15_21  and  N2_23 
REMARK    8  A    between atoms: C16_25  and  C17_26 
ROOT
HETATM    1  C4  UNL     1      -0.232  -1.750   2.182  1.00  0.00     0.067 C 
ENDROOT
BRANCH   1   2
HETATM    2  C3  UNL     1       1.045  -2.036   1.497  1.00  0.00    -0.010 C 
HETATM    3  C2  UNL     1       2.211  -1.619   1.948  1.00  0.00     0.003 C 
HETATM    4  C1  UNL     1       2.302  -0.818   3.196  1.00  0.00     0.054 C 
BRANCH   3   5
HETATM    5  C15 UNL     1       3.444  -1.959   1.237  1.00  0.00     0.250 C 
HETATM    6  O5  UNL     1       3.327  -2.673   0.196  1.00  0.00    -0.268 OA
HETATM    7  N2  UNL     1       4.704  -1.553   1.632  1.00  0.00    -0.331 N 
HETATM    8  C16 UNL     1       5.501  -0.667   1.262  1.00  0.00     0.122 C 
ATOM      9  H2  UNL     1       5.068  -2.107   2.407  1.00  0.00     0.168 HD
BRANCH   8  10
HETATM   10  C17 UNL     1       5.323   0.296   0.205  1.00  0.00     0.069 A 
HETATM   11  C18 UNL     1       4.234   0.504  -0.606  1.00  0.00     0.108 A 
HETATM   12  C19 UNL     1       4.505   1.537  -1.504  1.00  0.00     0.262 A 
HETATM   13  O6  UNL     1       3.730   1.990  -2.389  1.00  0.00    -0.267 OA
HETATM   14  N3  UNL     1       5.751   1.921  -1.206  1.00  0.00    -0.266 N 
HETATM   15  N4  UNL     1       6.243   1.211  -0.216  1.00  0.00    -0.296 N 
ATOM     16  H3  UNL     1       6.254   2.668  -1.685  1.00  0.00     0.190 HD
ATOM     17  H4  UNL     1       7.176   1.327   0.180  1.00  0.00     0.187 HD
ENDBRANCH   8  10
ENDBRANCH   3   5
ENDBRANCH   1   2
BRANCH   1  18
HETATM   18  C5  UNL     1      -1.075  -0.913   1.314  1.00  0.00    -0.047 A 
HETATM   19  C6  UNL     1      -1.178   0.447   1.641  1.00  0.00     0.029 A 
HETATM   20  C7  UNL     1      -1.950   1.286   0.886  1.00  0.00     0.044 A 
HETATM   21 BR1  UNL     1      -2.119   3.154   1.300  1.00  0.00    -0.048 Br
HETATM   22  C8  UNL     1      -2.643   0.768  -0.226  1.00  0.00     0.088 A 
HETATM   23  C12 UNL     1      -2.556  -0.563  -0.566  1.00  0.00     0.045 A 
HETATM   24  C13 UNL     1      -1.758  -1.399   0.225  1.00  0.00    -0.053 A 
HETATM   25  C14 UNL     1      -1.690  -2.819  -0.173  1.00  0.00     0.049 C 
BRANCH  22  26
HETATM   26  O1  UNL     1      -3.388   1.692  -0.914  1.00  0.00    -0.325 OA
BRANCH  26  27
HETATM   27  C9  UNL     1      -4.161   1.416  -2.035  1.00  0.00     0.318 C 
BRANCH  27  28
HETATM   28  C10 UNL     1      -5.617   1.717  -1.775  1.00  0.00     0.271 C 
HETATM   29  N1  UNL     1      -6.532   1.497  -2.810  1.00  0.00    -0.059 NA
HETATM   30  O2  UNL     1      -5.958   2.147  -0.662  1.00  0.00    -0.273 OA
ENDBRANCH  27  28
BRANCH  27  31
HETATM   31  C11 UNL     1      -3.719   2.226  -3.225  1.00  0.00     0.212 C 
HETATM   32  O3  UNL     1      -2.768   3.018  -3.058  1.00  0.00    -0.646 OA
HETATM   33  O4  UNL     1      -4.303   2.138  -4.468  1.00  0.00    -0.646 OA
ENDBRANCH  27  31
ENDBRANCH  26  27
ENDBRANCH  22  26
ENDBRANCH   1  18
TORSDOF 8
