REMARK  18 active torsions:
REMARK  status: ('A' for Active; 'I' for Inactive)
REMARK    1  A    between atoms: O1_2  and  N1_3 
REMARK    2  A    between atoms: C2_5  and  N2_6 
REMARK    3  A    between atoms: C2_5  and  C8_18 
REMARK    4  A    between atoms: N2_6  and  C3_8 
REMARK    5  A    between atoms: C5_13  and  C6_14 
REMARK    6  A    between atoms: C8_18  and  N4_19 
REMARK    7  A    between atoms: C8_18  and  C28_51 
REMARK       I    between atoms: N4_19  and  C9_21 
REMARK    8  A    between atoms: C9_21  and  C10_23 
REMARK    9  A    between atoms: C10_23  and  N5_24 
REMARK   10  A    between atoms: C10_23  and  C25_48 
REMARK       I    between atoms: N5_24  and  C11_26 
REMARK   11  A    between atoms: C11_26  and  C12_28 
REMARK   12  A    between atoms: C12_28  and  C13_29 
REMARK   13  A    between atoms: C12_28  and  N6_33 
REMARK   14  A    between atoms: C13_29  and  C14_30 
REMARK       I    between atoms: N6_33  and  C17_35 
REMARK   15  A    between atoms: C17_35  and  C18_37 
REMARK   16  A    between atoms: C18_37  and  N7_39 
REMARK       I    between atoms: N7_39  and  C20_41 
REMARK   17  A    between atoms: C20_41  and  O8_43 
REMARK   18  A    between atoms: O8_43  and  C21_44 
ROOT
HETATM    1  C10 UNL     1       1.267  -0.813   0.011  1.00  0.00     0.180 C 
ENDROOT
BRANCH   1   2
HETATM    2  C9  UNL     1       2.526  -1.032   0.857  1.00  0.00     0.241 C 
HETATM    3  N4  UNL     1       3.601  -0.216   0.620  1.00  0.00    -0.347 N 
ATOM      4  H4  UNL     1       3.347   0.457  -0.103  1.00  0.00     0.163 HD
HETATM    5  O4  UNL     1       2.345  -1.975   1.663  1.00  0.00    -0.271 OA
BRANCH   3   6
HETATM    6  C8  UNL     1       4.930   0.028   1.015  1.00  0.00     0.157 C 
BRANCH   6   7
HETATM    7  C2  UNL     1       5.352   1.411   0.580  1.00  0.00     0.121 C 
HETATM    8  N1  UNL     1       5.746   2.206   1.500  1.00  0.00    -0.253 N 
ATOM      9  H1  UNL     1       5.759   1.824   2.446  1.00  0.00     0.195 HD
BRANCH   8  10
HETATM   10  O1  UNL     1       6.150   3.499   1.373  1.00  0.00    -0.284 OA
HETATM   11  C1  UNL     1       6.381   4.344   2.484  1.00  0.00     0.237 C 
ENDBRANCH   8  10
BRANCH   7  12
HETATM   12  N2  UNL     1       5.309   1.869  -0.751  1.00  0.00    -0.370 N 
ATOM     13  H2  UNL     1       4.490   2.429  -0.988  1.00  0.00     0.161 HD
BRANCH  12  14
HETATM   14  C3  UNL     1       6.220   1.674  -1.804  1.00  0.00     0.111 C 
HETATM   15  C4  UNL     1       6.538   0.220  -2.109  1.00  0.00     0.258 C 
HETATM   16  N3  UNL     1       7.642   0.435  -3.050  1.00  0.00    -0.059 N 
HETATM   17  C5  UNL     1       8.513   1.246  -2.215  1.00  0.00     0.287 C 
ATOM     18  H32 UNL     1       8.060  -0.405  -3.450  1.00  0.00     0.278 HD
ATOM     19  H31 UNL     1       7.389   0.834  -3.954  1.00  0.00     0.278 HD
HETATM   20  C7  UNL     1       7.546   2.329  -1.743  1.00  0.00     0.071 C 
BRANCH  17  21
HETATM   21  C6  UNL     1       9.625   1.837  -3.001  1.00  0.00     0.204 C 
HETATM   22  O2  UNL     1       9.688   1.600  -4.227  1.00  0.00    -0.646 OA
HETATM   23  O3  UNL     1      10.565   2.624  -2.405  1.00  0.00    -0.646 OA
ENDBRANCH  17  21
ENDBRANCH  12  14
ENDBRANCH   7  12
ENDBRANCH   6   7
BRANCH   6  24
HETATM   24  C28 UNL     1       5.168  -0.033   2.542  1.00  0.00     0.008 C 
HETATM   25  C29 UNL     1       4.944  -1.396   3.106  1.00  0.00     0.012 C 
HETATM   26  C30 UNL     1       4.201   0.893   3.251  1.00  0.00     0.012 C 
ENDBRANCH   6  24
ENDBRANCH   3   6
ENDBRANCH   1   2
BRANCH   1  27
HETATM   27  N5  UNL     1       0.104  -1.396   0.655  1.00  0.00    -0.346 N 
HETATM   28  C11 UNL     1      -1.129  -0.650   0.713  1.00  0.00     0.241 C 
HETATM   29  O5  UNL     1      -1.124   0.464   0.189  1.00  0.00    -0.271 OA
ATOM     30  H5  UNL     1       0.159  -2.329   1.064  1.00  0.00     0.163 HD
BRANCH  28  31
HETATM   31  C12 UNL     1      -2.340  -1.194   1.368  1.00  0.00     0.177 C 
BRANCH  31  32
HETATM   32  C13 UNL     1      -2.743  -2.506   0.805  1.00  0.00     0.038 C 
BRANCH  32  33
HETATM   33  C14 UNL     1      -3.912  -3.175   1.440  1.00  0.00    -0.020 C 
HETATM   34  C15 UNL     1      -3.666  -3.474   2.917  1.00  0.00     0.009 C 
HETATM   35  C16 UNL     1      -4.078  -4.545   0.759  1.00  0.00     0.009 C 
ENDBRANCH  32  33
ENDBRANCH  31  32
BRANCH  31  36
HETATM   36  N6  UNL     1      -3.359  -0.163   1.164  1.00  0.00    -0.346 N 
HETATM   37  C17 UNL     1      -4.377  -0.168   0.217  1.00  0.00     0.240 C 
HETATM   38  O6  UNL     1      -4.589  -1.014  -0.634  1.00  0.00    -0.271 OA
ATOM     39  H6  UNL     1      -3.318   0.646   1.783  1.00  0.00     0.163 HD
BRANCH  37  40
HETATM   40  C18 UNL     1      -5.362   1.010   0.210  1.00  0.00     0.174 C 
HETATM   41  C19 UNL     1      -4.553   2.278   0.059  1.00  0.00     0.042 C 
BRANCH  40  42
HETATM   42  N7  UNL     1      -6.314   0.891  -0.840  1.00  0.00    -0.324 N 
HETATM   43  C20 UNL     1      -7.721   0.990  -0.742  1.00  0.00     0.362 C 
HETATM   44  O7  UNL     1      -8.231   1.206   0.379  1.00  0.00    -0.238 OA
ATOM     45  H7  UNL     1      -5.938   0.714  -1.772  1.00  0.00     0.165 HD
BRANCH  43  46
HETATM   46  O8  UNL     1      -8.558   0.855  -1.838  1.00  0.00    -0.294 OA
BRANCH  46  47
HETATM   47  C21 UNL     1      -9.969   0.950  -1.784  1.00  0.00     0.061 C 
HETATM   48  C22 UNL     1     -10.295   2.345  -1.278  1.00  0.00     0.046 C 
HETATM   49  C23 UNL     1     -10.533  -0.052  -0.796  1.00  0.00     0.046 C 
HETATM   50  C24 UNL     1     -10.613   0.755  -3.114  1.00  0.00     0.046 C 
ENDBRANCH  46  47
ENDBRANCH  43  46
ENDBRANCH  40  42
ENDBRANCH  37  40
ENDBRANCH  31  36
ENDBRANCH  28  31
ENDBRANCH   1  27
BRANCH   1  51
HETATM   51  C25 UNL     1       1.469  -1.628  -1.253  1.00  0.00     0.009 C 
HETATM   52  C26 UNL     1       1.647  -3.096  -1.016  1.00  0.00     0.012 C 
HETATM   53  C27 UNL     1       2.528  -1.118  -2.164  1.00  0.00     0.012 C 
ENDBRANCH   1  51
TORSDOF 18
