REMARK  8 active torsions:
REMARK  status: ('A' for Active; 'I' for Inactive)
REMARK    1  A    between atoms: C3_5  and  C4_6 
REMARK    2  A    between atoms: C4_6  and  C5_7 
REMARK    3  A    between atoms: C5_7  and  O1_8 
REMARK    4  A    between atoms: C6_10  and  C7_11 
REMARK    5  A    between atoms: C8_12  and  C9_13 
REMARK    6  A    between atoms: C9_13  and  N2_14 
REMARK    7  A    between atoms: C12_22  and  C13_23 
REMARK    8  A    between atoms: C13_23  and  N4_24 
ROOT
HETATM    1  C9  UNL     1       4.508   2.433   0.330  1.00  0.00     0.367 C 
HETATM    2  C10 UNL     1       5.239   1.893   1.461  1.00  0.00     0.105 C 
HETATM    3  N3  UNL     1       5.809   1.452   2.360  1.00  0.00    -0.194 NA
ENDROOT
BRANCH   1   4
HETATM    4  C8  UNL     1       3.265   1.670   0.208  1.00  0.00    -0.053 C 
HETATM    5  C7  UNL     1       2.233   1.053   0.111  1.00  0.00    -0.058 C 
BRANCH   5   6
HETATM    6  C6  UNL     1       0.982   0.303  -0.005  1.00  0.00     0.091 A 
HETATM    7  C3  UNL     1       0.983  -1.045  -0.182  1.00  0.00     0.034 A 
HETATM    8  N1  UNL     1      -0.168  -1.700  -0.284  1.00  0.00    -0.358 N 
HETATM    9  C2  UNL     1      -1.381  -1.042  -0.214  1.00  0.00     0.038 A 
ATOM     10  H1  UNL     1      -0.156  -2.711  -0.417  1.00  0.00     0.166 HD
HETATM   11  C1  UNL     1      -2.420  -1.833  -0.333  1.00  0.00     0.044 C 
HETATM   12  C12 UNL     1      -1.437   0.310  -0.038  1.00  0.00     0.057 A 
HETATM   13  C11 UNL     1      -0.193   0.983   0.068  1.00  0.00     0.206 A 
HETATM   14  O2  UNL     1      -0.227   2.238   0.232  1.00  0.00    -0.286 OA
BRANCH   7  15
HETATM   15  C4  UNL     1       2.267  -1.795  -0.262  1.00  0.00     0.084 C 
BRANCH  15  16
HETATM   16  C5  UNL     1       2.015  -3.270  -0.445  1.00  0.00     0.170 C 
BRANCH  16  17
HETATM   17  O1  UNL     1       3.229  -3.959  -0.520  1.00  0.00    -0.400 OA
ATOM     18  H1  UNL     1       3.070  -4.889  -0.635  1.00  0.00     0.209 HD
ENDBRANCH  16  17
ENDBRANCH  15  16
ENDBRANCH   7  15
BRANCH  12  19
HETATM   19  C13 UNL     1      -2.520   1.000   0.038  1.00  0.00     0.102 C 
BRANCH  19  20
HETATM   20  N4  UNL     1      -3.896   0.817  -0.005  1.00  0.00    -0.398 N 
HETATM   21  C14 UNL     1      -4.625   0.918  -1.279  1.00  0.00     0.148 C 
HETATM   22  C15 UNL     1      -4.662   0.588   1.228  1.00  0.00     0.148 C 
ENDBRANCH  19  20
ENDBRANCH  12  19
ENDBRANCH   5   6
ENDBRANCH   1   4
BRANCH   1  23
HETATM   23  N2  UNL     1       4.205   3.847   0.504  1.00  0.00    -0.052 N 
ATOM     24  H23 UNL     1       3.607   4.205  -0.241  1.00  0.00     0.277 HD
ATOM     25  H22 UNL     1       3.576   4.010   1.290  1.00  0.00     0.277 HD
ATOM     26  H21 UNL     1       5.071   4.379   0.589  1.00  0.00     0.277 HD
ENDBRANCH   1  23
TORSDOF 8
