REMARK  3 active torsions:
REMARK  status: ('A' for Active; 'I' for Inactive)
REMARK       I    between atoms: N2_6  and  C5_7 
REMARK    1  A    between atoms: N5_14  and  C8_15 
REMARK    2  A    between atoms: C8_15  and  C9_16 
REMARK    3  A    between atoms: C9_16  and  N6_17 
ROOT
HETATM    1  C1  UNL     1      -2.441   3.002  -0.798  1.00  0.00     0.309 C 
HETATM    2  N1  UNL     1      -1.843   1.921  -0.029  1.00  0.00     0.086 N 
HETATM    3  C2  UNL     1      -2.639   1.636   1.120  1.00  0.00     0.273 C 
HETATM    4  C3  UNL     1      -3.401   0.337   1.025  1.00  0.00     0.050 C 
HETATM    5  C4  UNL     1      -3.342  -0.304  -0.315  1.00  0.00     0.127 C 
HETATM    6  N2  UNL     1      -2.381  -1.407  -0.390  1.00  0.00    -0.354 N 
HETATM    7  C5  UNL     1      -2.559  -2.614   0.303  1.00  0.00     0.184 C 
HETATM    8  N3  UNL     1      -3.556  -2.779   1.089  1.00  0.00    -0.374 N 
ATOM      9  H31 UNL     1      -3.685  -3.656   1.593  1.00  0.00     0.158 HD
ATOM     10  H32 UNL     1      -4.224  -2.017   1.206  1.00  0.00     0.158 HD
HETATM   11  N4  UNL     1      -1.637  -3.665   0.142  1.00  0.00    -0.064 NA
HETATM   12  C6  UNL     1      -1.202  -1.247  -1.210  1.00  0.00     0.155 C 
HETATM   13  C7  UNL     1      -0.037  -1.053  -0.262  1.00  0.00     0.292 C 
HETATM   14  N5  UNL     1       0.537   0.234  -0.575  1.00  0.00     0.093 N 
HETATM   15  C11 UNL     1       0.451   1.175   0.494  1.00  0.00     0.302 C 
HETATM   16  C12 UNL     1      -0.497   2.302   0.226  1.00  0.00     0.302 C 
ENDROOT
BRANCH  14  17
HETATM   17  C8  UNL     1       1.872   0.006  -1.060  1.00  0.00     0.292 C 
BRANCH  17  18
HETATM   18  C9  UNL     1       2.828  -0.503  -0.012  1.00  0.00     0.152 C 
BRANCH  18  19
HETATM   19  N6  UNL     1       4.114  -0.690  -0.615  1.00  0.00    -0.365 N 
HETATM   20  C10 UNL     1       5.232  -0.246  -0.201  1.00  0.00     0.197 C 
HETATM   21  N7  UNL     1       5.296   0.532   0.984  1.00  0.00    -0.067 NA
HETATM   22  N8  UNL     1       6.406  -0.536  -0.935  1.00  0.00    -0.067 NA
ATOM     23  H6  UNL     1       4.136  -1.241  -1.473  1.00  0.00     0.161 HD
ENDBRANCH  18  19
ENDBRANCH  17  18
ENDBRANCH  14  17
TORSDOF 3
