REMARK  6 active torsions:
REMARK  status: ('A' for Active; 'I' for Inactive)
REMARK       I    between atoms: N2_3  and  C2_5 
REMARK       I    between atoms: C2_5  and  N7_20 
REMARK    1  A    between atoms: N3_6  and  C3_8 
REMARK    2  A    between atoms: C4_9  and  C5_10 
REMARK    3  A    between atoms: C5_10  and  N4_11 
REMARK    4  A    between atoms: N4_11  and  C6_14 
REMARK    5  A    between atoms: C6_14  and  N5_15 
REMARK    6  A    between atoms: C10_24  and  O1_25 
ROOT
HETATM    1  N1  UNL     1      -0.145   1.735  -3.637  1.00  0.00    -0.171 NA
HETATM    2  C1  UNL     1      -0.049   1.565  -2.495  1.00  0.00     0.196 C 
HETATM    3  N2  UNL     1       0.064   1.384  -1.104  1.00  0.00    -0.125 N 
ATOM      4  H2  UNL     1       0.303   2.158  -0.484  1.00  0.00     0.197 HD
HETATM    5  C2  UNL     1      -0.168   0.086  -0.604  1.00  0.00     0.697 C 
HETATM    6  N3  UNL     1       0.799  -0.753  -0.607  1.00  0.00    -0.148 N 
ATOM      7  H3  UNL     1       0.614  -1.687  -0.242  1.00  0.00     0.195 HD
HETATM    8  N7  UNL     1      -1.411  -0.273  -0.119  1.00  0.00    -0.207 N 
HETATM    9  C7  UNL     1      -2.289  -1.148  -0.978  1.00  0.00     0.221 C 
HETATM   10  C8  UNL     1      -3.595  -1.110  -0.429  1.00  0.00    -0.160 C 
HETATM   11  C9  UNL     1      -4.777  -0.907   0.302  1.00  0.00     0.113 C 
HETATM   12  C10 UNL     1      -4.455   0.031   1.514  1.00  0.00     0.130 C 
HETATM   13  C11 UNL     1      -3.180   0.827   1.303  1.00  0.00     0.053 C 
HETATM   14  C12 UNL     1      -1.877   0.178   1.208  1.00  0.00     0.145 C 
ENDROOT
BRANCH   6  15
HETATM   15  C3  UNL     1       2.091  -0.483  -1.074  1.00  0.00     0.027 C 
HETATM   16  C4  UNL     1       3.210  -0.261  -1.465  1.00  0.00    -0.055 C 
BRANCH  16  17
HETATM   17  C5  UNL     1       4.594   0.005  -1.922  1.00  0.00     0.329 C 
BRANCH  17  18
HETATM   18  N4  UNL     1       5.527  -0.450  -0.900  1.00  0.00    -0.048 N 
ATOM     19  H42 UNL     1       5.413  -1.438  -0.674  1.00  0.00     0.280 HD
ATOM     20  H41 UNL     1       6.489  -0.497  -1.237  1.00  0.00     0.280 HD
BRANCH  18  21
HETATM   21  C6  UNL     1       5.378   0.419   0.268  1.00  0.00     0.371 C 
BRANCH  21  22
HETATM   22  N5  UNL     1       6.268   0.032   1.316  1.00  0.00    -0.318 N 
HETATM   23  N6  UNL     1       6.658   0.895   2.145  1.00  0.00    -0.348 N 
ATOM     24  H62 UNL     1       6.332   1.857   2.055  1.00  0.00     0.176 HD
ATOM     25  H61 UNL     1       7.294   0.619   2.893  1.00  0.00     0.176 HD
ATOM     26  H5  UNL     1       6.585  -0.935   1.392  1.00  0.00     0.181 HD
ENDBRANCH  21  22
ENDBRANCH  18  21
ENDBRANCH  17  18
ENDBRANCH  16  17
ENDBRANCH   6  15
BRANCH  12  27
HETATM   27  O1  UNL     1      -4.232  -0.811   2.585  1.00  0.00    -0.395 OA
ATOM     28  H1  UNL     1      -4.037  -0.242   3.320  1.00  0.00     0.210 HD
ENDBRANCH  12  27
TORSDOF 6
