REMARK  6 active torsions:
REMARK  status: ('A' for Active; 'I' for Inactive)
REMARK    1  A    between atoms: C3_3  and  N1_4 
REMARK    2  A    between atoms: N1_4  and  C4_6 
REMARK    3  A    between atoms: C5_9  and  N3_10 
REMARK    4  A    between atoms: C7_15  and  N5_16 
REMARK    5  A    between atoms: N5_16  and  C8_18 
REMARK    6  A    between atoms: C8_18  and  C9_19 
REMARK       I    between atoms: C9_19  and  N6_21 
ROOT
HETATM    1  C1  UNL     1       6.760   3.298  -0.165  1.00  0.00     0.014 C 
HETATM    2  C2  UNL     1       6.060   2.345  -0.010  1.00  0.00    -0.097 C 
HETATM    3  C3  UNL     1       5.215   1.174   0.155  1.00  0.00     0.231 C 
ENDROOT
BRANCH   3   4
HETATM    4  N1  UNL     1       3.842   1.491  -0.159  1.00  0.00    -0.215 N 
ATOM      5  H1  UNL     1       3.592   2.437  -0.446  1.00  0.00     0.178 HD
BRANCH   4   6
HETATM    6  C4  UNL     1       2.925   0.576  -0.077  1.00  0.00     0.708 A 
HETATM    7  N2  UNL     1       3.256  -0.673   0.303  1.00  0.00    -0.022 N 
HETATM    8  C5  UNL     1       2.338  -1.647   0.400  1.00  0.00     0.706 A 
ATOM      9  H2  UNL     1       4.229  -0.884   0.523  1.00  0.00     0.203 HD
HETATM   10  N4  UNL     1       1.062  -1.348   0.107  1.00  0.00    -0.022 N 
HETATM   11  C7  UNL     1       0.667  -0.108  -0.282  1.00  0.00     0.707 A 
ATOM     12  H4  UNL     1       0.359  -2.084   0.180  1.00  0.00     0.203 HD
HETATM   13  N7  UNL     1       1.639   0.828  -0.360  1.00  0.00    -0.021 N 
ATOM     14  H7  UNL     1       1.382   1.772  -0.648  1.00  0.00     0.203 HD
BRANCH   8  15
HETATM   15  N3  UNL     1       2.736  -2.814   0.770  1.00  0.00    -0.229 N 
HETATM   16  C6  UNL     1       1.739  -3.857   0.872  1.00  0.00     0.165 C 
ATOM     17  H3  UNL     1       3.717  -2.996   0.983  1.00  0.00     0.177 HD
ENDBRANCH   8  15
BRANCH  11  18
HETATM   18  N5  UNL     1      -0.567   0.124  -0.551  1.00  0.00    -0.216 N 
ATOM     19  H5  UNL     1      -1.264  -0.617  -0.477  1.00  0.00     0.178 HD
BRANCH  18  20
HETATM   20  C8  UNL     1      -0.941   1.433  -0.954  1.00  0.00     0.240 C 
BRANCH  20  21
HETATM   21  C9  UNL     1      -2.376   1.697  -1.089  1.00  0.00     0.238 C 
HETATM   22  O1  UNL     1      -2.698   2.878  -1.461  1.00  0.00    -0.272 OA
HETATM   23  N6  UNL     1      -3.435   0.788  -0.853  1.00  0.00    -0.351 N 
HETATM   24  C10 UNL     1      -4.824   1.082  -1.020  1.00  0.00     0.126 C 
HETATM   25  C13 UNL     1      -3.289  -0.562  -0.411  1.00  0.00     0.126 C 
HETATM   26  C11 UNL     1      -5.498   0.252   0.037  1.00  0.00     0.021 C 
HETATM   27  C12 UNL     1      -4.723  -1.068  -0.159  1.00  0.00     0.021 C 
ENDBRANCH  20  21
ENDBRANCH  18  20
ENDBRANCH  11  18
ENDBRANCH   4   6
ENDBRANCH   3   4
TORSDOF 6
