REMARK  5 active torsions:
REMARK  status: ('A' for Active; 'I' for Inactive)
REMARK    1  A    between atoms: N1_2  and  S1_4 
REMARK    2  A    between atoms: S1_4  and  N2_7 
REMARK    3  A    between atoms: N2_7  and  C2_9 
REMARK    4  A    between atoms: C3_14  and  N5_15 
REMARK    5  A    between atoms: N5_15  and  S2_17 
ROOT
HETATM    1  C2  UNL     1      -0.427  -1.028  -0.131  1.00  0.00     0.722 A 
HETATM    2  N3  UNL     1      -0.181  -0.404   1.017  1.00  0.00    -0.116 N 
ATOM      3  H3  UNL     1      -0.870  -0.128   1.717  1.00  0.00     0.206 HD
HETATM    4  N4  UNL     1       1.121  -0.209   1.080  1.00  0.00    -0.117 N 
ATOM      5  H4  UNL     1       1.608   0.249   1.850  1.00  0.00     0.206 HD
HETATM    6  C3  UNL     1       1.711  -0.703  -0.020  1.00  0.00     0.721 A 
HETATM    7  N6  UNL     1       0.727  -1.215  -0.772  1.00  0.00    -0.018 N 
ATOM      8  H6  UNL     1       0.841  -1.669  -1.678  1.00  0.00     0.203 HD
ENDROOT
BRANCH   1   9
HETATM    9  N2  UNL     1      -1.572  -1.416  -0.605  1.00  0.00    -0.098 N 
ATOM     10  H2  UNL     1      -1.598  -1.886  -1.510  1.00  0.00     0.199 HD
BRANCH   9  11
HETATM   11  S1  UNL     1      -3.050  -1.161   0.248  1.00  0.00     0.332 S 
HETATM   12  O1  UNL     1      -4.157  -1.979  -0.314  1.00  0.00    -0.182 OA
HETATM   13  O2  UNL     1      -2.848  -1.567   1.693  1.00  0.00    -0.182 OA
BRANCH  11  14
HETATM   14  N1  UNL     1      -3.524   0.495   0.243  1.00  0.00    -0.307 N 
HETATM   15  C1  UNL     1      -4.355   0.726  -0.918  1.00  0.00     0.161 C 
ATOM     16  H1  UNL     1      -3.263   1.193   0.939  1.00  0.00     0.173 HD
ENDBRANCH  11  14
ENDBRANCH   9  11
ENDBRANCH   1   9
BRANCH   6  17
HETATM   17  N5  UNL     1       2.988  -0.693  -0.309  1.00  0.00    -0.115 N 
ATOM     18  H5  UNL     1       3.330  -1.100  -1.179  1.00  0.00     0.197 HD
BRANCH  17  19
HETATM   19  S2  UNL     1       4.081   0.028   0.822  1.00  0.00     0.240 S 
HETATM   20  C4  UNL     1       3.725   1.750   0.922  1.00  0.00     0.186 C 
HETATM   21  O3  UNL     1       3.897  -0.681   2.135  1.00  0.00    -0.206 OA
HETATM   22  O4  UNL     1       5.498  -0.198   0.316  1.00  0.00    -0.206 OA
ENDBRANCH  17  19
ENDBRANCH   6  17
TORSDOF 5
