REMARK  5 active torsions:
REMARK  status: ('A' for Active; 'I' for Inactive)
REMARK    1  A    between atoms: C2_2  and  N1_3 
REMARK    2  A    between atoms: C2_2  and  C14_18 
REMARK       I    between atoms: N1_3  and  C3_5 
REMARK    3  A    between atoms: C3_5  and  C4_7 
REMARK    4  A    between atoms: N2_10  and  C7_11 
REMARK       I    between atoms: C14_18  and  N3_20 
REMARK    5  A    between atoms: N3_20  and  C15_22 
ROOT
HETATM    1  N1  UNL     1       2.080  -0.404   1.874  1.00  0.00    -0.348 N 
ATOM      2  H1  UNL     1       2.119   0.462   2.411  1.00  0.00     0.163 HD
HETATM    3  C3  UNL     1       0.926  -0.769   0.878  1.00  0.00     0.224 C 
HETATM    4  O1  UNL     1       1.062  -1.787   0.415  1.00  0.00    -0.273 OA
ENDROOT
BRANCH   3   5
HETATM    5  C4  UNL     1       0.018   0.429   0.902  1.00  0.00     0.107 C 
HETATM    6  C5  UNL     1      -0.004   0.832  -0.591  1.00  0.00     0.046 C 
HETATM    7  C6  UNL     1      -1.413   1.226  -0.846  1.00  0.00     0.273 C 
HETATM    8  N2  UNL     1      -2.198   0.569   0.136  1.00  0.00     0.094 N 
HETATM    9  C13 UNL     1      -1.388   0.005   1.168  1.00  0.00     0.287 C 
BRANCH   8  10
HETATM   10  C7  UNL     1      -3.182  -0.346  -0.410  1.00  0.00     0.226 C 
HETATM   11  C8  UNL     1      -4.186  -0.655   0.687  1.00  0.00     0.036 C 
HETATM   12  C9  UNL     1      -5.027   0.586   0.795  1.00  0.00     0.002 C 
HETATM   13  C10 UNL     1      -4.638   1.469  -0.390  1.00  0.00     0.006 C 
HETATM   14  C11 UNL     1      -4.067   0.426  -1.360  1.00  0.00     0.015 C 
HETATM   15  C12 UNL     1      -5.137  -0.412  -1.982  1.00  0.00     0.012 C 
ENDBRANCH   8  10
ENDBRANCH   3   5
BRANCH   1  16
HETATM   16  C2  UNL     1       3.072  -1.432   1.939  1.00  0.00     0.172 C 
HETATM   17  C1  UNL     1       3.395  -1.694   3.406  1.00  0.00     0.042 C 
BRANCH  16  18
HETATM   18  C14 UNL     1       4.246  -0.911   1.206  1.00  0.00     0.240 C 
HETATM   19  O2  UNL     1       5.311  -0.711   1.899  1.00  0.00    -0.271 OA
HETATM   20  N3  UNL     1       4.263  -0.619  -0.147  1.00  0.00    -0.355 N 
ATOM     21  H3  UNL     1       3.439  -0.755  -0.732  1.00  0.00     0.162 HD
BRANCH  20  22
HETATM   22  C15 UNL     1       5.539  -0.098  -0.708  1.00  0.00     0.084 A 
HETATM   23  C16 UNL     1       5.375   1.402  -1.036  1.00  0.00     0.027 A 
HETATM   24  C17 UNL     1       5.522   0.336  -2.103  1.00  0.00     0.027 A 
ENDBRANCH  20  22
ENDBRANCH  16  18
ENDBRANCH   1  16
TORSDOF 5
