REMARK  6 active torsions:
REMARK  status: ('A' for Active; 'I' for Inactive)
REMARK    1  A    between atoms: C2_2  and  C3_3 
REMARK    2  A    between atoms: C3_3  and  C4_4 
REMARK    3  A    between atoms: C4_4  and  O1_5 
REMARK    4  A    between atoms: N1_9  and  C7_10 
REMARK    5  A    between atoms: N3_18  and  C11_19 
REMARK    6  A    between atoms: C11_19  and  C12_20 
ROOT
HETATM    1  C7  UNL     1      -0.516  -0.407  -0.313  1.00  0.00     0.266 C 
HETATM    2  C8  UNL     1      -0.987  -1.072  -1.582  1.00  0.00     0.270 C 
HETATM    3  N2  UNL     1      -0.864  -2.526  -1.478  1.00  0.00    -0.065 N 
ATOM      4  H21 UNL     1       0.111  -2.826  -1.488  1.00  0.00     0.277 HD
ATOM      5  H22 UNL     1      -1.176  -2.995  -2.328  1.00  0.00     0.277 HD
HETATM    6  C9  UNL     1      -1.569  -3.013  -0.300  1.00  0.00     0.334 C 
HETATM    7  C10 UNL     1      -2.739  -2.121  -0.079  1.00  0.00     0.245 C 
HETATM    8  O2  UNL     1      -3.851  -2.672  -0.314  1.00  0.00    -0.272 OA
HETATM    9  N3  UNL     1      -2.799  -0.772   0.348  1.00  0.00    -0.348 N 
HETATM   10  C15 UNL     1      -1.726   0.190   0.373  1.00  0.00     0.163 C 
ENDROOT
BRANCH   1  11
HETATM   11  N1  UNL     1       0.545   0.514  -0.562  1.00  0.00     0.096 N 
HETATM   12  C6  UNL     1       1.687  -0.217  -1.071  1.00  0.00     0.276 C 
HETATM   13  C5  UNL     1       2.823   0.717  -1.439  1.00  0.00     0.068 C 
HETATM   14  C4  UNL     1       3.325   1.376  -0.193  1.00  0.00     0.061 C 
HETATM   15  C17 UNL     1       2.351   1.206   0.950  1.00  0.00     0.068 C 
HETATM   16  C16 UNL     1       0.914   1.367   0.512  1.00  0.00     0.276 C 
BRANCH  14  17
HETATM   17  C3  UNL     1       4.701   0.974   0.199  1.00  0.00     0.037 C 
BRANCH  17  18
HETATM   18  C2  UNL     1       4.873  -0.477   0.501  1.00  0.00    -0.002 C 
HETATM   19  C1  UNL     1       6.305  -0.774   0.885  1.00  0.00     0.005 C 
ENDBRANCH  17  18
ENDBRANCH  14  17
BRANCH  14  20
HETATM   20  O1  UNL     1       3.360   2.770  -0.439  1.00  0.00    -0.390 OA
ATOM     21  H1  UNL     1       2.480   3.027  -0.690  1.00  0.00     0.210 HD
ENDBRANCH  14  20
ENDBRANCH   1  11
BRANCH   9  22
HETATM   22  C11 UNL     1      -4.074  -0.302   0.830  1.00  0.00     0.129 C 
BRANCH  22  23
HETATM   23  C12 UNL     1      -4.979   0.261  -0.215  1.00  0.00    -0.005 C 
HETATM   24  C13 UNL     1      -6.270   0.699   0.480  1.00  0.00     0.011 C 
HETATM   25  C14 UNL     1      -4.446   1.480  -0.920  1.00  0.00     0.011 C 
ENDBRANCH  22  23
ENDBRANCH   9  22
TORSDOF 6
