REMARK  7 active torsions:
REMARK  status: ('A' for Active; 'I' for Inactive)
REMARK    1  A    between atoms: C3_3  and  C4_4 
REMARK    2  A    between atoms: C5_5  and  C6_6 
REMARK    3  A    between atoms: C6_6  and  C13_14 
REMARK    4  A    between atoms: C7_7  and  N1_8 
REMARK    5  A    between atoms: C13_14  and  O1_15 
REMARK    6  A    between atoms: C13_14  and  C14_17 
REMARK       I    between atoms: C14_17  and  N2_19 
REMARK    7  A    between atoms: N2_19  and  C15_21 
ROOT
HETATM    1  C1  UNL     1       1.611   3.702  -5.371  1.00  0.00     0.112 C 
HETATM    2  C2  UNL     1       1.126   2.978  -4.201  1.00  0.00    -0.106 C 
HETATM    3  C3  UNL     1       0.737   2.391  -3.222  1.00  0.00    -0.079 C 
ENDROOT
BRANCH   3   4
HETATM    4  C4  UNL     1       0.263   1.663  -2.055  1.00  0.00     0.065 C 
HETATM    5  C5  UNL     1      -0.235   0.467  -2.136  1.00  0.00     0.020 C 
BRANCH   5   6
HETATM    6  C6  UNL     1      -0.707  -0.262  -0.986  1.00  0.00    -0.005 C 
HETATM    7  C7  UNL     1      -1.207  -1.493  -1.219  1.00  0.00     0.096 C 
BRANCH   7   8
HETATM    8  N1  UNL     1      -1.705  -2.315  -0.167  1.00  0.00    -0.385 N 
HETATM    9  C8  UNL     1      -0.922  -3.251   0.617  1.00  0.00     0.122 C 
HETATM   10  C9  UNL     1      -1.813  -4.463   0.694  1.00  0.00     0.022 C 
HETATM   11  C10 UNL     1      -3.211  -3.930   0.466  1.00  0.00     0.026 C 
HETATM   12  C11 UNL     1      -3.055  -2.415   0.356  1.00  0.00     0.079 C 
HETATM   13  C12 UNL     1      -4.063  -1.947  -0.677  1.00  0.00     0.032 C 
ENDBRANCH   7   8
BRANCH   6  14
HETATM   14  C13 UNL     1      -0.674   0.198   0.387  1.00  0.00     0.244 C 
BRANCH  14  15
HETATM   15  O1  UNL     1      -1.417   1.392   0.547  1.00  0.00    -0.381 OA
ATOM     16  H1  UNL     1      -1.395   1.694   1.448  1.00  0.00     0.211 HD
ENDBRANCH  14  15
BRANCH  14  17
HETATM   17  C14 UNL     1       0.642   0.437   0.985  1.00  0.00     0.251 C 
HETATM   18  O2  UNL     1       1.483  -0.515   0.842  1.00  0.00    -0.270 OA
HETATM   19  N2  UNL     1       1.071   1.571   1.687  1.00  0.00    -0.350 N 
ATOM     20  H2  UNL     1       0.419   2.344   1.816  1.00  0.00     0.163 HD
BRANCH  19  21
HETATM   21  C15 UNL     1       2.405   1.686   2.236  1.00  0.00     0.022 C 
HETATM   22  C16 UNL     1       3.386   1.579   1.089  1.00  0.00     0.037 C 
HETATM   23  C17 UNL     1       2.615   3.025   2.890  1.00  0.00     0.037 C 
HETATM   24  C18 UNL     1       2.677   0.626   3.282  1.00  0.00     0.037 C 
ENDBRANCH  19  21
ENDBRANCH  14  17
ENDBRANCH   6  14
ENDBRANCH   5   6
ENDBRANCH   3   4
TORSDOF 7
