REMARK  2 active torsions:
REMARK  status: ('A' for Active; 'I' for Inactive)
REMARK    1  A    between atoms: C2_2  and  N1_3 
REMARK    2  A    between atoms: C2_2  and  C9_13 
REMARK       I    between atoms: N1_3  and  C3_5 
REMARK       I    between atoms: C3_5  and  N2_7 
ROOT
HETATM    1  N1  UNL     1      -0.257  -0.170   0.273  1.00  0.00    -0.338 N 
ATOM      2  H1  UNL     1      -0.458   0.826   0.186  1.00  0.00     0.164 HD
HETATM    3  C3  UNL     1      -1.304  -1.096   0.132  1.00  0.00     0.318 C 
HETATM    4  O1  UNL     1      -1.038  -2.320   0.243  1.00  0.00    -0.247 OA
HETATM    5  N2  UNL     1      -2.609  -0.703  -0.125  1.00  0.00    -0.334 N 
HETATM    6  C4  UNL     1      -3.687  -1.674  -0.256  1.00  0.00     0.127 C 
HETATM    7  C5  UNL     1      -4.900  -1.099   0.443  1.00  0.00     0.020 C 
HETATM    8  C6  UNL     1      -4.544  -0.098   1.518  1.00  0.00     0.003 C 
HETATM    9  C7  UNL     1      -3.741   1.067   0.989  1.00  0.00     0.020 C 
HETATM   10  C8  UNL     1      -2.983   0.673  -0.276  1.00  0.00     0.127 C 
ENDROOT
BRANCH   1  11
HETATM   11  C2  UNL     1       1.130  -0.605   0.544  1.00  0.00     0.086 C 
HETATM   12  C1  UNL     1       1.586  -0.101   1.867  1.00  0.00     0.032 C 
BRANCH  11  13
HETATM   13  C9  UNL     1       2.019  -0.231  -0.610  1.00  0.00     0.008 C 
HETATM   14  C10 UNL     1       3.397  -0.797  -0.369  1.00  0.00     0.007 C 
HETATM   15  C11 UNL     1       4.391  -0.341  -1.410  1.00  0.00     0.000 C 
HETATM   16  C12 UNL     1       4.419   1.153  -1.565  1.00  0.00     0.000 C 
HETATM   17  C13 UNL     1       3.406   1.863  -0.726  1.00  0.00     0.000 C 
HETATM   18  C14 UNL     1       2.036   1.220  -0.930  1.00  0.00     0.007 C 
ENDBRANCH  11  13
ENDBRANCH   1  11
TORSDOF 2
