REMARK  2 active torsions:
REMARK  status: ('A' for Active; 'I' for Inactive)
REMARK    1  A    between atoms: C2_2  and  N1_5 
REMARK    2  A    between atoms: N1_5  and  C4_7 
ROOT
HETATM    1  C4  UNL     1      -0.615  -0.281  -0.719  1.00  0.00     0.086 C 
HETATM    2  C5  UNL     1       0.541   0.465  -1.366  1.00  0.00     0.009 C 
HETATM    3  C6  UNL     1       1.575  -0.469  -1.914  1.00  0.00     0.011 C 
HETATM    4  C7  UNL     1       2.173  -1.225  -0.753  1.00  0.00    -0.014 C 
HETATM    5  C8  UNL     1       3.218  -0.395  -0.035  1.00  0.00     0.005 C 
HETATM    6  C9  UNL     1       2.689   0.319   1.168  1.00  0.00     0.005 C 
HETATM    7  C10 UNL     1       1.359   0.971   0.970  1.00  0.00    -0.014 C 
HETATM    8  C11 UNL     1       1.107   1.478  -0.409  1.00  0.00     0.011 C 
HETATM    9  C12 UNL     1       0.299   0.044   1.495  1.00  0.00     0.011 C 
HETATM   10  C13 UNL     1      -0.037  -1.016   0.454  1.00  0.00     0.009 C 
HETATM   11  C14 UNL     1       1.167  -1.833   0.159  1.00  0.00     0.011 C 
ENDROOT
BRANCH   1  12
HETATM   12  N1  UNL     1      -1.531   0.727  -0.256  1.00  0.00    -0.396 N 
ATOM     13  H1  UNL     1      -1.212   1.634   0.084  1.00  0.00     0.155 HD
BRANCH  12  14
HETATM   14  C2  UNL     1      -2.909   0.378  -0.302  1.00  0.00     0.096 C 
HETATM   15  C1  UNL     1      -3.261  -0.872   0.456  1.00  0.00     0.055 C 
HETATM   16  C3  UNL     1      -3.661   1.515   0.419  1.00  0.00     0.055 C 
HETATM   17 CL1  UNL     1      -3.599   0.274  -1.922  1.00  0.00    -0.097 Cl
ENDBRANCH  12  14
ENDBRANCH   1  12
TORSDOF 2
