REMARK  2 active torsions:
REMARK  status: ('A' for Active; 'I' for Inactive)
REMARK    1  A    between atoms: C8_8  and  O1_9 
REMARK    2  A    between atoms: C10_12  and  N1_13 
ROOT
HETATM    1  C1  UNL     1      -1.152   2.790   0.214  1.00  0.00     0.015 C 
HETATM    2  C2  UNL     1      -1.402   1.494   0.065  1.00  0.00    -0.084 C 
HETATM    3  C3  UNL     1      -2.639   1.064  -0.636  1.00  0.00     0.034 C 
HETATM    4  C4  UNL     1      -3.188  -0.230  -0.147  1.00  0.00     0.005 C 
HETATM    5  C5  UNL     1      -2.197  -1.108   0.547  1.00  0.00     0.012 C 
HETATM    6  C6  UNL     1      -0.765  -0.841   0.115  1.00  0.00    -0.011 C 
HETATM    7  C7  UNL     1      -0.580  -1.010  -1.353  1.00  0.00     0.018 C 
HETATM    8  C8  UNL     1       0.121  -1.778   0.935  1.00  0.00     0.128 C 
HETATM    9  C9  UNL     1       1.571  -1.508   0.760  1.00  0.00     0.053 C 
HETATM   10  C10 UNL     1       1.932  -0.218   0.138  1.00  0.00     0.077 C 
HETATM   11  C12 UNL     1       1.002   0.915   0.384  1.00  0.00     0.031 C 
HETATM   12  C13 UNL     1      -0.416   0.544   0.614  1.00  0.00     0.026 C 
ENDROOT
BRANCH  10  13
HETATM   13  N1  UNL     1       3.292   0.127   0.525  1.00  0.00    -0.228 NA
HETATM   14  C11 UNL     1       3.737   1.365  -0.029  1.00  0.00     0.131 C 
HETATM   15 CL1  UNL     1       3.574  -0.030   2.213  1.00  0.00    -0.022 Cl
ENDBRANCH  10  13
BRANCH   8  16
HETATM   16  O1  UNL     1      -0.227  -3.104   0.659  1.00  0.00    -0.395 OA
ATOM     17  H1  UNL     1       0.324  -3.686   1.169  1.00  0.00     0.210 HD
ENDBRANCH   8  16
TORSDOF 2
