REMARK  4 active torsions:
REMARK  status: ('A' for Active; 'I' for Inactive)
REMARK    1  A    between atoms: C2_2  and  N1_5 
REMARK    2  A    between atoms: N1_5  and  C5_7 
REMARK    3  A    between atoms: C10_12  and  C11_13 
REMARK    4  A    between atoms: C12_14  and  C13_15 
ROOT
HETATM    1  C5  UNL     1      -0.312  -0.322   0.147  1.00  0.00     0.079 C 
HETATM    2  C6  UNL     1      -0.517  -1.577  -0.600  1.00  0.00     0.025 C 
HETATM    3  C7  UNL     1       0.728  -2.408  -0.788  1.00  0.00     0.008 C 
HETATM    4  C8  UNL     1       2.013  -1.678  -0.678  1.00  0.00     0.008 A 
HETATM    5  C9  UNL     1       2.843  -1.990   0.578  1.00  0.00     0.029 A 
HETATM    6  C10 UNL     1       2.144  -0.686   0.409  1.00  0.00     0.029 A 
HETATM    7  C14 UNL     1       0.858  -0.533   1.131  1.00  0.00     0.047 C 
ENDROOT
BRANCH   1   8
HETATM    8  N1  UNL     1      -1.360   0.226   0.891  1.00  0.00    -0.409 N 
ATOM      9  H1  UNL     1      -1.264   0.305   1.903  1.00  0.00     0.154 HD
BRANCH   8  10
HETATM   10  C2  UNL     1      -2.545   0.672   0.275  1.00  0.00     0.015 C 
HETATM   11  C1  UNL     1      -3.396  -0.365  -0.405  1.00  0.00     0.037 C 
HETATM   12  C3  UNL     1      -2.269   1.775  -0.743  1.00  0.00     0.037 C 
HETATM   13  C4  UNL     1      -3.401   1.329   1.344  1.00  0.00     0.037 C 
ENDBRANCH   8  10
ENDBRANCH   1   8
BRANCH   6  14
HETATM   14  C11 UNL     1       2.990   0.475   0.102  1.00  0.00    -0.095 C 
HETATM   15  C12 UNL     1       3.683   1.416  -0.172  1.00  0.00    -0.091 C 
BRANCH  15  16
HETATM   16  C13 UNL     1       4.548   2.552  -0.523  1.00  0.00     0.208 C 
HETATM   17 CL1  UNL     1       3.841   4.048   0.076  1.00  0.00    -0.117 Cl
ENDBRANCH  15  16
ENDBRANCH   6  14
TORSDOF 4
