REMARK  2 active torsions:
REMARK  status: ('A' for Active; 'I' for Inactive)
REMARK    1  A    between atoms: C5_6  and  O1_7 
REMARK    2  A    between atoms: C5_6  and  C6_9 
ROOT
HETATM    1  C1  UNL     1      -1.155  -3.383  -1.563  1.00  0.00     0.014 C 
HETATM    2  C2  UNL     1      -0.820  -2.550  -0.737  1.00  0.00    -0.090 C 
HETATM    3  C3  UNL     1      -0.414  -1.566   0.274  1.00  0.00     0.109 C 
HETATM    4 CL1  UNL     1      -0.083  -2.448   1.768  1.00  0.00    -0.104 Cl
HETATM    5  C4  UNL     1       0.858  -0.918  -0.222  1.00  0.00     0.078 C 
HETATM    6  C5  UNL     1       1.244   0.296   0.565  1.00  0.00     0.067 C 
HETATM    7  C8  UNL     1       0.132   1.276   0.690  1.00  0.00     0.049 C 
HETATM    8  C9  UNL     1      -1.037   0.567   1.348  1.00  0.00     0.024 C 
HETATM    9  C10 UNL     1      -1.521  -0.545   0.450  1.00  0.00    -0.010 C 
HETATM   10  C11 UNL     1      -2.668  -1.227   1.198  1.00  0.00     0.018 C 
HETATM   11  C12 UNL     1      -1.946  -0.049  -0.886  1.00  0.00     0.016 C 
HETATM   12  C13 UNL     1      -1.544   1.328  -1.252  1.00  0.00     0.034 C 
HETATM   13  C14 UNL     1      -0.364   1.874  -0.546  1.00  0.00    -0.082 C 
HETATM   14  C15 UNL     1       0.217   2.926  -1.073  1.00  0.00     0.015 C 
ENDROOT
BRANCH   6  15
HETATM   15  O1  UNL     1       1.558  -0.088   1.896  1.00  0.00    -0.389 OA
ATOM     16  H1  UNL     1       1.803   0.682   2.395  1.00  0.00     0.210 HD
ENDBRANCH   6  15
BRANCH   6  17
HETATM   17  C6  UNL     1       2.459   0.912  -0.059  1.00  0.00     0.034 C 
HETATM   18  C7  UNL     1       3.624  -0.074  -0.056  1.00  0.00     0.008 C 
ENDBRANCH   6  17
TORSDOF 2
