REMARK  2 active torsions:
REMARK  status: ('A' for Active; 'I' for Inactive)
REMARK    1  A    between atoms: O1_2  and  C2_3 
REMARK       I    between atoms: C2_3  and  N1_5 
REMARK    2  A    between atoms: N1_5  and  C3_7 
ROOT
HETATM    1  C3  UNL     1       1.147  -0.325  -0.592  1.00  0.00     0.091 C 
HETATM    2  C4  UNL     1       0.822  -1.654  -1.211  1.00  0.00     0.026 C 
HETATM    3  C5  UNL     1      -0.552  -1.762  -1.761  1.00  0.00     0.003 C 
HETATM    4  C6  UNL     1      -1.512  -0.726  -1.283  1.00  0.00     0.010 C 
HETATM    5  C7  UNL     1      -1.257  -0.348   0.140  1.00  0.00    -0.032 C 
HETATM    6  C8  UNL     1      -1.534  -1.535   1.047  1.00  0.00     0.016 C 
HETATM    7  C9  UNL     1       0.113   0.183   0.351  1.00  0.00     0.017 C 
HETATM    8  C10 UNL     1      -0.027   1.690   0.204  1.00  0.00     0.008 C 
HETATM    9  C11 UNL     1      -1.462   2.022   0.501  1.00  0.00     0.010 C 
HETATM   10  C12 UNL     1      -2.231   0.749   0.513  1.00  0.00    -0.040 C 
HETATM   11  C13 UNL     1      -2.796   0.535   1.919  1.00  0.00     0.015 C 
HETATM   12  C14 UNL     1      -3.415   0.798  -0.421  1.00  0.00     0.015 C 
ENDROOT
BRANCH   1  13
HETATM   13  N1  UNL     1       2.389  -0.475   0.140  1.00  0.00    -0.332 N 
HETATM   14  C2  UNL     1       3.550   0.265  -0.208  1.00  0.00     0.360 C 
HETATM   15  O2  UNL     1       3.542   1.078  -1.165  1.00  0.00    -0.239 OA
ATOM     16  H1  UNL     1       2.430  -1.127   0.923  1.00  0.00     0.165 HD
BRANCH  14  17
HETATM   17  O1  UNL     1       4.738   0.123   0.490  1.00  0.00    -0.309 OA
HETATM   18  C1  UNL     1       5.917   0.841   0.176  1.00  0.00     0.215 C 
ENDBRANCH  14  17
ENDBRANCH   1  13
TORSDOF 2
