REMARK  1 active torsions:
REMARK  status: ('A' for Active; 'I' for Inactive)
REMARK    1  A    between atoms: N1_1  and  C1_4 
ROOT
HETATM    1  C1  UNL     1      -2.178  -0.383   0.123  1.00  0.00     0.679 A 
HETATM    2  N2  UNL     1      -1.991   0.931  -0.101  1.00  0.00    -0.154 N 
ATOM      3  H2  UNL     1      -2.813   1.530  -0.179  1.00  0.00     0.187 HD
HETATM    4  C2  UNL     1      -0.780   1.495  -0.227  1.00  0.00     0.289 A 
HETATM    5  O1  UNL     1      -0.604   2.721  -0.435  1.00  0.00    -0.265 OA
HETATM    6  C3  UNL     1       0.334   0.690  -0.123  1.00  0.00     0.138 A 
HETATM    7  N3  UNL     1       1.567   1.228  -0.246  1.00  0.00    -0.302 N 
ATOM      8  H3  UNL     1       1.691   2.226  -0.415  1.00  0.00     0.171 HD
HETATM    9  C4  UNL     1       2.628   0.405  -0.138  1.00  0.00     0.327 A 
HETATM   10  O2  UNL     1       3.789   0.864  -0.246  1.00  0.00    -0.247 OA
HETATM   11  N4  UNL     1       2.503  -0.911   0.083  1.00  0.00    -0.274 N 
ATOM     12  H4  UNL     1       3.331  -1.502   0.158  1.00  0.00     0.173 HD
HETATM   13  C5  UNL     1       1.273  -1.445   0.205  1.00  0.00     0.279 A 
HETATM   14  O3  UNL     1       1.067  -2.669   0.414  1.00  0.00    -0.265 OA
HETATM   15  C6  UNL     1       0.123  -0.656   0.105  1.00  0.00     0.149 A 
HETATM   16  N5  UNL     1      -1.106  -1.194   0.228  1.00  0.00    -0.184 N 
ATOM     17  H5  UNL     1      -1.223  -2.193   0.397  1.00  0.00     0.184 HD
ENDROOT
BRANCH   1  18
HETATM   18  N1  UNL     1      -3.377  -0.891   0.239  1.00  0.00    -0.234 N 
ATOM     19  H12 UNL     1      -4.188  -0.277   0.160  1.00  0.00     0.174 HD
ATOM     20  H11 UNL     1      -3.519  -1.887   0.409  1.00  0.00     0.174 HD
ENDBRANCH   1  18
TORSDOF 1
