REMARK  3 active torsions:
REMARK  status: ('A' for Active; 'I' for Inactive)
REMARK    1  A    between atoms: C2_2  and  N1_3 
REMARK    2  A    between atoms: N1_3  and  C3_5 
REMARK    3  A    between atoms: N5_16  and  N6_17 
ROOT
HETATM    1  C3  UNL     1      -0.616   0.632  -0.170  1.00  0.00     0.681 A 
HETATM    2  N2  UNL     1      -0.906  -0.573  -0.689  1.00  0.00    -0.175 N 
ATOM      3  H2  UNL     1      -1.862  -0.779  -0.979  1.00  0.00     0.186 HD
HETATM    4  C4  UNL     1       0.058  -1.523  -0.833  1.00  0.00     0.145 A 
HETATM    5  N3  UNL     1      -0.282  -2.649  -1.333  1.00  0.00    -0.383 N 
ATOM      6  H31 UNL     1       0.440  -3.361  -1.441  1.00  0.00     0.157 HD
ATOM      7  H32 UNL     1      -1.240  -2.848  -1.621  1.00  0.00     0.157 HD
HETATM    8  C5  UNL     1       1.348  -1.255  -0.445  1.00  0.00     0.124 A 
HETATM    9  N4  UNL     1       2.487  -1.974  -0.463  1.00  0.00    -0.345 N 
ATOM     10  H4  UNL     1       2.574  -2.931  -0.805  1.00  0.00     0.167 HD
HETATM   11  C6  UNL     1       3.490  -1.234   0.039  1.00  0.00     0.208 A 
HETATM   12  N5  UNL     1       2.959  -0.042   0.370  1.00  0.00    -0.239 N 
HETATM   13  C7  UNL     1       1.633  -0.020   0.083  1.00  0.00     0.173 A 
HETATM   14  N7  UNL     1       0.647   0.892   0.208  1.00  0.00    -0.172 N 
ATOM     15  H7  UNL     1       0.867   1.807   0.601  1.00  0.00     0.186 HD
ENDROOT
BRANCH   1  16
HETATM   16  N1  UNL     1      -1.530   1.505  -0.045  1.00  0.00    -0.226 N 
ATOM     17  H1  UNL     1      -1.256   2.403   0.353  1.00  0.00     0.177 HD
BRANCH  16  18
HETATM   18  C2  UNL     1      -2.899   1.354  -0.406  1.00  0.00     0.133 C 
HETATM   19  C1  UNL     1      -3.690   0.527   0.565  1.00  0.00     0.027 C 
ENDBRANCH  16  18
ENDBRANCH   1  16
BRANCH  12  20
HETATM   20  N6  UNL     1       3.645   1.032   0.927  1.00  0.00    -0.336 N 
ATOM     21  H62 UNL     1       4.642   1.015   1.143  1.00  0.00     0.177 HD
ATOM     22  H61 UNL     1       3.243   1.935   1.178  1.00  0.00     0.177 HD
ENDBRANCH  12  20
TORSDOF 3
