REMARK  4 active torsions:
REMARK  status: ('A' for Active; 'I' for Inactive)
REMARK    1  A    between atoms: C3_7  and  N3_8 
REMARK    2  A    between atoms: C4_13  and  C5_14 
REMARK    3  A    between atoms: C5_14  and  O1_15 
REMARK    4  A    between atoms: O1_15  and  N5_16 
ROOT
HETATM    1  C1  UNL     1      -3.563  -0.990   0.209  1.00  0.00     0.147 C 
HETATM    2  N1  UNL     1      -2.795   0.171   0.165  1.00  0.00    -0.379 N 
ATOM      3  H1  UNL     1      -3.392   0.997   0.200  1.00  0.00     0.160 HD
HETATM    4  C2  UNL     1      -1.609   0.496   0.096  1.00  0.00     0.139 A 
HETATM    5  N2  UNL     1      -1.307   1.830   0.080  1.00  0.00    -0.176 N 
ATOM      6  H2  UNL     1      -2.056   2.521   0.125  1.00  0.00     0.186 HD
HETATM    7  C3  UNL     1      -0.026   2.235   0.005  1.00  0.00     0.677 A 
HETATM    8  N4  UNL     1       0.997   1.366  -0.055  1.00  0.00    -0.192 N 
ATOM      9  H4  UNL     1       1.955   1.712  -0.111  1.00  0.00     0.184 HD
HETATM   10  C4  UNL     1       0.762   0.043  -0.042  1.00  0.00     0.077 A 
HETATM   11  C6  UNL     1      -0.571  -0.379   0.035  1.00  0.00     0.114 A 
HETATM   12  C7  UNL     1      -0.791  -1.777   0.047  1.00  0.00     0.105 C 
HETATM   13  N6  UNL     1      -0.947  -2.927   0.055  1.00  0.00    -0.191 NA
ENDROOT
BRANCH  10  14
HETATM   14  C5  UNL     1       1.876  -0.938  -0.108  1.00  0.00     0.259 C 
BRANCH  14  15
HETATM   15  O1  UNL     1       3.109  -0.336  -0.179  1.00  0.00    -0.281 OA
BRANCH  15  16
HETATM   16  N5  UNL     1       4.052  -1.278  -0.235  1.00  0.00    -0.311 N 
ATOM     17  H52 UNL     1       3.871  -2.282  -0.226  1.00  0.00     0.184 HD
ATOM     18  H51 UNL     1       4.967  -0.831  -0.288  1.00  0.00     0.184 HD
ENDBRANCH  15  16
ENDBRANCH  14  15
ENDBRANCH  10  14
BRANCH   7  19
HETATM   19  N3  UNL     1       0.281   3.503  -0.012  1.00  0.00    -0.234 N 
ATOM     20  H32 UNL     1      -0.496   4.163   0.034  1.00  0.00     0.174 HD
ATOM     21  H31 UNL     1       1.252   3.810  -0.069  1.00  0.00     0.174 HD
ENDBRANCH   7  19
TORSDOF 4
