REMARK  3 active torsions:
REMARK  status: ('A' for Active; 'I' for Inactive)
REMARK    1  A    between atoms: O1_2  and  C2_3 
REMARK    2  A    between atoms: C4_5  and  O2_6 
REMARK    3  A    between atoms: C14_19  and  C15_20 
ROOT
HETATM    1  C2  UNL     1       2.568  -0.518  -0.440  1.00  0.00     0.105 A 
HETATM    2  C3  UNL     1       3.190   0.713  -0.598  1.00  0.00     0.076 A 
HETATM    3  C4  UNL     1       2.471   1.897  -0.493  1.00  0.00     0.069 A 
HETATM    4  C5  UNL     1       1.114   1.887  -0.229  1.00  0.00     0.052 A 
HETATM    5  C6  UNL     1       0.516   0.668  -0.076  1.00  0.00     0.017 A 
HETATM    6  C7  UNL     1       1.225  -0.522  -0.179  1.00  0.00     0.115 A 
HETATM    7  O3  UNL     1       0.588  -1.718  -0.019  1.00  0.00    -0.330 OA
HETATM    8  C8  UNL     1      -0.752  -1.924   0.237  1.00  0.00     0.110 A 
HETATM    9  C9  UNL     1      -0.888  -2.741   1.511  1.00  0.00     0.053 C 
HETATM   10  C10 UNL     1      -1.362  -2.785  -0.867  1.00  0.00     0.053 C 
HETATM   11  C11 UNL     1      -1.532  -0.671   0.352  1.00  0.00     0.100 A 
HETATM   12  O4  UNL     1      -2.839  -0.482   0.596  1.00  0.00    -0.315 OA
HETATM   13  C12 UNL     1      -3.099   0.776   0.611  1.00  0.00     0.067 A 
HETATM   14  C13 UNL     1      -4.400   1.432   0.841  1.00  0.00     0.078 C 
HETATM   15  C14 UNL     1      -1.914   1.483   0.366  1.00  0.00     0.083 A 
HETATM   16  C16 UNL     1      -0.912   0.557   0.200  1.00  0.00     0.029 A 
ENDROOT
BRANCH  15  17
HETATM   17  C15 UNL     1      -1.840   2.918   0.313  1.00  0.00     0.212 C 
HETATM   18  O5  UNL     1      -1.614   3.571   1.348  1.00  0.00    -0.644 OA
HETATM   19  O6  UNL     1      -2.019   3.583  -0.874  1.00  0.00    -0.644 OA
ENDBRANCH  15  17
BRANCH   3  20
HETATM   20  O2  UNL     1       3.195   3.070  -0.669  1.00  0.00    -0.361 OA
ATOM     21  H2  UNL     1       2.703   3.880  -0.597  1.00  0.00     0.217 HD
ENDBRANCH   3  20
BRANCH   1  22
HETATM   22  O1  UNL     1       3.280  -1.704  -0.543  1.00  0.00    -0.353 OA
HETATM   23  C1  UNL     1       4.666  -1.712  -0.812  1.00  0.00     0.210 C 
ENDBRANCH   1  22
TORSDOF 3
