REMARK  5 active torsions:
REMARK  status: ('A' for Active; 'I' for Inactive)
REMARK    1  A    between atoms: C1_2  and  O2_3 
REMARK    2  A    between atoms: C1_2  and  C12_16 
REMARK    3  A    between atoms: O2_3  and  C2_4 
REMARK    4  A    between atoms: C7_9  and  O3_10 
REMARK    5  A    between atoms: C16_20  and  O4_21 
ROOT
HETATM    1  O2  UNL     1      -0.442   0.382   0.341  1.00  0.00    -0.275 OA
ENDROOT
BRANCH   1   2
HETATM    2  C1  UNL     1      -1.322   0.030  -0.653  1.00  0.00     0.298 C 
HETATM    3  O1  UNL     1      -0.847  -0.344  -1.745  1.00  0.00    -0.259 OA
BRANCH   2   4
HETATM    4  C12 UNL     1      -2.743   0.116  -0.370  1.00  0.00     0.043 A 
HETATM    5  C13 UNL     1      -3.611  -0.242  -1.380  1.00  0.00     0.018 A 
HETATM    6  C14 UNL     1      -4.990  -0.261  -1.436  1.00  0.00     0.004 A 
HETATM    7  C15 UNL     1      -5.885   0.085  -0.425  1.00  0.00     0.040 A 
HETATM    8  C16 UNL     1      -5.602   0.520   0.867  1.00  0.00     0.115 A 
HETATM    9  C17 UNL     1      -4.375   0.723   1.446  1.00  0.00     0.205 A 
HETATM   10  O5  UNL     1      -4.390   1.123   2.648  1.00  0.00    -0.285 OA
HETATM   11  C18 UNL     1      -3.118   0.545   0.881  1.00  0.00     0.075 A 
BRANCH   8  12
HETATM   12  O4  UNL     1      -6.688   0.790   1.694  1.00  0.00    -0.357 OA
ATOM     13  H4  UNL     1      -6.495   1.087   2.576  1.00  0.00     0.218 HD
ENDBRANCH   8  12
ENDBRANCH   2   4
ENDBRANCH   1   2
BRANCH   1  14
HETATM   14  C2  UNL     1       0.937   0.340   0.189  1.00  0.00     0.080 A 
HETATM   15  C3  UNL     1       1.595   1.460  -0.278  1.00  0.00     0.038 A 
HETATM   16  C4  UNL     1       2.975   1.479  -0.452  1.00  0.00     0.015 A 
HETATM   17  C5  UNL     1       3.736   0.368  -0.160  1.00  0.00    -0.023 A 
HETATM   18  C6  UNL     1       5.111   0.352  -0.321  1.00  0.00     0.048 A 
HETATM   19  C10 UNL     1       3.084  -0.755   0.308  1.00  0.00    -0.023 A 
HETATM   20  C7  UNL     1       5.882  -0.748  -0.034  1.00  0.00     0.066 A 
HETATM   21  C8  UNL     1       5.225  -1.871   0.434  1.00  0.00     0.037 A 
HETATM   22  C9  UNL     1       3.856  -1.867   0.599  1.00  0.00     0.015 A 
HETATM   23  C11 UNL     1       1.705  -0.768   0.479  1.00  0.00     0.049 A 
BRANCH  20  24
HETATM   24  O3  UNL     1       7.257  -0.731  -0.206  1.00  0.00    -0.361 OA
ATOM     25  H3  UNL     1       7.790  -1.492  -0.008  1.00  0.00     0.217 HD
ENDBRANCH  20  24
ENDBRANCH   1  14
TORSDOF 5
