REMARK  4 active torsions:
REMARK  status: ('A' for Active; 'I' for Inactive)
REMARK    1  A    between atoms: C2_2  and  C3_3 
REMARK    2  A    between atoms: C10_12  and  C11_13 
REMARK    3  A    between atoms: C14_16  and  O3_17 
REMARK    4  A    between atoms: C15_19  and  O4_20 
ROOT
HETATM    1  C3  UNL     1      -3.516  -0.585  -0.540  1.00  0.00    -0.034 C 
HETATM    2  C4  UNL     1      -4.243   0.271   0.249  1.00  0.00     0.015 C 
HETATM    3  C5  UNL     1      -3.906   0.803   1.500  1.00  0.00     0.057 C 
HETATM    4  C6  UNL     1      -2.672   0.793   2.100  1.00  0.00     0.189 C 
HETATM    5  O1  UNL     1      -2.574   0.971   3.327  1.00  0.00    -0.287 OA
HETATM    6  C7  UNL     1      -1.454   0.601   1.479  1.00  0.00     0.098 A 
HETATM    7  C8  UNL     1      -0.388   1.097   2.180  1.00  0.00     0.191 A 
HETATM    8  O2  UNL     1      -0.608   1.653   3.266  1.00  0.00    -0.287 OA
HETATM    9  C9  UNL     1       0.871   0.947   1.630  1.00  0.00     0.094 A 
HETATM   10  C10 UNL     1       1.099   0.329   0.426  1.00  0.00     0.090 A 
HETATM   11  O5  UNL     1       0.030  -0.129  -0.202  1.00  0.00    -0.309 OA
HETATM   12  C17 UNL     1      -1.191  -0.020   0.264  1.00  0.00     0.095 A 
HETATM   13  C18 UNL     1      -2.128  -0.593  -0.607  1.00  0.00     0.049 C 
ENDROOT
BRANCH  10  14
HETATM   14  C11 UNL     1       2.410   0.152  -0.185  1.00  0.00     0.001 A 
HETATM   15  C12 UNL     1       2.547  -0.490  -1.415  1.00  0.00     0.017 A 
HETATM   16  C13 UNL     1       3.781  -0.663  -2.002  1.00  0.00     0.040 A 
HETATM   17  C14 UNL     1       4.938  -0.210  -1.403  1.00  0.00     0.098 A 
HETATM   18  C15 UNL     1       4.814   0.425  -0.189  1.00  0.00     0.099 A 
HETATM   19  C16 UNL     1       3.563   0.598   0.402  1.00  0.00     0.053 A 
BRANCH  17  20
HETATM   20  O3  UNL     1       6.176  -0.397  -2.016  1.00  0.00    -0.358 OA
ATOM     21  H3  UNL     1       6.973  -0.085  -1.603  1.00  0.00     0.217 HD
ENDBRANCH  17  20
BRANCH  18  22
HETATM   22  O4  UNL     1       5.969   0.885   0.424  1.00  0.00    -0.358 OA
ATOM     23  H4  UNL     1       5.883   1.324   1.262  1.00  0.00     0.217 HD
ENDBRANCH  18  22
ENDBRANCH  10  14
BRANCH   1  24
HETATM   24  C2  UNL     1      -4.237  -1.546  -1.352  1.00  0.00     0.001 C 
HETATM   25  C1  UNL     1      -5.540  -1.662  -1.286  1.00  0.00     0.012 C 
ENDBRANCH   1  24
TORSDOF 4
