REMARK  4 active torsions:
REMARK  status: ('A' for Active; 'I' for Inactive)
REMARK    1  A    between atoms: C7_7  and  N1_8 
REMARK    2  A    between atoms: N1_8  and  N2_10 
REMARK       I    between atoms: N2_10  and  C8_12 
REMARK       I    between atoms: C8_12  and  N3_14 
REMARK       I    between atoms: N3_14  and  C9_16 
REMARK    3  A    between atoms: C9_16  and  C10_18 
REMARK    4  A    between atoms: C13_21  and  N4_22 
ROOT
HETATM    1  N2  UNL     1      -1.592  -0.512  -0.119  1.00  0.00    -0.251 N 
ATOM      2  H2  UNL     1      -1.659  -0.393  -1.130  1.00  0.00     0.191 HD
HETATM    3  C8  UNL     1      -0.457  -1.147   0.433  1.00  0.00     0.341 C 
HETATM    4  O1  UNL     1      -0.633  -2.158   1.164  1.00  0.00    -0.245 OA
HETATM    5  N3  UNL     1       0.846  -0.628   0.149  1.00  0.00    -0.274 N 
ATOM      6  H3  UNL     1       0.941   0.194  -0.448  1.00  0.00     0.173 HD
HETATM    7  C9  UNL     1       2.004  -1.239   0.684  1.00  0.00     0.259 C 
HETATM    8  O2  UNL     1       1.878  -2.241   1.416  1.00  0.00    -0.267 OA
ENDROOT
BRANCH   1   9
HETATM    9  N1  UNL     1      -2.542  -0.082   0.635  1.00  0.00    -0.296 N 
ATOM     10  H1  UNL     1      -2.481  -0.198   1.647  1.00  0.00     0.187 HD
BRANCH   9  11
HETATM   11  C7  UNL     1      -3.676   0.554   0.060  1.00  0.00     0.054 A 
HETATM   12  C2  UNL     1      -4.857  -0.163   0.026  1.00  0.00    -0.034 A 
HETATM   13  C1  UNL     1      -4.898  -1.546   0.580  1.00  0.00     0.050 C 
HETATM   14  C3  UNL     1      -5.957   0.454  -0.532  1.00  0.00     0.009 A 
HETATM   15  C4  UNL     1      -5.859   1.753  -1.036  1.00  0.00     0.001 A 
HETATM   16  C5  UNL     1      -4.669   2.458  -0.994  1.00  0.00     0.002 A 
HETATM   17  C6  UNL     1      -3.578   1.838  -0.438  1.00  0.00     0.031 A 
ENDBRANCH   9  11
ENDBRANCH   1   9
BRANCH   7  18
HETATM   18  C10 UNL     1       3.317  -0.726   0.401  1.00  0.00     0.032 A 
HETATM   19  C11 UNL     1       3.497   0.237  -0.561  1.00  0.00     0.019 A 
HETATM   20  C12 UNL     1       4.806   0.697  -0.783  1.00  0.00     0.037 A 
HETATM   21  C13 UNL     1       5.884   0.215  -0.075  1.00  0.00     0.102 A 
HETATM   22  C14 UNL     1       5.678  -0.750   0.884  1.00  0.00     0.037 A 
HETATM   23  C15 UNL     1       4.408  -1.224   1.128  1.00  0.00     0.019 A 
BRANCH  21  24
HETATM   24  N4  UNL     1       7.197   0.726  -0.348  1.00  0.00    -0.116 N 
HETATM   25  O3  UNL     1       8.175   0.291   0.291  1.00  0.00    -0.532 OA
HETATM   26  O4  UNL     1       7.412   1.683  -1.297  1.00  0.00    -0.532 OA
ENDBRANCH  21  24
ENDBRANCH   7  18
TORSDOF 4
