REMARK  3 active torsions:
REMARK  status: ('A' for Active; 'I' for Inactive)
REMARK    1  A    between atoms: C2_2  and  C3_3 
REMARK    2  A    between atoms: C3_3  and  C4_4 
REMARK    3  A    between atoms: C10_14  and  O2_15 
ROOT
HETATM    1  C4  UNL     1      -2.603  -0.848   0.644  1.00  0.00     0.019 A 
HETATM    2  S1  UNL     1      -2.473   0.471   1.701  1.00  0.00    -0.073 SA
HETATM    3  C5  UNL     1      -0.796   0.750   1.575  1.00  0.00     0.091 A 
HETATM    4  N1  UNL     1      -0.001   1.674   2.156  1.00  0.00    -0.315 N 
ATOM      5  H1  UNL     1      -0.414   2.350   2.799  1.00  0.00     0.170 HD
HETATM    6  C6  UNL     1       1.324   1.728   1.910  1.00  0.00     0.280 A 
HETATM    7  O1  UNL     1       2.083   2.564   2.426  1.00  0.00    -0.265 OA
HETATM    8  C7  UNL     1       1.802   0.797   1.047  1.00  0.00     0.152 A 
HETATM    9  C8  UNL     1       0.995  -0.172   0.434  1.00  0.00     0.065 A 
HETATM   10  C9  UNL     1      -0.377  -0.215   0.694  1.00  0.00     0.049 A 
HETATM   11  C10 UNL     1      -1.310  -1.050   0.203  1.00  0.00     0.092 A 
HETATM   12  C11 UNL     1       1.668  -1.131  -0.423  1.00  0.00     0.166 C 
HETATM   13  O3  UNL     1       1.312  -2.309  -0.399  1.00  0.00    -0.292 OA
HETATM   14  C12 UNL     1       2.769  -0.659  -1.299  1.00  0.00     0.122 C 
HETATM   15  C13 UNL     1       3.585   0.421  -0.640  1.00  0.00     0.068 C 
HETATM   16  C14 UNL     1       5.058   0.086  -0.562  1.00  0.00     0.046 C 
HETATM   17  C15 UNL     1       3.440   1.701  -1.432  1.00  0.00     0.046 C 
HETATM   18  O4  UNL     1       3.160   0.709   0.676  1.00  0.00    -0.334 OA
ENDROOT
BRANCH   1  19
HETATM   19  C3  UNL     1      -3.858  -1.578   0.316  1.00  0.00     0.049 C 
BRANCH  19  20
HETATM   20  C2  UNL     1      -5.040  -0.973   1.020  1.00  0.00     0.001 C 
HETATM   21  C1  UNL     1      -5.186   0.457   0.576  1.00  0.00     0.005 C 
ENDBRANCH  19  20
ENDBRANCH   1  19
BRANCH  11  22
HETATM   22  O2  UNL     1      -1.136  -2.119  -0.722  1.00  0.00    -0.359 OA
ATOM     23  H2  UNL     1      -0.247  -2.258  -1.025  1.00  0.00     0.217 HD
ENDBRANCH  11  22
TORSDOF 3
