REMARK  3 active torsions:
REMARK  status: ('A' for Active; 'I' for Inactive)
REMARK       I    between atoms: C1_2  and  N1_3 
REMARK    1  A    between atoms: C1_2  and  C15_20 
REMARK    2  A    between atoms: N1_3  and  C2_5 
REMARK    3  A    between atoms: C18_23  and  O4_24 
ROOT
HETATM    1  C2  UNL     1       0.869   0.550  -0.353  1.00  0.00     0.037 A 
HETATM    2  C3  UNL     1       0.416   1.695  -1.025  1.00  0.00     0.030 A 
HETATM    3  C4  UNL     1      -0.919   1.998  -1.154  1.00  0.00     0.020 A 
HETATM    4  C5  UNL     1      -1.843   1.159  -0.612  1.00  0.00     0.049 A 
HETATM    5  C6  UNL     1      -3.187   1.441  -0.729  1.00  0.00     0.198 A 
HETATM    6  O2  UNL     1      -3.605   2.471  -1.332  1.00  0.00    -0.286 OA
HETATM    7  C7  UNL     1      -4.080   0.547  -0.154  1.00  0.00     0.049 A 
HETATM    8  C8  UNL     1      -5.420   0.781  -0.242  1.00  0.00     0.018 A 
HETATM    9  C9  UNL     1      -6.307  -0.118   0.335  1.00  0.00     0.001 A 
HETATM   10  C10 UNL     1      -5.838  -1.242   0.993  1.00  0.00     0.003 A 
HETATM   11  C11 UNL     1      -4.474  -1.476   1.080  1.00  0.00     0.038 A 
HETATM   12  C12 UNL     1      -3.614  -0.572   0.501  1.00  0.00     0.090 A 
HETATM   13  O3  UNL     1      -2.327  -0.807   0.592  1.00  0.00    -0.309 OA
HETATM   14  C13 UNL     1      -1.472   0.034   0.051  1.00  0.00     0.092 A 
HETATM   15  C14 UNL     1      -0.094  -0.255   0.171  1.00  0.00     0.067 A 
ENDROOT
BRANCH   1  16
HETATM   16  N1  UNL     1       2.252   0.315  -0.254  1.00  0.00    -0.321 N 
HETATM   17  C1  UNL     1       2.922  -0.820   0.218  1.00  0.00     0.280 C 
HETATM   18  O1  UNL     1       2.347  -1.827   0.633  1.00  0.00    -0.265 OA
ATOM     19  H1  UNL     1       2.850   1.078  -0.570  1.00  0.00     0.169 HD
BRANCH  17  20
HETATM   20  C15 UNL     1       4.404  -0.810   0.219  1.00  0.00     0.146 A 
HETATM   21  C16 UNL     1       5.211  -1.842   0.649  1.00  0.00     0.048 A 
HETATM   22  C17 UNL     1       6.507  -1.411   0.475  1.00  0.00     0.067 A 
HETATM   23  C18 UNL     1       6.459  -0.139  -0.052  1.00  0.00     0.183 A 
HETATM   24  O5  UNL     1       5.189   0.139  -0.172  1.00  0.00    -0.282 OA
BRANCH  23  25
HETATM   25  O4  UNL     1       7.553   0.667  -0.382  1.00  0.00    -0.341 OA
ATOM     26  H4  UNL     1       7.520   1.544  -0.745  1.00  0.00     0.220 HD
ENDBRANCH  23  25
ENDBRANCH  17  20
ENDBRANCH   1  16
TORSDOF 3
