REMARK  5 active torsions:
REMARK  status: ('A' for Active; 'I' for Inactive)
REMARK    1  A    between atoms: C4_5  and  N1_6 
REMARK    2  A    between atoms: N1_6  and  C5_8 
REMARK    3  A    between atoms: C5_8  and  N2_10 
REMARK       I    between atoms: N2_10  and  C6_12 
REMARK    4  A    between atoms: C6_12  and  C7_14 
REMARK    5  A    between atoms: C9_16  and  C10_17 
ROOT
HETATM    1  N2  UNL     1       0.630  -0.165   0.223  1.00  0.00    -0.298 N 
ATOM      2  H2  UNL     1      -0.072  -0.045   0.954  1.00  0.00     0.171 HD
HETATM    3  C6  UNL     1       0.159  -0.308  -1.081  1.00  0.00     0.276 C 
HETATM    4  O1  UNL     1       0.836  -0.474  -2.117  1.00  0.00    -0.266 OA
ENDROOT
BRANCH   1   5
HETATM    5  C5  UNL     1       1.966  -0.170   0.630  1.00  0.00     0.179 C 
HETATM    6  S2  UNL     1       2.205  -0.001   2.260  1.00  0.00    -0.040 SA
BRANCH   5   7
HETATM    7  N1  UNL     1       3.062  -0.235  -0.209  1.00  0.00    -0.327 N 
ATOM      8  H1  UNL     1       2.865  -0.253  -1.210  1.00  0.00     0.169 HD
BRANCH   7   9
HETATM    9  C4  UNL     1       4.437  -0.280   0.165  1.00  0.00     0.076 A 
HETATM   10  S1  UNL     1       5.739  -0.415  -0.995  1.00  0.00    -0.084 SA
HETATM   11  C3  UNL     1       7.063  -0.398   0.070  1.00  0.00     0.058 A 
HETATM   12  C2  UNL     1       6.475  -0.287   1.299  1.00  0.00    -0.053 A 
HETATM   13  C1  UNL     1       7.362  -0.228   2.541  1.00  0.00     0.049 C 
HETATM   14  C14 UNL     1       5.118  -0.228   1.330  1.00  0.00     0.044 A 
ENDBRANCH   7   9
ENDBRANCH   5   7
ENDBRANCH   1   5
BRANCH   3  15
HETATM   15  C7  UNL     1      -1.311  -0.276  -1.347  1.00  0.00     0.125 A 
HETATM   16  C8  UNL     1      -2.287   0.114  -0.463  1.00  0.00     0.072 A 
HETATM   17  C9  UNL     1      -3.530  -0.044  -1.080  1.00  0.00     0.086 A 
HETATM   18  O2  UNL     1      -3.265  -0.502  -2.258  1.00  0.00    -0.241 OA
HETATM   19  N3  UNL     1      -1.970  -0.650  -2.444  1.00  0.00    -0.256 N 
ATOM     20  H3  UNL     1      -1.536  -0.998  -3.299  1.00  0.00     0.195 HD
BRANCH  17  21
HETATM   21  C10 UNL     1      -4.798   0.292  -0.395  1.00  0.00     0.000 C 
HETATM   22  C11 UNL     1      -4.675  -0.093   1.071  1.00  0.00     0.021 C 
HETATM   23  C12 UNL     1      -5.981  -0.445  -0.960  1.00  0.00     0.021 C 
HETATM   24  C13 UNL     1      -5.072   1.783  -0.533  1.00  0.00     0.021 C 
ENDBRANCH  17  21
ENDBRANCH   3  15
TORSDOF 5
