REMARK  5 active torsions:
REMARK  status: ('A' for Active; 'I' for Inactive)
REMARK    1  A    between atoms: C3_3  and  C4_4 
REMARK    2  A    between atoms: C7_7  and  C8_8 
REMARK    3  A    between atoms: C12_13  and  O2_14 
REMARK    4  A    between atoms: C14_17  and  O3_18 
REMARK    5  A    between atoms: C17_23  and  O5_24 
ROOT
HETATM    1  C8  UNL     1      -0.518   0.991  -1.129  1.00  0.00     0.055 C 
HETATM    2  C9  UNL     1      -1.744   0.616  -0.863  1.00  0.00     0.128 A 
HETATM    3  O1  UNL     1      -2.867   0.844  -1.698  1.00  0.00    -0.305 OA
HETATM    4  C10 UNL     1      -3.996   0.319  -1.124  1.00  0.00     0.096 A 
HETATM    5  C11 UNL     1      -5.318   0.294  -1.556  1.00  0.00     0.075 A 
HETATM    6  C12 UNL     1      -6.305  -0.294  -0.813  1.00  0.00     0.071 A 
HETATM    7  C13 UNL     1      -6.016  -0.881   0.391  1.00  0.00     0.074 A 
HETATM    8  C14 UNL     1      -4.719  -0.874   0.847  1.00  0.00     0.085 A 
HETATM    9  C15 UNL     1      -3.748  -0.277   0.081  1.00  0.00     0.084 A 
HETATM   10  C16 UNL     1      -2.282  -0.095   0.270  1.00  0.00     0.221 A 
HETATM   11  O4  UNL     1      -1.677  -0.520   1.279  1.00  0.00    -0.284 OA
ENDROOT
BRANCH   1  12
HETATM   12  C7  UNL     1       0.663   0.799  -0.328  1.00  0.00     0.000 A 
HETATM   13  C6  UNL     1       0.783   1.201   0.983  1.00  0.00     0.015 A 
HETATM   14  C5  UNL     1       1.938   0.944   1.663  1.00  0.00     0.012 A 
HETATM   15  C4  UNL     1       2.988   0.290   1.064  1.00  0.00    -0.034 A 
HETATM   16  C19 UNL     1       2.850  -0.106  -0.256  1.00  0.00     0.049 A 
HETATM   17  C17 UNL     1       1.711   0.131  -0.975  1.00  0.00     0.079 A 
BRANCH  15  18
HETATM   18  C3  UNL     1       4.215   0.037   1.842  1.00  0.00     0.007 C 
HETATM   19  C2  UNL     1       5.250  -0.571   1.364  1.00  0.00    -0.030 C 
HETATM   20  C1  UNL     1       6.460  -0.803   2.180  1.00  0.00     0.036 C 
ENDBRANCH  15  18
BRANCH  17  21
HETATM   21  O5  UNL     1       1.618  -0.282  -2.285  1.00  0.00    -0.355 OA
HETATM   22  C18 UNL     1       2.622  -0.950  -2.986  1.00  0.00     0.210 C 
ENDBRANCH  17  21
ENDBRANCH   1  12
BRANCH   8  23
HETATM   23  O3  UNL     1      -4.391  -1.455   2.055  1.00  0.00    -0.360 OA
ATOM     24  H3  UNL     1      -3.495  -1.450   2.370  1.00  0.00     0.217 HD
ENDBRANCH   8  23
BRANCH   6  25
HETATM   25  O2  UNL     1      -7.635  -0.303  -1.277  1.00  0.00    -0.361 OA
ATOM     26  H2  UNL     1      -8.320  -0.711  -0.761  1.00  0.00     0.217 HD
ENDBRANCH   6  25
TORSDOF 5
