REMARK  4 active torsions:
REMARK  status: ('A' for Active; 'I' for Inactive)
REMARK    1  A    between atoms: C10_11  and  N2_12 
REMARK    2  A    between atoms: N2_12  and  C11_14 
REMARK    3  A    between atoms: C12_19  and  S1_20 
REMARK    4  A    between atoms: S1_20  and  C13_21 
ROOT
HETATM    1  C11 UNL     1       0.374  -1.305  -0.476  1.00  0.00     0.246 A 
HETATM    2  N3  UNL     1       0.205  -0.945   0.809  1.00  0.00    -0.262 N 
ATOM      3  H3  UNL     1      -0.640  -0.577   1.247  1.00  0.00     0.190 HD
HETATM    4  N4  UNL     1       1.385  -1.175   1.382  1.00  0.00    -0.271 N 
ATOM      5  H4  UNL     1       1.602  -1.008   2.364  1.00  0.00     0.189 HD
HETATM    6  C12 UNL     1       2.241  -1.657   0.477  1.00  0.00     0.210 A 
HETATM    7  O1  UNL     1       1.609  -1.731  -0.656  1.00  0.00    -0.253 OA
ENDROOT
BRANCH   1   8
HETATM    8  N2  UNL     1      -0.521  -1.250  -1.411  1.00  0.00    -0.319 N 
ATOM      9  H2  UNL     1      -0.298  -1.546  -2.361  1.00  0.00     0.169 HD
BRANCH   8  10
HETATM   10  C10 UNL     1      -1.826  -0.767  -1.088  1.00  0.00     0.060 A 
HETATM   11  C1  UNL     1      -2.916  -1.623  -1.114  1.00  0.00     0.074 A 
HETATM   12  N1  UNL     1      -2.767  -2.994  -1.460  1.00  0.00    -0.100 NA
HETATM   13  C2  UNL     1      -4.175  -1.154  -0.802  1.00  0.00     0.041 A 
HETATM   14  C3  UNL     1      -4.388   0.173  -0.458  1.00  0.00    -0.024 A 
HETATM   15  C4  UNL     1      -5.662   0.629  -0.146  1.00  0.00     0.012 A 
HETATM   16  C8  UNL     1      -3.302   1.032  -0.430  1.00  0.00    -0.024 A 
HETATM   17  C5  UNL     1      -5.851   1.952   0.194  1.00  0.00     0.001 A 
HETATM   18  C6  UNL     1      -4.789   2.833   0.230  1.00  0.00     0.001 A 
HETATM   19  C7  UNL     1      -3.540   2.343  -0.085  1.00  0.00     0.012 A 
HETATM   20  C9  UNL     1      -2.059   0.547  -0.743  1.00  0.00     0.043 A 
ENDBRANCH   8  10
ENDBRANCH   1   8
BRANCH   6  21
HETATM   21  S1  UNL     1       3.933  -2.117   0.750  1.00  0.00    -0.045 SA
BRANCH  21  22
HETATM   22  C13 UNL     1       4.998  -0.701   0.478  1.00  0.00     0.009 A 
HETATM   23  C14 UNL     1       4.466   0.521   0.112  1.00  0.00     0.019 A 
HETATM   24  C15 UNL     1       5.259   1.642  -0.108  1.00  0.00     0.001 A 
HETATM   25  C16 UNL     1       6.629   1.473   0.059  1.00  0.00     0.000 A 
HETATM   26  C17 UNL     1       7.163   0.255   0.424  1.00  0.00     0.001 A 
HETATM   27  C18 UNL     1       6.345  -0.848   0.637  1.00  0.00     0.019 A 
ENDBRANCH  21  22
ENDBRANCH   6  21
TORSDOF 4
