REMARK  4 active torsions:
REMARK  status: ('A' for Active; 'I' for Inactive)
REMARK    1  A    between atoms: C2_4  and  C3_5 
REMARK    2  A    between atoms: C8_10  and  N2_11 
REMARK    3  A    between atoms: C10_15  and  C11_16 
REMARK       I    between atoms: C11_16  and  N3_18 
REMARK    4  A    between atoms: N3_18  and  C12_20 
ROOT
HETATM    1  N1  UNL     1       0.232   3.031   2.303  1.00  0.00    -0.093 NA
HETATM    2  C1  UNL     1      -0.443   2.002   1.546  1.00  0.00     0.103 A 
HETATM    3  S1  UNL     1      -2.128   1.695   1.452  1.00  0.00    -0.074 SA
HETATM    4  C2  UNL     1      -2.141   0.371   0.402  1.00  0.00     0.020 A 
HETATM    5  C9  UNL     1      -0.799   0.196   0.144  1.00  0.00     0.039 A 
HETATM    6  C10 UNL     1       0.065   1.029   0.729  1.00  0.00     0.064 A 
ENDROOT
BRANCH   6   7
HETATM    7  C11 UNL     1       1.545   0.934   0.517  1.00  0.00     0.258 C 
HETATM    8  O3  UNL     1       2.255   1.777   1.106  1.00  0.00    -0.267 OA
HETATM    9  N3  UNL     1       2.101  -0.050  -0.298  1.00  0.00    -0.323 N 
ATOM     10  H3  UNL     1       1.471  -0.716  -0.745  1.00  0.00     0.169 HD
BRANCH   9  11
HETATM   11  C12 UNL     1       3.493  -0.180  -0.543  1.00  0.00     0.035 A 
HETATM   12  C13 UNL     1       4.009  -1.434  -0.902  1.00  0.00     0.029 A 
HETATM   13  C14 UNL     1       5.335  -1.584  -1.166  1.00  0.00     0.002 A 
HETATM   14  C15 UNL     1       6.214  -0.529  -1.094  1.00  0.00     0.000 A 
HETATM   15  C16 UNL     1       5.733   0.711  -0.745  1.00  0.00     0.002 A 
HETATM   16  C17 UNL     1       4.381   0.851  -0.478  1.00  0.00     0.029 A 
ENDBRANCH   9  11
ENDBRANCH   6   7
BRANCH   4  17
HETATM   17  C3  UNL     1      -3.234  -0.406  -0.162  1.00  0.00     0.014 A 
HETATM   18  C4  UNL     1      -2.909  -1.663  -0.711  1.00  0.00     0.015 A 
HETATM   19  C5  UNL     1      -3.804  -2.527  -1.260  1.00  0.00     0.001 A 
HETATM   20  C6  UNL     1      -5.130  -2.152  -1.286  1.00  0.00     0.002 A 
HETATM   21  C7  UNL     1      -5.502  -0.952  -0.773  1.00  0.00     0.037 A 
HETATM   22  C8  UNL     1      -4.540  -0.064  -0.205  1.00  0.00     0.114 A 
BRANCH  22  23
HETATM   23  N2  UNL     1      -5.062   1.148   0.260  1.00  0.00    -0.115 N 
HETATM   24  O1  UNL     1      -6.245   1.090   0.754  1.00  0.00    -0.532 OA
HETATM   25  O2  UNL     1      -4.450   2.334   0.254  1.00  0.00    -0.532 OA
ENDBRANCH  22  23
ENDBRANCH   4  17
TORSDOF 4
