REMARK  9 active torsions:
REMARK  status: ('A' for Active; 'I' for Inactive)
REMARK    1  A    between atoms: N1_2  and  C3_4 
REMARK    2  A    between atoms: C8_9  and  N2_10 
REMARK       I    between atoms: N2_10  and  C9_12 
REMARK       I    between atoms: C9_12  and  N3_14 
REMARK    3  A    between atoms: N3_14  and  C10_16 
REMARK    4  A    between atoms: C10_16  and  O2_17 
REMARK    5  A    between atoms: C10_16  and  O3_19 
REMARK    6  A    between atoms: O3_19  and  C11_20 
REMARK    7  A    between atoms: C14_23  and  N4_24 
REMARK    8  A    between atoms: N4_24  and  N5_26 
REMARK    9  A    between atoms: N5_26  and  N6_27 
ROOT
HETATM    1  C10 UNL     1       1.522  -0.939  -2.202  1.00  0.00     0.271 C 
ENDROOT
BRANCH   1   2
HETATM    2  N3  UNL     1       0.434  -1.004  -3.102  1.00  0.00    -0.268 N 
HETATM    3  C9  UNL     1      -0.902  -0.620  -2.894  1.00  0.00     0.328 C 
HETATM    4  N2  UNL     1      -1.388  -0.099  -1.688  1.00  0.00    -0.306 N 
HETATM    5  O1  UNL     1      -1.676  -0.779  -3.903  1.00  0.00    -0.247 OA
ATOM      6  H2  UNL     1      -0.724  -0.008  -0.919  1.00  0.00     0.170 HD
ATOM      7  H3  UNL     1       0.647  -1.380  -4.026  1.00  0.00     0.174 HD
BRANCH   4   8
HETATM    8  C8  UNL     1      -2.721   0.312  -1.442  1.00  0.00     0.062 A 
HETATM    9  C3  UNL     1      -3.052   0.622  -0.121  1.00  0.00     0.056 A 
HETATM   10  C4  UNL     1      -4.293   1.084   0.271  1.00  0.00     0.031 A 
HETATM   11  C5  UNL     1      -5.269   1.251  -0.688  1.00  0.00     0.002 A 
HETATM   12  C6  UNL     1      -4.979   0.955  -1.998  1.00  0.00     0.002 A 
HETATM   13  C7  UNL     1      -3.704   0.486  -2.363  1.00  0.00     0.032 A 
BRANCH   9  14
HETATM   14  N1  UNL     1      -2.078   0.417   0.906  1.00  0.00    -0.388 N 
HETATM   15  C1  UNL     1      -1.738  -0.935   1.274  1.00  0.00     0.149 C 
HETATM   16  C2  UNL     1      -1.480   1.572   1.523  1.00  0.00     0.149 C 
ENDBRANCH   9  14
ENDBRANCH   4   8
ENDBRANCH   1   2
BRANCH   1  17
HETATM   17  O2  UNL     1       2.692  -1.343  -2.608  1.00  0.00    -0.326 OA
ATOM     18  H2  UNL     1       3.423  -1.299  -2.003  1.00  0.00     0.221 HD
ENDBRANCH   1  17
BRANCH   1  19
HETATM   19  O3  UNL     1       1.534  -0.497  -0.909  1.00  0.00    -0.274 OA
BRANCH  19  20
HETATM   20  C11 UNL     1       2.656  -0.471  -0.099  1.00  0.00     0.080 A 
HETATM   21  C12 UNL     1       3.513   0.611   0.013  1.00  0.00     0.040 A 
HETATM   22  C13 UNL     1       4.613   0.570   0.840  1.00  0.00     0.035 A 
HETATM   23  C14 UNL     1       4.917  -0.542   1.592  1.00  0.00     0.062 A 
HETATM   24  C15 UNL     1       4.067  -1.630   1.488  1.00  0.00     0.035 A 
HETATM   25  C16 UNL     1       2.957  -1.585   0.652  1.00  0.00     0.040 A 
BRANCH  23  26
HETATM   26  N4  UNL     1       6.046  -0.570   2.428  1.00  0.00    -0.217 N 
ATOM     27  H4  UNL     1       6.844  -1.140   2.148  1.00  0.00     0.203 HD
BRANCH  26  28
HETATM   28  N5  UNL     1       6.117   0.056   3.475  1.00  0.00    -0.243 NA
BRANCH  28  29
HETATM   29  N6  UNL     1       5.862   0.449   4.632  1.00  0.00    -0.260 N 
ATOM     30  H62 UNL     1       5.071  -0.175   4.791  1.00  0.00     0.193 HD
ATOM     31  H61 UNL     1       5.921   0.972   5.506  1.00  0.00     0.193 HD
ENDBRANCH  28  29
ENDBRANCH  26  28
ENDBRANCH  23  26
ENDBRANCH  19  20
ENDBRANCH   1  19
TORSDOF 9
