REMARK  6 active torsions:
REMARK  status: ('A' for Active; 'I' for Inactive)
REMARK    1  A    between atoms: C1_2  and  C2_3 
REMARK    2  A    between atoms: C1_2  and  C8_13 
REMARK    3  A    between atoms: C5_6  and  O2_7 
REMARK    4  A    between atoms: C6_9  and  O3_10 
REMARK    5  A    between atoms: C11_16  and  C12_17 
REMARK    6  A    between atoms: C18_23  and  N1_24 
ROOT
HETATM    1  C8  UNL     1      -0.626  -0.411  -1.087  1.00  0.00     0.017 A 
HETATM    2  C9  UNL     1      -0.241  -0.659   0.222  1.00  0.00     0.016 A 
HETATM    3  C10 UNL     1       1.057  -0.457   0.611  1.00  0.00     0.016 A 
HETATM    4  C11 UNL     1       2.028  -0.001  -0.281  1.00  0.00     0.007 A 
HETATM    5  C18 UNL     1       1.677   0.252  -1.574  1.00  0.00     0.115 A 
HETATM    6  C19 UNL     1       0.339   0.035  -1.946  1.00  0.00     0.052 A 
ENDROOT
BRANCH   1   7
HETATM    7  C1  UNL     1      -1.985  -0.552  -1.562  1.00  0.00     0.192 C 
HETATM    8  O1  UNL     1      -2.186  -0.866  -2.785  1.00  0.00    -0.287 OA
BRANCH   7   9
HETATM    9  C2  UNL     1      -3.119  -0.346  -0.703  1.00  0.00     0.018 A 
HETATM   10  C3  UNL     1      -3.122   0.445   0.425  1.00  0.00     0.018 A 
HETATM   11  C4  UNL     1      -4.252   0.590   1.196  1.00  0.00     0.040 A 
HETATM   12  C5  UNL     1      -5.438  -0.038   0.890  1.00  0.00     0.098 A 
HETATM   13  C6  UNL     1      -5.441  -0.827  -0.233  1.00  0.00     0.099 A 
HETATM   14  C7  UNL     1      -4.324  -0.987  -1.017  1.00  0.00     0.054 A 
BRANCH  12  15
HETATM   15  O2  UNL     1      -6.587   0.113   1.678  1.00  0.00    -0.358 OA
ATOM     16  H2  UNL     1      -7.406  -0.320   1.467  1.00  0.00     0.217 HD
ENDBRANCH  12  15
BRANCH  13  17
HETATM   17  O3  UNL     1      -6.632  -1.475  -0.564  1.00  0.00    -0.358 OA
ATOM     18  H3  UNL     1      -6.634  -2.021  -1.341  1.00  0.00     0.217 HD
ENDBRANCH  13  17
ENDBRANCH   7   9
ENDBRANCH   1   7
BRANCH   5  19
HETATM   19  N1  UNL     1       2.574   0.773  -2.535  1.00  0.00    -0.115 N 
HETATM   20  O4  UNL     1       3.749   0.469  -2.575  1.00  0.00    -0.532 OA
HETATM   21  O5  UNL     1       2.130   1.674  -3.512  1.00  0.00    -0.532 OA
ENDBRANCH   5  19
BRANCH   4  22
HETATM   22  C12 UNL     1       3.400   0.172   0.184  1.00  0.00    -0.024 A 
HETATM   23  C13 UNL     1       3.732   1.313   0.882  1.00  0.00     0.012 A 
HETATM   24  C14 UNL     1       5.002   1.521   1.387  1.00  0.00     0.001 A 
HETATM   25  C15 UNL     1       5.975   0.573   1.195  1.00  0.00     0.000 A 
HETATM   26  C16 UNL     1       5.679  -0.574   0.503  1.00  0.00     0.001 A 
HETATM   27  C17 UNL     1       4.405  -0.768   0.005  1.00  0.00     0.012 A 
ENDBRANCH   4  22
TORSDOF 6
