REMARK  6 active torsions:
REMARK  status: ('A' for Active; 'I' for Inactive)
REMARK    1  A    between atoms: N1_8  and  C8_9 
REMARK    2  A    between atoms: C8_9  and  C9_10 
REMARK    3  A    between atoms: C10_13  and  N3_14 
REMARK    4  A    between atoms: N3_14  and  C11_16 
REMARK    5  A    between atoms: C11_16  and  C12_17 
REMARK    6  A    between atoms: C12_17  and  O1_18 
ROOT
HETATM    1  C9  UNL     1       0.500  -1.277   0.182  1.00  0.00     0.092 A 
HETATM    2  N2  UNL     1       1.206  -0.150   0.204  1.00  0.00    -0.189 N 
ATOM      3  H2  UNL     1       0.720   0.715   0.442  1.00  0.00     0.184 HD
HETATM    4  C10 UNL     1       2.532  -0.080  -0.071  1.00  0.00     0.680 A 
HETATM    5  N4  UNL     1       3.230  -1.181  -0.391  1.00  0.00    -0.172 N 
ATOM      6  H4  UNL     1       4.227  -1.129  -0.598  1.00  0.00     0.186 HD
HETATM    7  C13 UNL     1       2.577  -2.353  -0.431  1.00  0.00     0.173 A 
HETATM    8  N5  UNL     1       2.964  -3.626  -0.711  1.00  0.00    -0.223 N 
ATOM      9  H5  UNL     1       3.912  -3.910  -0.959  1.00  0.00     0.198 HD
HETATM   10  O2  UNL     1       1.943  -4.429  -0.615  1.00  0.00    -0.155 OA
HETATM   11  N6  UNL     1       0.899  -3.727  -0.281  1.00  0.00    -0.236 N 
ATOM     12  H6  UNL     1      -0.037  -4.107  -0.137  1.00  0.00     0.197 HD
HETATM   13  C14 UNL     1       1.230  -2.426  -0.152  1.00  0.00     0.131 A 
ENDROOT
BRANCH   1  14
HETATM   14  C8  UNL     1      -0.906  -1.441   0.485  1.00  0.00     0.093 C 
BRANCH  14  15
HETATM   15  N1  UNL     1      -1.664  -0.262   0.804  1.00  0.00    -0.282 NA
HETATM   16  C2  UNL     1      -2.996  -0.611   1.265  1.00  0.00     0.059 C 
HETATM   17  C1  UNL     1      -3.631  -1.734   0.523  1.00  0.00     0.026 C 
HETATM   18  C3  UNL     1      -3.841   0.615   1.298  1.00  0.00     0.020 C 
HETATM   19  C4  UNL     1      -4.102   1.122  -0.107  1.00  0.00     0.003 C 
HETATM   20  C5  UNL     1      -2.914   0.931  -0.995  1.00  0.00     0.020 C 
HETATM   21  C6  UNL     1      -1.631   0.692  -0.243  1.00  0.00     0.059 C 
HETATM   22  C7  UNL     1      -1.108   2.034   0.299  1.00  0.00     0.026 C 
ENDBRANCH  14  15
ENDBRANCH   1  14
BRANCH   4  23
HETATM   23  N3  UNL     1       3.147   1.046  -0.030  1.00  0.00    -0.224 N 
ATOM     24  H3  UNL     1       2.633   1.893   0.211  1.00  0.00     0.177 HD
BRANCH  23  25
HETATM   25  C11 UNL     1       4.552   1.125  -0.320  1.00  0.00     0.164 C 
BRANCH  25  26
HETATM   26  C12 UNL     1       5.107   2.505  -0.036  1.00  0.00     0.184 C 
BRANCH  26  27
HETATM   27  O1  UNL     1       6.466   2.552  -0.326  1.00  0.00    -0.399 OA
ATOM     28  H1  UNL     1       6.814   3.418  -0.148  1.00  0.00     0.209 HD
ENDBRANCH  26  27
ENDBRANCH  25  26
ENDBRANCH  23  25
ENDBRANCH   4  23
TORSDOF 6
