REMARK  6 active torsions:
REMARK  status: ('A' for Active; 'I' for Inactive)
REMARK    1  A    between atoms: C3_3  and  O1_4 
REMARK    2  A    between atoms: N1_9  and  C5_10 
REMARK    3  A    between atoms: C5_10  and  C6_11 
REMARK    4  A    between atoms: C6_11  and  C7_12 
REMARK    5  A    between atoms: C7_12  and  N2_13 
REMARK    6  A    between atoms: C13_20  and  O5_21 
ROOT
HETATM    1  C7  UNL     1       0.386  -0.135   0.807  1.00  0.00     0.274 C 
ENDROOT
BRANCH   1   2
HETATM    2  C6  UNL     1       1.062   1.104   0.335  1.00  0.00     0.050 C 
BRANCH   2   3
HETATM    3  C5  UNL     1       1.886   0.852  -0.872  1.00  0.00     0.136 C 
BRANCH   3   4
HETATM    4  N1  UNL     1       2.977  -0.057  -0.735  1.00  0.00    -0.293 N 
HETATM    5  C2  UNL     1       4.200   0.384  -0.305  1.00  0.00     0.071 A 
HETATM    6  C1  UNL     1       4.574   1.768   0.080  1.00  0.00     0.074 C 
HETATM    7  C3  UNL     1       5.060  -0.669  -0.281  1.00  0.00     0.210 A 
HETATM    8  O2  UNL     1       4.401  -1.727  -0.680  1.00  0.00    -0.235 OA
HETATM    9  C4  UNL     1       3.156  -1.355  -0.951  1.00  0.00     0.374 A 
HETATM   10  O3  UNL     1       2.300  -2.154  -1.354  1.00  0.00    -0.237 OA
BRANCH   7  11
HETATM   11  O1  UNL     1       6.413  -0.621   0.105  1.00  0.00    -0.339 OA
ATOM     12  H1  UNL     1       7.014  -1.357   0.122  1.00  0.00     0.220 HD
ENDBRANCH   7  11
ENDBRANCH   3   4
ENDBRANCH   2   3
ENDBRANCH   1   2
BRANCH   1  13
HETATM   13  N2  UNL     1      -0.561  -0.645  -0.196  1.00  0.00     0.089 N 
HETATM   14  C8  UNL     1      -1.124  -1.890   0.282  1.00  0.00     0.273 C 
HETATM   15  C9  UNL     1      -2.574  -1.887  -0.152  1.00  0.00     0.046 C 
HETATM   16  C10 UNL     1      -2.927  -0.451  -0.206  1.00  0.00     0.039 C 
HETATM   17  C11 UNL     1      -3.860  -0.093  -1.368  1.00  0.00     0.042 C 
HETATM   18  C13 UNL     1      -3.804   0.004   0.940  1.00  0.00     0.267 C 
HETATM   19  C14 UNL     1      -1.645   0.290  -0.299  1.00  0.00     0.286 C 
HETATM   20  C12 UNL     1      -4.374   1.242  -0.844  1.00  0.00     0.172 C 
HETATM   21  O4  UNL     1      -4.238   1.235   0.517  1.00  0.00    -0.361 OA
BRANCH  18  22
HETATM   22  O5  UNL     1      -3.154   0.023   2.152  1.00  0.00    -0.370 OA
ATOM     23  H5  UNL     1      -3.705   0.309   2.872  1.00  0.00     0.212 HD
ENDBRANCH  18  22
ENDBRANCH   1  13
TORSDOF 6
