REMARK  6 active torsions:
REMARK  status: ('A' for Active; 'I' for Inactive)
REMARK    1  A    between atoms: N1_3  and  C2_4 
REMARK    2  A    between atoms: C2_4  and  C3_5 
REMARK    3  A    between atoms: C3_5  and  C4_6 
REMARK    4  A    between atoms: C4_6  and  C5_7 
REMARK    5  A    between atoms: C13_18  and  O3_19 
REMARK    6  A    between atoms: C14_21  and  O4_22 
ROOT
HETATM    1  O1  UNL     1      -1.536  -1.264   1.779  1.00  0.00    -0.245 OA
HETATM    2  C1  UNL     1      -1.984  -0.697   0.723  1.00  0.00     0.347 A 
HETATM    3  N1  UNL     1      -1.372  -0.629  -0.472  1.00  0.00    -0.249 N 
HETATM    4  C11 UNL     1      -2.161   0.047  -1.322  1.00  0.00     0.347 A 
HETATM    5  O2  UNL     1      -1.937   0.324  -2.549  1.00  0.00    -0.245 OA
HETATM    6  N2  UNL     1      -3.265   0.400  -0.655  1.00  0.00    -0.234 N 
HETATM    7  N3  UNL     1      -3.153  -0.052   0.580  1.00  0.00    -0.234 N 
HETATM    8  C12 UNL     1      -4.254   0.223   1.487  1.00  0.00     0.188 C 
HETATM    9  C13 UNL     1      -5.536  -0.157   0.784  1.00  0.00     0.168 C 
HETATM   10  C14 UNL     1      -5.719   0.531  -0.530  1.00  0.00     0.168 C 
HETATM   11  C15 UNL     1      -4.461   1.147  -1.075  1.00  0.00     0.188 C 
ENDROOT
BRANCH   3  12
HETATM   12  C2  UNL     1      -0.061  -1.188  -0.828  1.00  0.00     0.139 C 
BRANCH  12  13
HETATM   13  C3  UNL     1       1.010  -0.142  -0.554  1.00  0.00     0.021 C 
BRANCH  13  14
HETATM   14  C4  UNL     1       2.342  -0.756  -0.933  1.00  0.00     0.006 C 
BRANCH  14  15
HETATM   15  C5  UNL     1       3.477   0.224  -0.690  1.00  0.00    -0.014 C 
HETATM   16  C6  UNL     1       3.558   0.632   0.757  1.00  0.00     0.004 C 
HETATM   17  C7  UNL     1       4.925   1.126   1.143  1.00  0.00     0.000 C 
HETATM   18  C8  UNL     1       6.011   0.139   0.857  1.00  0.00     0.000 C 
HETATM   19  C9  UNL     1       5.403  -1.046   0.096  1.00  0.00     0.000 C 
HETATM   20  C10 UNL     1       4.750  -0.462  -1.140  1.00  0.00     0.004 C 
ENDBRANCH  14  15
ENDBRANCH  13  14
ENDBRANCH  12  13
ENDBRANCH   3  12
BRANCH   9  21
HETATM   21  O3  UNL     1      -6.636   0.115   1.610  1.00  0.00    -0.391 OA
ATOM     22  H3  UNL     1      -7.442  -0.124   1.168  1.00  0.00     0.210 HD
ENDBRANCH   9  21
BRANCH  10  23
HETATM   23  O4  UNL     1      -6.712   1.504  -0.428  1.00  0.00    -0.391 OA
ATOM     24  H4  UNL     1      -6.828   1.941  -1.263  1.00  0.00     0.210 HD
ENDBRANCH  10  23
TORSDOF 6
