REMARK  5 active torsions:
REMARK  status: ('A' for Active; 'I' for Inactive)
REMARK    1  A    between atoms: C2_2  and  N1_3 
REMARK    2  A    between atoms: N1_3  and  C3_5 
REMARK    3  A    between atoms: C8_18  and  N6_19 
REMARK    4  A    between atoms: N7_23  and  C12_24 
REMARK    5  A    between atoms: C12_24  and  C13_25 
ROOT
HETATM    1  C13 UNL     1      -2.613  -2.122   0.239  1.00  0.00     0.144 C 
HETATM    2  C14 UNL     1      -2.771  -1.811   1.624  1.00  0.00     0.060 C 
HETATM    3  N8  UNL     1      -2.902  -1.595   2.750  1.00  0.00    -0.197 NA
ENDROOT
BRANCH   1   4
HETATM    4  C12 UNL     1      -2.159  -1.030  -0.685  1.00  0.00     0.163 C 
BRANCH   4   5
HETATM    5  N7  UNL     1      -0.908  -0.420  -0.444  1.00  0.00    -0.164 N 
HETATM    6  C6  UNL     1       0.302  -0.852  -0.903  1.00  0.00     0.172 A 
HETATM    7  N4  UNL     1       0.658  -1.890  -1.670  1.00  0.00    -0.170 N 
HETATM    8  C7  UNL     1       1.259   0.048  -0.407  1.00  0.00     0.139 A 
HETATM    9  C4  UNL     1       1.994  -2.030  -1.939  1.00  0.00     0.681 A 
HETATM   10  C5  UNL     1      -0.291  -2.811  -2.266  1.00  0.00     0.177 C 
HETATM   11  N2  UNL     1       2.916  -1.149  -1.451  1.00  0.00    -0.175 N 
HETATM   12  N3  UNL     1       2.398  -3.003  -2.638  1.00  0.00    -0.234 N 
HETATM   13  C3  UNL     1       2.603  -0.097  -0.684  1.00  0.00     0.148 A 
ATOM     14  H2  UNL     1       3.897  -1.301  -1.684  1.00  0.00     0.186 HD
ATOM     15  H32 UNL     1       3.393  -3.107  -2.838  1.00  0.00     0.174 HD
ATOM     16  H31 UNL     1       1.709  -3.661  -3.003  1.00  0.00     0.174 HD
HETATM   17  N5  UNL     1       0.624   0.981   0.315  1.00  0.00    -0.184 N 
HETATM   18  C8  UNL     1      -0.699   0.715   0.303  1.00  0.00     0.684 A 
ATOM     19  H5  UNL     1       1.068   1.764   0.795  1.00  0.00     0.184 HD
BRANCH  13  20
HETATM   20  N1  UNL     1       3.532   0.687  -0.268  1.00  0.00    -0.374 N 
ATOM     21  H1  UNL     1       4.457   0.402  -0.589  1.00  0.00     0.161 HD
BRANCH  20  22
HETATM   22  C2  UNL     1       3.569   1.829   0.515  1.00  0.00     0.116 C 
HETATM   23  C1  UNL     1       4.270   1.481   1.841  1.00  0.00     0.026 C 
ENDBRANCH  20  22
ENDBRANCH  13  20
BRANCH  18  24
HETATM   24  N6  UNL     1      -1.712   1.512   0.886  1.00  0.00    -0.217 N 
HETATM   25  C9  UNL     1      -2.780   2.374   0.344  1.00  0.00     0.143 C 
HETATM   26  C10 UNL     1      -2.581   3.283   1.554  1.00  0.00     0.041 C 
HETATM   27  C11 UNL     1      -2.179   1.953   2.190  1.00  0.00     0.143 C 
ENDBRANCH  18  24
ENDBRANCH   4   5
ENDBRANCH   1   4
TORSDOF 5
