REMARK  6 active torsions:
REMARK  status: ('A' for Active; 'I' for Inactive)
REMARK    1  A    between atoms: N1_7  and  C5_8 
REMARK    2  A    between atoms: C10_13  and  O3_14 
REMARK    3  A    between atoms: C11_16  and  O4_17 
REMARK    4  A    between atoms: O4_17  and  C12_18 
REMARK    5  A    between atoms: C12_18  and  C14_20 
REMARK    6  A    between atoms: C14_20  and  O5_21 
ROOT
HETATM    1  C5  UNL     1      -1.929   0.585   0.684  1.00  0.00     0.144 C 
HETATM    2  C6  UNL     1      -2.853   1.637   0.103  1.00  0.00     0.030 C 
HETATM    3  C7  UNL     1      -2.199   2.947  -0.100  1.00  0.00     0.003 C 
HETATM    4  C8  UNL     1      -0.795   2.929  -0.577  1.00  0.00     0.010 C 
HETATM    5  C9  UNL     1       0.028   1.828   0.023  1.00  0.00     0.050 C 
HETATM    6  C10 UNL     1       1.264   1.484  -0.739  1.00  0.00     0.179 C 
HETATM    7  C11 UNL     1       1.409   0.006  -0.459  1.00  0.00     0.289 C 
HETATM    8  O6  UNL     1       0.248  -0.381   0.246  1.00  0.00    -0.351 OA
HETATM    9  C15 UNL     1      -0.734   0.501  -0.182  1.00  0.00     0.156 C 
ENDROOT
BRANCH   1  10
HETATM   10  N1  UNL     1      -2.645  -0.665   0.875  1.00  0.00    -0.246 N 
HETATM   11  C2  UNL     1      -2.912  -1.617  -0.024  1.00  0.00     0.038 A 
HETATM   12  C1  UNL     1      -2.549  -1.644  -1.439  1.00  0.00     0.070 C 
HETATM   13  C3  UNL     1      -3.611  -2.604   0.630  1.00  0.00     0.110 A 
HETATM   14  C4  UNL     1      -3.734  -2.182   1.930  1.00  0.00     0.306 A 
HETATM   15  O1  UNL     1      -4.320  -2.832   2.830  1.00  0.00    -0.258 OA
HETATM   16  O2  UNL     1      -3.142  -1.034   2.004  1.00  0.00    -0.193 OA
ENDBRANCH   1  10
BRANCH   6  17
HETATM   17  O3  UNL     1       2.370   2.230  -0.364  1.00  0.00    -0.390 OA
ATOM     18  H3  UNL     1       3.157   2.011  -0.849  1.00  0.00     0.210 HD
ENDBRANCH   6  17
BRANCH   7  19
HETATM   19  O4  UNL     1       2.471  -0.251   0.369  1.00  0.00    -0.352 OA
BRANCH  19  20
HETATM   20  C12 UNL     1       3.380  -1.129  -0.179  1.00  0.00     0.144 C 
HETATM   21  C13 UNL     1       3.489  -2.376   0.708  1.00  0.00     0.042 C 
BRANCH  20  22
HETATM   22  C14 UNL     1       4.715  -0.434  -0.282  1.00  0.00     0.195 C 
BRANCH  22  23
HETATM   23  O5  UNL     1       5.674  -1.293  -0.832  1.00  0.00    -0.398 OA
ATOM     24  H5  UNL     1       6.515  -0.855  -0.897  1.00  0.00     0.209 HD
ENDBRANCH  22  23
ENDBRANCH  20  22
ENDBRANCH  19  20
ENDBRANCH   7  19
TORSDOF 6
