REMARK  5 active torsions:
REMARK  status: ('A' for Active; 'I' for Inactive)
REMARK    1  A    between atoms: O1_1  and  C1_3 
REMARK    2  A    between atoms: C1_3  and  C2_4 
REMARK    3  A    between atoms: C2_4  and  C3_5 
REMARK    4  A    between atoms: N1_8  and  C6_9 
REMARK    5  A    between atoms: C8_15  and  N4_16 
ROOT
HETATM    1  C6  UNL     1      -0.112  -1.393  -0.677  1.00  0.00     0.695 A 
HETATM    2  N2  UNL     1      -0.310  -2.632  -1.163  1.00  0.00    -0.187 N 
ATOM      3  H2  UNL     1       0.493  -3.222  -1.382  1.00  0.00     0.185 HD
HETATM    4  C7  UNL     1      -1.545  -3.099  -1.362  1.00  0.00     0.215 A 
HETATM    5  N3  UNL     1      -2.591  -2.314  -1.070  1.00  0.00    -0.187 N 
ATOM      6  H3  UNL     1      -3.531  -2.678  -1.224  1.00  0.00     0.185 HD
HETATM    7  C8  UNL     1      -2.456  -1.068  -0.583  1.00  0.00     0.695 A 
HETATM    8  N5  UNL     1      -1.185  -0.638  -0.397  1.00  0.00    -0.022 N 
ATOM      9  H5  UNL     1      -1.037   0.301  -0.028  1.00  0.00     0.203 HD
ENDROOT
BRANCH   1  10
HETATM   10  N1  UNL     1       1.227  -0.909  -0.470  1.00  0.00    -0.215 N 
HETATM   11  C5  UNL     1       1.275   0.447   0.061  1.00  0.00     0.143 C 
HETATM   12  C4  UNL     1       2.601   1.050  -0.343  1.00  0.00     0.045 C 
HETATM   13  C3  UNL     1       3.650   0.570   0.638  1.00  0.00     0.080 C 
HETATM   14  N6  UNL     1       3.408  -0.725   1.148  1.00  0.00    -0.415 N 
HETATM   15  C15 UNL     1       3.420  -1.791   0.218  1.00  0.00     0.134 C 
ATOM     16  H6  UNL     1       3.233  -0.884   2.140  1.00  0.00     0.153 HD
HETATM   17  C14 UNL     1       2.316  -1.775  -0.793  1.00  0.00     0.160 C 
BRANCH  13  18
HETATM   18  C2  UNL     1       5.045   0.681   0.043  1.00  0.00     0.050 C 
BRANCH  18  19
HETATM   19  C1  UNL     1       5.364   2.116  -0.317  1.00  0.00     0.166 C 
BRANCH  19  20
HETATM   20  O1  UNL     1       5.305   2.929   0.824  1.00  0.00    -0.401 OA
ATOM     21  H1  UNL     1       5.505   3.830   0.598  1.00  0.00     0.209 HD
ENDBRANCH  19  20
ENDBRANCH  18  19
ENDBRANCH  13  18
ENDBRANCH   1  10
BRANCH   7  22
HETATM   22  N4  UNL     1      -3.584  -0.243  -0.277  1.00  0.00    -0.217 N 
HETATM   23  C9  UNL     1      -4.884  -0.775  -0.501  1.00  0.00     0.141 C 
HETATM   24  C10 UNL     1      -6.013  -0.022   0.069  1.00  0.00     0.020 C 
HETATM   25  C11 UNL     1      -5.689   1.241   0.771  1.00  0.00     0.003 C 
HETATM   26  C12 UNL     1      -4.323   1.292   1.386  1.00  0.00     0.020 C 
HETATM   27  C13 UNL     1      -3.320   1.087   0.244  1.00  0.00     0.141 C 
ENDBRANCH   7  22
TORSDOF 5
