REMARK  6 active torsions:
REMARK  status: ('A' for Active; 'I' for Inactive)
REMARK    1  A    between atoms: C2_2  and  N1_3 
REMARK    2  A    between atoms: C4_5  and  C5_6 
REMARK    3  A    between atoms: C5_6  and  N2_7 
REMARK    4  A    between atoms: C7_12  and  N4_13 
REMARK    5  A    between atoms: N5_16  and  N6_17 
REMARK    6  A    between atoms: C11_25  and  C12_26 
REMARK       I    between atoms: C12_26  and  N9_28 
ROOT
HETATM    1  N2  UNL     1       1.267   0.158  -1.515  1.00  0.00    -0.350 N 
ATOM      2  H2  UNL     1       1.090   0.809  -2.280  1.00  0.00     0.166 HD
HETATM    3  C6  UNL     1       2.316   0.509  -0.982  1.00  0.00     0.145 A 
HETATM    4  N3  UNL     1       2.982   1.613  -1.480  1.00  0.00    -0.173 N 
ATOM      5  H3  UNL     1       2.579   2.104  -2.278  1.00  0.00     0.186 HD
HETATM    6  C7  UNL     1       4.128   2.067  -0.967  1.00  0.00     0.699 A 
HETATM    7  N5  UNL     1       4.689   1.439   0.091  1.00  0.00    -0.077 N 
HETATM    8  C8  UNL     1       4.125   0.357   0.652  1.00  0.00     0.180 A 
HETATM    9  N7  UNL     1       4.710  -0.313   1.769  1.00  0.00    -0.078 NA
HETATM   10  C9  UNL     1       2.917  -0.097   0.088  1.00  0.00     0.132 A 
HETATM   11  C10 UNL     1       2.318  -1.256   0.701  1.00  0.00     0.107 C 
HETATM   12  N8  UNL     1       1.861  -2.175   1.211  1.00  0.00    -0.191 NA
ENDROOT
BRANCH   1  13
HETATM   13  C5  UNL     1       0.235  -0.744  -1.510  1.00  0.00     0.105 C 
BRANCH  13  14
HETATM   14  C4  UNL     1      -0.882  -0.294  -0.595  1.00  0.00     0.030 A 
HETATM   15  C3  UNL     1      -0.864   0.866   0.127  1.00  0.00     0.125 A 
HETATM   16  N1  UNL     1      -2.026   0.906   0.804  1.00  0.00    -0.302 N 
HETATM   17  N10 UNL     1      -2.741  -0.167   0.527  1.00  0.00    -0.293 N 
HETATM   18  C11 UNL     1      -2.072  -0.932  -0.331  1.00  0.00     0.129 A 
ATOM     19  H10 UNL     1      -3.662  -0.377   0.911  1.00  0.00     0.187 HD
BRANCH  16  20
HETATM   20  C2  UNL     1      -2.420   1.986   1.707  1.00  0.00     0.143 C 
HETATM   21  C1  UNL     1      -3.171   3.073   0.975  1.00  0.00     0.028 C 
ENDBRANCH  16  20
BRANCH  18  22
HETATM   22  C12 UNL     1      -2.502  -2.224  -0.909  1.00  0.00     0.272 C 
HETATM   23  O1  UNL     1      -1.739  -2.821  -1.715  1.00  0.00    -0.266 OA
HETATM   24  N9  UNL     1      -3.741  -2.823  -0.594  1.00  0.00    -0.355 N 
HETATM   25  C13 UNL     1      -4.082  -4.088  -1.204  1.00  0.00     0.152 C 
HETATM   26  C14 UNL     1      -4.672  -2.203   0.322  1.00  0.00     0.152 C 
ENDBRANCH  18  22
ENDBRANCH  13  14
ENDBRANCH   1  13
BRANCH   7  27
HETATM   27  N6  UNL     1       5.878   1.921   0.612  1.00  0.00    -0.323 N 
ATOM     28  H62 UNL     1       6.306   2.743   0.186  1.00  0.00     0.178 HD
ATOM     29  H61 UNL     1       6.301   1.447   1.410  1.00  0.00     0.178 HD
ENDBRANCH   7  27
BRANCH   6  30
HETATM   30  N4  UNL     1       4.730   3.105  -1.456  1.00  0.00    -0.233 N 
ATOM     31  H42 UNL     1       4.307   3.579  -2.254  1.00  0.00     0.174 HD
ATOM     32  H41 UNL     1       5.606   3.452  -1.064  1.00  0.00     0.174 HD
ENDBRANCH   6  30
TORSDOF 6
