REMARK  6 active torsions:
REMARK  status: ('A' for Active; 'I' for Inactive)
REMARK    1  A    between atoms: C2_2  and  N1_3 
REMARK    2  A    between atoms: C2_2  and  C3_7 
REMARK    3  A    between atoms: C6_13  and  N3_14 
REMARK    4  A    between atoms: N3_14  and  N4_16 
REMARK    5  A    between atoms: C7_18  and  C8_19 
REMARK    6  A    between atoms: C11_28  and  N7_29 
ROOT
HETATM    1  N3  UNL     1      -0.239   0.613  -0.923  1.00  0.00    -0.132 N 
ATOM      2  H3  UNL     1      -0.301  -0.245  -1.471  1.00  0.00     0.205 HD
ENDROOT
BRANCH   1   3
HETATM    3  C6  UNL     1       0.883   0.791  -0.302  1.00  0.00     0.700 A 
HETATM    4  N2  UNL     1       1.135   1.858   0.459  1.00  0.00    -0.155 N 
HETATM    5  C5  UNL     1       2.296   2.036   1.098  1.00  0.00     0.261 A 
ATOM      6  H2  UNL     1       0.410   2.569   0.557  1.00  0.00     0.187 HD
HETATM    7  C4  UNL     1       3.271   1.059   0.953  1.00  0.00     0.102 A 
HETATM    8  O1  UNL     1       2.513   3.062   1.818  1.00  0.00    -0.268 OA
HETATM    9  C3  UNL     1       3.029  -0.046   0.174  1.00  0.00     0.062 A 
HETATM   10  N8  UNL     1       1.836  -0.145  -0.432  1.00  0.00    -0.192 N 
ATOM     11  H8  UNL     1       1.646  -0.962  -1.013  1.00  0.00     0.184 HD
BRANCH   9  12
HETATM   12  C2  UNL     1       4.056  -1.100   0.007  1.00  0.00     0.229 C 
HETATM   13  C1  UNL     1       5.376  -0.553   0.499  1.00  0.00     0.046 C 
BRANCH  12  14
HETATM   14  N1  UNL     1       4.111  -1.443  -1.404  1.00  0.00    -0.070 N 
ATOM     15  H13 UNL     1       4.419  -0.651  -1.968  1.00  0.00     0.275 HD
ATOM     16  H12 UNL     1       4.878  -2.086  -1.601  1.00  0.00     0.275 HD
ATOM     17  H11 UNL     1       3.220  -1.812  -1.736  1.00  0.00     0.275 HD
ENDBRANCH  12  14
ENDBRANCH   9  12
ENDBRANCH   1   3
BRANCH   1  18
HETATM   18  N4  UNL     1      -1.309   1.374  -0.952  1.00  0.00    -0.295 N 
HETATM   19  C7  UNL     1      -2.545   1.317  -0.722  1.00  0.00     0.140 C 
ATOM     20  H4  UNL     1      -1.057   2.313  -1.260  1.00  0.00     0.186 HD
BRANCH  19  21
HETATM   21  C8  UNL     1      -3.296   0.167  -0.268  1.00  0.00     0.092 A 
HETATM   22  N5  UNL     1      -2.691  -1.012  -0.040  1.00  0.00    -0.305 N 
HETATM   23  C9  UNL     1      -3.372  -2.107   0.386  1.00  0.00     0.327 A 
ATOM     24  H5  UNL     1      -1.685  -1.087  -0.192  1.00  0.00     0.171 HD
HETATM   25  O2  UNL     1      -2.730  -3.167   0.574  1.00  0.00    -0.247 OA
HETATM   26  N6  UNL     1      -4.688  -2.058   0.601  1.00  0.00    -0.273 N 
HETATM   27  C10 UNL     1      -5.310  -0.919   0.388  1.00  0.00     0.284 A 
ATOM     28  H6  UNL     1      -5.198  -2.881   0.922  1.00  0.00     0.173 HD
HETATM   29  O3  UNL     1      -6.564  -0.869   0.591  1.00  0.00    -0.265 OA
HETATM   30  C11 UNL     1      -4.665   0.264  -0.058  1.00  0.00     0.198 A 
BRANCH  30  31
HETATM   31  N7  UNL     1      -5.429   1.419  -0.250  1.00  0.00    -0.107 N 
HETATM   32  O4  UNL     1      -5.075   2.518  -0.621  1.00  0.00    -0.531 OA
HETATM   33  O5  UNL     1      -6.807   1.328   0.014  1.00  0.00    -0.531 OA
ENDBRANCH  30  31
ENDBRANCH  19  21
ENDBRANCH   1  18
TORSDOF 6
