REMARK  7 active torsions:
REMARK  status: ('A' for Active; 'I' for Inactive)
REMARK    1  A    between atoms: C2_2  and  C3_3 
REMARK    2  A    between atoms: C3_3  and  N1_4 
REMARK       I    between atoms: N1_4  and  C4_6 
REMARK       I    between atoms: C4_6  and  N2_8 
REMARK    3  A    between atoms: N2_8  and  N3_10 
REMARK       I    between atoms: N3_10  and  C5_12 
REMARK       I    between atoms: C5_12  and  N4_14 
REMARK    4  A    between atoms: N4_14  and  N5_16 
REMARK    5  A    between atoms: N5_16  and  C6_18 
REMARK    6  A    between atoms: C6_18  and  C7_20 
REMARK    7  A    between atoms: N8_25  and  N9_26 
ROOT
HETATM    1  N5  UNL     1       1.942  -1.170  -0.436  1.00  0.00    -0.283 N 
ATOM      2  H5  UNL     1       2.238  -1.075  -1.407  1.00  0.00     0.188 HD
ENDROOT
BRANCH   1   3
HETATM    3  N4  UNL     1       0.598  -1.351  -0.127  1.00  0.00    -0.249 N 
HETATM    4  C5  UNL     1      -0.399  -0.692  -0.847  1.00  0.00     0.353 C 
HETATM    5  N3  UNL     1      -1.760  -0.887  -0.515  1.00  0.00    -0.246 N 
HETATM    6  O2  UNL     1      -0.104   0.071  -1.786  1.00  0.00    -0.244 OA
ATOM      7  H3  UNL     1      -1.966  -1.518   0.260  1.00  0.00     0.192 HD
ATOM      8  H4  UNL     1       0.337  -1.975   0.637  1.00  0.00     0.192 HD
BRANCH   5   9
HETATM    9  N2  UNL     1      -2.841  -0.291  -1.156  1.00  0.00    -0.248 N 
HETATM   10  C4  UNL     1      -4.087  -0.219  -0.471  1.00  0.00     0.334 C 
HETATM   11  N1  UNL     1      -5.257   0.351  -1.018  1.00  0.00    -0.342 N 
HETATM   12  O1  UNL     1      -4.159  -0.695   0.699  1.00  0.00    -0.246 OA
ATOM     13  H1  UNL     1      -5.242   0.747  -1.958  1.00  0.00     0.164 HD
ATOM     14  H2  UNL     1      -2.743   0.087  -2.098  1.00  0.00     0.192 HD
BRANCH  11  15
HETATM   15  C3  UNL     1      -6.467   0.372  -0.249  1.00  0.00     0.124 C 
BRANCH  15  16
HETATM   16  C2  UNL     1      -7.596   1.004  -0.999  1.00  0.00     0.015 C 
HETATM   17  C1  UNL     1      -8.860   1.003  -0.150  1.00  0.00     0.006 C 
ENDBRANCH  15  16
ENDBRANCH  11  15
ENDBRANCH   5   9
ENDBRANCH   1   3
BRANCH   1  18
HETATM   18  C6  UNL     1       2.902  -1.118   0.617  1.00  0.00     0.162 C 
HETATM   19  S1  UNL     1       2.401  -1.270   2.177  1.00  0.00    -0.055 SA
BRANCH  18  20
HETATM   20  C7  UNL     1       4.317  -0.933   0.333  1.00  0.00     0.179 A 
HETATM   21  N6  UNL     1       5.006  -1.371  -0.760  1.00  0.00    -0.264 N 
HETATM   22  N7  UNL     1       6.260  -0.990  -0.613  1.00  0.00    -0.204 N 
ATOM     23  H6  UNL     1       4.622  -1.896  -1.546  1.00  0.00     0.190 HD
HETATM   24  N8  UNL     1       6.433  -0.319   0.527  1.00  0.00    -0.107 N 
ATOM     25  H7  UNL     1       7.003  -1.184  -1.285  1.00  0.00     0.212 HD
HETATM   26  N11 UNL     1       5.230  -0.298   1.086  1.00  0.00    -0.243 N 
ATOM     27  H11 UNL     1       5.023   0.147   1.980  1.00  0.00     0.192 HD
BRANCH  24  28
HETATM   28  N9  UNL     1       7.614   0.234   1.018  1.00  0.00    -0.224 N 
HETATM   29  C8  UNL     1       8.540   0.880   0.310  1.00  0.00     0.138 A 
HETATM   30  C9  UNL     1       9.541   1.262   1.182  1.00  0.00     0.108 A 
HETATM   31  N10 UNL     1       9.195   0.831   2.426  1.00  0.00    -0.359 N 
HETATM   32  C10 UNL     1       8.024   0.214   2.286  1.00  0.00     0.209 A 
ATOM     33  H10 UNL     1       9.725   0.955   3.289  1.00  0.00     0.166 HD
ENDBRANCH  24  28
ENDBRANCH  18  20
ENDBRANCH   1  18
TORSDOF 7
