REMARK  9 active torsions:
REMARK  status: ('A' for Active; 'I' for Inactive)
REMARK    1  A    between atoms: C2_3  and  C10_11 
REMARK    2  A    between atoms: C3_4  and  C4_5 
REMARK       I    between atoms: C10_11  and  N2_13 
REMARK    3  A    between atoms: N2_13  and  N3_15 
REMARK    4  A    between atoms: N3_15  and  C11_17 
REMARK    5  A    between atoms: C11_17  and  N4_19 
REMARK    6  A    between atoms: N4_19  and  C12_21 
REMARK    7  A    between atoms: C15_24  and  C16_25 
REMARK    8  A    between atoms: C16_25  and  N5_26 
REMARK    9  A    between atoms: N5_26  and  C17_27 
ROOT
HETATM    1  N1  UNL     1       4.875   1.853   0.605  1.00  0.00    -0.191 NA
HETATM    2  C1  UNL     1       5.172   1.012  -0.166  1.00  0.00     0.105 C 
HETATM    3  C2  UNL     1       5.500  -0.024  -1.098  1.00  0.00     0.114 C 
HETATM    4  C3  UNL     1       6.678  -0.595  -1.088  1.00  0.00     0.039 C 
ENDROOT
BRANCH   3   5
HETATM    5  C10 UNL     1       4.462  -0.423  -2.054  1.00  0.00     0.280 C 
HETATM    6  O1  UNL     1       4.680  -1.330  -2.884  1.00  0.00    -0.265 OA
HETATM    7  N2  UNL     1       3.204   0.222  -2.034  1.00  0.00    -0.263 N 
ATOM      8  H2  UNL     1       3.005   0.967  -1.366  1.00  0.00     0.190 HD
BRANCH   7   9
HETATM    9  N3  UNL     1       2.246  -0.191  -2.954  1.00  0.00    -0.273 N 
ATOM     10  H3  UNL     1       2.504  -0.369  -3.925  1.00  0.00     0.189 HD
BRANCH   9  11
HETATM   11  C11 UNL     1       0.880  -0.365  -2.515  1.00  0.00     0.191 C 
HETATM   12  S1  UNL     1      -0.169  -0.849  -3.634  1.00  0.00    -0.039 SA
BRANCH  11  13
HETATM   13  N4  UNL     1       0.563  -0.107  -1.198  1.00  0.00    -0.326 N 
ATOM     14  H4  UNL     1       1.325   0.201  -0.595  1.00  0.00     0.169 HD
BRANCH  13  15
HETATM   15  C12 UNL     1      -0.714  -0.227  -0.599  1.00  0.00     0.076 A 
HETATM   16  C13 UNL     1      -1.941  -0.631  -1.022  1.00  0.00     0.039 A 
HETATM   17  C14 UNL     1      -2.967  -0.589  -0.159  1.00  0.00     0.024 A 
HETATM   18  C15 UNL     1      -2.723  -0.141   1.100  1.00  0.00     0.035 A 
HETATM   19  S2  UNL     1      -1.063   0.213   1.059  1.00  0.00    -0.070 SA
BRANCH  18  20
HETATM   20  C16 UNL     1      -3.675   0.019   2.269  1.00  0.00     0.203 C 
BRANCH  20  21
HETATM   21  N5  UNL     1      -4.897  -0.517   2.033  1.00  0.00    -0.398 NA
BRANCH  21  22
HETATM   22  C17 UNL     1      -6.014  -0.655   1.641  1.00  0.00     0.191 A 
HETATM   23  N6  UNL     1      -6.669  -1.828   1.951  1.00  0.00    -0.327 N 
HETATM   24  C18 UNL     1      -7.918  -2.081   1.568  1.00  0.00     0.183 A 
ATOM     25  H6  UNL     1      -6.174  -2.533   2.498  1.00  0.00     0.169 HD
HETATM   26  N7  UNL     1      -8.613  -1.190   0.848  1.00  0.00    -0.351 N 
HETATM   27  C19 UNL     1      -8.051  -0.026   0.506  1.00  0.00     0.048 A 
ATOM     28  H7  UNL     1      -9.569  -1.399   0.561  1.00  0.00     0.166 HD
HETATM   29  C20 UNL     1      -8.808   0.883  -0.240  1.00  0.00     0.030 A 
HETATM   30  C24 UNL     1      -6.765   0.252   0.892  1.00  0.00     0.049 A 
HETATM   31  C21 UNL     1      -8.230   2.076  -0.584  1.00  0.00     0.002 A 
HETATM   32  C22 UNL     1      -6.945   2.357  -0.199  1.00  0.00     0.001 A 
HETATM   33  C23 UNL     1      -6.186   1.476   0.534  1.00  0.00     0.018 A 
ENDBRANCH  21  22
ENDBRANCH  20  21
ENDBRANCH  18  20
ENDBRANCH  13  15
ENDBRANCH  11  13
ENDBRANCH   9  11
ENDBRANCH   7   9
ENDBRANCH   3   5
BRANCH   4  34
HETATM   34  C4  UNL     1       7.724  -0.251  -0.176  1.00  0.00    -0.035 A 
HETATM   35  C5  UNL     1       8.111   1.043   0.079  1.00  0.00     0.011 A 
HETATM   36  C6  UNL     1       9.132   1.270   1.013  1.00  0.00     0.001 A 
HETATM   37  C7  UNL     1       9.765   0.254   1.685  1.00  0.00     0.000 A 
HETATM   38  C8  UNL     1       9.378  -1.055   1.429  1.00  0.00     0.001 A 
HETATM   39  C9  UNL     1       8.368  -1.289   0.507  1.00  0.00     0.011 A 
ENDBRANCH   4  34
TORSDOF 9
