REMARK  6 active torsions:
REMARK  status: ('A' for Active; 'I' for Inactive)
REMARK       I    between atoms: C2_2  and  N1_4 
REMARK    1  A    between atoms: N2_6  and  C3_8 
REMARK    2  A    between atoms: C7_16  and  N5_17 
REMARK    3  A    between atoms: N5_17  and  S1_19 
REMARK    4  A    between atoms: S1_19  and  C8_22 
REMARK    5  A    between atoms: C11_25  and  N6_26 
REMARK       I    between atoms: N6_26  and  C12_28 
REMARK       I    between atoms: C12_28  and  N7_30 
REMARK    6  A    between atoms: N7_30  and  C13_32 
ROOT
HETATM    1  N5  UNL     1       2.759   0.875   2.141  1.00  0.00    -0.266 N 
ATOM      2  H5  UNL     1       3.255   1.734   1.903  1.00  0.00     0.180 HD
ENDROOT
BRANCH   1   3
HETATM    3  C7  UNL     1       3.227  -0.201   1.620  1.00  0.00     0.115 A 
HETATM    4  C6  UNL     1       2.708  -1.460   1.811  1.00  0.00     0.051 A 
HETATM    5  C5  UNL     1       3.286  -2.559   1.204  1.00  0.00     0.037 A 
HETATM    6  C4  UNL     1       4.393  -2.423   0.395  1.00  0.00     0.079 A 
HETATM    7  N4  UNL     1       5.148  -3.287  -0.309  1.00  0.00    -0.297 N 
HETATM    8  C21 UNL     1       4.897  -1.150   0.216  1.00  0.00     0.109 A 
HETATM    9  N3  UNL     1       6.116  -2.636  -0.933  1.00  0.00    -0.282 N 
ATOM     10  H4  UNL     1       4.996  -4.295  -0.355  1.00  0.00     0.187 HD
HETATM   11  C3  UNL     1       5.990  -1.333  -0.633  1.00  0.00     0.164 A 
ATOM     12  H3  UNL     1       6.829  -3.049  -1.534  1.00  0.00     0.188 HD
HETATM   13  N8  UNL     1       4.330  -0.104   0.807  1.00  0.00    -0.337 N 
ATOM     14  H8  UNL     1       4.735   0.819   0.649  1.00  0.00     0.167 HD
BRANCH  11  15
HETATM   15  N2  UNL     1       6.806  -0.268  -1.077  1.00  0.00    -0.280 N 
HETATM   16  N1  UNL     1       6.788   0.062  -2.297  1.00  0.00    -0.269 N 
HETATM   17  C2  UNL     1       7.613   1.133  -2.723  1.00  0.00     0.232 C 
ATOM     18  H1  UNL     1       6.192  -0.432  -2.961  1.00  0.00     0.190 HD
HETATM   19  C1  UNL     1       9.083   0.956  -2.741  1.00  0.00     0.119 C 
HETATM   20  O1  UNL     1       7.054   2.214  -3.078  1.00  0.00    -0.272 OA
ATOM     21  H2  UNL     1       7.405   0.230  -0.418  1.00  0.00     0.188 HD
ENDBRANCH  11  15
ENDBRANCH   1   3
BRANCH   1  22
HETATM   22  S1  UNL     1       1.433   1.057   3.167  1.00  0.00     0.264 S 
HETATM   23  O2  UNL     1       1.249  -0.063   4.157  1.00  0.00    -0.200 OA
HETATM   24  O3  UNL     1       1.563   2.314   4.029  1.00  0.00    -0.200 OA
BRANCH  22  25
HETATM   25  C8  UNL     1      -0.026   1.208   2.189  1.00  0.00     0.080 A 
HETATM   26  C9  UNL     1      -0.742   0.083   1.903  1.00  0.00     0.027 A 
HETATM   27  C10 UNL     1      -1.900   0.187   1.127  1.00  0.00     0.031 A 
HETATM   28  C11 UNL     1      -2.356   1.367   0.637  1.00  0.00     0.036 A 
HETATM   29  C19 UNL     1      -1.591   2.523   0.949  1.00  0.00     0.031 A 
HETATM   30  C20 UNL     1      -0.456   2.444   1.706  1.00  0.00     0.027 A 
BRANCH  28  31
HETATM   31  N6  UNL     1      -3.522   1.513  -0.126  1.00  0.00    -0.309 N 
HETATM   32  C12 UNL     1      -4.582   0.588  -0.194  1.00  0.00     0.325 C 
HETATM   33  O4  UNL     1      -4.564  -0.491   0.465  1.00  0.00    -0.247 OA
HETATM   34  N7  UNL     1      -5.673   0.919  -1.035  1.00  0.00    -0.309 N 
ATOM     35  H7  UNL     1      -5.631   1.808  -1.533  1.00  0.00     0.170 HD
ATOM     36  H6  UNL     1      -3.611   2.364  -0.681  1.00  0.00     0.170 HD
BRANCH  34  37
HETATM   37  C13 UNL     1      -6.803   0.121  -1.234  1.00  0.00     0.036 A 
HETATM   38  C14 UNL     1      -7.990   0.715  -1.678  1.00  0.00     0.029 A 
HETATM   39  C15 UNL     1      -9.119  -0.016  -1.915  1.00  0.00     0.002 A 
HETATM   40  C16 UNL     1      -9.146  -1.375  -1.730  1.00  0.00     0.000 A 
HETATM   41  C17 UNL     1      -7.988  -1.965  -1.295  1.00  0.00     0.002 A 
HETATM   42  C18 UNL     1      -6.824  -1.231  -1.048  1.00  0.00     0.029 A 
ENDBRANCH  34  37
ENDBRANCH  28  31
ENDBRANCH  22  25
ENDBRANCH   1  22
TORSDOF 6
