REMARK  8 active torsions:
REMARK  status: ('A' for Active; 'I' for Inactive)
REMARK    1  A    between atoms: O1_1  and  C1_3 
REMARK    2  A    between atoms: C1_3  and  N1_4 
REMARK    3  A    between atoms: C1_3  and  C9_12 
REMARK    4  A    between atoms: N1_4  and  C2_5 
REMARK    5  A    between atoms: C2_5  and  C3_6 
REMARK    6  A    between atoms: C11_14  and  C12_15 
REMARK    7  A    between atoms: C17_24  and  N4_25 
REMARK    8  A    between atoms: N4_25  and  C18_27 
ROOT
HETATM    1  C12 UNL     1       0.503  -1.410   1.464  1.00  0.00    -0.019 A 
HETATM    2  C13 UNL     1       0.514  -1.294   2.830  1.00  0.00     0.014 A 
HETATM    3  C14 UNL     1       1.620  -0.786   3.511  1.00  0.00     0.031 A 
HETATM    4  C15 UNL     1       2.741  -0.379   2.839  1.00  0.00     0.047 A 
HETATM    5  N2  UNL     1       3.827   0.101   3.464  1.00  0.00    -0.352 N 
ATOM      6  H2  UNL     1       3.815   0.175   4.481  1.00  0.00     0.166 HD
HETATM    7  C16 UNL     1       4.951   0.495   2.789  1.00  0.00     0.182 A 
HETATM    8  N3  UNL     1       4.933   0.384   1.438  1.00  0.00    -0.338 N 
ATOM      9  H3  UNL     1       5.761   0.673   0.918  1.00  0.00     0.168 HD
HETATM   10  C17 UNL     1       3.902  -0.078   0.764  1.00  0.00     0.119 A 
HETATM   11  C25 UNL     1       2.754  -0.483   1.451  1.00  0.00     0.035 A 
HETATM   12  C26 UNL     1       1.652  -0.989   0.788  1.00  0.00     0.030 A 
ENDROOT
BRANCH   1  13
HETATM   13  C11 UNL     1      -0.609  -1.963   0.690  1.00  0.00     0.046 A 
HETATM   14  C10 UNL     1      -1.682  -1.241   0.230  1.00  0.00     0.054 A 
HETATM   15  C9  UNL     1      -2.666  -1.820  -0.506  1.00  0.00     0.114 A 
HETATM   16  N8  UNL     1      -2.558  -3.149  -0.776  1.00  0.00    -0.293 N 
HETATM   17  N7  UNL     1      -1.541  -3.881  -0.348  1.00  0.00    -0.265 N 
ATOM     18  H8  UNL     1      -3.288  -3.598  -1.329  1.00  0.00     0.187 HD
HETATM   19  C27 UNL     1      -0.565  -3.336   0.376  1.00  0.00     0.271 A 
ATOM     20  H7  UNL     1      -1.505  -4.875  -0.576  1.00  0.00     0.190 HD
HETATM   21  O2  UNL     1       0.387  -4.008   0.786  1.00  0.00    -0.266 OA
BRANCH  15  22
HETATM   22  C1  UNL     1      -3.894  -1.133  -0.994  1.00  0.00     0.242 C 
BRANCH  22  23
HETATM   23  O1  UNL     1      -3.915  -1.117  -2.300  1.00  0.00    -0.334 OA
ATOM     24  H1  UNL     1      -3.255  -1.474  -2.883  1.00  0.00     0.220 HD
ENDBRANCH  22  23
BRANCH  22  25
HETATM   25  N1  UNL     1      -4.815  -0.635  -0.181  1.00  0.00    -0.390 NA
BRANCH  25  26
HETATM   26  C2  UNL     1      -5.776  -0.114   0.663  1.00  0.00     0.197 C 
BRANCH  26  27
HETATM   27  C3  UNL     1      -6.937   0.590   0.131  1.00  0.00    -0.007 A 
HETATM   28  C4  UNL     1      -6.798   1.601  -0.809  1.00  0.00     0.014 A 
HETATM   29  C5  UNL     1      -7.898   2.302  -1.309  1.00  0.00     0.001 A 
HETATM   30  C6  UNL     1      -9.166   2.004  -0.877  1.00  0.00     0.000 A 
HETATM   31  C7  UNL     1      -9.323   1.009   0.051  1.00  0.00     0.001 A 
HETATM   32  C8  UNL     1      -8.241   0.318   0.543  1.00  0.00     0.014 A 
ENDBRANCH  26  27
ENDBRANCH  25  26
ENDBRANCH  22  25
ENDBRANCH  15  22
ENDBRANCH   1  13
BRANCH  10  33
HETATM   33  N4  UNL     1       3.843  -0.197  -0.533  1.00  0.00    -0.342 N 
ATOM     34  H4  UNL     1       3.020  -0.560  -1.014  1.00  0.00     0.167 HD
BRANCH  33  35
HETATM   35  C18 UNL     1       5.023   0.222  -1.232  1.00  0.00     0.034 A 
HETATM   36  C19 UNL     1       5.751  -0.648  -2.042  1.00  0.00     0.032 A 
HETATM   37  C20 UNL     1       6.877  -0.215  -2.706  1.00  0.00     0.034 A 
HETATM   38  C21 UNL     1       7.323   1.082  -2.597  1.00  0.00     0.059 A 
HETATM   39  N5  UNL     1       8.364   1.779  -3.115  1.00  0.00    -0.300 N 
HETATM   40  C23 UNL     1       6.628   1.957  -1.808  1.00  0.00     0.011 A 
HETATM   41  N6  UNL     1       8.307   3.013  -2.665  1.00  0.00    -0.311 N 
ATOM     42  H5  UNL     1       9.073   1.408  -3.748  1.00  0.00     0.187 HD
HETATM   43  C22 UNL     1       7.250   3.186  -1.849  1.00  0.00     0.120 A 
ATOM     44  H6  UNL     1       8.977   3.745  -2.903  1.00  0.00     0.186 HD
HETATM   45  C24 UNL     1       5.489   1.517  -1.136  1.00  0.00     0.044 A 
ENDBRANCH  33  35
ENDBRANCH  10  33
TORSDOF 8
