REMARK  1 active torsions:
REMARK  status: ('A' for Active; 'I' for Inactive)
REMARK       I    between atoms: C3_5  and  N2_6 
REMARK       I    between atoms: C3_5  and  N4_10 
REMARK    1  A    between atoms: N4_10  and  C5_12 
ROOT
HETATM    1  C1  UNL     1       3.649  -2.393   1.819  1.00  0.00     0.037 C 
HETATM    2  C2  UNL     1       3.694  -1.224   1.546  1.00  0.00     0.015 C 
HETATM    3  N1  UNL     1       3.770   0.124   1.241  1.00  0.00    -0.149 N 
ATOM      4  H1  UNL     1       4.287   0.714   1.893  1.00  0.00     0.195 HD
HETATM    5  C3  UNL     1       3.259   0.700   0.229  1.00  0.00     0.695 C 
HETATM    6  N2  UNL     1       3.502   2.126   0.168  1.00  0.00    -0.126 N 
ATOM      7  H2  UNL     1       3.068   2.740   0.857  1.00  0.00     0.197 HD
HETATM    8  C4  UNL     1       4.332   2.677  -0.832  1.00  0.00     0.196 C 
HETATM    9  N3  UNL     1       5.012   3.116  -1.660  1.00  0.00    -0.171 NA
HETATM   10  N4  UNL     1       2.513   0.152  -0.819  1.00  0.00    -0.220 N 
ATOM     11  H4  UNL     1       3.041  -0.226  -1.606  1.00  0.00     0.178 HD
ENDROOT
BRANCH  10  12
HETATM   12  C5  UNL     1       1.069   0.065  -0.905  1.00  0.00     0.100 C 
HETATM   13  C6  UNL     1       0.502   1.417  -0.721  1.00  0.00     0.026 C 
HETATM   14  C7  UNL     1       0.036   1.811   0.618  1.00  0.00     0.002 C 
HETATM   15  C8  UNL     1      -1.403   2.326   0.616  1.00  0.00     0.000 C 
HETATM   16  C9  UNL     1      -2.292   1.555   1.534  1.00  0.00     0.000 C 
HETATM   17  C10 UNL     1      -3.353   0.759   0.852  1.00  0.00     0.000 C 
HETATM   18  C11 UNL     1      -2.829  -0.183  -0.201  1.00  0.00     0.001 C 
HETATM   19  C12 UNL     1      -1.905  -1.197   0.381  1.00  0.00     0.009 C 
HETATM   20  C13 UNL     1      -0.788  -1.636  -0.539  1.00  0.00    -0.046 C 
HETATM   21  C14 UNL     1      -1.102  -1.468  -1.992  1.00  0.00     0.015 C 
HETATM   22  C15 UNL     1      -0.714  -3.170  -0.345  1.00  0.00     0.015 C 
HETATM   23  C16 UNL     1       0.550  -1.070  -0.129  1.00  0.00     0.034 C 
ENDBRANCH  10  12
TORSDOF 1
