REMARK  3 active torsions:
REMARK  status: ('A' for Active; 'I' for Inactive)
REMARK    1  A    between atoms: O1_1  and  C1_3 
REMARK    2  A    between atoms: C5_7  and  C6_8 
REMARK    3  A    between atoms: C6_8  and  O2_9 
ROOT
HETATM    1  C1  UNL     1       3.497  -0.733  -0.453  1.00  0.00     0.083 A 
HETATM    2  C2  UNL     1       4.046   0.449  -0.002  1.00  0.00     0.038 A 
HETATM    3  C3  UNL     1       3.215   1.424   0.551  1.00  0.00     0.003 A 
HETATM    4  C4  UNL     1       1.862   1.193   0.637  1.00  0.00     0.012 A 
HETATM    5  C5  UNL     1       1.324  -0.001   0.178  1.00  0.00    -0.004 A 
HETATM    6  C13 UNL     1       2.142  -0.974  -0.370  1.00  0.00     0.053 A 
HETATM    7 BR1  UNL     1       1.452  -2.676  -0.959  1.00  0.00    -0.047 Br
ENDROOT
BRANCH   5   8
HETATM    8  C6  UNL     1      -0.138  -0.191   0.241  1.00  0.00     0.086 C 
HETATM    9  C7  UNL     1      -0.730  -0.251  -1.116  1.00  0.00     0.043 C 
HETATM   10  C8  UNL     1      -1.939  -1.139  -1.108  1.00  0.00     0.003 C 
HETATM   11  C9  UNL     1      -3.189  -0.511  -0.601  1.00  0.00     0.000 C 
HETATM   12  C10 UNL     1      -2.987   0.856  -0.035  1.00  0.00     0.000 C 
HETATM   13  C11 UNL     1      -2.212   0.749   1.261  1.00  0.00     0.003 C 
HETATM   14  C12 UNL     1      -0.729   0.989   1.030  1.00  0.00     0.043 C 
BRANCH   8  15
HETATM   15  O2  UNL     1      -0.448  -1.358   0.954  1.00  0.00    -0.385 OA
ATOM     16  H2  UNL     1      -1.389  -1.480   0.995  1.00  0.00     0.211 HD
ENDBRANCH   8  15
ENDBRANCH   5   8
BRANCH   1  17
HETATM   17  O1  UNL     1       4.299  -1.724  -1.008  1.00  0.00    -0.359 OA
ATOM     18  H1  UNL     1       3.921  -2.538  -1.319  1.00  0.00     0.217 HD
ENDBRANCH   1  17
TORSDOF 3
