REMARK  5 active torsions:
REMARK  status: ('A' for Active; 'I' for Inactive)
REMARK    1  A    between atoms: C2_2  and  N1_5 
REMARK    2  A    between atoms: N1_5  and  C4_7 
REMARK    3  A    between atoms: C4_7  and  N2_9 
REMARK    4  A    between atoms: N2_9  and  N3_11 
REMARK    5  A    between atoms: C8_16  and  C9_17 
ROOT
HETATM    1  N3  UNL     1       1.294  -0.857   1.457  1.00  0.00    -0.307 N 
ATOM      2  H3  UNL     1       1.509  -0.478   2.379  1.00  0.00     0.186 HD
HETATM    3  C5  UNL     1       0.206  -0.471   0.875  1.00  0.00     0.004 C 
HETATM    4  C6  UNL     1      -0.639   0.497   1.607  1.00  0.00     0.054 C 
HETATM    5  C7  UNL     1      -1.773   0.928   0.708  1.00  0.00     0.011 C 
HETATM    6  C8  UNL     1      -2.416  -0.309   0.154  1.00  0.00    -0.006 C 
HETATM    7  C13 UNL     1      -1.506  -0.910  -0.875  1.00  0.00     0.011 C 
HETATM    8  C14 UNL     1      -0.091  -1.024  -0.447  1.00  0.00     0.054 C 
ENDROOT
BRANCH   1   9
HETATM    9  N2  UNL     1       2.190  -1.765   0.891  1.00  0.00    -0.276 N 
ATOM     10  H2  UNL     1       1.948  -2.751   0.797  1.00  0.00     0.189 HD
BRANCH   9  11
HETATM   11  C4  UNL     1       3.439  -1.280   0.453  1.00  0.00     0.189 C 
HETATM   12  S1  UNL     1       4.497  -2.321  -0.207  1.00  0.00    -0.039 SA
BRANCH  11  13
HETATM   13  N1  UNL     1       3.774   0.080   0.582  1.00  0.00    -0.331 N 
ATOM     14  H1  UNL     1       3.109   0.732   0.997  1.00  0.00     0.165 HD
BRANCH  13  15
HETATM   15  C2  UNL     1       5.052   0.550   0.129  1.00  0.00     0.170 C 
HETATM   16  C1  UNL     1       5.152   2.054   0.395  1.00  0.00     0.076 C 
HETATM   17  C3  UNL     1       5.138   0.293  -1.370  1.00  0.00     0.076 C 
HETATM   18  F1  UNL     1       6.025  -0.142   0.792  1.00  0.00    -0.220 F 
ENDBRANCH  13  15
ENDBRANCH  11  13
ENDBRANCH   9  11
ENDBRANCH   1   9
BRANCH   6  19
HETATM   19  C9  UNL     1      -3.771  -0.032  -0.442  1.00  0.00    -0.048 C 
HETATM   20  C10 UNL     1      -3.731   0.947  -1.568  1.00  0.00     0.015 C 
HETATM   21  C11 UNL     1      -4.686   0.424   0.688  1.00  0.00     0.015 C 
HETATM   22  C12 UNL     1      -4.345  -1.329  -0.969  1.00  0.00     0.015 C 
ENDBRANCH   6  19
TORSDOF 5
