REMARK  7 active torsions:
REMARK  status: ('A' for Active; 'I' for Inactive)
REMARK       I    between atoms: C2_2  and  N1_4 
REMARK    1  A    between atoms: N1_4  and  C3_6 
REMARK    2  A    between atoms: C3_6  and  C4_7 
REMARK    3  A    between atoms: C3_6  and  C7_12 
REMARK    4  A    between atoms: C4_7  and  C5_8 
REMARK    5  A    between atoms: C5_8  and  C6_9 
REMARK       I    between atoms: C7_12  and  N2_14 
REMARK    6  A    between atoms: N3_19  and  C12_21 
REMARK    7  A    between atoms: C12_21  and  C13_25 
ROOT
HETATM    1  C7  UNL     1       1.917   0.100   0.699  1.00  0.00     0.270 C 
HETATM    2  O4  UNL     1       2.148   0.400   1.916  1.00  0.00    -0.266 OA
HETATM    3  N2  UNL     1       0.675   0.534   0.185  1.00  0.00    -0.345 N 
HETATM    4  C8  UNL     1       0.204   0.324  -1.152  1.00  0.00     0.136 C 
HETATM    5  C9  UNL     1      -1.259   0.549  -1.372  1.00  0.00     0.046 C 
HETATM    6  C10 UNL     1      -1.482   2.002  -1.720  1.00  0.00     0.018 C 
HETATM    7  C11 UNL     1      -2.089   0.132  -0.198  1.00  0.00     0.009 C 
HETATM    8  N3  UNL     1      -3.148  -0.488  -0.489  1.00  0.00    -0.351 N 
ATOM      9  H3  UNL     1      -3.297  -0.623  -1.489  1.00  0.00     0.166 HD
HETATM   10  C16 UNL     1      -1.575   0.497   1.118  1.00  0.00     0.121 C 
HETATM   11 BR1  UNL     1      -2.841   1.609   2.050  1.00  0.00    -0.083 Br
HETATM   12  C17 UNL     1      -0.275   1.261   1.054  1.00  0.00     0.147 C 
ENDROOT
BRANCH   1  13
HETATM   13  C3  UNL     1       2.953  -0.646   0.017  1.00  0.00     0.103 C 
BRANCH  13  14
HETATM   14  N1  UNL     1       4.036  -1.068   0.892  1.00  0.00    -0.323 N 
HETATM   15  C2  UNL     1       4.231  -2.414   1.239  1.00  0.00     0.218 C 
HETATM   16  C1  UNL     1       5.356  -2.813   2.140  1.00  0.00     0.117 C 
HETATM   17  O1  UNL     1       3.498  -3.349   0.829  1.00  0.00    -0.274 OA
ATOM     18  H1  UNL     1       4.673  -0.364   1.265  1.00  0.00     0.169 HD
ENDBRANCH  13  14
BRANCH  13  19
HETATM   19  C4  UNL     1       3.521  -0.214  -1.263  1.00  0.00     0.042 C 
BRANCH  19  20
HETATM   20  C5  UNL     1       4.501   0.852  -1.379  1.00  0.00     0.087 C 
BRANCH  20  21
HETATM   21  C6  UNL     1       4.276   2.204  -0.969  1.00  0.00     0.198 C 
HETATM   22  O2  UNL     1       3.237   2.676  -0.475  1.00  0.00    -0.645 OA
HETATM   23  O3  UNL     1       5.305   3.174  -1.109  1.00  0.00    -0.645 OA
ENDBRANCH  20  21
ENDBRANCH  19  20
ENDBRANCH  13  19
ENDBRANCH   1  13
BRANCH   8  24
HETATM   24  C12 UNL     1      -4.140  -1.015   0.314  1.00  0.00     0.078 C 
HETATM   25  N4  UNL     1      -4.005  -1.665   1.402  1.00  0.00    -0.389 N 
ATOM     26  H42 UNL     1      -3.048  -1.792   1.730  1.00  0.00     0.157 HD
ATOM     27  H41 UNL     1      -4.738  -2.054   1.995  1.00  0.00     0.157 HD
BRANCH  24  28
HETATM   28  C13 UNL     1      -5.560  -0.826  -0.172  1.00  0.00     0.045 C 
HETATM   29  C14 UNL     1      -5.859   0.619  -0.370  1.00  0.00     0.017 C 
HETATM   30  C15 UNL     1      -6.520  -1.416   0.831  1.00  0.00     0.017 C 
ENDBRANCH  24  28
ENDBRANCH   8  24
TORSDOF 7
