REMARK  6 active torsions:
REMARK  status: ('A' for Active; 'I' for Inactive)
REMARK    1  A    between atoms: C2_2  and  C4_10 
REMARK    2  A    between atoms: N1_3  and  N2_5 
REMARK    3  A    between atoms: N2_5  and  C3_7 
REMARK    4  A    between atoms: C4_10  and  N4_11 
REMARK    5  A    between atoms: N4_11  and  C5_13 
REMARK       I    between atoms: N5_17  and  C9_18 
REMARK    6  A    between atoms: C9_18  and  C10_20 
ROOT
HETATM    1  C4  UNL     1      -1.156  -0.358   0.105  1.00  0.00     0.054 C 
HETATM    2  C12 UNL     1      -1.556  -0.903  -1.008  1.00  0.00    -0.051 C 
HETATM    3  C13 UNL     1      -2.595  -0.444  -1.955  1.00  0.00     0.036 C 
HETATM    4  C14 UNL     1      -3.715  -1.484  -2.117  1.00  0.00     0.004 C 
HETATM    5  C15 UNL     1      -3.109  -2.825  -2.493  1.00  0.00     0.001 C 
HETATM    6  C16 UNL     1      -2.134  -3.233  -1.444  1.00  0.00     0.004 C 
HETATM    7  C17 UNL     1      -0.961  -2.242  -1.454  1.00  0.00     0.036 C 
ENDROOT
BRANCH   1   8
HETATM    8  C2  UNL     1      -1.678   0.851   0.659  1.00  0.00     0.048 C 
HETATM    9  C1  UNL     1      -1.140   1.301   2.002  1.00  0.00     0.072 C 
HETATM   10  N1  UNL     1      -2.588   1.609   0.181  1.00  0.00    -0.301 N 
ATOM     11  H1  UNL     1      -3.009   1.385  -0.720  1.00  0.00     0.186 HD
BRANCH  10  12
HETATM   12  N2  UNL     1      -3.009   2.732   0.873  1.00  0.00    -0.278 N 
ATOM     13  H2  UNL     1      -3.609   2.586   1.685  1.00  0.00     0.189 HD
BRANCH  12  14
HETATM   14  C3  UNL     1      -2.676   4.050   0.547  1.00  0.00     0.199 C 
HETATM   15  N3  UNL     1      -3.159   5.126   1.320  1.00  0.00    -0.068 NA
HETATM   16  S1  UNL     1      -1.724   4.352  -0.733  1.00  0.00    -0.043 SA
ENDBRANCH  12  14
ENDBRANCH  10  12
ENDBRANCH   1   8
BRANCH   1  17
HETATM   17  N4  UNL     1      -0.098  -1.030   0.819  1.00  0.00    -0.382 N 
ATOM     18  H4  UNL     1      -0.370  -1.646   1.585  1.00  0.00     0.160 HD
BRANCH  17  19
HETATM   19  C5  UNL     1       1.294  -0.906   0.545  1.00  0.00     0.100 C 
HETATM   20  C6  UNL     1       2.058  -1.925   1.362  1.00  0.00     0.028 C 
HETATM   21  C7  UNL     1       3.403  -1.450   1.794  1.00  0.00     0.022 C 
HETATM   22  C8  UNL     1       4.047  -0.774   0.575  1.00  0.00     0.126 C 
HETATM   23  N5  UNL     1       3.308   0.440   0.372  1.00  0.00    -0.350 N 
HETATM   24  C9  UNL     1       3.927   1.588  -0.133  1.00  0.00     0.229 C 
HETATM   25  C11 UNL     1       1.891   0.470   0.698  1.00  0.00     0.150 C 
HETATM   26  O1  UNL     1       3.256   2.664  -0.309  1.00  0.00    -0.273 OA
BRANCH  24  27
HETATM   27  C10 UNL     1       5.365   1.645  -0.491  1.00  0.00     0.188 C 
HETATM   28 BR1  UNL     1       5.605   1.130  -2.358  1.00  0.00    -0.087 Br
ENDBRANCH  24  27
ENDBRANCH  17  19
ENDBRANCH   1  17
TORSDOF 6
