REMARK  5 active torsions:
REMARK  status: ('A' for Active; 'I' for Inactive)
REMARK    1  A    between atoms: C2_2  and  C3_3 
REMARK    2  A    between atoms: C3_3  and  C4_4 
REMARK    3  A    between atoms: C6_11  and  C7_12 
REMARK       I    between atoms: C7_12  and  N2_14 
REMARK    4  A    between atoms: N2_14  and  C8_16 
REMARK    5  A    between atoms: C13_21  and  C14_22 
REMARK       I    between atoms: C14_22  and  N3_24 
ROOT
HETATM    1  C7  UNL     1      -1.715   0.810   0.606  1.00  0.00     0.226 C 
HETATM    2  O3  UNL     1      -1.795   2.008   1.009  1.00  0.00    -0.273 OA
HETATM    3  N2  UNL     1      -0.617   0.504  -0.221  1.00  0.00    -0.355 N 
ATOM      4  H2  UNL     1      -0.525  -0.454  -0.559  1.00  0.00     0.162 HD
ENDROOT
BRANCH   3   5
HETATM    5  C8  UNL     1       0.385   1.462  -0.620  1.00  0.00     0.097 C 
HETATM    6  C9  UNL     1       0.307   1.742  -2.122  1.00  0.00     0.026 C 
HETATM    7  C10 UNL     1       1.240   2.842  -2.493  1.00  0.00     0.002 C 
HETATM    8  C11 UNL     1       2.636   2.651  -1.956  1.00  0.00     0.001 C 
HETATM    9  C12 UNL     1       2.632   2.301  -0.481  1.00  0.00     0.016 C 
HETATM   10  C13 UNL     1       1.805   1.014  -0.357  1.00  0.00     0.101 C 
BRANCH  10  11
HETATM   11  C14 UNL     1       1.973   0.359   0.958  1.00  0.00     0.227 C 
HETATM   12  O4  UNL     1       1.077   0.422   1.853  1.00  0.00    -0.273 OA
HETATM   13  N3  UNL     1       3.143  -0.357   1.245  1.00  0.00    -0.338 N 
HETATM   14  C15 UNL     1       3.386  -1.048   2.528  1.00  0.00     0.127 C 
HETATM   15  C18 UNL     1       4.314  -0.607   0.418  1.00  0.00     0.159 C 
HETATM   16  C16 UNL     1       4.393  -2.108   2.215  1.00  0.00     0.023 C 
HETATM   17  C17 UNL     1       4.504  -2.112   0.723  1.00  0.00     0.038 C 
HETATM   18 BR1  UNL     1       5.901   0.262   1.121  1.00  0.00    -0.068 Br
ENDBRANCH  10  11
ENDBRANCH   3   5
BRANCH   1  19
HETATM   19  C6  UNL     1      -2.704  -0.191   0.977  1.00  0.00     0.150 C 
HETATM   20  C3  UNL     1      -3.679  -0.701  -0.013  1.00  0.00     0.225 C 
HETATM   21  N1  UNL     1      -4.501   0.466   0.266  1.00  0.00    -0.054 N 
HETATM   22  C5  UNL     1      -3.925   0.500   1.591  1.00  0.00     0.251 C 
ATOM     23  H12 UNL     1      -4.465   1.286  -0.340  1.00  0.00     0.278 HD
ATOM     24  H11 UNL     1      -5.512   0.435   0.137  1.00  0.00     0.278 HD
BRANCH  20  25
HETATM   25  C2  UNL     1      -4.372  -1.962   0.497  1.00  0.00     0.047 C 
HETATM   26  C1  UNL     1      -5.610  -2.268  -0.299  1.00  0.00     0.008 C 
ENDBRANCH  20  25
BRANCH  20  27
HETATM   27  C4  UNL     1      -3.271  -0.833  -1.423  1.00  0.00     0.211 C 
HETATM   28  O1  UNL     1      -3.541   0.013  -2.306  1.00  0.00    -0.646 OA
HETATM   29  O2  UNL     1      -2.551  -1.954  -1.801  1.00  0.00    -0.646 OA
ENDBRANCH  20  27
ENDBRANCH   1  19
TORSDOF 5
