REMARK  5 active torsions:
REMARK  status: ('A' for Active; 'I' for Inactive)
REMARK    1  A    between atoms: C1_2  and  N2_4 
REMARK    2  A    between atoms: N2_4  and  N3_6 
REMARK    3  A    between atoms: N3_6  and  C2_8 
REMARK    4  A    between atoms: C2_8  and  N4_10 
REMARK    5  A    between atoms: N4_10  and  C3_12 
ROOT
HETATM    1  C2  UNL     1       1.058  -0.634   0.205  1.00  0.00     0.186 C 
HETATM    2  S2  UNL     1       1.155   0.071   1.684  1.00  0.00    -0.040 SA
ENDROOT
BRANCH   1   3
HETATM    3  N3  UNL     1       2.277  -1.108  -0.352  1.00  0.00    -0.274 N 
ATOM      4  H3  UNL     1       2.256  -1.555  -1.269  1.00  0.00     0.189 HD
BRANCH   3   5
HETATM    5  N2  UNL     1       3.494  -0.986   0.304  1.00  0.00    -0.276 N 
ATOM      6  H2  UNL     1       3.646  -1.500   1.172  1.00  0.00     0.189 HD
BRANCH   5   7
HETATM    7  C1  UNL     1       4.529  -0.166  -0.203  1.00  0.00     0.199 C 
HETATM    8  N1  UNL     1       5.769  -0.049   0.476  1.00  0.00    -0.068 NA
HETATM    9  S1  UNL     1       4.301   0.671  -1.603  1.00  0.00    -0.043 SA
ENDBRANCH   5   7
ENDBRANCH   3   5
ENDBRANCH   1   3
BRANCH   1  10
HETATM   10  N4  UNL     1      -0.172  -0.760  -0.464  1.00  0.00    -0.359 N 
ATOM     11  H4  UNL     1      -0.148  -1.214  -1.377  1.00  0.00     0.162 HD
BRANCH  10  12
HETATM   12  C3  UNL     1      -1.441  -0.325  -0.009  1.00  0.00     0.107 C 
HETATM   13  C4  UNL     1      -1.614   1.139   0.215  1.00  0.00     0.029 C 
HETATM   14  C5  UNL     1      -2.991   1.311   0.875  1.00  0.00     0.028 C 
HETATM   15  C6  UNL     1      -4.007   0.844  -0.142  1.00  0.00     0.167 C 
HETATM   16  O1  UNL     1      -3.793  -0.519  -0.350  1.00  0.00    -0.389 OA
HETATM   17  C7  UNL     1      -2.574  -0.779  -0.925  1.00  0.00     0.192 C 
ENDBRANCH  10  12
ENDBRANCH   1  10
TORSDOF 5
