REMARK  3 active torsions:
REMARK  status: ('A' for Active; 'I' for Inactive)
REMARK       I    between atoms: C1_2  and  N2_4 
REMARK    1  A    between atoms: N2_4  and  N3_6 
REMARK       I    between atoms: N3_6  and  C2_8 
REMARK    2  A    between atoms: C2_8  and  C3_10 
REMARK       I    between atoms: C3_10  and  N4_12 
REMARK    3  A    between atoms: N4_12  and  C4_14 
ROOT
HETATM    1  C3  UNL     1       0.906   0.813  -0.305  1.00  0.00     0.311 C 
HETATM    2  O3  UNL     1       0.767   2.048  -0.360  1.00  0.00    -0.262 OA
HETATM    3  N4  UNL     1      -0.224  -0.007  -0.155  1.00  0.00    -0.348 N 
ATOM      4  H4  UNL     1      -0.082  -1.016  -0.110  1.00  0.00     0.163 HD
ENDROOT
BRANCH   1   5
HETATM    5  C2  UNL     1       2.229   0.209  -0.393  1.00  0.00     0.327 C 
HETATM    6  N3  UNL     1       3.396   0.989  -0.541  1.00  0.00    -0.258 N 
ATOM      7  H3  UNL     1       3.329   2.006  -0.588  1.00  0.00     0.190 HD
HETATM    8  O2  UNL     1       2.352  -1.058  -0.337  1.00  0.00    -0.261 OA
BRANCH   6   9
HETATM    9  N2  UNL     1       4.637   0.368  -0.622  1.00  0.00    -0.251 N 
HETATM   10  C1  UNL     1       5.162  -0.419   0.436  1.00  0.00     0.347 C 
HETATM   11  N1  UNL     1       6.441  -1.015   0.261  1.00  0.00    -0.038 NA
HETATM   12  O1  UNL     1       4.527  -0.590   1.495  1.00  0.00    -0.249 OA
ATOM     13  H2  UNL     1       5.190   0.482  -1.472  1.00  0.00     0.191 HD
ENDBRANCH   6   9
ENDBRANCH   1   5
BRANCH   3  14
HETATM   14  C4  UNL     1      -1.582   0.495  -0.060  1.00  0.00     0.084 C 
HETATM   15  C5  UNL     1      -2.337   0.038  -1.251  1.00  0.00     0.025 C 
HETATM   16  C6  UNL     1      -3.454  -0.911  -0.908  1.00  0.00     0.002 C 
HETATM   17  C7  UNL     1      -4.376  -0.165   0.035  1.00  0.00     0.000 C 
HETATM   18  C8  UNL     1      -3.687   0.238   1.305  1.00  0.00     0.002 C 
HETATM   19  C9  UNL     1      -2.199   0.150   1.258  1.00  0.00     0.025 C 
ENDBRANCH   3  14
TORSDOF 3
