REMARK  3 active torsions:
REMARK  status: ('A' for Active; 'I' for Inactive)
REMARK    1  A    between atoms: C4_6  and  C5_7 
REMARK    2  A    between atoms: C5_7  and  C6_8 
REMARK    3  A    between atoms: C5_7  and  N2_14 
ROOT
HETATM    1  C5  UNL     1      -0.474   0.191  -0.448  1.00  0.00     0.294 C 
ENDROOT
BRANCH   1   2
HETATM    2  C4  UNL     1       0.979  -0.080  -0.709  1.00  0.00     0.115 A 
HETATM    3  N1  UNL     1       1.597  -0.286  -1.891  1.00  0.00    -0.352 N 
HETATM    4  C3  UNL     1       2.907  -0.496  -1.722  1.00  0.00     0.114 A 
ATOM      5  H1  UNL     1       1.126  -0.282  -2.796  1.00  0.00     0.166 HD
HETATM    6  C2  UNL     1       3.144  -0.423  -0.367  1.00  0.00     0.022 A 
HETATM    7  C1  UNL     1       4.419  -0.581   0.372  1.00  0.00     0.069 C 
HETATM    8  N3  UNL     1       1.976  -0.173   0.216  1.00  0.00    -0.347 N 
ATOM      9  H3  UNL     1       1.843  -0.065   1.222  1.00  0.00     0.167 HD
ENDBRANCH   1   2
BRANCH   1  10
HETATM   10  C6  UNL     1      -0.588   1.650  -0.498  1.00  0.00     0.038 C 
HETATM   11  C7  UNL     1      -1.801   2.411  -0.305  1.00  0.00     0.086 C 
HETATM   12  C8  UNL     1      -1.258   3.109   0.915  1.00  0.00     0.244 C 
HETATM   13  F1  UNL     1      -1.854   2.766   2.107  1.00  0.00    -0.206 F 
HETATM   14  F2  UNL     1      -1.191   4.488   0.843  1.00  0.00    -0.206 F 
HETATM   15  C9  UNL     1       0.044   2.435   0.625  1.00  0.00     0.086 C 
ENDBRANCH   1  10
BRANCH   1  16
HETATM   16  N2  UNL     1      -0.835  -0.600   0.613  1.00  0.00     0.100 N 
HETATM   17  C10 UNL     1      -0.433  -1.982   0.307  1.00  0.00     0.273 C 
HETATM   18  C11 UNL     1      -1.665  -2.822   0.263  1.00  0.00     0.032 C 
HETATM   19  C12 UNL     1      -2.768  -1.766   0.140  1.00  0.00     0.032 C 
HETATM   20  C13 UNL     1      -2.119  -0.756   1.100  1.00  0.00     0.273 C 
ENDBRANCH   1  16
TORSDOF 3
