REMARK  4 active torsions:
REMARK  status: ('A' for Active; 'I' for Inactive)
REMARK    1  A    between atoms: C4_5  and  C5_6 
REMARK    2  A    between atoms: C5_6  and  C6_7 
REMARK    3  A    between atoms: C12_13  and  O1_14 
REMARK    4  A    between atoms: C12_13  and  C13_16 
ROOT
HETATM    1  C1  UNL     1       4.441   1.117  -0.561  1.00  0.00     0.310 C 
HETATM    2  N1  UNL     1       3.164   0.834  -1.116  1.00  0.00     0.087 N 
HETATM    3  C2  UNL     1       2.180   1.868  -0.925  1.00  0.00     0.272 C 
HETATM    4  C3  UNL     1       0.767   1.263  -0.820  1.00  0.00     0.038 C 
HETATM    5  C4  UNL     1       0.777   0.461   0.473  1.00  0.00     0.029 C 
HETATM    6  C12 UNL     1       1.868  -0.529   0.486  1.00  0.00     0.146 C 
HETATM    7  C14 UNL     1       2.653  -0.477  -0.831  1.00  0.00     0.315 C 
ENDROOT
BRANCH   5   8
HETATM    8  C5  UNL     1      -0.554   0.092   0.968  1.00  0.00     0.012 C 
BRANCH   8   9
HETATM    9  C6  UNL     1      -1.470  -0.734   0.177  1.00  0.00    -0.014 C 
HETATM   10  C7  UNL     1      -1.897  -0.206  -1.162  1.00  0.00     0.005 C 
HETATM   11  C8  UNL     1      -3.332  -0.696  -1.432  1.00  0.00     0.000 C 
HETATM   12  C9  UNL     1      -4.274   0.177  -0.658  1.00  0.00     0.000 C 
HETATM   13  C10 UNL     1      -3.702   0.303   0.744  1.00  0.00     0.000 C 
HETATM   14  C11 UNL     1      -2.761  -0.843   1.014  1.00  0.00     0.005 C 
ENDBRANCH   8   9
ENDBRANCH   5   8
BRANCH   6  15
HETATM   15  O1  UNL     1       2.851  -0.205   1.475  1.00  0.00    -0.382 OA
ATOM     16  H1  UNL     1       3.554  -0.843   1.483  1.00  0.00     0.210 HD
ENDBRANCH   6  15
BRANCH   6  17
HETATM   17  C13 UNL     1       1.561  -1.962   0.702  1.00  0.00     0.389 C 
HETATM   18  F1  UNL     1       0.964  -2.287   1.881  1.00  0.00    -0.211 F 
HETATM   19  F2  UNL     1       2.819  -2.601   0.753  1.00  0.00    -0.211 F 
ENDBRANCH   6  17
TORSDOF 4
