REMARK  3 active torsions:
REMARK  status: ('A' for Active; 'I' for Inactive)
REMARK    1  A    between atoms: C2_5  and  N3_6 
REMARK    2  A    between atoms: N3_6  and  C3_8 
REMARK    3  A    between atoms: C3_8  and  C4_9 
ROOT
HETATM    1  N1  UNL     1       7.131   0.653  -0.919  1.00  0.00    -0.172 NA
HETATM    2  C1  UNL     1       5.969   0.743  -0.734  1.00  0.00     0.182 C 
HETATM    3  N2  UNL     1       4.604   0.871  -0.533  1.00  0.00    -0.290 N 
ATOM      4  H2  UNL     1       4.156   1.755  -0.773  1.00  0.00     0.178 HD
HETATM    5  C2  UNL     1       3.872  -0.084  -0.053  1.00  0.00     0.186 C 
ENDROOT
BRANCH   5   6
HETATM    6  N3  UNL     1       2.487   0.162   0.108  1.00  0.00    -0.385 N 
ATOM      7  H3  UNL     1       2.155   1.076   0.415  1.00  0.00     0.160 HD
BRANCH   6   8
HETATM    8  C3  UNL     1       1.560  -0.896  -0.168  1.00  0.00     0.130 C 
BRANCH   8   9
HETATM    9  C4  UNL     1       0.115  -0.407  -0.100  1.00  0.00    -0.018 C 
HETATM   10  C5  UNL     1      -0.748  -1.606  -0.413  1.00  0.00     0.016 C 
HETATM   11  C6  UNL     1      -2.207  -1.219  -0.379  1.00  0.00    -0.008 C 
HETATM   12  C7  UNL     1      -2.482  -0.603   0.964  1.00  0.00     0.048 C 
HETATM   13  C11 UNL     1      -2.431  -0.205  -1.499  1.00  0.00     0.048 C 
HETATM   14  C8  UNL     1      -1.685   0.648   1.134  1.00  0.00     0.107 C 
HETATM   15  F1  UNL     1      -2.002   1.289   2.318  1.00  0.00    -0.243 F 
HETATM   16  C9  UNL     1      -1.951   1.628   0.019  1.00  0.00     0.086 C 
HETATM   17  C13 UNL     1      -0.214   0.253   1.194  1.00  0.00     0.055 C 
HETATM   18  C10 UNL     1      -1.534   0.985  -1.311  1.00  0.00     0.107 C 
HETATM   19  F2  UNL     1      -1.727   1.844  -2.357  1.00  0.00    -0.243 F 
HETATM   20  C12 UNL     1      -0.087   0.654  -1.192  1.00  0.00     0.055 C 
ENDBRANCH   8   9
ENDBRANCH   6   8
ENDBRANCH   5   6
TORSDOF 3
