REMARK  7 active torsions:
REMARK  status: ('A' for Active; 'I' for Inactive)
REMARK    1  A    between atoms: C2_2  and  C3_3 
REMARK    2  A    between atoms: C3_3  and  N1_4 
REMARK    3  A    between atoms: C8_9  and  C9_10 
REMARK    4  A    between atoms: C9_10  and  N2_11 
REMARK    5  A    between atoms: N2_11  and  C10_13 
REMARK    6  A    between atoms: C10_13  and  N3_15 
REMARK    7  A    between atoms: N3_15  and  C11_17 
ROOT
HETATM    1  N2  UNL     1       1.133   0.618  -0.356  1.00  0.00    -0.365 N 
ATOM      2  H2  UNL     1       1.600   1.302   0.239  1.00  0.00     0.161 HD
ENDROOT
BRANCH   1   3
HETATM    3  C9  UNL     1      -0.256   0.810  -0.617  1.00  0.00     0.157 C 
BRANCH   3   4
HETATM    4  C8  UNL     1      -1.259   0.082   0.206  1.00  0.00     0.241 C 
HETATM    5  N1  UNL     1      -2.561   0.467  -0.339  1.00  0.00     0.098 N 
HETATM    6  C4  UNL     1      -3.031  -0.414  -1.348  1.00  0.00     0.273 C 
HETATM    7  C5  UNL     1      -3.216  -1.782  -0.742  1.00  0.00     0.030 C 
HETATM    8  C6  UNL     1      -2.020  -2.313  -0.043  1.00  0.00     0.004 C 
HETATM    9  C7  UNL     1      -1.132  -1.297   0.600  1.00  0.00     0.037 C 
BRANCH   5  10
HETATM   10  C3  UNL     1      -3.512   0.874   0.634  1.00  0.00     0.299 C 
BRANCH  10  11
HETATM   11  C2  UNL     1      -4.539   1.757   0.008  1.00  0.00    -0.007 C 
HETATM   12  C1  UNL     1      -4.728   2.994   0.418  1.00  0.00     0.008 C 
ENDBRANCH  10  11
ENDBRANCH   5  10
ENDBRANCH   3   4
ENDBRANCH   1   3
BRANCH   1  13
HETATM   13  C10 UNL     1       1.901  -0.437  -0.854  1.00  0.00     0.173 C 
HETATM   14  S1  UNL     1       1.075  -1.340  -2.059  1.00  0.00    -0.041 SA
BRANCH  13  15
HETATM   15  N3  UNL     1       3.197  -0.855  -0.692  1.00  0.00    -0.319 N 
ATOM     16  H3  UNL     1       3.410  -1.688  -1.240  1.00  0.00     0.169 HD
BRANCH  15  17
HETATM   17  C11 UNL     1       4.308  -0.401   0.058  1.00  0.00     0.107 A 
HETATM   18  C12 UNL     1       4.272   0.650   0.921  1.00  0.00     0.049 A 
HETATM   19  C13 UNL     1       5.447   1.029   1.601  1.00  0.00     0.007 A 
HETATM   20  C14 UNL     1       6.585   0.315   1.362  1.00  0.00     0.037 A 
HETATM   21  C15 UNL     1       6.607  -0.751   0.483  1.00  0.00     0.081 A 
HETATM   22 BR1  UNL     1       8.250  -1.709   0.200  1.00  0.00    -0.031 Br
HETATM   23  N4  UNL     1       5.490  -1.090  -0.147  1.00  0.00    -0.337 N 
ATOM     24  H4  UNL     1       5.503  -1.876  -0.797  1.00  0.00     0.168 HD
ENDBRANCH  15  17
ENDBRANCH  13  15
ENDBRANCH   1  13
TORSDOF 7
