REMARK  6 active torsions:
REMARK  status: ('A' for Active; 'I' for Inactive)
REMARK    1  A    between atoms: N1_1  and  C1_5 
REMARK    2  A    between atoms: C5_9  and  C6_10 
REMARK    3  A    between atoms: C6_10  and  C7_11 
REMARK       I    between atoms: C7_11  and  N2_13 
REMARK    4  A    between atoms: C8_15  and  C9_16 
REMARK    5  A    between atoms: C9_16  and  C10_17 
REMARK    6  A    between atoms: C13_22  and  C14_23 
ROOT
HETATM    1  C1  UNL     1      -1.243  -2.103   0.153  1.00  0.00     0.126 C 
HETATM    2  C2  UNL     1      -1.213  -2.186  -1.319  1.00  0.00     0.043 C 
HETATM    3  C3  UNL     1      -0.726  -0.835  -1.844  1.00  0.00    -0.010 C 
HETATM    4  C4  UNL     1       0.609  -0.502  -1.231  1.00  0.00     0.014 C 
HETATM    5  C5  UNL     1       0.417  -0.274   0.260  1.00  0.00    -0.029 C 
HETATM    6  C11 UNL     1       0.060  -1.725   0.750  1.00  0.00     0.048 C 
HETATM    7  C12 UNL     1      -0.626   0.681   0.631  1.00  0.00     0.024 C 
HETATM    8  C13 UNL     1      -1.941   0.278  -0.003  1.00  0.00    -0.010 C 
HETATM    9  C20 UNL     1      -1.720   0.215  -1.500  1.00  0.00     0.019 C 
HETATM   10  C21 UNL     1      -2.280  -1.106   0.597  1.00  0.00     0.053 C 
ENDROOT
BRANCH   5  11
HETATM   11  C6  UNL     1       1.745  -0.089   0.922  1.00  0.00     0.112 C 
BRANCH  11  12
HETATM   12  C7  UNL     1       2.612   0.990   0.341  1.00  0.00     0.222 C 
HETATM   13  O1  UNL     1       2.050   2.094   0.114  1.00  0.00    -0.273 OA
HETATM   14  N2  UNL     1       3.915   0.638   0.126  1.00  0.00    -0.340 N 
HETATM   15  C8  UNL     1       4.929   0.617  -0.498  1.00  0.00     0.074 C 
ATOM     16  H2  UNL     1       4.146   0.094   0.957  1.00  0.00     0.167 HD
BRANCH  15  17
HETATM   17  C9  UNL     1       6.134  -0.135   0.063  1.00  0.00     0.157 C 
BRANCH  17  18
HETATM   18  C10 UNL     1       7.249   0.818   0.180  1.00  0.00     0.177 C 
HETATM   19  O2  UNL     1       7.364   1.552   1.201  1.00  0.00    -0.648 OA
HETATM   20  O3  UNL     1       8.162   0.866  -0.883  1.00  0.00    -0.648 OA
ENDBRANCH  17  18
ENDBRANCH  15  17
ENDBRANCH  11  12
ENDBRANCH   5  11
BRANCH   1  21
HETATM   21  N1  UNL     1      -1.640  -3.412   0.692  1.00  0.00    -0.070 N 
ATOM     22  H13 UNL     1      -2.522  -3.743   0.302  1.00  0.00     0.275 HD
ATOM     23  H12 UNL     1      -1.044  -4.169   0.356  1.00  0.00     0.275 HD
ATOM     24  H11 UNL     1      -1.661  -3.355   1.710  1.00  0.00     0.275 HD
ENDBRANCH   1  21
BRANCH   8  25
HETATM   25  C14 UNL     1      -3.114   1.125   0.283  1.00  0.00    -0.046 A 
HETATM   26  C15 UNL     1      -3.582   2.085  -0.625  1.00  0.00     0.008 A 
HETATM   27  C16 UNL     1      -4.750   2.795  -0.414  1.00  0.00     0.004 A 
HETATM   28  C17 UNL     1      -5.510   2.581   0.705  1.00  0.00     0.042 A 
HETATM   29  C18 UNL     1      -5.093   1.646   1.623  1.00  0.00     0.117 A 
HETATM   30  F1  UNL     1      -5.857   1.426   2.713  1.00  0.00    -0.206 F 
HETATM   31  C19 UNL     1      -3.906   0.941   1.398  1.00  0.00     0.050 A 
ENDBRANCH   8  25
TORSDOF 6
