REMARK  6 active torsions:
REMARK  status: ('A' for Active; 'I' for Inactive)
REMARK    1  A    between atoms: N2_5  and  C3_6 
REMARK    2  A    between atoms: C3_6  and  C4_7 
REMARK    3  A    between atoms: C3_6  and  C9_15 
REMARK       I    between atoms: C4_7  and  N3_9 
REMARK    4  A    between atoms: N3_9  and  C5_11 
REMARK    5  A    between atoms: C5_11  and  C6_12 
REMARK    6  A    between atoms: N4_23  and  C17_25 
ROOT
HETATM    1  C3  UNL     1       0.529  -0.213  -0.572  1.00  0.00     0.205 C 
ENDROOT
BRANCH   1   2
HETATM    2  N2  UNL     1       0.039   0.687   0.448  1.00  0.00    -0.262 N 
HETATM    3  N1  UNL     1       0.022   0.387   1.732  1.00  0.00    -0.300 N 
HETATM    4  C2  UNL     1      -0.490   1.423   2.420  1.00  0.00     0.032 A 
ATOM      5  H1  UNL     1       0.346  -0.491   2.139  1.00  0.00     0.187 HD
HETATM    6  C1  UNL     1      -0.695   1.520   3.899  1.00  0.00     0.070 C 
HETATM    7  C20 UNL     1      -0.815   2.435   1.527  1.00  0.00     0.007 A 
HETATM    8  C16 UNL     1      -0.472   1.949   0.287  1.00  0.00     0.127 A 
HETATM    9  C21 UNL     1      -1.404   3.741   1.899  1.00  0.00     0.054 C 
HETATM   10  N4  UNL     1      -0.571   2.486  -0.846  1.00  0.00    -0.371 N 
ATOM     11  H4  UNL     1      -0.239   1.900  -1.612  1.00  0.00     0.161 HD
BRANCH  10  12
HETATM   12  C17 UNL     1      -1.054   3.746  -1.258  1.00  0.00     0.075 C 
HETATM   13  C18 UNL     1      -0.358   4.237  -2.545  1.00  0.00     0.031 C 
HETATM   14  C19 UNL     1      -2.514   3.551  -1.702  1.00  0.00     0.031 C 
ENDBRANCH  10  12
ENDBRANCH   1   2
BRANCH   1  15
HETATM   15  C4  UNL     1      -0.475  -1.180  -1.052  1.00  0.00     0.242 C 
HETATM   16  O1  UNL     1      -0.819  -1.206  -2.257  1.00  0.00    -0.271 OA
HETATM   17  N3  UNL     1      -1.076  -2.105  -0.158  1.00  0.00    -0.359 N 
ATOM     18  H3  UNL     1      -0.788  -2.079   0.820  1.00  0.00     0.162 HD
BRANCH  17  19
HETATM   19  C5  UNL     1      -2.060  -3.071  -0.542  1.00  0.00     0.126 C 
BRANCH  19  20
HETATM   20  C6  UNL     1      -3.332  -2.489  -1.094  1.00  0.00    -0.005 C 
HETATM   21  C7  UNL     1      -4.265  -3.635  -1.446  1.00  0.00     0.011 C 
HETATM   22  C8  UNL     1      -4.011  -1.659  -0.039  1.00  0.00     0.011 C 
ENDBRANCH  19  20
ENDBRANCH  17  19
ENDBRANCH   1  15
BRANCH   1  23
HETATM   23  C9  UNL     1       1.813  -0.889  -0.138  1.00  0.00     0.020 C 
HETATM   24  C10 UNL     1       2.331  -1.835  -1.197  1.00  0.00     0.007 C 
HETATM   25  C11 UNL     1       3.847  -1.928  -0.975  1.00  0.00     0.005 C 
HETATM   26  C12 UNL     1       4.123  -1.904   0.513  1.00  0.00    -0.019 C 
HETATM   27  C13 UNL     1       5.555  -2.283   0.787  1.00  0.00     0.010 C 
HETATM   28  C14 UNL     1       3.861  -0.545   1.123  1.00  0.00     0.005 C 
HETATM   29  C15 UNL     1       2.854   0.149   0.224  1.00  0.00     0.007 C 
ENDBRANCH   1  23
TORSDOF 6
