REMARK  5 active torsions:
REMARK  status: ('A' for Active; 'I' for Inactive)
REMARK    1  A    between atoms: C2_2  and  C3_3 
REMARK    2  A    between atoms: C3_3  and  N1_4 
REMARK    3  A    between atoms: C3_3  and  C11_21 
REMARK       I    between atoms: C4_6  and  N3_8 
REMARK    4  A    between atoms: N3_8  and  N4_10 
REMARK    5  A    between atoms: C5_12  and  C6_13 
ROOT
HETATM    1  N1  UNL     1      -0.559  -0.234   0.942  1.00  0.00    -0.358 N 
ATOM      2  H1  UNL     1      -0.789   0.413   1.697  1.00  0.00     0.162 HD
HETATM    3  C4  UNL     1       0.662  -0.494   0.697  1.00  0.00     0.203 C 
HETATM    4  N2  UNL     1       1.122  -1.373  -0.322  1.00  0.00    -0.062 NA
HETATM    5  N3  UNL     1       1.648   0.140   1.499  1.00  0.00    -0.274 N 
ATOM      6  H3  UNL     1       1.436   0.296   2.484  1.00  0.00     0.189 HD
ENDROOT
BRANCH   1   7
HETATM    7  C3  UNL     1      -1.657  -0.849   0.156  1.00  0.00     0.087 C 
BRANCH   7   8
HETATM    8  C2  UNL     1      -1.850  -2.218   0.646  1.00  0.00     0.021 C 
HETATM    9  C1  UNL     1      -2.870  -3.087   0.038  1.00  0.00     0.007 C 
ENDBRANCH   7   8
BRANCH   7  10
HETATM   10  C11 UNL     1      -2.761   0.129   0.208  1.00  0.00     0.008 C 
HETATM   11  C12 UNL     1      -2.151   1.445  -0.370  1.00  0.00     0.007 C 
HETATM   12  C13 UNL     1      -3.152   2.544  -0.196  1.00  0.00     0.000 C 
HETATM   13  C14 UNL     1      -4.427   2.082   0.444  1.00  0.00     0.000 C 
HETATM   14  C15 UNL     1      -5.046   0.882  -0.168  1.00  0.00     0.000 C 
HETATM   15  C16 UNL     1      -3.961  -0.107  -0.630  1.00  0.00     0.007 C 
ENDBRANCH   7  10
ENDBRANCH   1   7
BRANCH   5  16
HETATM   16  N4  UNL     1       2.889   0.563   1.022  1.00  0.00    -0.309 N 
HETATM   17  C5  UNL     1       3.819  -0.255   0.665  1.00  0.00     0.120 C 
ATOM     18  H4  UNL     1       3.068   1.565   0.953  1.00  0.00     0.186 HD
BRANCH  17  19
HETATM   19  C6  UNL     1       5.085   0.279   0.178  1.00  0.00    -0.003 A 
HETATM   20  C7  UNL     1       5.292   1.639   0.097  1.00  0.00     0.100 A 
HETATM   21  N5  UNL     1       6.479   2.134  -0.360  1.00  0.00    -0.373 N 
HETATM   22  C8  UNL     1       7.471   1.306  -0.740  1.00  0.00     0.106 A 
ATOM     23  H5  UNL     1       6.616   3.143  -0.414  1.00  0.00     0.164 HD
HETATM   24  C9  UNL     1       7.321  -0.063  -0.680  1.00  0.00     0.027 A 
HETATM   25 BR1  UNL     1       8.753  -1.164  -1.229  1.00  0.00    -0.050 Br
HETATM   26  C10 UNL     1       6.113  -0.543  -0.216  1.00  0.00     0.034 A 
ENDBRANCH  17  19
ENDBRANCH   5  16
TORSDOF 5
