REMARK  6 active torsions:
REMARK  status: ('A' for Active; 'I' for Inactive)
REMARK    1  A    between atoms: C2_2  and  N1_5 
REMARK       I    between atoms: C5_7  and  N3_9 
REMARK    2  A    between atoms: N3_9  and  C6_11 
REMARK    3  A    between atoms: C6_11  and  C7_12 
REMARK    4  A    between atoms: C7_12  and  C8_13 
REMARK    5  A    between atoms: C8_13  and  N4_14 
REMARK    6  A    between atoms: N5_17  and  C11_18 
ROOT
HETATM    1  N4  UNL     1       0.513  -0.025  -0.258  1.00  0.00    -0.364 N 
HETATM    2  C9  UNL     1       0.846   0.058   1.100  1.00  0.00     0.107 C 
HETATM    3  C10 UNL     1       2.270   0.419   1.376  1.00  0.00     0.108 C 
HETATM    4  N5  UNL     1       3.081   0.438   0.232  1.00  0.00    -0.354 N 
HETATM    5  C19 UNL     1       2.563   1.210  -0.805  1.00  0.00     0.108 C 
HETATM    6  C20 UNL     1       1.177   0.778  -1.207  1.00  0.00     0.107 C 
ENDROOT
BRANCH   1   7
HETATM    7  C8  UNL     1      -0.864  -0.198  -0.541  1.00  0.00     0.129 C 
BRANCH   7   8
HETATM    8  C7  UNL     1      -1.744   0.992  -0.212  1.00  0.00     0.040 C 
BRANCH   8   9
HETATM    9  C6  UNL     1      -3.190   0.686  -0.616  1.00  0.00     0.124 C 
BRANCH   9  10
HETATM   10  N3  UNL     1      -3.708  -0.458   0.080  1.00  0.00    -0.365 N 
HETATM   11  C5  UNL     1      -4.939  -1.068  -0.310  1.00  0.00     0.184 C 
HETATM   12  N1  UNL     1      -6.098  -0.771  -0.134  1.00  0.00    -0.357 N 
HETATM   13  N2  UNL     1      -4.700  -2.304  -1.086  1.00  0.00    -0.064 NA
ATOM     14  H1  UNL     1      -6.624  -1.509  -0.602  1.00  0.00     0.163 HD
ATOM     15  H3  UNL     1      -3.187  -0.842   0.868  1.00  0.00     0.162 HD
BRANCH  12  16
HETATM   16  C2  UNL     1      -7.055   0.058   0.378  1.00  0.00     0.021 C 
HETATM   17  C1  UNL     1      -8.456  -0.297  -0.198  1.00  0.00     0.037 C 
HETATM   18  C3  UNL     1      -7.253  -0.028   1.891  1.00  0.00     0.037 C 
HETATM   19  C4  UNL     1      -6.888   1.530  -0.016  1.00  0.00     0.037 C 
ENDBRANCH  12  16
ENDBRANCH   9  10
ENDBRANCH   8   9
ENDBRANCH   7   8
ENDBRANCH   1   7
BRANCH   4  20
HETATM   20  C11 UNL     1       3.991  -0.584   0.000  1.00  0.00     0.035 C 
HETATM   21  C12 UNL     1       3.216  -1.889  -0.275  1.00  0.00     0.039 C 
HETATM   22  C13 UNL     1       4.843  -0.942   1.199  1.00  0.00     0.031 C 
HETATM   23  C14 UNL     1       5.965  -0.000   1.449  1.00  0.00     0.002 C 
HETATM   24  C15 UNL     1       7.131  -0.243   0.519  1.00  0.00     0.003 C 
HETATM   25  C16 UNL     1       7.073   0.637  -0.688  1.00  0.00     0.037 C 
HETATM   26  C17 UNL     1       5.682   0.901  -1.192  1.00  0.00     0.172 C 
HETATM   27  F1  UNL     1       5.848   1.354  -2.534  1.00  0.00    -0.249 F 
HETATM   28  C18 UNL     1       4.882  -0.359  -1.180  1.00  0.00     0.068 C 
ENDBRANCH   4  20
TORSDOF 6
