REMARK  10 active torsions:
REMARK  status: ('A' for Active; 'I' for Inactive)
REMARK    1  A    between atoms: C2_2  and  O2_4 
REMARK    2  A    between atoms: O2_4  and  C3_5 
REMARK    3  A    between atoms: C3_5  and  C4_6 
REMARK    4  A    between atoms: C7_9  and  C8_10 
REMARK    5  A    between atoms: C22_25  and  O3_26 
REMARK    6  A    between atoms: C22_25  and  C23_28 
REMARK    7  A    between atoms: C24_29  and  C25_30 
REMARK    8  A    between atoms: C25_30  and  O4_32 
REMARK    9  A    between atoms: C28_35  and  C29_36 
REMARK   10  A    between atoms: C29_36  and  O5_37 
ROOT
HETATM    1  C8  UNL     1      -0.963  -0.488  -0.732  1.00  0.00     0.004 C 
HETATM    2  C9  UNL     1       0.148  -0.831  -1.344  1.00  0.00    -0.070 C 
HETATM    3  C10 UNL     1       0.089  -1.551  -2.649  1.00  0.00     0.035 C 
HETATM    4  C11 UNL     1       1.369  -2.147  -3.090  1.00  0.00     0.005 C 
HETATM    5  C12 UNL     1       2.329  -2.566  -2.044  1.00  0.00     0.014 C 
HETATM    6  C13 UNL     1       2.356  -1.791  -0.785  1.00  0.00     0.007 C 
HETATM    7  C14 UNL     1       2.055  -2.642   0.429  1.00  0.00     0.020 C 
HETATM    8  C15 UNL     1       1.469  -0.539  -0.803  1.00  0.00     0.060 C 
HETATM    9  C16 UNL     1       2.282   0.341  -1.709  1.00  0.00    -0.036 A 
HETATM   10  C17 UNL     1       1.988   1.378  -2.579  1.00  0.00     0.050 A 
HETATM   11  C18 UNL     1       2.980   2.016  -3.300  1.00  0.00     0.117 A 
HETATM   12  F1  UNL     1       2.706   3.040  -4.160  1.00  0.00    -0.206 F 
HETATM   13  C19 UNL     1       4.296   1.636  -3.173  1.00  0.00     0.043 A 
HETATM   14  C20 UNL     1       4.605   0.616  -2.322  1.00  0.00     0.014 A 
HETATM   15  C21 UNL     1       3.618  -0.017  -1.606  1.00  0.00    -0.012 A 
HETATM   16  C22 UNL     1       3.710  -1.132  -0.629  1.00  0.00     0.111 C 
ENDROOT
BRANCH   1  17
HETATM   17  C7  UNL     1      -1.033   0.219   0.547  1.00  0.00     0.003 C 
HETATM   18  C6  UNL     1      -2.203   0.509   1.065  1.00  0.00    -0.079 C 
HETATM   19  C5  UNL     1      -3.421   0.120   0.350  1.00  0.00     0.041 C 
HETATM   20  C27 UNL     1      -2.269   1.220   2.354  1.00  0.00     0.041 C 
HETATM   21  C4  UNL     1      -4.683   0.560   1.032  1.00  0.00     0.014 C 
HETATM   22  C30 UNL     1      -4.652   0.391   2.522  1.00  0.00     0.014 C 
HETATM   23  C28 UNL     1      -3.406   0.782   3.213  1.00  0.00     0.013 C 
BRANCH  21  24
HETATM   24  C3  UNL     1      -5.819  -0.233   0.436  1.00  0.00     0.183 C 
BRANCH  24  25
HETATM   25  O2  UNL     1      -5.995  -0.073  -0.928  1.00  0.00    -0.321 OA
BRANCH  25  26
HETATM   26  C2  UNL     1      -6.325   1.120  -1.509  1.00  0.00     0.254 C 
HETATM   27  C1  UNL     1      -6.486   1.192  -2.998  1.00  0.00     0.126 C 
HETATM   28  O1  UNL     1      -6.489   2.140  -0.799  1.00  0.00    -0.266 OA
ENDBRANCH  25  26
ENDBRANCH  24  25
ENDBRANCH  21  24
BRANCH  23  29
HETATM   29  C29 UNL     1      -2.984  -0.305   4.205  1.00  0.00     0.169 C 
BRANCH  29  30
HETATM   30  O5  UNL     1      -1.972   0.186   5.035  1.00  0.00    -0.400 OA
ATOM     31  H5  UNL     1      -1.710  -0.489   5.651  1.00  0.00     0.209 HD
ENDBRANCH  29  30
ENDBRANCH  23  29
ENDBRANCH   1  17
BRANCH  16  32
HETATM   32  O3  UNL     1       4.762  -1.987  -0.898  1.00  0.00    -0.380 OA
ATOM     33  H3  UNL     1       5.612  -1.573  -0.800  1.00  0.00     0.211 HD
ENDBRANCH  16  32
BRANCH  16  34
HETATM   34  C23 UNL     1       3.791  -0.524   0.726  1.00  0.00     0.015 C 
HETATM   35  C24 UNL     1       4.799   0.287   0.988  1.00  0.00     0.003 C 
BRANCH  35  36
HETATM   36  C25 UNL     1       4.903   0.904   2.326  1.00  0.00     0.136 C 
HETATM   37  C26 UNL     1       4.541   2.369   2.230  1.00  0.00     0.043 C 
BRANCH  36  38
HETATM   38  O4  UNL     1       6.211   0.721   2.770  1.00  0.00    -0.392 OA
ATOM     39  H4  UNL     1       6.278   1.118   3.631  1.00  0.00     0.210 HD
ENDBRANCH  36  38
ENDBRANCH  35  36
ENDBRANCH  16  34
TORSDOF 10
