REMARK  9 active torsions:
REMARK  status: ('A' for Active; 'I' for Inactive)
REMARK    1  A    between atoms: C3_3  and  O1_4 
REMARK    2  A    between atoms: C14_17  and  O3_18 
REMARK    3  A    between atoms: C15_20  and  C16_21 
REMARK    4  A    between atoms: C16_21  and  C17_22 
REMARK    5  A    between atoms: C17_22  and  C18_23 
REMARK    6  A    between atoms: C18_23  and  C19_24 
REMARK    7  A    between atoms: C19_24  and  O4_25 
REMARK    8  A    between atoms: C25_32  and  O5_33 
REMARK    9  A    between atoms: O5_33  and  C26_34 
ROOT
HETATM    1  C1  UNL     1      -4.037  -1.084  -3.328  1.00  0.00     0.020 C 
HETATM    2  C2  UNL     1      -3.892  -0.451  -2.163  1.00  0.00    -0.026 C 
HETATM    3  C3  UNL     1      -4.051   1.023  -2.144  1.00  0.00     0.150 C 
HETATM    4  C4  UNL     1      -2.905   1.637  -1.396  1.00  0.00     0.046 C 
HETATM    5  C5  UNL     1      -1.987   0.549  -0.879  1.00  0.00     0.036 C 
HETATM    6  C6  UNL     1      -0.675   1.111  -0.504  1.00  0.00    -0.015 C 
HETATM    7  C7  UNL     1      -0.650   2.288   0.329  1.00  0.00     0.165 C 
HETATM    8  O2  UNL     1      -1.555   2.612   1.000  1.00  0.00    -0.292 OA
HETATM    9  C8  UNL     1       0.575   3.106   0.323  1.00  0.00     0.045 C 
HETATM   10  C9  UNL     1       0.573   4.198   1.347  1.00  0.00     0.029 C 
HETATM   11  C10 UNL     1       0.815   3.780  -1.020  1.00  0.00     0.029 C 
HETATM   12  C11 UNL     1       1.678   2.102   0.551  1.00  0.00    -0.034 A 
HETATM   13  C12 UNL     1       2.814   2.753   1.062  1.00  0.00     0.012 A 
HETATM   14  C13 UNL     1       3.904   2.009   1.370  1.00  0.00     0.037 A 
HETATM   15  C14 UNL     1       3.901   0.647   1.186  1.00  0.00     0.072 A 
HETATM   16  C15 UNL     1       2.775   0.027   0.679  1.00  0.00    -0.017 A 
HETATM   17  C20 UNL     1       1.599   0.744   0.337  1.00  0.00    -0.029 A 
HETATM   18  C21 UNL     1       0.376   0.048  -0.152  1.00  0.00     0.017 C 
HETATM   19  C22 UNL     1       0.643  -0.573  -1.505  1.00  0.00     0.026 C 
HETATM   20  C23 UNL     1      -0.260  -0.839   0.865  1.00  0.00     0.029 C 
HETATM   21  C24 UNL     1      -0.092  -0.282   2.287  1.00  0.00     0.014 C 
HETATM   22  C25 UNL     1      -1.655  -1.282   0.649  1.00  0.00     0.138 C 
HETATM   23  C28 UNL     1      -2.655  -0.412   0.020  1.00  0.00     0.025 C 
HETATM   24  C29 UNL     1      -3.635   0.173   1.011  1.00  0.00     0.022 C 
HETATM   25  C30 UNL     1      -3.580  -1.229  -0.918  1.00  0.00     0.212 C 
HETATM   26  F1  UNL     1      -3.030  -2.397  -1.326  1.00  0.00    -0.244 F 
ENDROOT
BRANCH  16  27
HETATM   27  C16 UNL     1       2.823  -1.412   0.588  1.00  0.00     0.042 C 
BRANCH  27  28
HETATM   28  C17 UNL     1       4.149  -2.077   0.321  1.00  0.00     0.007 C 
BRANCH  28  29
HETATM   29  C18 UNL     1       4.863  -1.819  -0.934  1.00  0.00     0.026 C 
BRANCH  29  30
HETATM   30  C19 UNL     1       4.219  -2.340  -2.197  1.00  0.00     0.164 C 
BRANCH  30  31
HETATM   31  O4  UNL     1       5.018  -2.007  -3.292  1.00  0.00    -0.401 OA
ATOM     32  H4  UNL     1       4.613  -2.335  -4.086  1.00  0.00     0.209 HD
ENDBRANCH  30  31
ENDBRANCH  29  30
ENDBRANCH  28  29
ENDBRANCH  27  28
ENDBRANCH  16  27
BRANCH  15  33
HETATM   33  O3  UNL     1       5.075  -0.041   1.540  1.00  0.00    -0.360 OA
ATOM     34  H3  UNL     1       5.073  -0.982   1.413  1.00  0.00     0.217 HD
ENDBRANCH  15  33
BRANCH  22  35
HETATM   35  O5  UNL     1      -2.157  -1.590   1.947  1.00  0.00    -0.385 OA
BRANCH  35  36
HETATM   36  C26 UNL     1      -2.509  -2.901   2.098  1.00  0.00     0.163 C 
HETATM   37  C27 UNL     1      -3.022  -3.098   3.523  1.00  0.00     0.033 C 
ENDBRANCH  35  36
ENDBRANCH  22  35
BRANCH   3  38
HETATM   38  O1  UNL     1      -3.942   1.504  -3.475  1.00  0.00    -0.391 OA
ATOM     39  H1  UNL     1      -4.044   2.448  -3.463  1.00  0.00     0.210 HD
ENDBRANCH   3  38
TORSDOF 9
