REMARK  8 active torsions:
REMARK  status: ('A' for Active; 'I' for Inactive)
REMARK    1  A    between atoms: C6_7  and  C7_8 
REMARK    2  A    between atoms: C7_8  and  O2_10 
REMARK    3  A    between atoms: O2_10  and  C8_11 
REMARK    4  A    between atoms: C11_14  and  O3_15 
REMARK    5  A    between atoms: O3_15  and  C12_16 
REMARK    6  A    between atoms: C12_16  and  N2_25 
REMARK    7  A    between atoms: N1_17  and  C13_19 
REMARK    8  A    between atoms: N2_25  and  C19_27 
ROOT
HETATM    1  C8  UNL     1       2.438   0.254  -0.293  1.00  0.00     0.132 C 
HETATM    2  C9  UNL     1       1.812  -0.984  -0.836  1.00  0.00     0.035 C 
HETATM    3  C10 UNL     1       0.451  -0.765  -1.289  1.00  0.00     0.035 C 
HETATM    4  C11 UNL     1      -0.460   0.197  -0.606  1.00  0.00     0.132 C 
HETATM    5  C25 UNL     1       0.306   1.255   0.170  1.00  0.00     0.035 C 
HETATM    6  C26 UNL     1       1.548   0.702   0.851  1.00  0.00     0.035 C 
ENDROOT
BRANCH   4   7
HETATM    7  O3  UNL     1      -1.359  -0.453   0.238  1.00  0.00    -0.317 OA
BRANCH   7   8
HETATM    8  C12 UNL     1      -2.471  -0.046   0.865  1.00  0.00     0.220 C 
HETATM    9  N1  UNL     1      -3.540  -0.505   0.180  1.00  0.00    -0.352 N 
ATOM     10  H1  UNL     1      -4.461  -0.265   0.547  1.00  0.00     0.163 HD
BRANCH   9  11
HETATM   11  C13 UNL     1      -3.505  -1.287  -0.998  1.00  0.00     0.085 C 
HETATM   12  C14 UNL     1      -4.897  -1.198  -1.618  1.00  0.00     0.025 C 
HETATM   13  C15 UNL     1      -5.847  -1.493  -0.470  1.00  0.00     0.002 C 
HETATM   14  C16 UNL     1      -5.532  -2.820   0.147  1.00  0.00     0.000 C 
HETATM   15  C17 UNL     1      -4.394  -3.560  -0.467  1.00  0.00     0.002 C 
HETATM   16  C18 UNL     1      -3.161  -2.744  -0.726  1.00  0.00     0.025 C 
ENDBRANCH   9  11
BRANCH   8  17
HETATM   17  N2  UNL     1      -2.823   0.705   2.008  1.00  0.00    -0.322 N 
ATOM     18  H2  UNL     1      -2.511   0.474   2.951  1.00  0.00     0.169 HD
BRANCH  17  19
HETATM   19  C19 UNL     1      -3.675   1.841   1.702  1.00  0.00     0.035 A 
HETATM   20  C20 UNL     1      -3.513   2.494   0.482  1.00  0.00     0.029 A 
HETATM   21  C21 UNL     1      -4.325   3.548   0.137  1.00  0.00     0.002 A 
HETATM   22  C22 UNL     1      -5.303   3.960   0.993  1.00  0.00     0.000 A 
HETATM   23  C23 UNL     1      -5.500   3.333   2.224  1.00  0.00     0.002 A 
HETATM   24  C24 UNL     1      -4.665   2.284   2.532  1.00  0.00     0.029 A 
ENDBRANCH  17  19
ENDBRANCH   8  17
ENDBRANCH   7   8
ENDBRANCH   4   7
BRANCH   1  25
HETATM   25  O2  UNL     1       3.802   0.148   0.028  1.00  0.00    -0.312 OA
BRANCH  25  26
HETATM   26  C7  UNL     1       4.784   0.938  -0.544  1.00  0.00     0.295 C 
HETATM   27  O1  UNL     1       4.400   1.810  -1.395  1.00  0.00    -0.259 OA
BRANCH  26  28
HETATM   28  C6  UNL     1       6.169   0.758  -0.177  1.00  0.00     0.061 A 
HETATM   29  C5  UNL     1       6.849   1.753   0.481  1.00  0.00     0.021 A 
HETATM   30  C4  UNL     1       8.176   1.672   0.866  1.00  0.00     0.025 A 
HETATM   31  C3  UNL     1       8.867   0.532   0.576  1.00  0.00     0.041 A 
HETATM   32  C2  UNL     1       8.215  -0.510  -0.095  1.00  0.00    -0.018 A 
HETATM   33 CL1  UNL     1      10.549   0.398   1.045  1.00  0.00    -0.084 Cl
HETATM   34  C1  UNL     1       9.018  -1.718  -0.375  1.00  0.00     0.052 C 
HETATM   35  C27 UNL     1       6.900  -0.379  -0.453  1.00  0.00     0.058 A 
HETATM   36 CL2  UNL     1       6.151  -1.727  -1.294  1.00  0.00    -0.083 Cl
ENDBRANCH  26  28
ENDBRANCH  25  26
ENDBRANCH   1  25
TORSDOF 8
