REMARK  5 active torsions:
REMARK  status: ('A' for Active; 'I' for Inactive)
REMARK       I    between atoms: C1_2  and  N1_3 
REMARK    1  A    between atoms: C1_2  and  C8_13 
REMARK    2  A    between atoms: N1_3  and  C2_5 
REMARK    3  A    between atoms: C10_15  and  N2_16 
REMARK    4  A    between atoms: C21_27  and  C22_28 
REMARK    5  A    between atoms: C22_28  and  C23_30 
ROOT
HETATM    1  C8  UNL     1      -0.298   0.574   0.158  1.00  0.00     0.048 A 
HETATM    2  C9  UNL     1       1.083   0.547  -0.127  1.00  0.00     0.047 A 
HETATM    3  C10 UNL     1       1.745  -0.600  -0.444  1.00  0.00     0.031 A 
HETATM    4  C19 UNL     1       0.944  -1.747  -0.467  1.00  0.00     0.030 A 
HETATM    5  C20 UNL     1      -0.390  -1.759  -0.197  1.00  0.00     0.018 A 
HETATM    6  C21 UNL     1      -1.040  -0.568   0.131  1.00  0.00     0.026 A 
ENDROOT
BRANCH   1   7
HETATM    7  C1  UNL     1      -0.846   1.944   0.324  1.00  0.00     0.257 C 
HETATM    8  O1  UNL     1      -0.417   2.602   1.285  1.00  0.00    -0.267 OA
HETATM    9  N1  UNL     1      -1.781   2.454  -0.570  1.00  0.00    -0.323 N 
ATOM     10  H1  UNL     1      -2.068   1.830  -1.324  1.00  0.00     0.169 HD
BRANCH   9  11
HETATM   11  C2  UNL     1      -2.380   3.732  -0.559  1.00  0.00     0.036 A 
HETATM   12  C3  UNL     1      -1.831   4.828   0.061  1.00  0.00     0.031 A 
HETATM   13  C4  UNL     1      -2.463   6.070   0.084  1.00  0.00     0.028 A 
HETATM   14  C5  UNL     1      -3.680   6.246  -0.524  1.00  0.00     0.055 A 
HETATM   15 CL1  UNL     1      -4.501   7.803  -0.509  1.00  0.00    -0.083 Cl
HETATM   16  C6  UNL     1      -4.237   5.157  -1.147  1.00  0.00     0.058 A 
HETATM   17 CL2  UNL     1      -5.811   5.345  -1.938  1.00  0.00    -0.082 Cl
HETATM   18  C7  UNL     1      -3.620   3.940  -1.171  1.00  0.00     0.055 A 
ENDBRANCH   9  11
ENDBRANCH   1   7
BRANCH   6  19
HETATM   19  C22 UNL     1      -2.435  -0.585   0.547  1.00  0.00     0.164 C 
HETATM   20  O2  UNL     1      -2.912   0.528   0.975  1.00  0.00    -0.292 OA
BRANCH  19  21
HETATM   21  C23 UNL     1      -3.379  -1.681   0.559  1.00  0.00     0.060 C 
HETATM   22  C24 UNL     1      -3.034  -2.697   1.615  1.00  0.00     0.012 C 
HETATM   23  C25 UNL     1      -4.380  -3.376   1.951  1.00  0.00     0.001 C 
HETATM   24  C26 UNL     1      -4.858  -4.006   0.681  1.00  0.00     0.000 C 
HETATM   25  C27 UNL     1      -3.958  -3.810  -0.506  1.00  0.00     0.001 C 
HETATM   26  C28 UNL     1      -3.681  -2.329  -0.768  1.00  0.00     0.012 C 
ENDBRANCH  19  21
ENDBRANCH   6  19
BRANCH   3  27
HETATM   27  N2  UNL     1       3.131  -0.686  -0.701  1.00  0.00    -0.371 N 
HETATM   28  C11 UNL     1       3.661  -1.576  -1.755  1.00  0.00     0.124 C 
HETATM   29  C12 UNL     1       4.975  -0.959  -2.157  1.00  0.00     0.022 C 
HETATM   30  C13 UNL     1       5.088   0.297  -1.324  1.00  0.00     0.033 C 
HETATM   31  C14 UNL     1       4.249  -0.081  -0.105  1.00  0.00     0.033 C 
HETATM   32  C15 UNL     1       4.049   1.052   0.832  1.00  0.00     0.031 C 
HETATM   33  C18 UNL     1       4.994  -1.150   0.690  1.00  0.00     0.031 C 
HETATM   34  C16 UNL     1       5.309   1.016   1.699  1.00  0.00     0.002 C 
HETATM   35  C17 UNL     1       5.560  -0.462   1.879  1.00  0.00     0.002 C 
ENDBRANCH   3  27
TORSDOF 5
