REMARK  5 active torsions:
REMARK  status: ('A' for Active; 'I' for Inactive)
REMARK    1  A    between atoms: C1_2  and  C2_4 
REMARK       I    between atoms: N1_7  and  C5_8 
REMARK    2  A    between atoms: C5_8  and  C6_10 
REMARK    3  A    between atoms: C8_12  and  C9_13 
REMARK    4  A    between atoms: C15_20  and  S1_21 
REMARK    5  A    between atoms: S1_21  and  C16_22 
ROOT
HETATM    1  C6  UNL     1       0.552  -0.286  -1.147  1.00  0.00     0.054 A 
HETATM    2  C7  UNL     1      -0.072   0.804  -0.551  1.00  0.00     0.027 A 
HETATM    3  C8  UNL     1      -1.304   0.655   0.070  1.00  0.00    -0.034 A 
HETATM    4  C15 UNL     1      -1.883  -0.615   0.073  1.00  0.00     0.014 A 
HETATM    5  C22 UNL     1      -1.283  -1.710  -0.513  1.00  0.00     0.044 A 
HETATM    6  C23 UNL     1      -0.052  -1.516  -1.122  1.00  0.00     0.051 A 
HETATM    7 CL2  UNL     1       0.713  -2.902  -1.867  1.00  0.00    -0.083 Cl
ENDROOT
BRANCH   1   8
HETATM    8  C5  UNL     1       1.844  -0.163  -1.808  1.00  0.00     0.255 C 
HETATM    9  N1  UNL     1       3.087  -0.340  -1.159  1.00  0.00    -0.348 N 
HETATM   10  C4  UNL     1       4.301  -0.198  -1.895  1.00  0.00     0.127 C 
HETATM   11  C24 UNL     1       3.129  -0.665   0.248  1.00  0.00     0.127 C 
HETATM   12  C3  UNL     1       5.536  -0.355  -1.055  1.00  0.00     0.035 C 
HETATM   13  C2  UNL     1       5.445   0.236   0.309  1.00  0.00     0.090 C 
HETATM   14  C25 UNL     1       4.081   0.289   0.907  1.00  0.00     0.035 C 
HETATM   15  O3  UNL     1       1.804   0.124  -3.052  1.00  0.00    -0.267 OA
BRANCH  13  16
HETATM   16  C1  UNL     1       6.320  -0.593   1.211  1.00  0.00     0.177 C 
HETATM   17  O1  UNL     1       6.970  -1.586   0.784  1.00  0.00    -0.648 OA
HETATM   18  O2  UNL     1       6.432  -0.273   2.561  1.00  0.00    -0.648 OA
ENDBRANCH  13  16
ENDBRANCH   1   8
BRANCH   3  19
HETATM   19  C9  UNL     1      -1.984   1.828   0.684  1.00  0.00     0.038 C 
HETATM   20  C10 UNL     1      -1.068   2.984   0.883  1.00  0.00     0.011 C 
HETATM   21  C11 UNL     1      -1.039   4.011  -0.178  1.00  0.00     0.001 C 
HETATM   22  C12 UNL     1      -2.488   4.511  -0.331  1.00  0.00     0.002 C 
HETATM   23  C13 UNL     1      -3.200   3.340  -0.964  1.00  0.00     0.021 C 
HETATM   24  C14 UNL     1      -3.241   2.146  -0.072  1.00  0.00     0.090 C 
HETATM   25 CL1  UNL     1      -4.663   2.320   0.987  1.00  0.00    -0.124 Cl
ENDBRANCH   3  19
BRANCH   4  26
HETATM   26  S1  UNL     1      -3.453  -0.815   0.892  1.00  0.00    -0.090 SA
BRANCH  26  27
HETATM   27  C16 UNL     1      -4.025  -2.484   0.821  1.00  0.00     0.005 A 
HETATM   28  C17 UNL     1      -3.684  -3.356   1.811  1.00  0.00     0.019 A 
HETATM   29  C18 UNL     1      -4.131  -4.659   1.756  1.00  0.00     0.001 A 
HETATM   30  C19 UNL     1      -4.921  -5.104   0.716  1.00  0.00     0.000 A 
HETATM   31  C20 UNL     1      -5.248  -4.210  -0.261  1.00  0.00     0.001 A 
HETATM   32  C21 UNL     1      -4.820  -2.897  -0.242  1.00  0.00     0.019 A 
ENDBRANCH  26  27
ENDBRANCH   4  26
TORSDOF 5
