REMARK  5 active torsions:
REMARK  status: ('A' for Active; 'I' for Inactive)
REMARK    1  A    between atoms: C6_7  and  S1_8 
REMARK    2  A    between atoms: S1_8  and  C7_9 
REMARK    3  A    between atoms: C10_12  and  N1_13 
REMARK    4  A    between atoms: N1_13  and  C11_15 
REMARK    5  A    between atoms: C15_19  and  N2_20 
ROOT
HETATM    1  C7  UNL     1       4.864  -1.650  -0.340  1.00  0.00     0.007 A 
HETATM    2  C8  UNL     1       4.247  -0.619   0.303  1.00  0.00     0.021 A 
HETATM    3  C9  UNL     1       2.877  -0.636   0.615  1.00  0.00     0.032 A 
HETATM    4  C10 UNL     1       2.161  -1.740   0.250  1.00  0.00     0.046 A 
HETATM    5  C23 UNL     1       2.767  -2.783  -0.395  1.00  0.00     0.038 A 
HETATM    6 BR1  UNL     1       1.760  -4.366  -0.919  1.00  0.00    -0.049 Br
HETATM    7  C24 UNL     1       4.117  -2.752  -0.694  1.00  0.00     0.040 A 
ENDROOT
BRANCH   4   8
HETATM    8  N1  UNL     1       0.775  -1.817   0.458  1.00  0.00    -0.380 N 
ATOM      9  H1  UNL     1       0.351  -2.677   0.109  1.00  0.00     0.160 HD
BRANCH   8  10
HETATM   10  C11 UNL     1      -0.144  -0.925   1.061  1.00  0.00     0.114 C 
HETATM   11  C12 UNL     1      -0.063   0.523   0.481  1.00  0.00     0.109 C 
HETATM   12  C13 UNL     1      -1.358   0.894   0.118  1.00  0.00    -0.178 C 
HETATM   13  C14 UNL     1      -2.681   1.236  -0.270  1.00  0.00     0.119 C 
HETATM   14  C15 UNL     1      -3.529  -0.006   0.132  1.00  0.00     0.255 C 
HETATM   15  C21 UNL     1      -2.782  -0.896   1.145  1.00  0.00     0.007 C 
HETATM   16  C22 UNL     1      -1.554  -1.516   0.823  1.00  0.00    -0.003 C 
BRANCH  14  17
HETATM   17  N2  UNL     1      -4.831   0.155   0.499  1.00  0.00     0.097 N 
HETATM   18  C16 UNL     1      -5.719  -0.629  -0.351  1.00  0.00     0.273 C 
HETATM   19  C17 UNL     1      -7.051  -0.014  -0.600  1.00  0.00     0.030 C 
HETATM   20  C18 UNL     1      -6.968   1.323  -1.286  1.00  0.00     0.003 C 
HETATM   21  C19 UNL     1      -5.778   2.100  -0.730  1.00  0.00     0.030 C 
HETATM   22  C20 UNL     1      -5.415   1.452   0.588  1.00  0.00     0.273 C 
ENDBRANCH  14  17
ENDBRANCH   8  10
ENDBRANCH   4   8
BRANCH   1  23
HETATM   23  S1  UNL     1       6.577  -1.650  -0.827  1.00  0.00    -0.089 SA
BRANCH  23  24
HETATM   24  C6  UNL     1       7.395  -0.116  -0.441  1.00  0.00     0.027 A 
HETATM   25  C1  UNL     1       8.118  -0.016   0.739  1.00  0.00     0.051 A 
HETATM   26 CL1  UNL     1       8.217  -1.390   1.835  1.00  0.00    -0.083 Cl
HETATM   27  C2  UNL     1       8.776   1.151   1.069  1.00  0.00     0.025 A 
HETATM   28  C3  UNL     1       8.730   2.265   0.225  1.00  0.00     0.002 A 
HETATM   29  C4  UNL     1       8.012   2.157  -0.945  1.00  0.00     0.001 A 
HETATM   30  C5  UNL     1       7.350   0.987  -1.279  1.00  0.00     0.021 A 
ENDBRANCH  23  24
ENDBRANCH   1  23
TORSDOF 5
