REMARK  6 active torsions:
REMARK  status: ('A' for Active; 'I' for Inactive)
REMARK    1  A    between atoms: C5_7  and  C6_8 
REMARK    2  A    between atoms: C9_11  and  N2_12 
REMARK    3  A    between atoms: N2_12  and  C10_14 
REMARK    4  A    between atoms: C13_17  and  C14_18 
REMARK    5  A    between atoms: C14_18  and  N3_19 
REMARK    6  A    between atoms: C17_22  and  C18_23 
ROOT
HETATM    1  C10 UNL     1      -3.096   1.332   0.864  1.00  0.00     0.035 A 
HETATM    2  C11 UNL     1      -2.586   0.142   1.349  1.00  0.00     0.030 A 
HETATM    3  C12 UNL     1      -1.226  -0.123   1.187  1.00  0.00     0.017 A 
HETATM    4  C13 UNL     1      -0.348   0.719   0.576  1.00  0.00     0.001 A 
HETATM    5  C28 UNL     1      -0.881   1.931   0.084  1.00  0.00     0.047 A 
HETATM    6 CL1  UNL     1       0.183   3.080  -0.728  1.00  0.00    -0.083 Cl
HETATM    7  C29 UNL     1      -2.201   2.195   0.237  1.00  0.00     0.054 A 
ENDROOT
BRANCH   1   8
HETATM    8  N2  UNL     1      -4.424   1.725   0.983  1.00  0.00    -0.342 N 
ATOM      9  H2  UNL     1      -4.707   2.163   1.859  1.00  0.00     0.167 HD
BRANCH   8  10
HETATM   10  C9  UNL     1      -5.318   1.581   0.083  1.00  0.00     0.115 A 
HETATM   11  C5  UNL     1      -6.601   2.012   0.315  1.00  0.00     0.012 A 
HETATM   12  C3  UNL     1      -7.562   1.844  -0.705  1.00  0.00     0.017 A 
HETATM   13  N1  UNL     1      -7.165   1.272  -1.847  1.00  0.00    -0.349 N 
HETATM   14  C4  UNL     1      -8.958   2.277  -0.466  1.00  0.00     0.069 C 
HETATM   15  C2  UNL     1      -5.918   0.843  -2.095  1.00  0.00     0.078 A 
ATOM     16  H1  UNL     1      -7.861   1.153  -2.583  1.00  0.00     0.167 HD
HETATM   17  C1  UNL     1      -5.565   0.206  -3.410  1.00  0.00     0.089 C 
HETATM   18  N4  UNL     1      -5.021   1.011  -1.116  1.00  0.00    -0.332 N 
ATOM     19  H4  UNL     1      -4.065   0.695  -1.277  1.00  0.00     0.168 HD
BRANCH  11  20
HETATM   20  C6  UNL     1      -7.063   2.679   1.523  1.00  0.00     0.016 C 
HETATM   21  C7  UNL     1      -6.238   2.516   2.766  1.00  0.00     0.015 C 
HETATM   22  C8  UNL     1      -7.126   4.217   1.307  1.00  0.00     0.015 C 
ENDBRANCH  11  20
ENDBRANCH   8  10
ENDBRANCH   1   8
BRANCH   4  23
HETATM   23  C14 UNL     1       1.106   0.519   0.407  1.00  0.00     0.103 C 
BRANCH  23  24
HETATM   24  N3  UNL     1       1.626  -0.670   0.866  1.00  0.00    -0.369 N 
HETATM   25  C15 UNL     1       1.383  -1.926   0.338  1.00  0.00     0.064 C 
HETATM   26  C16 UNL     1       2.675  -2.682   0.072  1.00  0.00     0.049 C 
HETATM   27  C17 UNL     1       3.897  -1.957   0.514  1.00  0.00    -0.004 C 
HETATM   28  C26 UNL     1       3.734  -1.368   1.857  1.00  0.00     0.025 C 
HETATM   29  C27 UNL     1       2.386  -0.710   2.066  1.00  0.00     0.128 C 
BRANCH  27  30
HETATM   30  C18 UNL     1       4.503  -1.111  -0.558  1.00  0.00    -0.010 C 
HETATM   31  C19 UNL     1       5.634  -0.245  -0.160  1.00  0.00     0.005 C 
HETATM   32  C20 UNL     1       6.864  -0.861   0.393  1.00  0.00     0.000 C 
HETATM   33  C21 UNL     1       7.939  -1.088  -0.647  1.00  0.00     0.000 C 
HETATM   34  C22 UNL     1       7.770  -2.320  -1.460  1.00  0.00     0.000 C 
HETATM   35  C23 UNL     1       6.842  -3.341  -0.947  1.00  0.00     0.000 C 
HETATM   36  C24 UNL     1       5.478  -3.246  -1.555  1.00  0.00     0.000 C 
HETATM   37  C25 UNL     1       4.906  -1.910  -1.779  1.00  0.00     0.005 C 
ENDBRANCH  27  30
ENDBRANCH  23  24
ENDBRANCH   4  23
TORSDOF 6
