REMARK  6 active torsions:
REMARK  status: ('A' for Active; 'I' for Inactive)
REMARK    1  A    between atoms: O1_1  and  C1_3 
REMARK    2  A    between atoms: C1_3  and  C2_4 
REMARK    3  A    between atoms: C5_7  and  C6_8 
REMARK    4  A    between atoms: N1_20  and  C15_21 
REMARK    5  A    between atoms: C15_21  and  C16_22 
REMARK    6  A    between atoms: C16_22  and  C17_23 
ROOT
HETATM    1  C1  UNL     1      -1.991  -0.808   0.158  1.00  0.00     0.096 C 
HETATM    2  C12 UNL     1      -1.450  -1.251   1.464  1.00  0.00     0.049 C 
HETATM    3  C13 UNL     1      -0.788  -2.588   1.445  1.00  0.00     0.048 C 
HETATM    4  C14 UNL     1       0.476  -2.674   0.650  1.00  0.00     0.063 C 
HETATM    5  N1  UNL     1       0.713  -1.727  -0.334  1.00  0.00    -0.374 N 
HETATM    6  C27 UNL     1      -0.227  -1.532  -1.363  1.00  0.00     0.066 C 
HETATM    7  C28 UNL     1      -1.648  -1.758  -0.981  1.00  0.00     0.088 C 
ENDROOT
BRANCH   1   8
HETATM    8  O1  UNL     1      -1.421   0.423  -0.166  1.00  0.00    -0.384 OA
ATOM      9  H1  UNL     1      -0.481   0.285  -0.155  1.00  0.00     0.211 HD
ENDBRANCH   1   8
BRANCH   1  10
HETATM   10  C2  UNL     1      -3.481  -0.589   0.141  1.00  0.00     0.018 A 
HETATM   11  C3  UNL     1      -4.461  -1.474   0.509  1.00  0.00     0.019 A 
HETATM   12  C4  UNL     1      -5.736  -1.073   0.365  1.00  0.00     0.021 A 
HETATM   13  C5  UNL     1      -5.940   0.186  -0.138  1.00  0.00     0.015 A 
HETATM   14  S1  UNL     1      -4.363   0.766  -0.389  1.00  0.00    -0.091 SA
BRANCH  13  15
HETATM   15  C6  UNL     1      -7.222   0.858  -0.428  1.00  0.00    -0.017 A 
HETATM   16  C7  UNL     1      -7.213   2.119  -0.974  1.00  0.00     0.014 A 
HETATM   17  C8  UNL     1      -8.402   2.768  -1.299  1.00  0.00     0.026 A 
HETATM   18  C9  UNL     1      -9.627   2.162  -1.082  1.00  0.00     0.055 A 
HETATM   19 CL1  UNL     1     -11.144   2.951  -1.497  1.00  0.00    -0.083 Cl
HETATM   20  C10 UNL     1      -9.609   0.890  -0.528  1.00  0.00     0.056 A 
HETATM   21 CL2  UNL     1     -11.160   0.118  -0.238  1.00  0.00    -0.083 Cl
HETATM   22  C11 UNL     1      -8.419   0.248  -0.206  1.00  0.00     0.038 A 
ENDBRANCH  13  15
ENDBRANCH   1  10
BRANCH   5  23
HETATM   23  C15 UNL     1       1.678  -0.706  -0.142  1.00  0.00     0.128 C 
BRANCH  23  24
HETATM   24  C16 UNL     1       3.054  -1.322  -0.143  1.00  0.00     0.029 C 
BRANCH  24  25
HETATM   25  C17 UNL     1       4.129  -0.246   0.117  1.00  0.00    -0.038 C 
HETATM   26  C18 UNL     1       4.047   0.735  -0.916  1.00  0.00     0.014 C 
HETATM   27  C19 UNL     1       4.934   1.864  -1.151  1.00  0.00    -0.013 C 
HETATM   28  C20 UNL     1       6.392   1.739  -1.097  1.00  0.00     0.009 C 
HETATM   29  C22 UNL     1       5.064   2.885  -0.069  1.00  0.00     0.009 C 
HETATM   30  C21 UNL     1       6.323   2.203   0.315  1.00  0.00    -0.013 C 
HETATM   31  C23 UNL     1       6.342   1.265   1.399  1.00  0.00     0.009 C 
HETATM   32  C24 UNL     1       5.554   0.081   1.565  1.00  0.00    -0.013 C 
HETATM   33  C25 UNL     1       4.061   0.179   1.546  1.00  0.00     0.014 C 
HETATM   34  C26 UNL     1       5.415  -0.909   0.481  1.00  0.00     0.014 C 
ENDBRANCH  24  25
ENDBRANCH  23  24
ENDBRANCH   5  23
TORSDOF 6
