REMARK  6 active torsions:
REMARK  status: ('A' for Active; 'I' for Inactive)
REMARK    1  A    between atoms: C4_5  and  C5_6 
REMARK       I    between atoms: C5_6  and  N1_8 
REMARK    2  A    between atoms: N1_8  and  C6_10 
REMARK    3  A    between atoms: N2_13  and  C9_14 
REMARK    4  A    between atoms: C12_17  and  N3_18 
REMARK    5  A    between atoms: C21_28  and  C22_29 
REMARK       I    between atoms: C22_29  and  N4_31 
REMARK    6  A    between atoms: C25_34  and  C26_35 
ROOT
HETATM    1  C5  UNL     1       2.146  -1.598   0.345  1.00  0.00     0.223 C 
HETATM    2  O1  UNL     1       1.282  -2.490   0.614  1.00  0.00    -0.273 OA
HETATM    3  N1  UNL     1       1.637  -0.405  -0.206  1.00  0.00    -0.356 N 
ATOM      4  H1  UNL     1       2.291   0.341  -0.442  1.00  0.00     0.162 HD
ENDROOT
BRANCH   3   5
HETATM    5  C6  UNL     1       0.222  -0.192  -0.452  1.00  0.00     0.087 C 
HETATM    6  C7  UNL     1       0.009   0.033  -1.936  1.00  0.00     0.044 C 
HETATM    7  C8  UNL     1      -1.473   0.085  -2.267  1.00  0.00     0.119 C 
HETATM    8  N2  UNL     1      -2.217   0.856  -1.329  1.00  0.00    -0.408 N 
HETATM    9  C19 UNL     1      -1.473   1.658  -0.434  1.00  0.00     0.119 C 
HETATM   10  C20 UNL     1      -0.369   0.944   0.315  1.00  0.00     0.044 C 
BRANCH   8  11
HETATM   11  C9  UNL     1      -3.305   0.102  -0.806  1.00  0.00     0.079 C 
HETATM   12  C10 UNL     1      -4.237  -0.226  -1.919  1.00  0.00     0.027 C 
HETATM   13  C11 UNL     1      -5.618  -0.655  -1.508  1.00  0.00     0.027 C 
HETATM   14  C12 UNL     1      -6.202   0.276  -0.467  1.00  0.00     0.087 C 
HETATM   15  C17 UNL     1      -5.276   0.161   0.729  1.00  0.00     0.027 C 
HETATM   16  C18 UNL     1      -3.942   0.740   0.401  1.00  0.00     0.027 C 
BRANCH  14  17
HETATM   17  N3  UNL     1      -7.524  -0.130  -0.109  1.00  0.00    -0.347 N 
HETATM   18  C13 UNL     1      -7.967  -1.394   0.448  1.00  0.00     0.127 C 
HETATM   19  C14 UNL     1      -9.255  -1.609  -0.352  1.00  0.00     0.029 C 
HETATM   20  C15 UNL     1      -9.900  -0.233  -0.208  1.00  0.00     0.104 C 
HETATM   21  C16 UNL     1      -8.711   0.658  -0.236  1.00  0.00     0.220 C 
HETATM   22  O2  UNL     1      -8.701   1.913  -0.351  1.00  0.00    -0.273 OA
ENDBRANCH  14  17
ENDBRANCH   8  11
ENDBRANCH   3   5
BRANCH   1  23
HETATM   23  C4  UNL     1       3.571  -1.856   0.613  1.00  0.00     0.094 C 
HETATM   24  C3  UNL     1       3.735  -3.260   1.207  1.00  0.00     0.036 C 
HETATM   25  C2  UNL     1       3.943  -2.587   2.546  1.00  0.00     0.028 C 
HETATM   26  C1  UNL     1       5.066  -3.241   3.270  1.00  0.00     0.028 C 
HETATM   27 BR1  UNL     1       2.317  -2.714   3.618  1.00  0.00    -0.085 Br
HETATM   28  C21 UNL     1       4.125  -1.276   1.889  1.00  0.00     0.110 C 
BRANCH  28  29
HETATM   29  C22 UNL     1       5.476  -0.700   1.805  1.00  0.00     0.226 C 
HETATM   30  O3  UNL     1       6.456  -1.415   2.203  1.00  0.00    -0.273 OA
HETATM   31  N4  UNL     1       5.804   0.580   1.322  1.00  0.00    -0.352 N 
HETATM   32  C23 UNL     1       4.875   1.569   0.823  1.00  0.00     0.126 C 
HETATM   33  C28 UNL     1       7.191   0.999   1.300  1.00  0.00     0.126 C 
HETATM   34  C24 UNL     1       5.140   1.695  -0.657  1.00  0.00     0.027 C 
HETATM   35  C25 UNL     1       6.577   2.135  -0.831  1.00  0.00     0.017 C 
HETATM   36  C27 UNL     1       7.548   1.235  -0.143  1.00  0.00     0.027 C 
BRANCH  35  37
HETATM   37  C26 UNL     1       6.914   2.114  -2.308  1.00  0.00     0.227 C 
HETATM   38  F1  UNL     1       6.092   2.961  -2.986  1.00  0.00    -0.255 F 
ENDBRANCH  35  37
ENDBRANCH  28  29
ENDBRANCH   1  23
TORSDOF 6
