REMARK  5 active torsions:
REMARK  status: ('A' for Active; 'I' for Inactive)
REMARK    1  A    between atoms: C2_2  and  N1_5 
REMARK    2  A    between atoms: C5_6  and  N2_7 
REMARK    3  A    between atoms: N2_7  and  N3_9 
REMARK    4  A    between atoms: N3_9  and  C6_11 
REMARK    5  A    between atoms: C6_11  and  N4_13 
ROOT
HETATM    1  N1  UNL     1      -0.835  -0.597   0.059  1.00  0.00    -0.156 N 
HETATM    2  C5  UNL     1      -0.001  -0.055   0.982  1.00  0.00     0.702 A 
HETATM    3  N6  UNL     1      -0.701   0.809   1.735  1.00  0.00    -0.186 N 
ATOM      4  H6  UNL     1      -0.336   1.365   2.508  1.00  0.00     0.184 HD
HETATM    5  C12 UNL     1      -1.988   0.809   1.280  1.00  0.00     0.095 A 
HETATM    6  C13 UNL     1      -3.068   1.531   1.734  1.00  0.00     0.049 A 
HETATM    7  C14 UNL     1      -4.285   1.344   1.086  1.00  0.00     0.010 A 
HETATM    8  C15 UNL     1      -5.411   2.050   1.506  1.00  0.00     0.016 A 
HETATM    9  C16 UNL     1      -6.589   1.832   0.836  1.00  0.00     0.018 A 
HETATM   10  C17 UNL     1      -6.619   0.936  -0.212  1.00  0.00     0.090 A 
HETATM   11  N7  UNL     1      -5.533   0.261  -0.611  1.00  0.00    -0.352 N 
ATOM     12  H7  UNL     1      -5.590  -0.394  -1.391  1.00  0.00     0.166 HD
HETATM   13  C18 UNL     1      -4.349   0.459   0.038  1.00  0.00     0.117 A 
HETATM   14  N8  UNL     1      -3.248  -0.234  -0.375  1.00  0.00    -0.325 N 
ATOM     15  H8  UNL     1      -3.329  -0.884  -1.157  1.00  0.00     0.169 HD
HETATM   16  C19 UNL     1      -2.062  -0.075   0.229  1.00  0.00     0.153 A 
ENDROOT
BRANCH   2  17
HETATM   17  N2  UNL     1       1.257  -0.310   1.132  1.00  0.00    -0.129 N 
ATOM     18  H2  UNL     1       1.727  -0.979   0.523  1.00  0.00     0.205 HD
BRANCH  17  19
HETATM   19  N3  UNL     1       1.959   0.346   2.141  1.00  0.00    -0.262 N 
ATOM     20  H3  UNL     1       1.763   0.143   3.121  1.00  0.00     0.190 HD
BRANCH  19  21
HETATM   21  C6  UNL     1       2.940   1.290   1.794  1.00  0.00     0.191 C 
HETATM   22  S1  UNL     1       3.787   2.082   2.945  1.00  0.00    -0.039 SA
BRANCH  21  23
HETATM   23  N4  UNL     1       3.218   1.578   0.436  1.00  0.00    -0.332 N 
HETATM   24  C7  UNL     1       4.167   0.963  -0.148  1.00  0.00     0.036 A 
HETATM   25  C8  UNL     1       4.909   0.035   0.530  1.00  0.00     0.046 A 
HETATM   26  C11 UNL     1       4.449   1.230  -1.461  1.00  0.00     0.046 A 
HETATM   27  C9  UNL     1       5.932  -0.614  -0.133  1.00  0.00     0.090 A 
HETATM   28  N5  UNL     1       6.197  -0.344  -1.418  1.00  0.00    -0.375 N 
HETATM   29  C10 UNL     1       5.485   0.562  -2.109  1.00  0.00     0.090 A 
ATOM     30  H5  UNL     1       6.958  -0.838  -1.883  1.00  0.00     0.164 HD
ATOM     31  H4  UNL     1       2.664   2.270  -0.068  1.00  0.00     0.168 HD
ENDBRANCH  21  23
ENDBRANCH  19  21
ENDBRANCH  17  19
ENDBRANCH   2  17
BRANCH   1  32
HETATM   32  C2  UNL     1      -0.496  -1.565  -0.943  1.00  0.00     0.045 C 
HETATM   33  C1  UNL     1       0.721  -2.380  -0.615  1.00  0.00     0.039 C 
HETATM   34  C3  UNL     1      -0.310  -0.891  -2.283  1.00  0.00     0.039 C 
HETATM   35  C4  UNL     1      -1.656  -2.557  -1.102  1.00  0.00     0.039 C 
ENDBRANCH   1  32
TORSDOF 5
