REMARK  2 active torsions:
REMARK  status: ('A' for Active; 'I' for Inactive)
REMARK       I    between atoms: C1_2  and  N1_3 
REMARK       I    between atoms: C1_2  and  N4_15 
REMARK    1  A    between atoms: N1_3  and  C2_5 
REMARK    2  A    between atoms: C8_20  and  C9_21 
ROOT
HETATM    1  O1  UNL     1       0.259  -1.736  -2.140  1.00  0.00    -0.246 OA
HETATM    2  C1  UNL     1       1.089  -0.787  -2.094  1.00  0.00     0.340 C 
HETATM    3  N1  UNL     1       2.478  -0.971  -2.320  1.00  0.00    -0.141 N 
ATOM      4  H1  UNL     1       2.834  -1.137  -3.261  1.00  0.00     0.189 HD
HETATM    5  N4  UNL     1       0.571   0.504  -1.802  1.00  0.00    -0.293 N 
ATOM      6  H4  UNL     1       1.066   1.326  -2.147  1.00  0.00     0.172 HD
HETATM    7  C7  UNL     1      -0.514   0.666  -1.109  1.00  0.00     0.123 A 
HETATM    8  N5  UNL     1      -1.227  -0.359  -0.619  1.00  0.00    -0.327 N 
ATOM      9  H5  UNL     1      -0.895  -1.305  -0.804  1.00  0.00     0.169 HD
HETATM   10  C8  UNL     1      -2.361  -0.214   0.106  1.00  0.00     0.119 A 
HETATM   11  N7  UNL     1      -2.776   1.037   0.334  1.00  0.00    -0.341 N 
ATOM     12  H7  UNL     1      -3.628   1.173   0.878  1.00  0.00     0.167 HD
HETATM   13  C14 UNL     1      -2.118   2.140  -0.124  1.00  0.00     0.047 A 
HETATM   14  C15 UNL     1      -2.596   3.409   0.143  1.00  0.00     0.030 A 
HETATM   15  C16 UNL     1      -1.878   4.474  -0.353  1.00  0.00     0.002 A 
HETATM   16  C17 UNL     1      -0.724   4.266  -1.088  1.00  0.00     0.001 A 
HETATM   17  C18 UNL     1      -0.263   3.002  -1.345  1.00  0.00     0.017 A 
HETATM   18  C19 UNL     1      -0.978   1.933  -0.851  1.00  0.00     0.035 A 
ENDROOT
BRANCH  10  19
HETATM   19  C9  UNL     1      -3.075  -1.396   0.603  1.00  0.00     0.023 A 
HETATM   20  C10 UNL     1      -4.218  -1.218   1.332  1.00  0.00     0.018 A 
HETATM   21  C11 UNL     1      -4.863  -2.377   1.783  1.00  0.00     0.018 A 
HETATM   22  C12 UNL     1      -4.390  -3.623   1.519  1.00  0.00     0.087 A 
HETATM   23  N6  UNL     1      -3.260  -3.735   0.796  1.00  0.00    -0.374 N 
HETATM   24  C13 UNL     1      -2.596  -2.666   0.336  1.00  0.00     0.102 A 
ATOM     25  H6  UNL     1      -2.897  -4.666   0.591  1.00  0.00     0.164 HD
ENDBRANCH  10  19
BRANCH   3  26
HETATM   26  C2  UNL     1       3.296  -0.923  -1.293  1.00  0.00     0.687 A 
HETATM   27  N2  UNL     1       4.634  -1.078  -1.344  1.00  0.00    -0.189 N 
HETATM   28  C3  UNL     1       5.160  -0.966  -0.081  1.00  0.00     0.084 A 
ATOM     29  H2  UNL     1       5.174  -1.252  -2.192  1.00  0.00     0.184 HD
HETATM   30  C4  UNL     1       6.368  -1.020   0.511  1.00  0.00     0.040 A 
HETATM   31  C6  UNL     1       4.076  -0.739   0.715  1.00  0.00     0.117 A 
HETATM   32  C5  UNL     1       6.410  -0.841   1.870  1.00  0.00     0.054 A 
HETATM   33  S1  UNL     1       4.768  -0.607   2.267  1.00  0.00    -0.081 SA
HETATM   34  N3  UNL     1       2.921  -0.710  -0.019  1.00  0.00    -0.183 N 
ATOM     35  H3  UNL     1       1.974  -0.559   0.328  1.00  0.00     0.185 HD
ENDBRANCH   3  26
TORSDOF 2
