REMARK  3 active torsions:
REMARK  status: ('A' for Active; 'I' for Inactive)
REMARK    1  A    between atoms: C1_2  and  C2_3 
REMARK    2  A    between atoms: C2_3  and  O2_4 
REMARK    3  A    between atoms: C13_16  and  C14_17 
ROOT
HETATM    1  C2  UNL     1       3.030  -0.279  -0.485  1.00  0.00     0.111 C 
HETATM    2  C3  UNL     1       2.854   1.009   0.235  1.00  0.00     0.050 C 
HETATM    3  C4  UNL     1       1.351   1.128   0.524  1.00  0.00    -0.006 C 
HETATM    4  C5  UNL     1       1.134   0.375   1.820  1.00  0.00     0.005 C 
HETATM    5  C6  UNL     1      -0.257  -0.002   2.069  1.00  0.00     0.007 C 
HETATM    6  C7  UNL     1      -1.134  -0.404   0.944  1.00  0.00     0.009 C 
HETATM    7  C8  UNL     1      -2.551  -0.101   1.332  1.00  0.00    -0.005 A 
HETATM    8  C9  UNL     1      -3.733  -0.787   0.820  1.00  0.00     0.010 A 
HETATM    9  C10 UNL     1      -3.392   0.667   0.446  1.00  0.00    -0.010 A 
HETATM   10  C11 UNL     1      -2.910   0.862  -0.958  1.00  0.00     0.006 C 
HETATM   11  C12 UNL     1      -1.438   1.239  -0.879  1.00  0.00     0.022 C 
HETATM   12  C13 UNL     1      -0.712   0.009  -0.413  1.00  0.00     0.056 C 
HETATM   13  C15 UNL     1       0.762   0.298  -0.552  1.00  0.00     0.012 C 
HETATM   14  C16 UNL     1       1.635  -0.912  -0.585  1.00  0.00     0.051 C 
ENDROOT
BRANCH   1  15
HETATM   15  C1  UNL     1       3.943  -1.240   0.167  1.00  0.00     0.269 C 
HETATM   16  O1  UNL     1       4.932  -1.667  -0.408  1.00  0.00    -0.304 OA
ENDBRANCH   1  15
BRANCH   1  17
HETATM   17  O2  UNL     1       3.509  -0.004  -1.764  1.00  0.00    -0.383 OA
ATOM     18  H2  UNL     1       2.922   0.614  -2.183  1.00  0.00     0.211 HD
ENDBRANCH   1  17
BRANCH  12  19
HETATM   19  C14 UNL     1      -0.948  -1.065  -1.438  1.00  0.00     0.182 C 
HETATM   20  O3  UNL     1      -1.325  -2.213  -1.163  1.00  0.00    -0.647 OA
HETATM   21  O4  UNL     1      -0.720  -0.721  -2.752  1.00  0.00    -0.647 OA
ENDBRANCH  12  19
TORSDOF 3
