REMARK  10 active torsions:
REMARK  status: ('A' for Active; 'I' for Inactive)
REMARK    1  A    between atoms: C2_2  and  N1_3 
REMARK    2  A    between atoms: C2_2  and  C14_31 
REMARK    3  A    between atoms: N1_3  and  C3_5 
REMARK    4  A    between atoms: C3_5  and  O1_6 
REMARK    5  A    between atoms: C3_5  and  C4_8 
REMARK    6  A    between atoms: C4_8  and  C5_9 
REMARK    7  A    between atoms: C4_8  and  N7_23 
REMARK    8  A    between atoms: C5_9  and  N2_10 
REMARK       I    between atoms: N2_10  and  C6_12 
REMARK    9  A    between atoms: C6_12  and  C7_14 
REMARK       I    between atoms: N7_23  and  C9_25 
REMARK   10  A    between atoms: C9_25  and  C10_27 
ROOT
HETATM    1  C4  UNL     1       0.001  -0.780   1.222  1.00  0.00     0.150 C 
ENDROOT
BRANCH   1   2
HETATM    2  C3  UNL     1       0.054  -1.706   0.076  1.00  0.00     0.238 C 
BRANCH   2   3
HETATM    3  N1  UNL     1      -0.993  -1.758  -0.855  1.00  0.00    -0.385 N 
ATOM      4  H1  UNL     1      -0.814  -1.446  -1.809  1.00  0.00     0.156 HD
BRANCH   3   5
HETATM    5  C2  UNL     1      -2.275  -2.220  -0.530  1.00  0.00     0.142 C 
HETATM    6  C1  UNL     1      -3.052  -1.433   0.475  1.00  0.00     0.040 C 
BRANCH   5   7
HETATM    7  C14 UNL     1      -3.127  -2.256  -1.788  1.00  0.00     0.095 C 
HETATM    8  N8  UNL     1      -3.572  -3.298  -2.382  1.00  0.00    -0.377 N 
HETATM    9  C15 UNL     1      -4.353  -2.993  -3.556  1.00  0.00     0.140 C 
ATOM     10  H8  UNL     1      -3.393  -4.248  -2.058  1.00  0.00     0.160 HD
HETATM   11  C16 UNL     1      -4.665  -1.512  -3.390  1.00  0.00     0.140 C 
HETATM   12  N9  UNL     1      -3.568  -1.124  -2.518  1.00  0.00    -0.377 N 
ATOM     13  H9  UNL     1      -3.177  -0.185  -2.443  1.00  0.00     0.160 HD
ENDBRANCH   5   7
ENDBRANCH   3   5
ENDBRANCH   2   3
BRANCH   2  14
HETATM   14  O1  UNL     1       0.148  -3.017   0.678  1.00  0.00    -0.375 OA
ATOM     15  H1  UNL     1       0.857  -2.982   1.309  1.00  0.00     0.212 HD
ENDBRANCH   2  14
ENDBRANCH   1   2
BRANCH   1  16
HETATM   16  C5  UNL     1       1.249  -0.939   2.117  1.00  0.00     0.152 C 
BRANCH  16  17
HETATM   17  N2  UNL     1       2.439  -0.656   1.342  1.00  0.00    -0.352 N 
HETATM   18  C6  UNL     1       3.709  -0.741   1.972  1.00  0.00     0.288 C 
HETATM   19  O2  UNL     1       3.829  -1.055   3.190  1.00  0.00    -0.264 OA
ATOM     20  H2  UNL     1       2.366  -0.399   0.358  1.00  0.00     0.162 HD
BRANCH  18  21
HETATM   21  C7  UNL     1       4.929  -0.464   1.226  1.00  0.00     0.206 A 
HETATM   22  N3  UNL     1       6.201  -0.492   1.684  1.00  0.00    -0.264 N 
HETATM   23  N4  UNL     1       7.005  -0.186   0.694  1.00  0.00    -0.225 N 
ATOM     24  H3  UNL     1       6.487  -0.714   2.638  1.00  0.00     0.190 HD
HETATM   25  N5  UNL     1       6.305   0.047  -0.421  1.00  0.00    -0.223 N 
ATOM     26  H4  UNL     1       8.021  -0.133   0.765  1.00  0.00     0.210 HD
HETATM   27  C8  UNL     1       6.886   0.407  -1.696  1.00  0.00     0.202 C 
HETATM   28  N6  UNL     1       5.054  -0.127  -0.076  1.00  0.00    -0.262 N 
ATOM     29  H6  UNL     1       4.266  -0.021  -0.715  1.00  0.00     0.190 HD
ENDBRANCH  18  21
ENDBRANCH  16  17
ENDBRANCH   1  16
BRANCH   1  30
HETATM   30  N7  UNL     1      -0.059   0.624   0.924  1.00  0.00    -0.350 N 
HETATM   31  C9  UNL     1      -0.868   1.589   1.563  1.00  0.00     0.225 C 
HETATM   32  O3  UNL     1      -1.642   1.264   2.498  1.00  0.00    -0.273 OA
ATOM     33  H7  UNL     1       0.545   0.958   0.173  1.00  0.00     0.163 HD
BRANCH  31  34
HETATM   34  C10 UNL     1      -0.823   3.003   1.147  1.00  0.00     0.030 C 
HETATM   35  C11 UNL     1      -1.233   3.206  -0.296  1.00  0.00     0.024 C 
HETATM   36  C12 UNL     1      -1.696   3.883   2.003  1.00  0.00     0.024 C 
HETATM   37  C13 UNL     1       0.603   3.551   1.250  1.00  0.00     0.024 C 
ENDBRANCH  31  34
ENDBRANCH   1  30
TORSDOF 10
