REMARK  9 active torsions:
REMARK  status: ('A' for Active; 'I' for Inactive)
REMARK    1  A    between atoms: O1_2  and  C2_3 
REMARK    2  A    between atoms: C2_3  and  C3_5 
REMARK    3  A    between atoms: C3_5  and  N1_6 
REMARK    4  A    between atoms: N1_6  and  N2_7 
REMARK       I    between atoms: N2_7  and  C4_9 
REMARK    5  A    between atoms: C4_9  and  C5_11 
REMARK    6  A    between atoms: C6_14  and  N4_15 
REMARK    7  A    between atoms: N4_15  and  N5_17 
REMARK    8  A    between atoms: C7_19  and  C8_20 
REMARK    9  A    between atoms: C11_23  and  N6_24 
ROOT
HETATM    1  C5  UNL     1       1.360   0.995  -0.150  1.00  0.00     0.205 A 
HETATM    2  N3  UNL     1       0.059   0.602  -0.088  1.00  0.00    -0.169 N 
ATOM      3  H3  UNL     1      -0.198  -0.248   0.413  1.00  0.00     0.186 HD
HETATM    4  C6  UNL     1      -0.882   1.340  -0.690  1.00  0.00     0.713 A 
HETATM    5  N7  UNL     1      -0.548   2.465  -1.355  1.00  0.00    -0.021 N 
ATOM      6  H7  UNL     1      -1.279   3.014  -1.808  1.00  0.00     0.203 HD
HETATM    7  C14 UNL     1       0.721   2.874  -1.432  1.00  0.00     0.692 A 
HETATM    8  N8  UNL     1       1.043   3.940  -2.060  1.00  0.00    -0.234 N 
ATOM      9  H81 UNL     1       2.012   4.252  -2.119  1.00  0.00     0.174 HD
ATOM     10  H82 UNL     1       0.334   4.509  -2.522  1.00  0.00     0.174 HD
HETATM   11  N9  UNL     1       1.671   2.112  -0.813  1.00  0.00    -0.170 N 
ATOM     12  H9  UNL     1       2.647   2.405  -0.859  1.00  0.00     0.186 HD
ENDROOT
BRANCH   4  13
HETATM   13  N4  UNL     1      -2.128   0.991  -0.646  1.00  0.00    -0.132 N 
ATOM     14  H4  UNL     1      -2.382   0.141  -0.143  1.00  0.00     0.205 HD
BRANCH  13  15
HETATM   15  N5  UNL     1      -3.106   1.713  -1.243  1.00  0.00    -0.297 N 
HETATM   16  C7  UNL     1      -4.339   1.611  -1.372  1.00  0.00     0.119 C 
ATOM     17  H5  UNL     1      -2.741   2.548  -1.701  1.00  0.00     0.186 HD
BRANCH  16  18
HETATM   18  C8  UNL     1      -5.194   0.557  -0.855  1.00  0.00    -0.019 A 
HETATM   19  C9  UNL     1      -6.579   0.599  -1.104  1.00  0.00     0.015 A 
HETATM   20  C10 UNL     1      -7.451  -0.358  -0.649  1.00  0.00     0.037 A 
HETATM   21  C11 UNL     1      -7.015  -1.433   0.090  1.00  0.00     0.102 A 
HETATM   22  C12 UNL     1      -5.665  -1.495   0.346  1.00  0.00     0.037 A 
HETATM   23  C13 UNL     1      -4.781  -0.521  -0.118  1.00  0.00     0.015 A 
BRANCH  21  24
HETATM   24  N6  UNL     1      -7.919  -2.428   0.567  1.00  0.00    -0.116 N 
HETATM   25  O4  UNL     1      -7.464  -3.376   1.253  1.00  0.00    -0.532 OA
HETATM   26  O5  UNL     1      -9.244  -2.297   0.254  1.00  0.00    -0.532 OA
ENDBRANCH  21  24
ENDBRANCH  16  18
ENDBRANCH  13  15
ENDBRANCH   4  13
BRANCH   1  27
HETATM   27  C4  UNL     1       2.370   0.191   0.511  1.00  0.00     0.302 C 
HETATM   28  N2  UNL     1       3.720   0.553   0.509  1.00  0.00    -0.267 N 
ATOM     29  H2  UNL     1       4.028   1.401   0.033  1.00  0.00     0.185 HD
HETATM   30  O3  UNL     1       1.999  -0.863   1.101  1.00  0.00    -0.263 OA
BRANCH  28  31
HETATM   31  N1  UNL     1       4.632  -0.258   1.163  1.00  0.00    -0.129 NA
BRANCH  31  32
HETATM   32  C3  UNL     1       5.781  -0.616   0.386  1.00  0.00     0.246 C 
BRANCH  32  33
HETATM   33  C2  UNL     1       6.718  -1.482   1.126  1.00  0.00     0.274 C 
HETATM   34  O2  UNL     1       6.463  -1.827   2.309  1.00  0.00    -0.264 OA
BRANCH  33  35
HETATM   35  O1  UNL     1       7.896  -1.943   0.561  1.00  0.00    -0.325 OA
HETATM   36  C1  UNL     1       8.762  -2.778   1.327  1.00  0.00     0.213 C 
ENDBRANCH  33  35
ENDBRANCH  32  33
ENDBRANCH  31  32
ENDBRANCH  28  31
ENDBRANCH   1  27
TORSDOF 9
