REMARK  8 active torsions:
REMARK  status: ('A' for Active; 'I' for Inactive)
REMARK    1  A    between atoms: N1_1  and  C1_5 
REMARK    2  A    between atoms: C1_5  and  C2_6 
REMARK    3  A    between atoms: C2_6  and  C3_7 
REMARK    4  A    between atoms: C3_7  and  C4_9 
REMARK       I    between atoms: C4_9  and  N2_11 
REMARK    5  A    between atoms: N2_11  and  C5_13 
REMARK    6  A    between atoms: C6_14  and  N3_15 
REMARK    7  A    between atoms: N3_15  and  C7_17 
REMARK    8  A    between atoms: C8_21  and  C9_22 
REMARK       I    between atoms: C9_22  and  N5_24 
ROOT
HETATM    1  C5  UNL     1       2.720   2.606  -1.679  1.00  0.00     0.121 A 
HETATM    2  C6  UNL     1       1.409   2.561  -2.160  1.00  0.00     0.120 A 
HETATM    3  C14 UNL     1       1.820   3.024  -3.391  1.00  0.00     0.253 A 
HETATM    4  O5  UNL     1       1.319   3.311  -4.511  1.00  0.00    -0.281 OA
HETATM    5  C15 UNL     1       3.115   3.069  -2.916  1.00  0.00     0.253 A 
HETATM    6  O6  UNL     1       4.251   3.396  -3.384  1.00  0.00    -0.281 OA
ENDROOT
BRANCH   2   7
HETATM    7  N3  UNL     1       0.149   2.190  -1.619  1.00  0.00    -0.328 N 
ATOM      8  H3  UNL     1      -0.439   2.882  -1.155  1.00  0.00     0.168 HD
BRANCH   7   9
HETATM    9  C7  UNL     1      -0.282   0.839  -1.734  1.00  0.00     0.205 A 
HETATM   10  O3  UNL     1       0.227  -0.226  -2.254  1.00  0.00    -0.216 OA
HETATM   11  N4  UNL     1      -0.817  -0.902  -1.894  1.00  0.00    -0.250 N 
HETATM   12  C8  UNL     1      -1.434   0.145  -1.325  1.00  0.00     0.176 A 
ATOM     13  H4  UNL     1      -1.078  -1.882  -2.004  1.00  0.00     0.195 HD
BRANCH  12  14
HETATM   14  C9  UNL     1      -2.638   0.505  -0.624  1.00  0.00     0.276 C 
HETATM   15  O4  UNL     1      -2.729   1.734  -0.261  1.00  0.00    -0.266 OA
HETATM   16  N5  UNL     1      -3.720  -0.316  -0.288  1.00  0.00    -0.343 N 
HETATM   17  C10 UNL     1      -4.860   0.281   0.445  1.00  0.00     0.153 C 
HETATM   18  C13 UNL     1      -3.883  -1.720  -0.573  1.00  0.00     0.153 C 
HETATM   19  C11 UNL     1      -5.280  -0.566   1.604  1.00  0.00     0.252 C 
HETATM   20  N6  UNL     1      -5.284  -1.976   1.334  1.00  0.00    -0.072 N 
HETATM   21  C12 UNL     1      -3.986  -2.392   0.806  1.00  0.00     0.252 C 
ATOM     22  H62 UNL     1      -5.554  -2.520   2.153  1.00  0.00     0.277 HD
ATOM     23  H61 UNL     1      -6.050  -2.244   0.716  1.00  0.00     0.277 HD
ENDBRANCH  12  14
ENDBRANCH   7   9
ENDBRANCH   2   7
BRANCH   1  24
HETATM   24  N2  UNL     1       3.305   2.289  -0.424  1.00  0.00    -0.315 N 
HETATM   25  C4  UNL     1       3.788   0.996  -0.106  1.00  0.00     0.292 C 
HETATM   26  O2  UNL     1       3.692   0.094  -0.974  1.00  0.00    -0.264 OA
ATOM     27  H2  UNL     1       3.381   3.024   0.279  1.00  0.00     0.169 HD
BRANCH  25  28
HETATM   28  C3  UNL     1       4.381   0.694   1.182  1.00  0.00     0.218 C 
HETATM   29  O1  UNL     1       4.514   1.551   2.092  1.00  0.00    -0.287 OA
BRANCH  28  30
HETATM   30  C2  UNL     1       4.870  -0.685   1.488  1.00  0.00     0.116 C 
BRANCH  30  31
HETATM   31  C1  UNL     1       3.938  -1.354   2.484  1.00  0.00     0.237 C 
BRANCH  31  32
HETATM   32  N1  UNL     1       4.403  -2.688   2.782  1.00  0.00    -0.079 N 
ATOM     33  H13 UNL     1       4.524  -3.247   1.938  1.00  0.00     0.274 HD
ATOM     34  H12 UNL     1       5.371  -2.691   3.104  1.00  0.00     0.274 HD
ATOM     35  H11 UNL     1       3.777  -3.137   3.451  1.00  0.00     0.274 HD
ENDBRANCH  31  32
ENDBRANCH  30  31
ENDBRANCH  28  30
ENDBRANCH  25  28
ENDBRANCH   1  24
TORSDOF 8
