REMARK  7 active torsions:
REMARK  status: ('A' for Active; 'I' for Inactive)
REMARK       I    between atoms: C1_4  and  N3_6 
REMARK    1  A    between atoms: N3_6  and  C2_8 
REMARK    2  A    between atoms: C3_11  and  N5_12 
REMARK    3  A    between atoms: N5_12  and  N6_14 
REMARK    4  A    between atoms: N6_14  and  C4_16 
REMARK    5  A    between atoms: C5_20  and  S1_21 
REMARK    6  A    between atoms: S1_21  and  N8_22 
REMARK    7  A    between atoms: C6_28  and  N9_29 
ROOT
HETATM    1  C2  UNL     1      -3.650  -0.782   0.231  1.00  0.00     0.689 A 
HETATM    2  N4  UNL     1      -2.467  -0.151   0.181  1.00  0.00    -0.172 N 
ATOM      3  H4  UNL     1      -2.464   0.835  -0.081  1.00  0.00     0.186 HD
HETATM    4  C3  UNL     1      -1.287  -0.730   0.452  1.00  0.00     0.174 A 
HETATM    5  C6  UNL     1      -1.272  -2.059   0.806  1.00  0.00     0.216 A 
HETATM    6  C7  UNL     1      -2.473  -2.737   0.867  1.00  0.00     0.296 A 
HETATM    7  O6  UNL     1      -2.437  -3.953   1.193  1.00  0.00    -0.265 OA
HETATM    8  N10 UNL     1      -3.614  -2.092   0.582  1.00  0.00    -0.154 N 
ATOM      9  H10 UNL     1      -4.492  -2.609   0.631  1.00  0.00     0.187 HD
ENDROOT
BRANCH   4  10
HETATM   10  N5  UNL     1      -0.065   0.017   0.377  1.00  0.00    -0.281 N 
ATOM     11  H5  UNL     1       0.296   0.529   1.182  1.00  0.00     0.188 HD
BRANCH  10  12
HETATM   12  N6  UNL     1       0.611   0.014  -0.847  1.00  0.00    -0.271 N 
ATOM     13  H6  UNL     1       0.149  -0.261  -1.714  1.00  0.00     0.189 HD
BRANCH  12  14
HETATM   14  C4  UNL     1       1.868   0.383  -0.823  1.00  0.00     0.230 A 
HETATM   15  O1  UNL     1       2.669   0.450  -1.837  1.00  0.00    -0.209 OA
HETATM   16  N7  UNL     1       3.844   0.814  -1.699  1.00  0.00    -0.239 N 
HETATM   17  C5  UNL     1       4.311   1.146  -0.501  1.00  0.00     0.215 A 
ATOM     18  H7  UNL     1       4.458   0.859  -2.512  1.00  0.00     0.196 HD
HETATM   19  S2  UNL     1       2.896   0.890   0.448  1.00  0.00    -0.010 SA
BRANCH  17  20
HETATM   20  S1  UNL     1       5.925   1.689  -0.054  1.00  0.00     0.281 S 
HETATM   21  O2  UNL     1       5.839   2.672   1.071  1.00  0.00    -0.199 OA
HETATM   22  O3  UNL     1       6.521   2.373  -1.248  1.00  0.00    -0.199 OA
BRANCH  20  23
HETATM   23  N8  UNL     1       6.865   0.320   0.329  1.00  0.00    -0.323 N 
ATOM     24  H82 UNL     1       6.534  -0.644   0.299  1.00  0.00     0.169 HD
ATOM     25  H81 UNL     1       7.800   0.635   0.588  1.00  0.00     0.169 HD
ENDBRANCH  20  23
ENDBRANCH  17  20
ENDBRANCH  12  14
ENDBRANCH  10  12
ENDBRANCH   4  10
BRANCH   5  26
HETATM   26  N9  UNL     1      -0.030  -2.668   1.094  1.00  0.00    -0.106 N 
HETATM   27  O4  UNL     1       0.754  -2.944   0.183  1.00  0.00    -0.531 OA
HETATM   28  O5  UNL     1       0.286  -2.946   2.394  1.00  0.00    -0.531 OA
ENDBRANCH   5  26
BRANCH   1  29
HETATM   29  N3  UNL     1      -4.777  -0.197  -0.030  1.00  0.00    -0.163 N 
HETATM   30  C1  UNL     1      -4.716   1.190  -0.385  1.00  0.00     0.200 C 
HETATM   31  N1  UNL     1      -4.589   2.099   0.531  1.00  0.00    -0.373 N 
HETATM   32  N2  UNL     1      -4.804   1.492  -1.759  1.00  0.00    -0.063 NA
ATOM     33  H12 UNL     1      -4.546   3.086   0.278  1.00  0.00     0.158 HD
ATOM     34  H11 UNL     1      -4.525   1.880   1.525  1.00  0.00     0.158 HD
ATOM     35  H3  UNL     1      -5.664  -0.699   0.015  1.00  0.00     0.187 HD
ENDBRANCH   1  29
TORSDOF 7
