REMARK  7 active torsions:
REMARK  status: ('A' for Active; 'I' for Inactive)
REMARK    1  A    between atoms: N1_1  and  C1_4 
REMARK    2  A    between atoms: C4_12  and  C5_13 
REMARK    3  A    between atoms: C6_17  and  C7_18 
REMARK       I    between atoms: C7_18  and  N5_20 
REMARK    4  A    between atoms: N5_20  and  N6_22 
REMARK    5  A    between atoms: N8_27  and  S2_28 
REMARK    6  A    between atoms: S2_28  and  N9_29 
REMARK    7  A    between atoms: S2_28  and  C8_33 
ROOT
HETATM    1  C1  UNL     1      -3.651  -2.349   0.273  1.00  0.00     0.680 A 
HETATM    2  N2  UNL     1      -2.840  -3.326   0.721  1.00  0.00    -0.154 N 
ATOM      3  H2  UNL     1      -3.226  -4.224   1.013  1.00  0.00     0.187 HD
HETATM    4  C2  UNL     1      -1.495  -3.099   0.780  1.00  0.00     0.290 A 
HETATM    5  O1  UNL     1      -0.683  -3.958   1.186  1.00  0.00    -0.265 OA
HETATM    6  C3  UNL     1      -0.960  -1.890   0.388  1.00  0.00     0.149 A 
HETATM    7  N3  UNL     1       0.296  -1.437   0.367  1.00  0.00    -0.331 N 
ATOM      8  H3  UNL     1       1.140  -1.936   0.648  1.00  0.00     0.168 HD
HETATM    9  C4  UNL     1       0.208  -0.174  -0.107  1.00  0.00     0.168 A 
HETATM   10  N8  UNL     1      -1.055   0.198  -0.390  1.00  0.00    -0.214 N 
HETATM   11  C9  UNL     1      -1.787  -0.895  -0.070  1.00  0.00     0.170 A 
HETATM   12  N10 UNL     1      -3.126  -1.176  -0.107  1.00  0.00    -0.173 N 
ATOM     13  H10 UNL     1      -3.760  -0.451  -0.443  1.00  0.00     0.186 HD
ENDROOT
BRANCH   9  14
HETATM   14  C5  UNL     1       1.427   0.687  -0.236  1.00  0.00     0.159 A 
HETATM   15  N4  UNL     1       1.366   1.929  -0.712  1.00  0.00    -0.307 N 
HETATM   16  S1  UNL     1       2.938   2.487  -0.614  1.00  0.00     0.011 SA
ATOM     17  H4  UNL     1       0.546   2.427  -1.058  1.00  0.00     0.176 HD
HETATM   18  C6  UNL     1       3.648   1.084   0.049  1.00  0.00     0.162 A 
HETATM   19  N7  UNL     1       2.618   0.272   0.150  1.00  0.00    -0.328 N 
ATOM     20  H7  UNL     1       2.739  -0.669   0.523  1.00  0.00     0.168 HD
BRANCH  18  21
HETATM   21  C7  UNL     1       5.037   0.813   0.426  1.00  0.00     0.294 C 
HETATM   22  O2  UNL     1       5.880   1.707   0.262  1.00  0.00    -0.264 OA
HETATM   23  N5  UNL     1       5.378  -0.438   0.959  1.00  0.00    -0.271 N 
ATOM     24  H5  UNL     1       4.649  -1.141   1.075  1.00  0.00     0.189 HD
BRANCH  23  25
HETATM   25  N6  UNL     1       6.700  -0.754   1.340  1.00  0.00    -0.342 N 
ATOM     26  H62 UNL     1       7.417  -0.039   1.217  1.00  0.00     0.176 HD
ATOM     27  H61 UNL     1       6.948  -1.664   1.728  1.00  0.00     0.176 HD
ENDBRANCH  23  25
ENDBRANCH  18  21
ENDBRANCH   9  14
BRANCH  10  28
HETATM   28  S2  UNL     1      -1.636   1.737  -1.102  1.00  0.00     0.172 S 
HETATM   29  O3  UNL     1      -1.968   2.185   1.258  1.00  0.00    -0.220 OA
BRANCH  28  30
HETATM   30  N9  UNL     1      -2.993   1.493  -1.888  1.00  0.00    -0.339 N 
ATOM     31  H92 UNL     1      -3.455   0.587  -1.967  1.00  0.00     0.167 HD
ATOM     32  H91 UNL     1      -3.324   2.369  -2.293  1.00  0.00     0.167 HD
ENDBRANCH  28  30
BRANCH  28  33
HETATM   33  C8  UNL     1      -1.428   3.397  -0.897  1.00  0.00     0.366 C 
HETATM   34  O4  UNL     1      -2.335   4.302  -0.945  1.00  0.00    -0.290 OA
ENDBRANCH  28  33
ENDBRANCH  10  28
BRANCH   1  35
HETATM   35  N1  UNL     1      -4.915  -2.608   0.234  1.00  0.00    -0.234 N 
ATOM     36  H12 UNL     1      -5.315  -3.501   0.523  1.00  0.00     0.174 HD
ATOM     37  H11 UNL     1      -5.529  -1.868  -0.105  1.00  0.00     0.174 HD
ENDBRANCH   1  35
TORSDOF 7
