REMARK  13 active torsions:
REMARK  status: ('A' for Active; 'I' for Inactive)
REMARK    1  A    between atoms: N1_1  and  C1_5 
REMARK    2  A    between atoms: C1_5  and  C2_6 
REMARK    3  A    between atoms: C2_6  and  N2_7 
REMARK    4  A    between atoms: C2_6  and  C3_11 
REMARK    5  A    between atoms: C3_11  and  O1_12 
REMARK    6  A    between atoms: O1_12  and  C4_13 
REMARK    7  A    between atoms: C7_16  and  C8_17 
REMARK    8  A    between atoms: C8_17  and  N3_18 
REMARK    9  A    between atoms: N3_18  and  S1_20 
REMARK   10  A    between atoms: S1_20  and  C9_23 
REMARK   11  A    between atoms: C9_23  and  C10_24 
REMARK   12  A    between atoms: C10_24  and  C11_25 
REMARK   13  A    between atoms: C11_25  and  C12_26 
ROOT
HETATM    1  C4  UNL     1       4.107  -0.221   0.576  1.00  0.00     0.068 A 
HETATM    2  C5  UNL     1       3.436   0.176   1.715  1.00  0.00     0.037 A 
HETATM    3  C6  UNL     1       2.059   0.194   1.790  1.00  0.00     0.011 A 
HETATM    4  C7  UNL     1       1.286  -0.191   0.709  1.00  0.00    -0.040 A 
HETATM    5  C18 UNL     1       1.962  -0.587  -0.429  1.00  0.00     0.011 A 
HETATM    6  C19 UNL     1       3.339  -0.606  -0.504  1.00  0.00     0.037 A 
ENDROOT
BRANCH   4   7
HETATM    7  C8  UNL     1      -0.199  -0.175   0.779  1.00  0.00     0.170 C 
BRANCH   7   8
HETATM    8  N3  UNL     1      -0.737   1.103   0.356  1.00  0.00    -0.315 N 
ATOM      9  H3  UNL     1      -0.194   1.908   0.044  1.00  0.00     0.172 HD
BRANCH   8  10
HETATM   10  S1  UNL     1      -2.478   1.021   0.474  1.00  0.00     0.226 S 
HETATM   11  O2  UNL     1      -2.820   0.696   1.898  1.00  0.00    -0.206 OA
HETATM   12  O3  UNL     1      -2.983   2.392   0.171  1.00  0.00    -0.206 OA
BRANCH  10  13
HETATM   13  C9  UNL     1      -3.126  -0.219  -0.581  1.00  0.00     0.163 C 
BRANCH  13  14
HETATM   14  C10 UNL     1      -4.599  -0.386  -0.555  1.00  0.00     0.021 C 
BRANCH  14  15
HETATM   15  C11 UNL     1      -5.407   0.806  -0.945  1.00  0.00     0.039 C 
BRANCH  15  16
HETATM   16  C12 UNL     1      -6.853   0.479  -0.881  1.00  0.00    -0.058 A 
HETATM   17  C13 UNL     1      -7.477  -0.015  -1.983  1.00  0.00     0.007 A 
HETATM   18  C14 UNL     1      -8.825  -0.323  -1.932  1.00  0.00     0.001 A 
HETATM   19  C15 UNL     1      -9.544  -0.138  -0.786  1.00  0.00     0.000 A 
HETATM   20  C16 UNL     1      -8.899   0.362   0.319  1.00  0.00     0.001 A 
HETATM   21  C17 UNL     1      -7.560   0.672   0.282  1.00  0.00     0.007 A 
ENDBRANCH  15  16
ENDBRANCH  14  15
ENDBRANCH  13  14
ENDBRANCH  10  13
ENDBRANCH   8  10
ENDBRANCH   7   8
ENDBRANCH   4   7
BRANCH   1  22
HETATM   22  O1  UNL     1       5.502  -0.231   0.523  1.00  0.00    -0.349 OA
BRANCH  22  23
HETATM   23  C3  UNL     1       6.117  -0.653  -0.686  1.00  0.00     0.210 C 
BRANCH  23  24
HETATM   24  C2  UNL     1       7.611  -0.612  -0.595  1.00  0.00     0.232 C 
BRANCH  24  25
HETATM   25  C1  UNL     1       8.108   0.812  -0.384  1.00  0.00     0.264 C 
BRANCH  25  26
HETATM   26  N1  UNL     1       9.576   0.766  -0.394  1.00  0.00    -0.077 N 
ATOM     27  H13 UNL     1       9.959   0.105   0.282  1.00  0.00     0.274 HD
ATOM     28  H12 UNL     1       9.956   0.331  -1.234  1.00  0.00     0.274 HD
ATOM     29  H11 UNL     1       9.909   1.720  -0.253  1.00  0.00     0.274 HD
ENDBRANCH  25  26
ENDBRANCH  24  25
BRANCH  24  30
HETATM   30  N2  UNL     1       8.094  -1.488   0.472  1.00  0.00    -0.071 N 
ATOM     31  H23 UNL     1       9.109  -1.451   0.562  1.00  0.00     0.274 HD
ATOM     32  H22 UNL     1       7.846  -1.133   1.395  1.00  0.00     0.274 HD
ATOM     33  H21 UNL     1       7.761  -2.442   0.331  1.00  0.00     0.274 HD
ENDBRANCH  24  30
ENDBRANCH  23  24
ENDBRANCH  22  23
ENDBRANCH   1  22
TORSDOF 13
