REMARK  11 active torsions:
REMARK  status: ('A' for Active; 'I' for Inactive)
REMARK    1  A    between atoms: C5_5  and  C6_6 
REMARK    2  A    between atoms: C6_6  and  C7_7 
REMARK    3  A    between atoms: C7_7  and  C8_8 
REMARK    4  A    between atoms: C10_10  and  C11_11 
REMARK    5  A    between atoms: C11_11  and  O1_12 
REMARK    6  A    between atoms: O1_12  and  C12_13 
REMARK    7  A    between atoms: C12_13  and  C13_14 
REMARK    8  A    between atoms: C13_14  and  C14_15 
REMARK    9  A    between atoms: C15_16  and  C16_17 
REMARK   10  A    between atoms: C16_17  and  C17_18 
REMARK   11  A    between atoms: C17_18  and  N1_19 
REMARK       I    between atoms: N1_19  and  C18_21 
ROOT
HETATM    1  C8  UNL     1      -1.483  -0.518  -0.966  1.00  0.00     0.058 A 
HETATM    2  C9  UNL     1      -0.967   0.674  -1.407  1.00  0.00     0.042 A 
HETATM    3  C10 UNL     1       0.066   0.671  -2.316  1.00  0.00    -0.026 A 
HETATM    4  C19 UNL     1       0.548  -0.542  -2.754  1.00  0.00     0.091 A 
HETATM    5  C20 UNL     1      -0.019  -1.694  -2.269  1.00  0.00     0.288 A 
HETATM    6  O2  UNL     1       0.370  -2.844  -2.624  1.00  0.00    -0.260 OA
HETATM    7  O3  UNL     1      -1.000  -1.633  -1.404  1.00  0.00    -0.280 OA
ENDROOT
BRANCH   3   8
HETATM    8  C11 UNL     1       0.650   1.959  -2.810  1.00  0.00     0.206 C 
BRANCH   8   9
HETATM    9  O1  UNL     1       1.881   2.123  -2.234  1.00  0.00    -0.386 OA
BRANCH   9  10
HETATM   10  C12 UNL     1       1.775   2.158  -0.850  1.00  0.00     0.171 C 
BRANCH  10  11
HETATM   11  C13 UNL     1       3.219   2.364  -0.352  1.00  0.00     0.053 C 
BRANCH  11  12
HETATM   12  C14 UNL     1       3.972   1.199  -0.865  1.00  0.00    -0.029 C 
HETATM   13  C15 UNL     1       4.589   0.329  -0.137  1.00  0.00    -0.029 C 
BRANCH  13  14
HETATM   14  C16 UNL     1       4.633   0.367   1.326  1.00  0.00     0.046 C 
BRANCH  14  15
HETATM   15  C17 UNL     1       6.101   0.477   1.760  1.00  0.00     0.126 C 
BRANCH  15  16
HETATM   16  N1  UNL     1       6.756  -0.691   1.230  1.00  0.00    -0.365 N 
HETATM   17  C18 UNL     1       6.429  -1.962   1.749  1.00  0.00     0.181 C 
HETATM   18  N2  UNL     1       5.984  -2.930   1.011  1.00  0.00    -0.374 N 
HETATM   19  N3  UNL     1       6.578  -2.236   3.126  1.00  0.00    -0.064 NA
ATOM     20  H22 UNL     1       5.876  -2.732   0.016  1.00  0.00     0.158 HD
ATOM     21  H21 UNL     1       5.748  -3.849   1.386  1.00  0.00     0.158 HD
ATOM     22  H1  UNL     1       7.449  -0.601   0.487  1.00  0.00     0.162 HD
ENDBRANCH  15  16
ENDBRANCH  14  15
ENDBRANCH  13  14
ENDBRANCH  11  12
ENDBRANCH  10  11
ENDBRANCH   9  10
ENDBRANCH   8   9
ENDBRANCH   3   8
BRANCH   1  23
HETATM   23  C7  UNL     1      -2.613  -0.467   0.030  1.00  0.00     0.070 C 
BRANCH  23  24
HETATM   24  C6  UNL     1      -3.896  -0.447  -0.804  1.00  0.00     0.051 C 
BRANCH  24  25
HETATM   25  C5  UNL     1      -5.093  -0.391   0.071  1.00  0.00     0.010 A 
HETATM   26  C4  UNL     1      -5.819  -1.547   0.247  1.00  0.00     0.014 A 
HETATM   27  C3  UNL     1      -6.947  -1.551   1.056  1.00  0.00     0.025 A 
HETATM   28  C2  UNL     1      -7.350  -0.395   1.689  1.00  0.00     0.008 A 
HETATM   29  C1  UNL     1      -8.558  -0.340   2.571  1.00  0.00     0.068 C 
HETATM   30  N4  UNL     1      -6.616   0.714   1.494  1.00  0.00    -0.327 N 
HETATM   31  C21 UNL     1      -5.516   0.750   0.715  1.00  0.00     0.252 A 
ATOM     32  H4  UNL     1      -6.906   1.574   1.960  1.00  0.00     0.169 HD
HETATM   33  O4  UNL     1      -4.856   1.826   0.563  1.00  0.00    -0.268 OA
ENDBRANCH  24  25
ENDBRANCH  23  24
ENDBRANCH   1  23
TORSDOF 11
