REMARK  14 active torsions:
REMARK  status: ('A' for Active; 'I' for Inactive)
REMARK    1  A    between atoms: N1_1  and  C1_5 
REMARK    2  A    between atoms: C1_5  and  C2_6 
REMARK    3  A    between atoms: C5_9  and  S1_10 
REMARK    4  A    between atoms: S1_10  and  N2_13 
REMARK    5  A    between atoms: N2_13  and  C6_15 
REMARK    6  A    between atoms: C6_15  and  C7_16 
REMARK    7  A    between atoms: C7_16  and  C8_17 
REMARK    8  A    between atoms: C8_17  and  C9_18 
REMARK    9  A    between atoms: C9_18  and  C10_19 
REMARK   10  A    between atoms: C10_19  and  C11_20 
REMARK   11  A    between atoms: C11_20  and  N3_21 
REMARK   12  A    between atoms: N3_21  and  C12_23 
REMARK   13  A    between atoms: C16_27  and  C17_28 
REMARK   14  A    between atoms: C17_28  and  N4_29 
ROOT
HETATM    1  C7  UNL     1       0.857   1.498   2.032  1.00  0.00    -0.011 C 
ENDROOT
BRANCH   1   2
HETATM    2  C6  UNL     1       1.776   1.687   0.899  1.00  0.00     0.159 C 
BRANCH   2   3
HETATM    3  N2  UNL     1       2.782   2.700   1.348  1.00  0.00    -0.312 N 
ATOM      4  H2  UNL     1       2.790   3.144   2.266  1.00  0.00     0.172 HD
BRANCH   3   5
HETATM    5  S1  UNL     1       3.910   3.008   0.113  1.00  0.00     0.259 S 
HETATM    6  O1  UNL     1       4.885   4.066   0.537  1.00  0.00    -0.201 OA
HETATM    7  O2  UNL     1       3.181   3.513  -1.099  1.00  0.00    -0.201 OA
BRANCH   5   8
HETATM    8  C5  UNL     1       4.765   1.522  -0.254  1.00  0.00     0.079 A 
HETATM    9  C4  UNL     1       4.318   0.660  -1.216  1.00  0.00     0.026 A 
HETATM   10  C3  UNL     1       4.984  -0.527  -1.522  1.00  0.00     0.010 A 
HETATM   11  C2  UNL     1       6.136  -0.861  -0.844  1.00  0.00    -0.033 A 
HETATM   12  C19 UNL     1       6.601  -0.003   0.129  1.00  0.00     0.010 A 
HETATM   13  C18 UNL     1       5.926   1.184   0.429  1.00  0.00     0.026 A 
BRANCH  11  14
HETATM   14  C1  UNL     1       6.868  -2.114  -1.146  1.00  0.00     0.268 C 
BRANCH  14  15
HETATM   15  N1  UNL     1       6.395  -3.220  -0.326  1.00  0.00    -0.075 N 
ATOM     16  H13 UNL     1       6.438  -2.993   0.667  1.00  0.00     0.274 HD
ATOM     17  H12 UNL     1       5.387  -3.346  -0.416  1.00  0.00     0.274 HD
ATOM     18  H11 UNL     1       6.899  -4.082  -0.534  1.00  0.00     0.274 HD
ENDBRANCH  14  15
ENDBRANCH  11  14
ENDBRANCH   5   8
ENDBRANCH   3   5
ENDBRANCH   2   3
ENDBRANCH   1   2
BRANCH   1  19
HETATM   19  C8  UNL     1      -0.225   0.522   2.009  1.00  0.00    -0.029 C 
BRANCH  19  20
HETATM   20  C9  UNL     1      -1.307   0.535   1.022  1.00  0.00     0.028 C 
BRANCH  20  21
HETATM   21  C10 UNL     1      -0.974   0.307  -0.408  1.00  0.00     0.023 C 
BRANCH  21  22
HETATM   22  C11 UNL     1      -2.224   0.331  -1.292  1.00  0.00     0.121 C 
BRANCH  22  23
HETATM   23  N3  UNL     1      -3.174  -0.659  -0.949  1.00  0.00    -0.376 N 
ATOM     24  H3  UNL     1      -2.940  -1.635  -1.132  1.00  0.00     0.161 HD
BRANCH  23  25
HETATM   25  C12 UNL     1      -4.303  -0.401  -0.426  1.00  0.00     0.101 A 
HETATM   26  C13 UNL     1      -4.780   0.844  -0.112  1.00  0.00     0.048 A 
HETATM   27  C14 UNL     1      -6.032   0.988   0.454  1.00  0.00     0.006 A 
HETATM   28  C15 UNL     1      -6.790  -0.130   0.696  1.00  0.00     0.027 A 
HETATM   29  C16 UNL     1      -6.316  -1.381   0.384  1.00  0.00     0.036 A 
HETATM   30  N5  UNL     1      -5.095  -1.473  -0.164  1.00  0.00    -0.345 N 
ATOM     31  H5  UNL     1      -4.741  -2.401  -0.397  1.00  0.00     0.167 HD
BRANCH  29  32
HETATM   32  C17 UNL     1      -7.132  -2.592   0.645  1.00  0.00     0.286 C 
BRANCH  32  33
HETATM   33  N4  UNL     1      -7.967  -2.895  -0.489  1.00  0.00    -0.074 N 
ATOM     34  H43 UNL     1      -8.546  -2.099  -0.756  1.00  0.00     0.274 HD
ATOM     35  H42 UNL     1      -7.423  -2.983  -1.347  1.00  0.00     0.274 HD
ATOM     36  H41 UNL     1      -8.528  -3.728  -0.310  1.00  0.00     0.274 HD
ENDBRANCH  32  33
ENDBRANCH  29  32
ENDBRANCH  23  25
ENDBRANCH  22  23
ENDBRANCH  21  22
ENDBRANCH  20  21
ENDBRANCH  19  20
ENDBRANCH   1  19
TORSDOF 14
