REMARK  14 active torsions:
REMARK  status: ('A' for Active; 'I' for Inactive)
REMARK    1  A    between atoms: C2_2  and  C3_3 
REMARK    2  A    between atoms: C3_3  and  N1_4 
REMARK    3  A    between atoms: N1_4  and  C4_5 
REMARK    4  A    between atoms: N1_4  and  C7_8 
REMARK    5  A    between atoms: C4_5  and  C5_6 
REMARK    6  A    between atoms: C8_13  and  N4_14 
REMARK    7  A    between atoms: N4_14  and  C9_16 
REMARK    8  A    between atoms: C9_16  and  C10_17 
REMARK    9  A    between atoms: C10_17  and  N5_18 
REMARK       I    between atoms: N5_18  and  C11_20 
REMARK   10  A    between atoms: C11_20  and  C12_22 
REMARK   11  A    between atoms: C12_22  and  C13_23 
REMARK   12  A    between atoms: C13_23  and  N6_24 
REMARK   13  A    between atoms: C14_28  and  N7_29 
REMARK   14  A    between atoms: N7_29  and  C15_31 
ROOT
HETATM    1  C7  UNL     1      -2.641  -1.242   0.249  1.00  0.00     0.700 A 
HETATM    2  N2  UNL     1      -1.860  -2.343   0.103  1.00  0.00    -0.130 N 
ATOM      3  H2  UNL     1      -2.309  -3.258   0.086  1.00  0.00     0.205 HD
HETATM    4  N3  UNL     1      -0.561  -2.286  -0.017  1.00  0.00    -0.268 N 
ATOM      5  H3  UNL     1      -0.041  -3.157  -0.123  1.00  0.00     0.189 HD
HETATM    6  C8  UNL     1       0.134  -1.103  -0.006  1.00  0.00     0.162 A 
HETATM    7  C14 UNL     1      -0.627   0.029   0.140  1.00  0.00     0.167 A 
HETATM    8  N8  UNL     1      -1.969  -0.080   0.260  1.00  0.00    -0.171 N 
ATOM      9  H8  UNL     1      -2.508   0.779   0.366  1.00  0.00     0.186 HD
ENDROOT
BRANCH   6  10
HETATM   10  N4  UNL     1       1.386  -1.103  -0.128  1.00  0.00    -0.371 N 
ATOM     11  H4  UNL     1       1.792  -2.033  -0.232  1.00  0.00     0.161 HD
BRANCH  10  12
HETATM   12  C9  UNL     1       2.340  -0.051  -0.148  1.00  0.00     0.141 C 
BRANCH  12  13
HETATM   13  C10 UNL     1       3.730  -0.714  -0.242  1.00  0.00     0.142 C 
BRANCH  13  14
HETATM   14  N5  UNL     1       4.782   0.265  -0.263  1.00  0.00    -0.359 N 
HETATM   15  C11 UNL     1       6.124  -0.160  -0.345  1.00  0.00     0.219 C 
HETATM   16  O1  UNL     1       6.378  -1.405  -0.399  1.00  0.00    -0.274 OA
ATOM     17  H5  UNL     1       4.560   1.259  -0.219  1.00  0.00     0.162 HD
BRANCH  15  18
HETATM   18  C12 UNL     1       7.255   0.822  -0.368  1.00  0.00     0.130 C 
BRANCH  18  19
HETATM   19  C13 UNL     1       8.559   0.040  -0.449  1.00  0.00     0.238 C 
BRANCH  19  20
HETATM   20  N6  UNL     1       8.687  -0.838   0.693  1.00  0.00    -0.079 N 
ATOM     21  H63 UNL     1       8.600  -0.332   1.574  1.00  0.00     0.274 HD
ATOM     22  H62 UNL     1       7.880  -1.453   0.793  1.00  0.00     0.274 HD
ATOM     23  H61 UNL     1       9.561  -1.362   0.639  1.00  0.00     0.274 HD
ENDBRANCH  19  20
ENDBRANCH  18  19
ENDBRANCH  15  18
ENDBRANCH  13  14
ENDBRANCH  12  13
ENDBRANCH  10  12
ENDBRANCH   6  10
BRANCH   7  24
HETATM   24  N7  UNL     1      -0.092   1.201   0.155  1.00  0.00    -0.339 N 
ATOM     25  H7  UNL     1       0.919   1.297   0.058  1.00  0.00     0.167 HD
BRANCH  24  26
HETATM   26  C15 UNL     1      -0.897   2.360   0.306  1.00  0.00     0.033 A 
HETATM   27  C16 UNL     1      -1.439   2.962  -0.808  1.00  0.00     0.029 A 
HETATM   28  C17 UNL     1      -2.236   4.101  -0.695  1.00  0.00     0.002 A 
HETATM   29  C18 UNL     1      -2.479   4.625   0.550  1.00  0.00     0.000 A 
HETATM   30  C19 UNL     1      -1.933   4.017   1.661  1.00  0.00     0.002 A 
HETATM   31  C20 UNL     1      -1.144   2.893   1.577  1.00  0.00     0.029 A 
ENDBRANCH  24  26
ENDBRANCH   7  24
BRANCH   1  32
HETATM   32  N1  UNL     1      -4.026  -1.277   0.372  1.00  0.00    -0.189 N 
BRANCH  32  33
HETATM   33  C3  UNL     1      -4.759  -2.517   0.365  1.00  0.00     0.108 C 
BRANCH  33  34
HETATM   34  C2  UNL     1      -4.001  -3.751   0.419  1.00  0.00     0.007 C 
HETATM   35  C1  UNL     1      -4.024  -4.701  -0.538  1.00  0.00     0.012 C 
ENDBRANCH  33  34
ENDBRANCH  32  33
BRANCH  32  36
HETATM   36  C4  UNL     1      -4.799  -0.059   0.474  1.00  0.00     0.173 C 
BRANCH  36  37
HETATM   37  C5  UNL     1      -5.593   0.204  -0.753  1.00  0.00    -0.016 C 
HETATM   38  C6  UNL     1      -6.911   0.296  -0.753  1.00  0.00     0.008 C 
ENDBRANCH  36  37
ENDBRANCH  32  36
ENDBRANCH   1  32
TORSDOF 14
