REMARK  12 active torsions:
REMARK  status: ('A' for Active; 'I' for Inactive)
REMARK    1  A    between atoms: C2_2  and  C3_3 
REMARK    2  A    between atoms: C3_3  and  N1_4 
REMARK    3  A    between atoms: N1_4  and  C4_7 
REMARK    4  A    between atoms: C4_7  and  C5_8 
REMARK    5  A    between atoms: C5_8  and  N2_9 
REMARK    6  A    between atoms: N2_9  and  C6_12 
REMARK    7  A    between atoms: C6_12  and  C7_13 
REMARK    8  A    between atoms: C7_13  and  O1_14 
REMARK    9  A    between atoms: C7_13  and  C8_16 
REMARK   10  A    between atoms: C7_13  and  C15_27 
REMARK   11  A    between atoms: C8_16  and  S1_17 
REMARK   12  A    between atoms: S1_17  and  C9_20 
ROOT
HETATM    1  C7  UNL     1      -0.181  -0.678   0.387  1.00  0.00     0.122 C 
ENDROOT
BRANCH   1   2
HETATM    2  C6  UNL     1       1.125  -0.996  -0.220  1.00  0.00     0.276 C 
BRANCH   2   3
HETATM    3  N2  UNL     1       2.050   0.114  -0.383  1.00  0.00    -0.070 N 
ATOM      4  H22 UNL     1       2.020   0.768   0.400  1.00  0.00     0.277 HD
ATOM      5  H21 UNL     1       1.760   0.762  -1.116  1.00  0.00     0.277 HD
BRANCH   3   6
HETATM    6  C5  UNL     1       3.380  -0.427  -0.609  1.00  0.00     0.260 C 
BRANCH   6   7
HETATM    7  C4  UNL     1       4.465   0.539  -0.488  1.00  0.00     0.260 C 
BRANCH   7   8
HETATM    8  N1  UNL     1       4.506   1.608  -1.428  1.00  0.00    -0.070 N 
ATOM      9  H12 UNL     1       3.589   2.031  -1.574  1.00  0.00     0.277 HD
ATOM     10  H11 UNL     1       4.666   1.281  -2.381  1.00  0.00     0.277 HD
BRANCH   8  11
HETATM   11  C3  UNL     1       5.519   2.596  -0.995  1.00  0.00     0.259 C 
BRANCH  11  12
HETATM   12  C2  UNL     1       6.895   1.999  -1.004  1.00  0.00    -0.010 C 
HETATM   13  C1  UNL     1       7.566   1.957   0.167  1.00  0.00     0.008 C 
ENDBRANCH  11  12
ENDBRANCH   8  11
ENDBRANCH   7   8
ENDBRANCH   6   7
ENDBRANCH   3   6
ENDBRANCH   2   3
ENDBRANCH   1   2
BRANCH   1  14
HETATM   14  O1  UNL     1      -0.064  -0.044   1.635  1.00  0.00    -0.382 OA
ATOM     15  H1  UNL     1      -0.905   0.161   2.026  1.00  0.00     0.211 HD
ENDBRANCH   1  14
BRANCH   1  16
HETATM   16  C8  UNL     1      -1.233  -0.006  -0.421  1.00  0.00     0.190 C 
BRANCH  16  17
HETATM   17  S1  UNL     1      -2.617   0.289   0.634  1.00  0.00     0.180 S 
HETATM   18  O2  UNL     1      -3.011  -0.942   1.417  1.00  0.00    -0.222 OA
HETATM   19  O3  UNL     1      -2.129   1.286   1.691  1.00  0.00    -0.222 OA
BRANCH  17  20
HETATM   20  C9  UNL     1      -3.996   0.990  -0.117  1.00  0.00     0.083 A 
HETATM   21  C10 UNL     1      -4.242   1.132  -1.455  1.00  0.00     0.025 A 
HETATM   22  C11 UNL     1      -5.457   1.634  -1.934  1.00  0.00     0.002 A 
HETATM   23  C12 UNL     1      -6.450   2.009  -1.038  1.00  0.00     0.002 A 
HETATM   24  C13 UNL     1      -6.207   1.869   0.288  1.00  0.00     0.028 A 
HETATM   25  C14 UNL     1      -5.030   1.381   0.748  1.00  0.00     0.067 A 
HETATM   26  N3  UNL     1      -4.819   1.265   2.154  1.00  0.00    -0.101 NA
ENDBRANCH  17  20
ENDBRANCH  16  17
ENDBRANCH   1  16
BRANCH   1  27
HETATM   27  C15 UNL     1      -0.723  -2.073   0.728  1.00  0.00    -0.021 A 
HETATM   28  C16 UNL     1      -0.605  -2.545   1.995  1.00  0.00     0.010 A 
HETATM   29  C17 UNL     1      -1.086  -3.823   2.337  1.00  0.00     0.001 A 
HETATM   30  C18 UNL     1      -1.693  -4.606   1.351  1.00  0.00     0.000 A 
HETATM   31  C19 UNL     1      -1.805  -4.119   0.088  1.00  0.00     0.001 A 
HETATM   32  C20 UNL     1      -1.314  -2.845  -0.217  1.00  0.00     0.010 A 
ENDBRANCH   1  27
TORSDOF 12
