REMARK  10 active torsions:
REMARK  status: ('A' for Active; 'I' for Inactive)
REMARK    1  A    between atoms: C2_2  and  C3_3 
REMARK    2  A    between atoms: C3_3  and  C4_4 
REMARK    3  A    between atoms: C21_25  and  O5_26 
REMARK    4  A    between atoms: O5_26  and  C22_27 
REMARK    5  A    between atoms: C22_27  and  C23_29 
REMARK    6  A    between atoms: C24_30  and  C25_31 
REMARK    7  A    between atoms: C25_31  and  C26_32 
REMARK    8  A    between atoms: C26_32  and  C27_33 
REMARK    9  A    between atoms: C27_33  and  S1_34 
REMARK   10  A    between atoms: C28_37  and  O9_38 
ROOT
HETATM    1  C4  UNL     1      -3.393   1.581  -0.437  1.00  0.00    -0.055 C 
HETATM    2  C5  UNL     1      -3.452   1.606   0.872  1.00  0.00    -0.021 C 
HETATM    3  C6  UNL     1      -2.400   1.089   1.802  1.00  0.00     0.035 C 
HETATM    4  C7  UNL     1      -1.210   0.514   1.065  1.00  0.00     0.035 C 
HETATM    5  C8  UNL     1      -1.756  -0.147  -0.176  1.00  0.00     0.027 C 
HETATM    6  C9  UNL     1      -0.626  -0.896  -0.785  1.00  0.00     0.016 C 
HETATM    7  C10 UNL     1      -0.156  -2.059   0.077  1.00  0.00     0.032 C 
HETATM    8  C11 UNL     1      -0.662  -3.311  -0.505  1.00  0.00     0.068 C 
HETATM    9  C12 UNL     1       0.216  -3.606  -1.751  1.00  0.00     0.047 C 
HETATM   10  C13 UNL     1      -2.060  -3.319  -1.050  1.00  0.00     0.047 C 
HETATM   11  O1  UNL     1      -0.511  -4.478   0.268  1.00  0.00    -0.310 OA
HETATM   12  C14 UNL     1      -1.006  -4.823   1.488  1.00  0.00     0.259 C 
HETATM   13  O2  UNL     1      -1.241  -6.022   1.696  1.00  0.00    -0.265 OA
HETATM   14  C15 UNL     1      -1.293  -3.909   2.597  1.00  0.00     0.112 C 
HETATM   15  C16 UNL     1      -1.465  -2.464   2.200  1.00  0.00     0.022 C 
HETATM   16  C17 UNL     1      -0.302  -1.820   1.535  1.00  0.00    -0.002 C 
HETATM   17  C18 UNL     1       0.957  -2.327   2.262  1.00  0.00     0.019 C 
HETATM   18  C19 UNL     1      -0.340  -0.344   1.888  1.00  0.00     0.118 C 
HETATM   19  O3  UNL     1      -0.697  -0.170   3.272  1.00  0.00    -0.303 OA
HETATM   20  C20 UNL     1       0.257   0.805   3.477  1.00  0.00     0.292 C 
HETATM   21  O4  UNL     1       0.373   1.665   4.367  1.00  0.00    -0.262 OA
HETATM   22  C21 UNL     1       0.937   0.330   2.257  1.00  0.00     0.267 C 
HETATM   23  C28 UNL     1      -2.165   0.978  -1.109  1.00  0.00     0.154 C 
ENDROOT
BRANCH  22  24
HETATM   24  O5  UNL     1       1.288   1.321   1.320  1.00  0.00    -0.299 OA
BRANCH  24  25
HETATM   25  C22 UNL     1       2.600   1.506   0.840  1.00  0.00     0.283 C 
HETATM   26  O6  UNL     1       3.402   0.690   1.343  1.00  0.00    -0.260 OA
BRANCH  25  27
HETATM   27  C23 UNL     1       2.909   2.537  -0.121  1.00  0.00     0.078 C 
HETATM   28  C24 UNL     1       4.087   2.758  -0.601  1.00  0.00    -0.021 C 
BRANCH  28  29
HETATM   29  C25 UNL     1       5.376   2.103  -0.356  1.00  0.00     0.028 C 
BRANCH  29  30
HETATM   30  C26 UNL     1       5.842   1.556  -1.719  1.00  0.00     0.020 C 
BRANCH  30  31
HETATM   31  C27 UNL     1       7.184   0.856  -1.545  1.00  0.00     0.157 C 
BRANCH  31  32
HETATM   32  S1  UNL     1       7.684   0.285  -2.936  1.00  0.00     0.250 S 
HETATM   33  O7  UNL     1       8.923   0.453  -3.408  1.00  0.00    -0.212 OA
HETATM   34  O8  UNL     1       6.812  -0.732  -3.644  1.00  0.00    -0.212 OA
ENDBRANCH  31  32
ENDBRANCH  30  31
ENDBRANCH  29  30
ENDBRANCH  28  29
ENDBRANCH  25  27
ENDBRANCH  24  25
ENDBRANCH  22  24
BRANCH  23  35
HETATM   35  O9  UNL     1      -1.164   1.915  -1.200  1.00  0.00    -0.386 OA
HETATM   36  C29 UNL     1      -0.766   2.049  -2.538  1.00  0.00     0.202 C 
ENDBRANCH  23  35
BRANCH   1  37
HETATM   37  C3  UNL     1      -4.416   2.087  -1.360  1.00  0.00     0.036 C 
BRANCH  37  38
HETATM   38  C2  UNL     1      -5.618   2.725  -0.776  1.00  0.00    -0.000 C 
HETATM   39  C1  UNL     1      -5.225   3.965  -0.009  1.00  0.00     0.005 C 
ENDBRANCH  37  38
ENDBRANCH   1  37
TORSDOF 10
