REMARK  11 active torsions:
REMARK  status: ('A' for Active; 'I' for Inactive)
REMARK    1  A    between atoms: N2_5  and  C4_6 
REMARK    2  A    between atoms: C4_6  and  O1_7 
REMARK    3  A    between atoms: C4_6  and  C5_9 
REMARK    4  A    between atoms: C5_9  and  N3_10 
REMARK    5  A    between atoms: C5_9  and  C22_38 
REMARK    6  A    between atoms: N3_10  and  N4_12 
REMARK       I    between atoms: N4_12  and  C6_14 
REMARK       I    between atoms: C6_14  and  N5_16 
REMARK    7  A    between atoms: N5_16  and  C7_17 
REMARK    8  A    between atoms: N5_16  and  C16_32 
REMARK    9  A    between atoms: C7_17  and  C8_18 
REMARK   10  A    between atoms: C11_22  and  O4_23 
REMARK   11  A    between atoms: O4_23  and  C12_24 
ROOT
HETATM    1  N4  UNL     1       0.314  -0.531  -0.853  1.00  0.00    -0.251 N 
ATOM      2  H4  UNL     1       0.960   0.069  -1.366  1.00  0.00     0.191 HD
HETATM    3  C6  UNL     1       0.762  -1.127   0.349  1.00  0.00     0.337 C 
HETATM    4  O2  UNL     1      -0.098  -1.859   0.956  1.00  0.00    -0.245 OA
HETATM    5  N5  UNL     1       2.093  -0.966   0.903  1.00  0.00    -0.326 N 
ENDROOT
BRANCH   1   6
HETATM    6  N3  UNL     1      -0.921  -0.715  -1.355  1.00  0.00    -0.296 N 
ATOM      7  H3  UNL     1      -0.957  -1.467  -2.043  1.00  0.00     0.187 HD
BRANCH   6   8
HETATM    8  C5  UNL     1      -2.072  -0.159  -1.167  1.00  0.00     0.080 C 
BRANCH   8   9
HETATM    9  C4  UNL     1      -2.301   0.916  -0.262  1.00  0.00     0.163 C 
BRANCH   9  10
HETATM   10  N2  UNL     1      -3.375   1.698   0.106  1.00  0.00    -0.357 N 
HETATM   11  C3  UNL     1      -4.737   1.750  -0.308  1.00  0.00     0.144 C 
HETATM   12  C2  UNL     1      -5.597   1.370   0.906  1.00  0.00     0.136 C 
HETATM   13  N1  UNL     1      -5.366   2.260   1.985  1.00  0.00    -0.414 N 
HETATM   14  C1  UNL     1      -6.105   3.479   1.981  1.00  0.00     0.143 C 
HETATM   15  C29 UNL     1      -3.976   2.426   2.330  1.00  0.00     0.136 C 
HETATM   16  C28 UNL     1      -3.111   2.750   1.162  1.00  0.00     0.144 C 
ENDBRANCH   9  10
BRANCH   9  17
HETATM   17  O1  UNL     1      -1.192   1.249   0.388  1.00  0.00    -0.345 OA
ATOM     18  H1  UNL     1      -0.452   0.710   0.134  1.00  0.00     0.219 HD
ENDBRANCH   9  17
ENDBRANCH   8   9
BRANCH   8  19
HETATM   19  C22 UNL     1      -3.159  -0.804  -1.945  1.00  0.00     0.041 C 
HETATM   20  C23 UNL     1      -4.054  -1.703  -1.129  1.00  0.00     0.011 C 
HETATM   21  C24 UNL     1      -5.299  -1.916  -2.009  1.00  0.00     0.001 C 
HETATM   22  C25 UNL     1      -4.880  -2.631  -3.281  1.00  0.00     0.000 C 
HETATM   23  C26 UNL     1      -3.744  -1.981  -3.997  1.00  0.00     0.001 C 
HETATM   24  C27 UNL     1      -2.593  -1.738  -3.041  1.00  0.00     0.011 C 
ENDBRANCH   8  19
ENDBRANCH   6   8
ENDBRANCH   1   6
BRANCH   5  25
HETATM   25  C7  UNL     1       3.055  -0.157   0.218  1.00  0.00     0.162 C 
BRANCH  25  26
HETATM   26  C8  UNL     1       3.149   1.282   0.529  1.00  0.00     0.169 C 
HETATM   27  O3  UNL     1       2.037   2.051   0.339  1.00  0.00    -0.382 OA
HETATM   28  C9  UNL     1       2.388   3.363   0.193  1.00  0.00     0.171 C 
HETATM   29  C10 UNL     1       3.872   3.429  -0.075  1.00  0.00     0.061 C 
HETATM   30  C11 UNL     1       4.182   1.978  -0.381  1.00  0.00     0.163 C 
BRANCH  30  31
HETATM   31  O4  UNL     1       4.043   1.639  -1.696  1.00  0.00    -0.328 OA
BRANCH  31  32
HETATM   32  C12 UNL     1       4.987   1.041  -2.469  1.00  0.00     0.144 A 
HETATM   33  C13 UNL     1       6.237   0.672  -2.055  1.00  0.00     0.073 A 
HETATM   34  C14 UNL     1       7.124   0.071  -2.920  1.00  0.00     0.093 A 
HETATM   35  N6  UNL     1       6.754  -0.154  -4.178  1.00  0.00    -0.362 N 
HETATM   36  C15 UNL     1       5.544   0.196  -4.604  1.00  0.00     0.182 A 
ATOM     37  H6  UNL     1       7.406  -0.600  -4.823  1.00  0.00     0.165 HD
HETATM   38  N7  UNL     1       4.679   0.782  -3.766  1.00  0.00    -0.333 N 
ATOM     39  H7  UNL     1       3.756   1.043  -4.114  1.00  0.00     0.168 HD
ENDBRANCH  31  32
ENDBRANCH  30  31
ENDBRANCH  25  26
ENDBRANCH   5  25
BRANCH   5  40
HETATM   40  C16 UNL     1       2.329  -1.716   2.108  1.00  0.00     0.089 C 
HETATM   41  C17 UNL     1       3.313  -2.855   1.764  1.00  0.00     0.025 C 
HETATM   42  C18 UNL     1       3.138  -3.968   2.804  1.00  0.00     0.002 C 
HETATM   43  C19 UNL     1       2.872  -3.286   4.145  1.00  0.00     0.000 C 
HETATM   44  C20 UNL     1       3.656  -1.993   4.136  1.00  0.00     0.002 C 
HETATM   45  C21 UNL     1       2.807  -0.998   3.307  1.00  0.00     0.025 C 
ENDBRANCH   5  40
TORSDOF 11
