REMARK  12 active torsions:
REMARK  status: ('A' for Active; 'I' for Inactive)
REMARK    1  A    between atoms: C2_2  and  C3_3 
REMARK    2  A    between atoms: C3_3  and  C4_4 
REMARK    3  A    between atoms: C6_8  and  C7_9 
REMARK    4  A    between atoms: C8_10  and  C9_11 
REMARK    5  A    between atoms: C9_11  and  C10_12 
REMARK    6  A    between atoms: C10_12  and  O4_14 
REMARK    7  A    between atoms: N2_24  and  C16_25 
REMARK    8  A    between atoms: C19_28  and  O7_29 
REMARK    9  A    between atoms: C20_31  and  C21_32 
REMARK   10  A    between atoms: C25_36  and  C26_37 
REMARK   11  A    between atoms: C26_37  and  O9_39 
REMARK   12  A    between atoms: O9_39  and  C27_40 
ROOT
HETATM    1  C4  UNL     1      -0.277  -2.415   0.835  1.00  0.00     0.099 C 
HETATM    2  C5  UNL     1       0.888  -2.162  -0.047  1.00  0.00     0.265 C 
HETATM    3  O1  UNL     1       0.906  -2.866  -1.097  1.00  0.00    -0.265 OA
HETATM    4  O2  UNL     1       1.825  -1.285   0.237  1.00  0.00    -0.302 OA
HETATM    5  C6  UNL     1       2.350  -0.059   0.112  1.00  0.00     0.246 C 
HETATM    6  C12 UNL     1       2.008   0.968   1.129  1.00  0.00     0.251 C 
HETATM    7  O5  UNL     1       2.430   0.783   2.303  1.00  0.00    -0.270 OA
HETATM    8  N1  UNL     1       1.244   2.136   0.874  1.00  0.00    -0.346 N 
ATOM      9  H1  UNL     1       1.130   2.805   1.636  1.00  0.00     0.163 HD
HETATM   10  C13 UNL     1       0.616   2.443  -0.393  1.00  0.00     0.173 C 
HETATM   11  C14 UNL     1       1.591   3.418  -1.083  1.00  0.00     0.042 C 
HETATM   12  C15 UNL     1      -0.706   3.101  -0.254  1.00  0.00     0.248 C 
HETATM   13  O6  UNL     1      -0.623   4.204   0.411  1.00  0.00    -0.271 OA
HETATM   14  N2  UNL     1      -1.974   2.722  -0.717  1.00  0.00    -0.292 N 
HETATM   15  C19 UNL     1      -2.596   1.453  -0.703  1.00  0.00     0.147 C 
HETATM   16  C20 UNL     1      -2.708   0.414   0.351  1.00  0.00    -0.025 C 
HETATM   17  C24 UNL     1      -1.493  -0.401   0.392  1.00  0.00     0.054 C 
HETATM   18  C25 UNL     1      -1.600  -1.903   0.358  1.00  0.00     0.103 C 
ENDROOT
BRANCH   5  19
HETATM   19  C7  UNL     1       3.856  -0.211   0.243  1.00  0.00     0.011 C 
HETATM   20  C8  UNL     1       4.458  -1.121  -0.502  1.00  0.00    -0.018 C 
BRANCH  20  21
HETATM   21  C9  UNL     1       5.915  -1.359  -0.459  1.00  0.00     0.138 C 
BRANCH  21  22
HETATM   22  C10 UNL     1       6.618  -0.480   0.504  1.00  0.00     0.261 C 
HETATM   23  O3  UNL     1       6.505  -0.666   1.731  1.00  0.00    -0.265 OA
BRANCH  22  24
HETATM   24  O4  UNL     1       7.401   0.548   0.047  1.00  0.00    -0.326 OA
HETATM   25  C11 UNL     1       8.091   1.414   0.939  1.00  0.00     0.213 C 
ENDBRANCH  22  24
ENDBRANCH  21  22
ENDBRANCH  20  21
ENDBRANCH   5  19
BRANCH   1  26
HETATM   26  C3  UNL     1      -0.278  -3.886   1.197  1.00  0.00     0.015 C 
BRANCH  26  27
HETATM   27  C2  UNL     1      -1.389  -4.295   2.094  1.00  0.00    -0.004 C 
HETATM   28  C1  UNL     1      -1.249  -5.796   2.366  1.00  0.00     0.005 C 
ENDBRANCH  26  27
ENDBRANCH   1  26
BRANCH  18  29
HETATM   29  C26 UNL     1      -2.119  -2.431  -0.895  1.00  0.00     0.264 C 
HETATM   30  O8  UNL     1      -3.169  -3.179  -0.891  1.00  0.00    -0.265 OA
BRANCH  29  31
HETATM   31  O9  UNL     1      -1.603  -2.224  -2.165  1.00  0.00    -0.322 OA
BRANCH  31  32
HETATM   32  C27 UNL     1      -2.237  -2.819  -3.281  1.00  0.00     0.174 C 
HETATM   33  C28 UNL     1      -1.572  -2.495  -4.576  1.00  0.00     0.034 C 
ENDBRANCH  31  32
ENDBRANCH  29  31
ENDBRANCH  18  29
BRANCH  14  34
HETATM   34  C16 UNL     1      -2.756   3.834  -1.340  1.00  0.00     0.087 C 
HETATM   35  C17 UNL     1      -2.890   5.025  -0.474  1.00  0.00     0.032 C 
HETATM   36  C18 UNL     1      -2.111   4.278  -2.651  1.00  0.00     0.032 C 
ENDBRANCH  14  34
BRANCH  16  37
HETATM   37  C21 UNL     1      -3.313   0.872   1.631  1.00  0.00     0.011 C 
HETATM   38  C22 UNL     1      -3.420  -0.280   2.648  1.00  0.00     0.014 C 
HETATM   39  C23 UNL     1      -2.668   1.992   2.359  1.00  0.00     0.014 C 
ENDBRANCH  16  37
BRANCH  15  40
HETATM   40  O7  UNL     1      -3.160   1.210  -1.867  1.00  0.00    -0.346 OA
ATOM     41  H7  UNL     1      -3.578   0.357  -1.858  1.00  0.00     0.219 HD
ENDBRANCH  15  40
TORSDOF 12
