REMARK  10 active torsions:
REMARK  status: ('A' for Active; 'I' for Inactive)
REMARK       I    between atoms: N2_5  and  C4_6 
REMARK    1  A    between atoms: C4_6  and  O2_8 
REMARK    2  A    between atoms: O2_8  and  C5_9 
REMARK    3  A    between atoms: C5_9  and  C6_10 
REMARK    4  A    between atoms: C6_10  and  O3_11 
REMARK    5  A    between atoms: O3_11  and  C7_12 
REMARK    6  A    between atoms: C7_12  and  C8_13 
REMARK    7  A    between atoms: C8_13  and  O4_14 
REMARK    8  A    between atoms: O4_14  and  C9_15 
REMARK    9  A    between atoms: C26_34  and  C28_36 
REMARK   10  A    between atoms: C28_36  and  O7_37 
ROOT
HETATM    1  C9  UNL     1      -0.856   0.269  -0.630  1.00  0.00     0.132 C 
HETATM    2  C10 UNL     1      -1.630   1.042  -1.750  1.00  0.00     0.034 C 
HETATM    3  C11 UNL     1      -3.031   1.322  -1.379  1.00  0.00     0.012 C 
HETATM    4  C12 UNL     1      -3.473   0.899  -0.013  1.00  0.00    -0.035 C 
HETATM    5  C13 UNL     1      -3.069   2.080   0.909  1.00  0.00     0.016 C 
HETATM    6  C14 UNL     1      -4.994   0.943  -0.019  1.00  0.00     0.006 C 
HETATM    7  C15 UNL     1      -5.647   0.356  -1.202  1.00  0.00     0.007 C 
HETATM    8  C16 UNL     1      -6.998  -0.217  -1.024  1.00  0.00     0.012 C 
HETATM    9  C17 UNL     1      -7.716   0.040   0.242  1.00  0.00    -0.016 C 
HETATM   10  C18 UNL     1      -8.450  -1.230   0.712  1.00  0.00     0.018 C 
HETATM   11  C19 UNL     1      -8.833   1.071   0.051  1.00  0.00     0.177 C 
HETATM   12  O5  UNL     1      -8.797   1.867   1.189  1.00  0.00    -0.390 OA
HETATM   13  C20 UNL     1      -7.422   2.000   1.489  1.00  0.00     0.173 C 
HETATM   14  C21 UNL     1      -6.958   0.587   1.374  1.00  0.00     0.031 C 
HETATM   15  C22 UNL     1      -5.469   0.446   1.300  1.00  0.00     0.067 C 
HETATM   16  C23 UNL     1      -5.068  -0.925   1.573  1.00  0.00     0.132 C 
HETATM   17  O6  UNL     1      -5.794  -1.647   2.231  1.00  0.00    -0.298 OA
HETATM   18  C24 UNL     1      -3.755  -1.411   1.029  1.00  0.00     0.085 C 
HETATM   19  C25 UNL     1      -2.857  -0.328   0.548  1.00  0.00     0.014 C 
HETATM   20  C26 UNL     1      -1.713  -0.904  -0.282  1.00  0.00     0.008 C 
HETATM   21  C27 UNL     1      -2.157  -1.699  -1.472  1.00  0.00     0.020 C 
ENDROOT
BRANCH   1  22
HETATM   22  O4  UNL     1       0.319  -0.121  -1.234  1.00  0.00    -0.383 OA
BRANCH  22  23
HETATM   23  C8  UNL     1       1.469   0.521  -0.835  1.00  0.00     0.194 C 
BRANCH  23  24
HETATM   24  C7  UNL     1       1.852   0.361   0.598  1.00  0.00     0.193 C 
BRANCH  24  25
HETATM   25  O3  UNL     1       2.917   0.977   1.028  1.00  0.00    -0.387 OA
BRANCH  25  26
HETATM   26  C6  UNL     1       4.183   0.899   0.769  1.00  0.00     0.194 C 
BRANCH  26  27
HETATM   27  C5  UNL     1       4.729   1.188  -0.597  1.00  0.00     0.207 C 
BRANCH  27  28
HETATM   28  O2  UNL     1       6.149   1.076  -0.670  1.00  0.00    -0.302 OA
BRANCH  28  29
HETATM   29  C4  UNL     1       6.886  -0.058  -0.479  1.00  0.00     0.362 C 
HETATM   30  N2  UNL     1       8.305   0.003  -0.577  1.00  0.00    -0.325 N 
HETATM   31  C3  UNL     1       8.924   1.265  -0.877  1.00  0.00     0.158 C 
HETATM   32  C29 UNL     1       9.049  -1.219  -0.368  1.00  0.00     0.158 C 
HETATM   33  C2  UNL     1      10.442   1.145  -0.802  1.00  0.00     0.291 C 
HETATM   34  N1  UNL     1      10.742   0.393   0.397  1.00  0.00     0.087 N 
HETATM   35  C1  UNL     1      12.110   0.495   0.813  1.00  0.00     0.310 C 
HETATM   36  C30 UNL     1      10.446  -0.999   0.108  1.00  0.00     0.291 C 
HETATM   37  O1  UNL     1       6.302  -1.151  -0.216  1.00  0.00    -0.238 OA
ENDBRANCH  28  29
ENDBRANCH  27  28
ENDBRANCH  26  27
ENDBRANCH  25  26
ENDBRANCH  24  25
ENDBRANCH  23  24
ENDBRANCH  22  23
ENDBRANCH   1  22
BRANCH  20  38
HETATM   38  C28 UNL     1      -0.891  -1.866   0.543  1.00  0.00     0.176 C 
BRANCH  38  39
HETATM   39  O7  UNL     1      -1.606  -3.039   0.879  1.00  0.00    -0.400 OA
ATOM     40  H7  UNL     1      -1.089  -3.644   1.398  1.00  0.00     0.209 HD
ENDBRANCH  38  39
ENDBRANCH  20  38
TORSDOF 10
