REMARK  12 active torsions:
REMARK  status: ('A' for Active; 'I' for Inactive)
REMARK    1  A    between atoms: C2_2  and  C3_3 
REMARK    2  A    between atoms: C3_3  and  C4_4 
REMARK    3  A    between atoms: C4_4  and  C5_5 
REMARK    4  A    between atoms: C5_5  and  O2_7 
REMARK    5  A    between atoms: C15_17  and  C16_18 
REMARK    6  A    between atoms: C15_17  and  O3_23 
REMARK    7  A    between atoms: O3_23  and  C20_24 
REMARK    8  A    between atoms: C20_24  and  C21_26 
REMARK    9  A    between atoms: C21_26  and  N2_27 
REMARK   10  A    between atoms: N2_27  and  C22_29 
REMARK   11  A    between atoms: C25_33  and  O6_34 
REMARK   12  A    between atoms: O6_34  and  C26_35 
ROOT
HETATM    1  C16 UNL     1       2.733  -2.055  -0.716  1.00  0.00     0.030 C 
HETATM    2  C17 UNL     1       3.831  -2.674  -0.429  1.00  0.00     0.018 C 
HETATM    3  C18 UNL     1       5.149  -2.047  -0.350  1.00  0.00     0.060 C 
HETATM    4  C19 UNL     1       3.844  -4.114  -0.147  1.00  0.00     0.094 C 
HETATM    5  N1  UNL     1       3.845  -5.258   0.059  1.00  0.00    -0.192 NA
ENDROOT
BRANCH   1   6
HETATM    6  C15 UNL     1       2.386  -0.680  -1.033  1.00  0.00     0.100 C 
HETATM    7  C13 UNL     1       2.633  -0.423  -2.572  1.00  0.00     0.043 C 
HETATM    8  C12 UNL     1       2.271   0.999  -2.721  1.00  0.00    -0.023 C 
HETATM    9  C14 UNL     1       2.004  -1.403  -3.421  1.00  0.00     0.017 C 
HETATM   10  C11 UNL     1       1.080   1.415  -2.314  1.00  0.00    -0.025 C 
HETATM   11  C10 UNL     1       0.168   0.402  -1.725  1.00  0.00     0.020 C 
HETATM   12  C9  UNL     1      -1.114   0.983  -1.236  1.00  0.00     0.006 C 
HETATM   13  C23 UNL     1       0.882  -0.526  -0.841  1.00  0.00     0.036 C 
HETATM   14  C8  UNL     1      -2.192   0.706  -2.291  1.00  0.00     0.007 C 
HETATM   15  C28 UNL     1      -1.675   0.577   0.055  1.00  0.00     0.004 C 
HETATM   16  C7  UNL     1      -3.176  -0.184  -1.623  1.00  0.00     0.021 C 
HETATM   17  C4  UNL     1      -3.141   0.335  -0.206  1.00  0.00     0.061 C 
HETATM   18  C25 UNL     1      -1.010  -0.554   0.746  1.00  0.00     0.142 C 
HETATM   19  C29 UNL     1      -1.628   1.757   1.076  1.00  0.00     0.020 C 
HETATM   20  C24 UNL     1       0.538  -0.339   0.586  1.00  0.00     0.042 C 
BRANCH  17  21
HETATM   21  C3  UNL     1      -3.769  -0.712   0.695  1.00  0.00     0.047 C 
BRANCH  21  22
HETATM   22  C2  UNL     1      -5.149  -0.943   0.118  1.00  0.00    -0.036 C 
HETATM   23  C1  UNL     1      -5.555  -2.118  -0.310  1.00  0.00     0.007 C 
ENDBRANCH  21  22
ENDBRANCH  17  21
BRANCH  17  24
HETATM   24  C5  UNL     1      -3.958   1.585  -0.189  1.00  0.00     0.268 C 
HETATM   25  O1  UNL     1      -4.423   2.083  -1.252  1.00  0.00    -0.264 OA
BRANCH  24  26
HETATM   26  O2  UNL     1      -4.272   2.288   0.967  1.00  0.00    -0.326 OA
HETATM   27  C6  UNL     1      -5.051   3.463   0.908  1.00  0.00     0.213 C 
ENDBRANCH  24  26
ENDBRANCH  17  24
BRANCH  18  28
HETATM   28  O6  UNL     1      -1.151  -0.466   2.161  1.00  0.00    -0.315 OA
BRANCH  28  29
HETATM   29  C26 UNL     1      -1.343  -1.541   3.002  1.00  0.00     0.255 C 
HETATM   30  C27 UNL     1      -1.482  -1.324   4.470  1.00  0.00     0.126 C 
HETATM   31  O7  UNL     1      -1.398  -2.693   2.516  1.00  0.00    -0.266 OA
ENDBRANCH  28  29
ENDBRANCH  18  28
BRANCH   6  32
HETATM   32  O3  UNL     1       3.112   0.334  -0.521  1.00  0.00    -0.303 OA
BRANCH  32  33
HETATM   33  C20 UNL     1       3.573   0.852   0.609  1.00  0.00     0.277 C 
HETATM   34  O4  UNL     1       3.304   0.215   1.659  1.00  0.00    -0.263 OA
BRANCH  33  35
HETATM   35  C21 UNL     1       4.375   2.119   0.716  1.00  0.00     0.233 C 
BRANCH  35  36
HETATM   36  N2  UNL     1       4.749   2.419   2.060  1.00  0.00    -0.359 N 
ATOM     37  H2  UNL     1       4.406   3.293   2.458  1.00  0.00     0.162 HD
BRANCH  36  38
HETATM   38  C22 UNL     1       5.553   1.607   2.882  1.00  0.00     0.348 C 
HETATM   39  O5  UNL     1       6.008   0.526   2.450  1.00  0.00    -0.284 OA
ENDBRANCH  36  38
ENDBRANCH  35  36
ENDBRANCH  33  35
ENDBRANCH  32  33
ENDBRANCH   6  32
ENDBRANCH   1   6
TORSDOF 12
