REMARK  10 active torsions:
REMARK  status: ('A' for Active; 'I' for Inactive)
REMARK    1  A    between atoms: C3_5  and  N2_6 
REMARK    2  A    between atoms: N2_6  and  C4_7 
REMARK    3  A    between atoms: C4_7  and  C5_8 
REMARK    4  A    between atoms: C4_7  and  C19_27 
REMARK    5  A    between atoms: C10_15  and  C11_16 
REMARK    6  A    between atoms: C11_16  and  N4_17 
REMARK    7  A    between atoms: N4_17  and  C13_19 
REMARK    8  A    between atoms: C13_19  and  C14_20 
REMARK    9  A    between atoms: C14_20  and  N5_21 
REMARK   10  A    between atoms: C25_36  and  C26_37 
ROOT
HETATM    1  C4  UNL     1      -1.940   2.086  -0.932  1.00  0.00     0.233 C 
ENDROOT
BRANCH   1   2
HETATM    2  N2  UNL     1      -2.981   1.239  -0.997  1.00  0.00    -0.402 NA
BRANCH   2   3
HETATM    3  C3  UNL     1      -3.874   0.482  -0.810  1.00  0.00     0.255 A 
HETATM    4  N1  UNL     1      -4.664  -0.057  -1.774  1.00  0.00    -0.320 N 
HETATM    5  C2  UNL     1      -5.702  -0.870  -1.516  1.00  0.00     0.018 A 
ATOM      6  H1  UNL     1      -4.458   0.168  -2.747  1.00  0.00     0.169 HD
HETATM    7  C1  UNL     1      -6.499  -1.402  -2.629  1.00  0.00     0.069 C 
HETATM    8  C25 UNL     1      -6.025  -1.208  -0.181  1.00  0.00    -0.006 A 
HETATM    9  C23 UNL     1      -5.237  -0.677   0.810  1.00  0.00     0.018 A 
HETATM   10  N6  UNL     1      -4.217   0.129   0.464  1.00  0.00    -0.320 N 
HETATM   11  C24 UNL     1      -5.423  -0.983   2.234  1.00  0.00     0.069 C 
ATOM     12  H6  UNL     1      -3.649   0.511   1.221  1.00  0.00     0.169 HD
BRANCH   8  13
HETATM   13  C26 UNL     1      -7.136  -2.101   0.014  1.00  0.00    -0.020 C 
HETATM   14  C27 UNL     1      -8.432  -1.539  -0.656  1.00  0.00     0.019 C 
HETATM   15  C28 UNL     1      -6.989  -3.525  -0.429  1.00  0.00     0.019 C 
HETATM   16  C29 UNL     1      -7.669  -2.226   1.471  1.00  0.00     0.019 C 
ENDBRANCH   8  13
ENDBRANCH   2   3
ENDBRANCH   1   2
BRANCH   1  17
HETATM   17  C5  UNL     1      -0.767   1.453  -0.274  1.00  0.00     0.032 A 
HETATM   18  C6  UNL     1      -0.381   1.581   1.029  1.00  0.00     0.032 A 
HETATM   19  C7  UNL     1       0.744   0.768   1.176  1.00  0.00     0.094 A 
HETATM   20  N3  UNL     1       1.001   0.187  -0.016  1.00  0.00    -0.329 N 
HETATM   21  C8  UNL     1       0.098   0.585  -0.908  1.00  0.00     0.154 A 
HETATM   22  C10 UNL     1       2.001  -0.701  -0.656  1.00  0.00     0.144 C 
HETATM   23  O1  UNL     1       0.400  -0.045  -2.129  1.00  0.00    -0.333 OA
HETATM   24  C9  UNL     1       1.774  -0.437  -2.130  1.00  0.00     0.204 C 
BRANCH  22  25
HETATM   25  C11 UNL     1       3.322  -0.180  -0.210  1.00  0.00     0.299 C 
BRANCH  25  26
HETATM   26  N4  UNL     1       4.498  -0.825  -0.708  1.00  0.00     0.087 N 
HETATM   27  C12 UNL     1       4.616  -2.188  -0.195  1.00  0.00     0.310 C 
BRANCH  26  28
HETATM   28  C13 UNL     1       5.619  -0.103  -0.080  1.00  0.00     0.302 C 
BRANCH  28  29
HETATM   29  C14 UNL     1       6.908  -0.558  -0.674  1.00  0.00     0.302 C 
BRANCH  29  30
HETATM   30  N5  UNL     1       8.019   0.163  -0.020  1.00  0.00     0.094 N 
HETATM   31  C15 UNL     1       9.267  -0.066  -0.757  1.00  0.00     0.298 C 
HETATM   32  C16 UNL     1      10.442  -0.100   0.215  1.00  0.00     0.198 C 
HETATM   33  O2  UNL     1      10.402  -1.286   0.963  1.00  0.00    -0.388 OA
HETATM   34  C17 UNL     1       9.074  -1.704   1.126  1.00  0.00     0.198 C 
HETATM   35  C18 UNL     1       8.226  -0.451   1.294  1.00  0.00     0.298 C 
ENDBRANCH  29  30
ENDBRANCH  28  29
ENDBRANCH  26  28
ENDBRANCH  25  26
ENDBRANCH  22  25
ENDBRANCH   1  17
BRANCH   1  36
HETATM   36  C19 UNL     1      -2.307   3.403  -0.227  1.00  0.00     0.162 C 
HETATM   37  C20 UNL     1      -1.190   4.379  -0.285  1.00  0.00     0.037 C 
HETATM   38  C21 UNL     1      -1.309   5.150   1.005  1.00  0.00     0.029 C 
HETATM   39  C22 UNL     1      -2.614   4.579   1.578  1.00  0.00     0.168 C 
HETATM   40  O3  UNL     1      -2.700   3.296   1.047  1.00  0.00    -0.382 OA
ENDBRANCH   1  36
TORSDOF 10
