REMARK  9 active torsions:
REMARK  status: ('A' for Active; 'I' for Inactive)
REMARK    1  A    between atoms: C2_2  and  C3_3 
REMARK    2  A    between atoms: C2_2  and  N8_31 
REMARK    3  A    between atoms: N1_6  and  C6_7 
REMARK    4  A    between atoms: C6_7  and  C7_8 
REMARK    5  A    between atoms: C7_8  and  C8_9 
REMARK    6  A    between atoms: C8_9  and  N2_10 
REMARK    7  A    between atoms: C10_12  and  N3_13 
REMARK    8  A    between atoms: C21_34  and  O2_35 
REMARK    9  A    between atoms: O2_35  and  C22_36 
ROOT
HETATM    1  C3  UNL     1      -1.369  -1.253  -0.900  1.00  0.00     0.065 C 
HETATM    2  C4  UNL     1      -0.161  -2.155  -0.869  1.00  0.00     0.058 C 
HETATM    3  C5  UNL     1       0.619  -2.164   0.391  1.00  0.00     0.069 C 
HETATM    4  N1  UNL     1       1.564  -1.139   0.574  1.00  0.00    -0.348 N 
HETATM    5  C15 UNL     1       1.094   0.180   0.724  1.00  0.00     0.126 C 
HETATM    6  C16 UNL     1       0.201   0.703  -0.312  1.00  0.00     0.072 A 
HETATM    7  N6  UNL     1       0.305   1.968  -0.750  1.00  0.00    -0.350 N 
ATOM      8  H6  UNL     1       0.982   2.660  -0.430  1.00  0.00     0.166 HD
HETATM    9  C17 UNL     1      -0.634   2.159  -1.678  1.00  0.00     0.181 A 
HETATM   10  N7  UNL     1      -1.331   1.044  -1.838  1.00  0.00    -0.353 N 
ATOM     11  H7  UNL     1      -2.109   0.907  -2.483  1.00  0.00     0.166 HD
HETATM   12  C18 UNL     1      -0.832   0.134  -1.004  1.00  0.00     0.045 A 
ENDROOT
BRANCH   1  13
HETATM   13  C2  UNL     1      -2.256  -1.337   0.284  1.00  0.00     0.085 C 
HETATM   14  C1  UNL     1      -2.817  -2.718   0.532  1.00  0.00     0.033 C 
BRANCH  13  15
HETATM   15  N8  UNL     1      -3.331  -0.406   0.283  1.00  0.00    -0.408 N 
HETATM   16  C19 UNL     1      -4.012  -0.247   1.531  1.00  0.00     0.119 C 
HETATM   17  C20 UNL     1      -5.089   0.837   1.285  1.00  0.00     0.052 C 
HETATM   18  C21 UNL     1      -6.177   0.229   0.412  1.00  0.00     0.132 C 
HETATM   19  C27 UNL     1      -5.533  -0.778  -0.544  1.00  0.00     0.052 C 
HETATM   20  C28 UNL     1      -4.118  -0.268  -0.872  1.00  0.00     0.119 C 
BRANCH  18  21
HETATM   21  O2  UNL     1      -6.930   1.111  -0.319  1.00  0.00    -0.344 OA
BRANCH  21  22
HETATM   22  C22 UNL     1      -8.299   1.272  -0.322  1.00  0.00     0.084 A 
HETATM   23  C23 UNL     1      -9.154   0.546   0.464  1.00  0.00     0.039 A 
HETATM   24  C24 UNL     1     -10.536   0.739   0.427  1.00  0.00     0.020 A 
HETATM   25  C25 UNL     1     -11.078   1.682  -0.417  1.00  0.00     0.088 A 
HETATM   26  N9  UNL     1     -10.237   2.404  -1.197  1.00  0.00    -0.373 N 
HETATM   27  C26 UNL     1      -8.905   2.215  -1.159  1.00  0.00     0.124 A 
ATOM     28  H9  UNL     1     -10.623   3.107  -1.828  1.00  0.00     0.164 HD
ENDBRANCH  21  22
ENDBRANCH  18  21
ENDBRANCH  13  15
ENDBRANCH   1  13
BRANCH   4  29
HETATM   29  C6  UNL     1       2.914  -1.360   0.255  1.00  0.00     0.070 C 
BRANCH  29  30
HETATM   30  C7  UNL     1       3.528  -2.354   1.210  1.00  0.00     0.067 C 
BRANCH  30  31
HETATM   31  C8  UNL     1       4.963  -2.666   0.957  1.00  0.00     0.155 C 
BRANCH  31  32
HETATM   32  N2  UNL     1       5.874  -1.559   1.055  1.00  0.00    -0.285 N 
HETATM   33  C9  UNL     1       6.279  -0.716   0.097  1.00  0.00     0.161 A 
HETATM   34  C10 UNL     1       7.178   0.190   0.641  1.00  0.00     0.136 A 
HETATM   35  N4  UNL     1       7.282  -0.156   1.954  1.00  0.00    -0.270 N 
HETATM   36  N5  UNL     1       6.504  -1.194   2.183  1.00  0.00    -0.239 N 
ATOM     37  H4  UNL     1       7.867   0.312   2.647  1.00  0.00     0.190 HD
ATOM     38  H5  UNL     1       6.396  -1.654   3.087  1.00  0.00     0.208 HD
BRANCH  34  39
HETATM   39  N3  UNL     1       7.830   1.227  -0.039  1.00  0.00    -0.361 N 
HETATM   40  C11 UNL     1       7.571   1.547  -1.422  1.00  0.00     0.150 C 
HETATM   41  C12 UNL     1       7.736   3.016  -1.734  1.00  0.00     0.187 C 
HETATM   42  O1  UNL     1       8.887   3.529  -1.202  1.00  0.00    -0.388 OA
HETATM   43  C13 UNL     1       9.670   2.648  -0.496  1.00  0.00     0.187 C 
HETATM   44  C14 UNL     1       8.833   2.046   0.632  1.00  0.00     0.150 C 
ENDBRANCH  34  39
ENDBRANCH  31  32
ENDBRANCH  30  31
ENDBRANCH  29  30
ENDBRANCH   4  29
TORSDOF 9
