REMARK  5 active torsions:
REMARK  status: ('A' for Active; 'I' for Inactive)
REMARK    1  A    between atoms: N1_1  and  C1_5 
REMARK    2  A    between atoms: C1_5  and  C2_6 
REMARK    3  A    between atoms: C2_6  and  N2_7 
REMARK    4  A    between atoms: C2_6  and  C8_13 
REMARK    5  A    between atoms: C8_13  and  N3_14 
ROOT
HETATM    1  C8  UNL     1       1.100   0.410  -0.339  1.00  0.00     0.242 C 
HETATM    2  C9  UNL     1       1.245   1.118   0.959  1.00  0.00     0.057 C 
HETATM    3  C10 UNL     1       2.570   1.843   1.123  1.00  0.00     0.023 C 
HETATM    4  C11 UNL     1       3.752   0.909   0.963  1.00  0.00     0.122 C 
HETATM    5  N4  UNL     1       3.554   0.010  -0.161  1.00  0.00    -0.359 N 
ATOM      6  H4  UNL     1       4.283  -0.670  -0.378  1.00  0.00     0.162 HD
HETATM    7  C12 UNL     1       2.404   0.039  -0.957  1.00  0.00     0.260 C 
HETATM    8  O1  UNL     1       2.394  -0.233  -2.189  1.00  0.00    -0.270 OA
ENDROOT
BRANCH   1   9
HETATM    9  C2  UNL     1       0.209  -0.803  -0.169  1.00  0.00     0.055 C 
BRANCH   9  10
HETATM   10  C1  UNL     1       0.716  -1.804   0.824  1.00  0.00     0.284 C 
BRANCH  10  11
HETATM   11  N1  UNL     1       0.001  -3.060   0.594  1.00  0.00    -0.074 N 
ATOM     12  H13 UNL     1      -1.013  -2.950   0.624  1.00  0.00     0.274 HD
ATOM     13  H12 UNL     1       0.073  -3.386  -0.370  1.00  0.00     0.274 HD
ATOM     14  H11 UNL     1       0.346  -3.741   1.270  1.00  0.00     0.274 HD
ENDBRANCH  10  11
ENDBRANCH   9  10
BRANCH   9  15
HETATM   15  N2  UNL     1      -1.125  -0.457  -0.181  1.00  0.00    -0.384 N 
HETATM   16  C3  UNL     1      -1.818   0.133   0.864  1.00  0.00     0.122 C 
HETATM   17  C4  UNL     1      -2.716   1.268   0.331  1.00  0.00     0.020 C 
HETATM   18  C5  UNL     1      -3.298   0.906  -1.011  1.00  0.00     0.003 C 
HETATM   19  C6  UNL     1      -3.324  -0.575  -1.249  1.00  0.00     0.020 C 
HETATM   20  C7  UNL     1      -1.982  -1.235  -1.026  1.00  0.00     0.122 C 
ENDBRANCH   9  15
ENDBRANCH   1   9
BRANCH   1  21
HETATM   21  N3  UNL     1       0.493   1.320  -1.330  1.00  0.00    -0.056 N 
ATOM     22  H33 UNL     1       0.299   0.854  -2.216  1.00  0.00     0.276 HD
ATOM     23  H32 UNL     1      -0.465   1.573  -1.088  1.00  0.00     0.276 HD
ATOM     24  H31 UNL     1       1.093   2.137  -1.444  1.00  0.00     0.276 HD
ENDBRANCH   1  21
TORSDOF 5
