REMARK  1 active torsions:
REMARK  status: ('A' for Active; 'I' for Inactive)
REMARK    1  A    between atoms: C2_2  and  N1_3 
REMARK       I    between atoms: N1_3  and  C3_5 
REMARK       I    between atoms: N3_7  and  C4_9 
REMARK       I    between atoms: C4_9  and  N4_11 
ROOT
HETATM    1  N1  UNL     1       3.828  -0.561  -0.364  1.00  0.00    -0.365 N 
ATOM      2  H1  UNL     1       4.449  -1.270  -0.755  1.00  0.00     0.162 HD
HETATM    3  C3  UNL     1       2.684  -0.970   0.367  1.00  0.00     0.192 C 
HETATM    4  N2  UNL     1       2.824  -1.222   1.749  1.00  0.00    -0.063 NA
HETATM    5  N3  UNL     1       1.545  -1.117  -0.172  1.00  0.00    -0.283 N 
ATOM      6  H3  UNL     1       1.447  -0.934  -1.171  1.00  0.00     0.173 HD
HETATM    7  C4  UNL     1       0.392  -1.530   0.568  1.00  0.00     0.325 C 
HETATM    8  O1  UNL     1       0.479  -2.602   1.239  1.00  0.00    -0.247 OA
HETATM    9  N4  UNL     1      -0.808  -0.767   0.554  1.00  0.00    -0.327 N 
HETATM   10  C5  UNL     1      -0.837   0.448  -0.234  1.00  0.00     0.171 C 
HETATM   11  C6  UNL     1      -1.382   1.628   0.515  1.00  0.00     0.080 C 
HETATM   12  N5  UNL     1      -2.766   1.726   0.622  1.00  0.00    -0.379 N 
ATOM     13  H5  UNL     1      -3.190   2.044   1.494  1.00  0.00     0.164 HD
HETATM   14  C7  UNL     1      -3.576   1.387  -0.468  1.00  0.00     0.086 C 
HETATM   15  C8  UNL     1      -4.285   0.052  -0.333  1.00  0.00     0.212 C 
HETATM   16  O2  UNL     1      -3.404  -0.967  -0.588  1.00  0.00    -0.385 OA
HETATM   17  C9  UNL     1      -3.068  -1.745   0.475  1.00  0.00     0.188 C 
HETATM   18  C10 UNL     1      -1.928  -1.224   1.311  1.00  0.00     0.154 C 
ENDROOT
BRANCH   1  19
HETATM   19  C2  UNL     1       4.135   0.839  -0.569  1.00  0.00     0.118 C 
HETATM   20  C1  UNL     1       5.390   1.010  -1.369  1.00  0.00     0.026 C 
ENDBRANCH   1  19
TORSDOF 1
