REMARK  7 active torsions:
REMARK  status: ('A' for Active; 'I' for Inactive)
REMARK    1  A    between atoms: N1_2  and  C2_4 
REMARK    2  A    between atoms: C2_4  and  O1_5 
REMARK    3  A    between atoms: C2_4  and  C3_7 
REMARK    4  A    between atoms: C3_7  and  C4_8 
REMARK    5  A    between atoms: C4_8  and  C5_9 
REMARK    6  A    between atoms: C5_9  and  C6_10 
REMARK    7  A    between atoms: C7_11  and  C8_12 
REMARK       I    between atoms: C8_12  and  N2_14 
ROOT
HETATM    1  C6  UNL     1       0.667  -0.515   0.351  1.00  0.00    -0.093 C 
HETATM    2  C7  UNL     1      -0.374  -0.667  -0.226  1.00  0.00    -0.005 C 
ENDROOT
BRANCH   2   3
HETATM    3  C8  UNL     1      -1.636  -0.844  -0.897  1.00  0.00     0.298 C 
HETATM    4  O2  UNL     1      -1.599  -1.379  -2.032  1.00  0.00    -0.258 OA
HETATM    5  N2  UNL     1      -2.836  -0.432  -0.291  1.00  0.00    -0.338 N 
HETATM    6  C9  UNL     1      -2.819   0.174   1.008  1.00  0.00     0.154 C 
HETATM    7  C12 UNL     1      -4.086  -0.615  -0.971  1.00  0.00     0.154 C 
HETATM    8  C10 UNL     1      -3.668   1.410   1.107  1.00  0.00     0.252 C 
HETATM    9  N3  UNL     1      -4.607   1.559   0.037  1.00  0.00    -0.072 N 
HETATM   10  C11 UNL     1      -5.158   0.312  -0.437  1.00  0.00     0.252 C 
ATOM     11  H32 UNL     1      -5.353   2.203   0.302  1.00  0.00     0.277 HD
ATOM     12  H31 UNL     1      -4.192   2.083  -0.733  1.00  0.00     0.277 HD
ENDBRANCH   2   3
BRANCH   1  13
HETATM   13  C5  UNL     1       1.961  -0.301   1.066  1.00  0.00     0.121 C 
BRANCH  13  14
HETATM   14  C4  UNL     1       2.765  -1.487   0.799  1.00  0.00    -0.010 C 
BRANCH  14  15
HETATM   15  C3  UNL     1       3.905  -1.628   0.219  1.00  0.00     0.052 C 
BRANCH  15  16
HETATM   16  C2  UNL     1       4.850  -0.765  -0.390  1.00  0.00     0.134 C 
BRANCH  16  17
HETATM   17  N1  UNL     1       4.829   0.620  -0.567  1.00  0.00    -0.375 N 
HETATM   18  C1  UNL     1       5.970   1.277  -1.248  1.00  0.00     0.148 C 
ATOM     19  H1  UNL     1       4.039   1.172  -0.232  1.00  0.00     0.161 HD
ENDBRANCH  16  17
BRANCH  16  20
HETATM   20  O1  UNL     1       5.928  -1.347  -0.871  1.00  0.00    -0.346 OA
ATOM     21  H1  UNL     1       5.942  -2.289  -0.751  1.00  0.00     0.219 HD
ENDBRANCH  16  20
ENDBRANCH  15  16
ENDBRANCH  14  15
ENDBRANCH  13  14
ENDBRANCH   1  13
TORSDOF 7
