REMARK  3 active torsions:
REMARK  status: ('A' for Active; 'I' for Inactive)
REMARK    1  A    between atoms: O1_2  and  N1_3 
REMARK    2  A    between atoms: N1_3  and  S1_5 
REMARK    3  A    between atoms: S1_5  and  N2_8 
ROOT
HETATM    1  N2  UNL     1       0.796  -0.320  -0.956  1.00  0.00    -0.187 NA
HETATM    2  C2  UNL     1       0.600   1.060  -0.726  1.00  0.00     0.110 C 
HETATM    3  C3  UNL     1      -0.813   1.483  -0.471  1.00  0.00     0.026 C 
HETATM    4  C4  UNL     1      -1.684   0.413   0.121  1.00  0.00    -0.019 C 
HETATM    5  C5  UNL     1      -2.842   0.109  -0.765  1.00  0.00     0.028 C 
HETATM    6  C6  UNL     1      -3.706   1.104   0.011  1.00  0.00     0.073 C 
HETATM    7 BR1  UNL     1      -5.434   0.449   0.505  1.00  0.00    -0.090 Br
HETATM    8  C7  UNL     1      -2.667   1.041   1.106  1.00  0.00     0.081 C 
HETATM    9 BR2  UNL     1      -3.126  -0.115   2.578  1.00  0.00    -0.089 Br
HETATM   10  C8  UNL     1      -0.948  -0.692   0.754  1.00  0.00     0.014 C 
HETATM   11  C9  UNL     1      -1.497  -2.074   0.698  1.00  0.00     0.009 C 
HETATM   12  C10 UNL     1      -0.736  -2.258  -0.598  1.00  0.00     0.022 C 
HETATM   13  C11 UNL     1       0.214  -1.219  -0.039  1.00  0.00     0.080 C 
ENDROOT
BRANCH   1  14
HETATM   14  S1  UNL     1       2.491  -0.643  -1.044  1.00  0.00     0.321 S 
HETATM   15  O2  UNL     1       3.096   0.081  -2.207  1.00  0.00    -0.186 OA
HETATM   16  O3  UNL     1       2.725  -2.128  -1.270  1.00  0.00    -0.186 OA
BRANCH  14  17
HETATM   17  N1  UNL     1       3.294  -0.247   0.436  1.00  0.00    -0.179 N 
ATOM     18  H1  UNL     1       3.442  -0.875   1.226  1.00  0.00     0.208 HD
BRANCH  17  19
HETATM   19  O1  UNL     1       3.690   1.042   0.358  1.00  0.00    -0.275 OA
HETATM   20  C1  UNL     1       4.938   1.173   0.973  1.00  0.00     0.238 C 
ENDBRANCH  17  19
ENDBRANCH  14  17
ENDBRANCH   1  14
TORSDOF 3
