REMARK  4 active torsions:
REMARK  status: ('A' for Active; 'I' for Inactive)
REMARK       I    between atoms: C1_2  and  N1_3 
REMARK    1  A    between atoms: C1_2  and  C11_15 
REMARK    2  A    between atoms: N1_3  and  C2_5 
REMARK    3  A    between atoms: N2_8  and  C5_9 
REMARK    4  A    between atoms: C5_9  and  C6_10 
REMARK       I    between atoms: N3_16  and  C12_17 
REMARK       I    between atoms: C12_17  and  N4_19 
ROOT
HETATM    1  C11 UNL     1      -1.308  -1.814  -0.440  1.00  0.00     0.253 C 
HETATM    2  N3  UNL     1      -2.672  -1.239  -0.405  1.00  0.00    -0.314 N 
HETATM    3  C12 UNL     1      -3.132  -0.010   0.057  1.00  0.00     0.321 C 
HETATM    4  O2  UNL     1      -2.258   0.858   0.464  1.00  0.00    -0.247 OA
HETATM    5  N4  UNL     1      -4.479   0.425   0.142  1.00  0.00    -0.329 N 
HETATM    6  C13 UNL     1      -5.695  -0.259  -0.212  1.00  0.00     0.132 C 
HETATM    7  C14 UNL     1      -6.792   0.619   0.353  1.00  0.00     0.006 C 
HETATM    8  C15 UNL     1      -6.894   1.801  -0.593  1.00  0.00     0.008 C 
HETATM    9  C16 UNL     1      -5.533   2.490  -0.440  1.00  0.00     0.026 C 
HETATM   10  C17 UNL     1      -4.876   1.747   0.662  1.00  0.00     0.089 C 
HETATM   11  C18 UNL     1      -6.064   1.290   1.500  1.00  0.00     0.031 C 
HETATM   12  C19 UNL     1      -3.388  -2.334  -1.107  1.00  0.00     0.135 C 
HETATM   13  C20 UNL     1      -2.472  -2.493  -2.350  1.00  0.00     0.101 C 
HETATM   14  C21 UNL     1      -1.108  -1.914  -1.907  1.00  0.00     0.274 C 
HETATM   15  F1  UNL     1      -0.110  -2.797  -2.298  1.00  0.00    -0.203 F 
HETATM   16  F2  UNL     1      -0.880  -0.697  -2.486  1.00  0.00    -0.203 F 
ENDROOT
BRANCH   1  17
HETATM   17  C1  UNL     1      -0.311  -1.216   0.393  1.00  0.00     0.247 C 
HETATM   18  O1  UNL     1      -0.512  -0.749   1.565  1.00  0.00    -0.271 OA
HETATM   19  N1  UNL     1       1.041  -1.091  -0.042  1.00  0.00    -0.354 N 
ATOM     20  H1  UNL     1       1.293  -1.437  -0.968  1.00  0.00     0.162 HD
BRANCH  19  21
HETATM   21  C2  UNL     1       2.088  -0.480   0.798  1.00  0.00     0.087 C 
HETATM   22  C3  UNL     1       3.054  -1.587   1.119  1.00  0.00     0.055 C 
HETATM   23  C4  UNL     1       4.391  -1.397   0.439  1.00  0.00     0.274 C 
HETATM   24  N2  UNL     1       4.883  -0.104   0.826  1.00  0.00     0.088 N 
HETATM   25  C9  UNL     1       4.100   0.934   0.249  1.00  0.00     0.274 C 
HETATM   26  C10 UNL     1       2.665   0.655   0.049  1.00  0.00     0.055 C 
BRANCH  24  27
HETATM   27  C5  UNL     1       6.246   0.006   0.343  1.00  0.00     0.277 C 
BRANCH  27  28
HETATM   28  C6  UNL     1       6.863   1.340   0.701  1.00  0.00     0.014 A 
HETATM   29  C7  UNL     1       8.307   1.466   0.193  1.00  0.00     0.007 A 
HETATM   30  C8  UNL     1       7.216   2.329  -0.321  1.00  0.00     0.007 A 
ENDBRANCH  27  28
ENDBRANCH  24  27
ENDBRANCH  19  21
ENDBRANCH   1  17
TORSDOF 4
