REMARK  6 active torsions:
REMARK  status: ('A' for Active; 'I' for Inactive)
REMARK    1  A    between atoms: C2_2  and  S1_3 
REMARK    2  A    between atoms: S1_3  and  N1_4 
REMARK    3  A    between atoms: S1_3  and  N2_8 
REMARK    4  A    between atoms: C3_10  and  N3_11 
REMARK    5  A    between atoms: C3_10  and  C9_18 
REMARK    6  A    between atoms: N3_11  and  C4_13 
ROOT
HETATM    1  N2  UNL     1       0.728   0.285  -1.136  1.00  0.00    -0.290 N 
ATOM      2  H2  UNL     1       0.101   0.996  -1.512  1.00  0.00     0.178 HD
HETATM    3  C3  UNL     1       0.165  -0.751  -0.623  1.00  0.00     0.092 C 
ENDROOT
BRANCH   3   4
HETATM    4  N3  UNL     1      -1.271  -0.719  -0.674  1.00  0.00    -0.374 N 
ATOM      5  H3  UNL     1      -1.768  -1.569  -0.941  1.00  0.00     0.161 HD
BRANCH   4   6
HETATM    6  C4  UNL     1      -2.036   0.451  -0.367  1.00  0.00     0.082 C 
HETATM    7  C5  UNL     1      -1.839   0.981   1.016  1.00  0.00     0.025 C 
HETATM    8  C6  UNL     1      -3.178   1.473   1.510  1.00  0.00     0.002 C 
HETATM    9  C7  UNL     1      -4.202   1.110   0.490  1.00  0.00     0.002 C 
HETATM   10  C8  UNL     1      -3.510   0.115  -0.382  1.00  0.00     0.025 C 
ENDBRANCH   4   6
ENDBRANCH   3   4
BRANCH   3  11
HETATM   11  C9  UNL     1       0.920  -1.859  -0.042  1.00  0.00     0.086 A 
HETATM   12  C10 UNL     1       0.672  -3.197  -0.731  1.00  0.00     0.048 A 
HETATM   13  C11 UNL     1       0.388  -2.969   0.712  1.00  0.00     0.087 A 
HETATM   14 BR1  UNL     1       1.628  -3.969   1.860  1.00  0.00    -0.072 Br
HETATM   15 BR2  UNL     1      -1.391  -3.067   1.404  1.00  0.00    -0.072 Br
ENDBRANCH   3  11
BRANCH   1  16
HETATM   16  S1  UNL     1       2.385   0.611  -1.262  1.00  0.00     0.105 S 
HETATM   17  O1  UNL     1       3.216  -0.583  -1.675  1.00  0.00    -0.229 OA
BRANCH  16  18
HETATM   18  C2  UNL     1       3.048   1.172   0.291  1.00  0.00     0.135 C 
HETATM   19  C1  UNL     1       4.508   1.468   0.216  1.00  0.00     0.021 C 
ENDBRANCH  16  18
BRANCH  16  20
HETATM   20  N1  UNL     1       2.684   1.699  -2.362  1.00  0.00    -0.345 N 
ATOM     21  H12 UNL     1       3.178   2.576  -2.195  1.00  0.00     0.167 HD
ATOM     22  H11 UNL     1       2.304   1.377  -3.252  1.00  0.00     0.167 HD
ENDBRANCH  16  20
ENDBRANCH   1  16
TORSDOF 6
