REMARK  5 active torsions:
REMARK  status: ('A' for Active; 'I' for Inactive)
REMARK    1  A    between atoms: N1_1  and  S1_4 
REMARK    2  A    between atoms: S1_4  and  N2_7 
REMARK    3  A    between atoms: N2_7  and  C1_9 
REMARK    4  A    between atoms: C8_16  and  C9_17 
REMARK       I    between atoms: C9_17  and  N3_19 
REMARK    5  A    between atoms: N3_19  and  C10_21 
ROOT
HETATM    1  C1  UNL     1      -4.559  -0.712   0.269  1.00  0.00     0.186 C 
HETATM    2  C2  UNL     1      -4.582  -1.458   1.580  1.00  0.00     0.035 C 
HETATM    3  C3  UNL     1      -3.491  -1.059   2.522  1.00  0.00     0.004 C 
HETATM    4  C4  UNL     1      -3.222   0.424   2.449  1.00  0.00     0.025 C 
HETATM    5  C5  UNL     1      -1.895   0.599   1.733  1.00  0.00     0.088 C 
HETATM    6  C6  UNL     1      -1.372   1.995   1.757  1.00  0.00     0.028 C 
HETATM    7  C7  UNL     1      -0.942   2.311   0.348  1.00  0.00     0.037 C 
HETATM    8  C8  UNL     1      -1.117   0.992  -0.412  1.00  0.00     0.179 C 
HETATM    9  N4  UNL     1      -2.143   0.286   0.324  1.00  0.00    -0.332 N 
HETATM   10  C19 UNL     1      -3.169  -0.534  -0.240  1.00  0.00     0.244 C 
HETATM   11  O4  UNL     1      -2.796  -1.139  -1.266  1.00  0.00    -0.271 OA
ENDROOT
BRANCH   8  12
HETATM   12  C9  UNL     1       0.201   0.322  -0.344  1.00  0.00     0.241 C 
HETATM   13  O3  UNL     1       0.304  -0.720   0.359  1.00  0.00    -0.271 OA
HETATM   14  N3  UNL     1       1.283   0.868  -1.060  1.00  0.00    -0.355 N 
ATOM     15  H3  UNL     1       1.116   1.713  -1.606  1.00  0.00     0.162 HD
BRANCH  14  16
HETATM   16  C10 UNL     1       2.632   0.300  -1.071  1.00  0.00     0.084 C 
HETATM   17  C11 UNL     1       3.593   1.270  -0.524  1.00  0.00     0.025 C 
HETATM   18  C12 UNL     1       4.179   0.981   0.814  1.00  0.00     0.002 C 
HETATM   19  C13 UNL     1       4.788  -0.361   1.015  1.00  0.00     0.000 C 
HETATM   20  C14 UNL     1       6.089  -0.600   0.343  1.00  0.00     0.000 C 
HETATM   21  C15 UNL     1       6.101  -0.749  -1.129  1.00  0.00     0.000 C 
HETATM   22  C16 UNL     1       4.922  -1.443  -1.719  1.00  0.00     0.000 C 
HETATM   23  C17 UNL     1       4.256  -0.610  -2.815  1.00  0.00     0.002 C 
HETATM   24  C18 UNL     1       2.890  -0.224  -2.440  1.00  0.00     0.025 C 
ENDBRANCH  14  16
ENDBRANCH   8  12
BRANCH   1  25
HETATM   25  N2  UNL     1      -5.326  -1.475  -0.695  1.00  0.00    -0.289 N 
ATOM     26  H2  UNL     1      -5.091  -2.423  -0.989  1.00  0.00     0.174 HD
BRANCH  25  27
HETATM   27  S1  UNL     1      -6.678  -0.593  -1.283  1.00  0.00     0.313 S 
HETATM   28  O1  UNL     1      -6.984  -1.043  -2.692  1.00  0.00    -0.183 OA
HETATM   29  O2  UNL     1      -6.415   0.884  -1.351  1.00  0.00    -0.183 OA
BRANCH  27  30
HETATM   30  N1  UNL     1      -8.079  -0.834  -0.302  1.00  0.00    -0.312 N 
ATOM     31  H12 UNL     1      -8.963  -1.219  -0.635  1.00  0.00     0.170 HD
ATOM     32  H11 UNL     1      -7.872  -0.530   0.650  1.00  0.00     0.170 HD
ENDBRANCH  27  30
ENDBRANCH  25  27
ENDBRANCH   1  25
TORSDOF 5
