REMARK  5 active torsions:
REMARK  status: ('A' for Active; 'I' for Inactive)
REMARK    1  A    between atoms: O1_2  and  C2_3 
REMARK    2  A    between atoms: C2_3  and  C3_5 
REMARK    3  A    between atoms: C3_5  and  C4_6 
REMARK    4  A    between atoms: C5_7  and  C6_8 
REMARK       I    between atoms: C6_8  and  N1_10 
REMARK    5  A    between atoms: N1_10  and  C7_12 
ROOT
HETATM    1  C3  UNL     1      -1.813  -1.160   0.027  1.00  0.00     0.397 A 
HETATM    2  N2  UNL     1      -2.648  -0.979  -1.146  1.00  0.00     0.026 N 
ATOM      3  H21 UNL     1      -3.298  -1.709  -1.438  1.00  0.00     0.285 HD
ATOM      4  H22 UNL     1      -2.239  -0.987  -2.080  1.00  0.00     0.285 HD
HETATM    5  C11 UNL     1      -3.130   0.239  -0.573  1.00  0.00     0.452 A 
HETATM    6  N3  UNL     1      -2.342   0.034   0.618  1.00  0.00     0.026 N 
ATOM      7  H31 UNL     1      -1.717   0.765   0.957  1.00  0.00     0.285 HD
ATOM      8  H32 UNL     1      -2.788   0.004   1.535  1.00  0.00     0.285 HD
HETATM    9  C12 UNL     1      -2.736   1.444  -1.343  1.00  0.00     0.301 C 
HETATM   10  O4  UNL     1      -1.850   1.382  -2.232  1.00  0.00    -0.268 OA
HETATM   11  N4  UNL     1      -3.395   2.666  -1.040  1.00  0.00    -0.275 N 
ATOM     12  H4  UNL     1      -2.953   3.551  -1.290  1.00  0.00     0.173 HD
HETATM   13  C13 UNL     1      -4.666   2.674  -0.392  1.00  0.00     0.329 C 
HETATM   14  O5  UNL     1      -5.238   3.747  -0.129  1.00  0.00    -0.247 OA
HETATM   15  N5  UNL     1      -5.250   1.411  -0.059  1.00  0.00    -0.275 N 
ATOM     16  H5  UNL     1      -6.158   1.393   0.406  1.00  0.00     0.173 HD
HETATM   17  C14 UNL     1      -4.602   0.179  -0.357  1.00  0.00     0.301 C 
HETATM   18  O6  UNL     1      -5.261  -0.897  -0.428  1.00  0.00    -0.268 OA
ENDROOT
BRANCH   1  19
HETATM   19  C2  UNL     1      -2.101  -2.420   0.781  1.00  0.00     0.328 C 
HETATM   20  O2  UNL     1      -2.965  -3.245   0.452  1.00  0.00    -0.260 OA
BRANCH  19  21
HETATM   21  O1  UNL     1      -1.339  -2.658   1.916  1.00  0.00    -0.323 OA
HETATM   22  C1  UNL     1      -1.536  -3.838   2.710  1.00  0.00     0.213 C 
ENDBRANCH  19  21
ENDBRANCH   1  19
BRANCH   1  23
HETATM   23  C4  UNL     1      -0.377  -1.099  -0.353  1.00  0.00     0.058 C 
HETATM   24  C5  UNL     1       0.436  -0.183   0.144  1.00  0.00     0.075 C 
BRANCH  24  25
HETATM   25  C6  UNL     1       1.826  -0.149  -0.244  1.00  0.00     0.241 C 
HETATM   26  O3  UNL     1       2.263  -0.989  -1.053  1.00  0.00    -0.269 OA
HETATM   27  N1  UNL     1       2.698   0.826   0.283  1.00  0.00    -0.350 N 
ATOM     28  H1  UNL     1       2.340   1.514   0.946  1.00  0.00     0.163 HD
BRANCH  27  29
HETATM   29  C7  UNL     1       4.095   0.866  -0.103  1.00  0.00     0.022 C 
HETATM   30  C8  UNL     1       4.819   1.995   0.594  1.00  0.00     0.037 C 
HETATM   31  C9  UNL     1       4.715  -0.439   0.392  1.00  0.00     0.037 C 
HETATM   32  C10 UNL     1       4.269   1.018  -1.591  1.00  0.00     0.037 C 
ENDBRANCH  27  29
ENDBRANCH  24  25
ENDBRANCH   1  23
TORSDOF 5
