REMARK  6 active torsions:
REMARK  status: ('A' for Active; 'I' for Inactive)
REMARK    1  A    between atoms: N1_2  and  C2_4 
REMARK    2  A    between atoms: C2_4  and  C4_6 
REMARK       I    between atoms: C4_6  and  N2_8 
REMARK    3  A    between atoms: C12_22  and  C13_23 
REMARK    4  A    between atoms: C12_22  and  C14_26 
REMARK    5  A    between atoms: C13_23  and  O2_24 
REMARK    6  A    between atoms: C14_26  and  O4_28 
ROOT
HETATM    1  C4  UNL     1      -2.673  -0.598   0.331  1.00  0.00     0.245 C 
HETATM    2  O1  UNL     1      -3.397   0.321   0.705  1.00  0.00    -0.271 OA
HETATM    3  N2  UNL     1      -1.230  -0.413   0.414  1.00  0.00    -0.326 N 
HETATM    4  C5  UNL     1      -0.538  -1.622   0.050  1.00  0.00     0.150 C 
HETATM    5  C6  UNL     1       0.896  -1.536   0.390  1.00  0.00     0.139 C 
HETATM    6  N3  UNL     1       1.557  -2.709   0.889  1.00  0.00    -0.400 N 
ATOM      7  H3  UNL     1       1.241  -3.185   1.734  1.00  0.00     0.158 HD
HETATM    8  C7  UNL     1       2.657  -3.165   0.156  1.00  0.00     0.060 C 
HETATM    9  C8  UNL     1       3.346  -2.334  -0.856  1.00  0.00     0.088 C 
HETATM   10  C9  UNL     1       4.265  -1.280  -0.403  1.00  0.00     0.060 C 
HETATM   11  N4  UNL     1       4.045   0.062  -0.591  1.00  0.00    -0.400 N 
ATOM     12  H4  UNL     1       4.506   0.678   0.078  1.00  0.00     0.158 HD
HETATM   13  C10 UNL     1       3.290   0.697  -1.555  1.00  0.00     0.138 C 
HETATM   14  C11 UNL     1       2.348   1.725  -0.877  1.00  0.00     0.135 C 
HETATM   15  N5  UNL     1       0.981   1.423  -0.976  1.00  0.00    -0.397 N 
ATOM     16  H5  UNL     1       0.664   0.916  -1.802  1.00  0.00     0.154 HD
HETATM   17  C12 UNL     1       0.035   1.767  -0.027  1.00  0.00     0.169 C 
HETATM   18  C16 UNL     1      -0.668   0.790   0.812  1.00  0.00     0.110 C 
ENDROOT
BRANCH   1  19
HETATM   19  C2  UNL     1      -3.325  -1.817  -0.171  1.00  0.00     0.165 C 
HETATM   20  C3  UNL     1      -3.588  -1.551  -1.670  1.00  0.00     0.042 C 
BRANCH  19  21
HETATM   21  N1  UNL     1      -4.614  -2.074   0.418  1.00  0.00    -0.414 N 
HETATM   22  C1  UNL     1      -5.553  -0.996   0.394  1.00  0.00     0.140 C 
ATOM     23  H1  UNL     1      -4.845  -2.978   0.831  1.00  0.00     0.153 HD
ENDBRANCH  19  21
ENDBRANCH   1  19
BRANCH  17  24
HETATM   24  C13 UNL     1      -1.028   2.602  -0.836  1.00  0.00     0.211 C 
BRANCH  24  25
HETATM   25  O2  UNL     1      -1.996   3.099  -0.016  1.00  0.00    -0.398 OA
ATOM     26  H2  UNL     1      -2.637   3.603  -0.504  1.00  0.00     0.209 HD
ENDBRANCH  24  25
ENDBRANCH  17  24
BRANCH  17  27
HETATM   27  C14 UNL     1       0.540   2.835   0.901  1.00  0.00     0.294 C 
HETATM   28  O3  UNL     1       1.412   3.628   0.520  1.00  0.00    -0.262 OA
BRANCH  27  29
HETATM   29  O4  UNL     1       0.058   2.970   2.200  1.00  0.00    -0.324 OA
HETATM   30  C15 UNL     1       0.565   3.996   3.067  1.00  0.00     0.213 C 
ENDBRANCH  27  29
ENDBRANCH  17  27
TORSDOF 6
