REMARK  8 active torsions:
REMARK  status: ('A' for Active; 'I' for Inactive)
REMARK    1  A    between atoms: C4_4  and  C5_5 
REMARK    2  A    between atoms: C5_5  and  O1_6 
REMARK    3  A    between atoms: C9_12  and  O3_13 
REMARK    4  A    between atoms: C11_16  and  C12_17 
REMARK    5  A    between atoms: C12_17  and  C13_18 
REMARK    6  A    between atoms: C15_22  and  O6_23 
REMARK    7  A    between atoms: C16_25  and  O7_26 
REMARK    8  A    between atoms: C17_28  and  O8_29 
ROOT
HETATM    1  C1  UNL     1      -3.917   2.280   0.877  1.00  0.00     0.012 C 
HETATM    2  C2  UNL     1      -2.960   1.393   0.060  1.00  0.00     0.014 C 
HETATM    3  C3  UNL     1      -1.700   1.198   0.839  1.00  0.00     0.021 C 
HETATM    4  C4  UNL     1      -0.947  -0.070   0.514  1.00  0.00     0.018 C 
HETATM    5  C6  UNL     1      -1.505  -0.462  -0.815  1.00  0.00     0.164 C 
HETATM    6  O2  UNL     1      -0.477  -1.166  -1.387  1.00  0.00    -0.373 OA
HETATM    7  C7  UNL     1       0.475  -0.104  -1.344  1.00  0.00     0.166 C 
HETATM    8  C8  UNL     1       0.504   0.088   0.193  1.00  0.00     0.060 C 
HETATM    9  C9  UNL     1       1.399  -1.052   0.499  1.00  0.00     0.135 C 
HETATM   10  C10 UNL     1       2.500  -1.038  -0.501  1.00  0.00     0.083 C 
HETATM   11  C11 UNL     1       3.621  -0.148  -0.361  1.00  0.00     0.137 C 
HETATM   12  O5  UNL     1       3.499   0.899  -1.309  1.00  0.00    -0.382 OA
HETATM   13  C14 UNL     1       2.722   0.403  -2.334  1.00  0.00     0.209 C 
HETATM   14  C15 UNL     1       1.793  -0.621  -1.748  1.00  0.00     0.114 C 
HETATM   15  C16 UNL     1      -2.873  -0.959  -0.858  1.00  0.00     0.177 C 
HETATM   16  C17 UNL     1      -3.738   0.205  -0.352  1.00  0.00     0.153 C 
ENDROOT
BRANCH   4  17
HETATM   17  C5  UNL     1      -1.193  -1.003   1.637  1.00  0.00     0.176 C 
BRANCH  17  18
HETATM   18  O1  UNL     1      -0.721  -0.415   2.829  1.00  0.00    -0.400 OA
ATOM     19  H1  UNL     1      -0.879  -1.014   3.550  1.00  0.00     0.209 HD
ENDBRANCH  17  18
ENDBRANCH   4  17
BRANCH  15  20
HETATM   20  O7  UNL     1      -3.151  -2.144  -0.213  1.00  0.00    -0.390 OA
ATOM     21  H7  UNL     1      -4.044  -2.468  -0.241  1.00  0.00     0.210 HD
ENDBRANCH  15  20
BRANCH   9  22
HETATM   22  O3  UNL     1       1.815  -1.229   1.793  1.00  0.00    -0.394 OA
ATOM     23  H3  UNL     1       2.389  -1.960   1.989  1.00  0.00     0.210 HD
ENDBRANCH   9  22
BRANCH  16  24
HETATM   24  O8  UNL     1      -4.696  -0.220   0.564  1.00  0.00    -0.393 OA
ATOM     25  H8  UNL     1      -5.196  -0.983   0.299  1.00  0.00     0.210 HD
ENDBRANCH  16  24
BRANCH  14  26
HETATM   26  O6  UNL     1       1.610  -1.683  -2.652  1.00  0.00    -0.384 OA
ATOM     27  H6  UNL     1       2.460  -2.017  -2.913  1.00  0.00     0.210 HD
ENDBRANCH  14  26
BRANCH  11  28
HETATM   28  C12 UNL     1       3.929   0.499   0.922  1.00  0.00     0.102 C 
BRANCH  28  29
HETATM   29  C13 UNL     1       5.157   1.370   0.756  1.00  0.00     0.233 C 
HETATM   30  O4  UNL     1       5.617   2.014   1.675  1.00  0.00    -0.307 OA
ENDBRANCH  28  29
ENDBRANCH  11  28
TORSDOF 8
