REMARK  5 active torsions:
REMARK  status: ('A' for Active; 'I' for Inactive)
REMARK    1  A    between atoms: C4_7  and  C5_8 
REMARK    2  A    between atoms: C5_8  and  C6_9 
REMARK    3  A    between atoms: N3_14  and  C11_15 
REMARK    4  A    between atoms: C11_15  and  C12_16 
REMARK    5  A    between atoms: C18_24  and  N5_25 
ROOT
HETATM    1  N1  UNL     1      -7.772  -1.197  -1.146  1.00  0.00    -0.191 NA
HETATM    2  C1  UNL     1      -6.677  -0.989  -0.768  1.00  0.00     0.104 C 
HETATM    3  C2  UNL     1      -5.350  -0.721  -0.290  1.00  0.00     0.103 A 
HETATM    4  C3  UNL     1      -5.127   0.136   0.780  1.00  0.00     0.116 A 
HETATM    5  N2  UNL     1      -3.897   0.397   1.238  1.00  0.00    -0.354 N 
ATOM      6  H2  UNL     1      -3.774   1.032   2.027  1.00  0.00     0.166 HD
HETATM    7  C4  UNL     1      -2.802  -0.184   0.653  1.00  0.00     0.084 A 
HETATM    8  N4  UNL     1      -3.023  -0.995  -0.362  1.00  0.00    -0.331 N 
ATOM      9  H4  UNL     1      -2.212  -1.430  -0.802  1.00  0.00     0.168 HD
HETATM   10  C18 UNL     1      -4.238  -1.295  -0.865  1.00  0.00     0.122 A 
ENDROOT
BRANCH  10  11
HETATM   11  N5  UNL     1      -4.379  -2.104  -1.877  1.00  0.00    -0.384 N 
ATOM     12  H52 UNL     1      -5.298  -2.331  -2.257  1.00  0.00     0.157 HD
ATOM     13  H51 UNL     1      -3.555  -2.529  -2.303  1.00  0.00     0.157 HD
ENDBRANCH  10  11
BRANCH   7  14
HETATM   14  C5  UNL     1      -1.444   0.141   1.131  1.00  0.00     0.112 C 
BRANCH  14  15
HETATM   15  C6  UNL     1      -0.341  -0.707   0.610  1.00  0.00     0.230 C 
HETATM   16  C7  UNL     1      -0.412  -2.161   0.969  1.00  0.00     0.036 C 
HETATM   17  C8  UNL     1       0.024  -2.448   2.399  1.00  0.00     0.004 C 
HETATM   18  C9  UNL     1       1.338  -1.823   2.748  1.00  0.00     0.030 C 
HETATM   19  C10 UNL     1       1.216  -0.326   2.421  1.00  0.00     0.273 C 
HETATM   20  N3  UNL     1       0.944  -0.201   1.028  1.00  0.00     0.093 N 
BRANCH  20  21
HETATM   21  C11 UNL     1       1.292   1.079   0.472  1.00  0.00     0.277 C 
BRANCH  21  22
HETATM   22  C12 UNL     1       1.547   1.071  -1.005  1.00  0.00     0.014 C 
HETATM   23  C13 UNL     1       1.891   2.511  -1.392  1.00  0.00     0.006 C 
HETATM   24  C14 UNL     1       3.366   2.757  -1.184  1.00  0.00     0.000 C 
HETATM   25  C15 UNL     1       4.082   2.127  -2.371  1.00  0.00     0.000 C 
HETATM   26  C16 UNL     1       3.358   0.833  -2.677  1.00  0.00     0.000 C 
HETATM   27  C17 UNL     1       2.753   0.242  -1.397  1.00  0.00     0.006 C 
ENDBRANCH  21  22
ENDBRANCH  20  21
ENDBRANCH  14  15
ENDBRANCH   7  14
TORSDOF 5
