REMARK  11 active torsions:
REMARK  status: ('A' for Active; 'I' for Inactive)
REMARK    1  A    between atoms: C2_2  and  C3_3 
REMARK    2  A    between atoms: C3_3  and  O1_4 
REMARK    3  A    between atoms: C11_15  and  O4_17 
REMARK    4  A    between atoms: C13_19  and  C14_20 
REMARK    5  A    between atoms: C14_20  and  C15_21 
REMARK    6  A    between atoms: C15_21  and  C16_22 
REMARK    7  A    between atoms: C17_23  and  C19_25 
REMARK    8  A    between atoms: C19_25  and  C20_26 
REMARK    9  A    between atoms: C20_26  and  C21_27 
REMARK   10  A    between atoms: C25_31  and  C26_32 
REMARK   11  A    between atoms: C26_32  and  C27_33 
ROOT
HETATM    1  C3  UNL     1      -5.092  -1.693   0.777  1.00  0.00     0.144 C 
HETATM    2  C4  UNL     1      -5.415  -2.758   1.707  1.00  0.00     0.163 C 
HETATM    3  O2  UNL     1      -6.520  -3.215   1.801  1.00  0.00    -0.295 OA
HETATM    4  C5  UNL     1      -4.321  -3.272   2.551  1.00  0.00     0.083 C 
HETATM    5  C6  UNL     1      -3.249  -3.742   1.618  1.00  0.00     0.020 C 
HETATM    6  C7  UNL     1      -2.770  -2.733   0.643  1.00  0.00    -0.001 C 
HETATM    7  C8  UNL     1      -2.161  -3.534  -0.513  1.00  0.00     0.019 C 
HETATM    8  C9  UNL     1      -1.773  -1.787   1.272  1.00  0.00     0.099 C 
HETATM    9  C10 UNL     1      -0.406  -2.267   1.364  1.00  0.00     0.168 C 
HETATM   10  O3  UNL     1      -0.159  -3.433   1.535  1.00  0.00    -0.294 OA
HETATM   11  C11 UNL     1       0.660  -1.225   1.233  1.00  0.00     0.119 C 
HETATM   12  C12 UNL     1       1.967  -1.939   1.287  1.00  0.00     0.055 C 
HETATM   13  C13 UNL     1       0.461  -0.613  -0.134  1.00  0.00     0.034 C 
HETATM   14  C25 UNL     1      -0.898  -0.094  -0.440  1.00  0.00     0.023 C 
HETATM   15  C33 UNL     1      -1.952  -0.497   0.562  1.00  0.00     0.139 C 
HETATM   16  O5  UNL     1      -3.222  -0.520   0.074  1.00  0.00    -0.375 OA
HETATM   17  C34 UNL     1      -3.766  -1.781   0.104  1.00  0.00     0.172 C 
ENDROOT
BRANCH  13  18
HETATM   18  C14 UNL     1       1.631   0.081  -0.690  1.00  0.00     0.012 C 
BRANCH  18  19
HETATM   19  C15 UNL     1       2.266   1.209   0.011  1.00  0.00     0.028 C 
BRANCH  19  20
HETATM   20  C16 UNL     1       3.448   1.763  -0.746  1.00  0.00    -0.024 C 
HETATM   21  C17 UNL     1       4.681   1.809  -0.245  1.00  0.00    -0.087 C 
HETATM   22  C18 UNL     1       5.038   1.333   1.090  1.00  0.00     0.043 C 
BRANCH  21  23
HETATM   23  C19 UNL     1       5.714   2.417  -1.102  1.00  0.00     0.037 C 
BRANCH  23  24
HETATM   24  C20 UNL     1       6.825   1.499  -1.499  1.00  0.00     0.031 C 
BRANCH  24  25
HETATM   25  C21 UNL     1       7.634   0.929  -0.415  1.00  0.00    -0.024 C 
HETATM   26  C22 UNL     1       7.758  -0.369  -0.278  1.00  0.00    -0.091 C 
HETATM   27  C23 UNL     1       8.576  -0.977   0.820  1.00  0.00     0.042 C 
HETATM   28  C24 UNL     1       7.081  -1.304  -1.220  1.00  0.00     0.042 C 
ENDBRANCH  24  25
ENDBRANCH  23  24
ENDBRANCH  21  23
ENDBRANCH  19  20
ENDBRANCH  18  19
ENDBRANCH  13  18
BRANCH  11  29
HETATM   29  O4  UNL     1       0.454  -0.348   2.276  1.00  0.00    -0.382 OA
ATOM     30  H4  UNL     1       1.131   0.314   2.193  1.00  0.00     0.211 HD
ENDBRANCH  11  29
BRANCH  14  31
HETATM   31  C26 UNL     1      -0.980   1.401  -0.576  1.00  0.00     0.012 C 
BRANCH  31  32
HETATM   32  C27 UNL     1      -2.266   2.030  -0.919  1.00  0.00    -0.014 C 
HETATM   33  C28 UNL     1      -1.993   3.548  -0.935  1.00  0.00     0.005 C 
HETATM   34  C29 UNL     1      -2.481   4.239  -2.155  1.00  0.00     0.000 C 
HETATM   35  C30 UNL     1      -3.968   3.968  -2.275  1.00  0.00     0.000 C 
HETATM   36  C31 UNL     1      -4.130   2.492  -2.407  1.00  0.00     0.000 C 
HETATM   37  C32 UNL     1      -2.829   1.727  -2.270  1.00  0.00     0.005 C 
ENDBRANCH  31  32
ENDBRANCH  14  31
BRANCH   1  38
HETATM   38  C2  UNL     1      -5.199  -0.375   1.562  1.00  0.00     0.044 C 
HETATM   39  C1  UNL     1      -6.555  -0.283   2.234  1.00  0.00     0.009 C 
ENDBRANCH   1  38
BRANCH   1  40
HETATM   40  O1  UNL     1      -6.149  -1.605  -0.162  1.00  0.00    -0.379 OA
ATOM     41  H1  UNL     1      -6.083  -2.419  -0.647  1.00  0.00     0.211 HD
ENDBRANCH   1  40
TORSDOF 11
