REMARK  12 active torsions:
REMARK  status: ('A' for Active; 'I' for Inactive)
REMARK    1  A    between atoms: C2_2  and  C3_3 
REMARK    2  A    between atoms: C3_3  and  C4_4 
REMARK    3  A    between atoms: C4_4  and  O1_6 
REMARK    4  A    between atoms: C4_4  and  C31_38 
REMARK    5  A    between atoms: O1_6  and  C6_7 
REMARK    6  A    between atoms: C6_7  and  C7_8 
REMARK    7  A    between atoms: C8_9  and  C9_10 
REMARK    8  A    between atoms: C9_10  and  C10_11 
REMARK    9  A    between atoms: C15_16  and  O2_17 
REMARK   10  A    between atoms: C23_26  and  O3_27 
REMARK   11  A    between atoms: C24_29  and  C26_31 
REMARK   12  A    between atoms: C28_34  and  O5_36 
ROOT
HETATM    1  C10 UNL     1      -1.303   0.885  -0.513  1.00  0.00     0.014 C 
HETATM    2  C11 UNL     1      -0.841   1.984   0.470  1.00  0.00     0.023 C 
HETATM    3  C12 UNL     1      -1.747  -0.220   0.283  1.00  0.00    -0.061 C 
HETATM    4  C13 UNL     1      -1.248  -0.234   1.763  1.00  0.00     0.038 C 
HETATM    5  C14 UNL     1      -1.190  -1.681   2.213  1.00  0.00     0.037 C 
HETATM    6  C15 UNL     1      -2.379  -2.509   1.953  1.00  0.00     0.130 C 
HETATM    7  C16 UNL     1      -2.979  -2.342   0.564  1.00  0.00     0.005 C 
HETATM    8  C17 UNL     1      -4.231  -3.071   0.372  1.00  0.00     0.022 C 
HETATM    9  C18 UNL     1      -1.970  -2.929  -0.395  1.00  0.00     0.022 C 
HETATM   10  C19 UNL     1      -3.061  -0.816   0.433  1.00  0.00    -0.048 C 
HETATM   11  C20 UNL     1      -4.270  -0.375   0.583  1.00  0.00    -0.012 C 
HETATM   12  C21 UNL     1      -4.855   0.972   0.676  1.00  0.00     0.034 C 
HETATM   13  C22 UNL     1      -6.198   0.789   1.441  1.00  0.00     0.017 C 
HETATM   14  C23 UNL     1      -5.229   1.505  -0.638  1.00  0.00     0.140 C 
HETATM   15  C24 UNL     1      -4.438   2.695  -1.100  1.00  0.00     0.038 C 
HETATM   16  C25 UNL     1      -4.989   3.869  -0.255  1.00  0.00     0.025 C 
HETATM   17  C27 UNL     1      -2.996   2.605  -0.706  1.00  0.00     0.057 C 
HETATM   18  C28 UNL     1      -2.196   1.592  -1.499  1.00  0.00     0.069 C 
HETATM   19  C29 UNL     1      -1.357   2.502  -2.416  1.00  0.00     0.047 C 
ENDROOT
BRANCH   1  20
HETATM   20  C9  UNL     1       0.006   0.552  -1.279  1.00  0.00     0.043 C 
BRANCH  20  21
HETATM   21  C8  UNL     1       1.099   0.059  -0.456  1.00  0.00    -0.027 C 
HETATM   22  C7  UNL     1       2.285   0.636  -0.327  1.00  0.00    -0.005 C 
BRANCH  22  23
HETATM   23  C6  UNL     1       3.389   0.100   0.530  1.00  0.00     0.196 C 
BRANCH  23  24
HETATM   24  O1  UNL     1       4.493  -0.171  -0.216  1.00  0.00    -0.376 OA
BRANCH  24  25
HETATM   25  C4  UNL     1       5.609  -0.648   0.495  1.00  0.00     0.067 C 
HETATM   26  C5  UNL     1       5.852   0.430   1.558  1.00  0.00     0.047 C 
BRANCH  25  27
HETATM   27  C3  UNL     1       5.330  -1.917   1.200  1.00  0.00     0.065 C 
BRANCH  27  28
HETATM   28  C2  UNL     1       6.389  -2.424   2.098  1.00  0.00    -0.034 C 
HETATM   29  C1  UNL     1       6.145  -2.514   3.422  1.00  0.00     0.007 C 
ENDBRANCH  27  28
ENDBRANCH  25  27
BRANCH  25  30
HETATM   30  C31 UNL     1       6.763  -0.630  -0.447  1.00  0.00    -0.020 C 
HETATM   31  C32 UNL     1       6.818   0.789  -1.043  1.00  0.00     0.017 C 
HETATM   32  C33 UNL     1       6.545  -1.553  -1.639  1.00  0.00     0.017 C 
HETATM   33  C34 UNL     1       8.105  -0.906   0.106  1.00  0.00     0.017 C 
ENDBRANCH  25  30
ENDBRANCH  24  25
ENDBRANCH  23  24
ENDBRANCH  22  23
ENDBRANCH  20  21
ENDBRANCH   1  20
BRANCH  18  34
HETATM   34  O5  UNL     1      -2.968   0.888  -2.303  1.00  0.00    -0.384 OA
HETATM   35  C30 UNL     1      -2.730   0.022  -3.230  1.00  0.00     0.202 C 
ENDBRANCH  18  34
BRANCH  15  36
HETATM   36  C26 UNL     1      -4.704   3.072  -2.483  1.00  0.00     0.243 C 
HETATM   37  O4  UNL     1      -4.758   4.239  -2.885  1.00  0.00    -0.306 OA
ENDBRANCH  15  36
BRANCH   6  38
HETATM   38  O2  UNL     1      -2.086  -3.824   2.214  1.00  0.00    -0.394 OA
ATOM     39  H2  UNL     1      -2.853  -4.358   2.046  1.00  0.00     0.210 HD
ENDBRANCH   6  38
BRANCH  14  40
HETATM   40  O3  UNL     1      -6.582   1.947  -0.667  1.00  0.00    -0.394 OA
ATOM     41  H3  UNL     1      -6.824   2.292  -1.518  1.00  0.00     0.210 HD
ENDBRANCH  14  40
TORSDOF 12
