REMARK  11 active torsions:
REMARK  status: ('A' for Active; 'I' for Inactive)
REMARK    1  A    between atoms: C2_2  and  O1_3 
REMARK    2  A    between atoms: O1_3  and  C3_4 
REMARK    3  A    between atoms: C5_7  and  O3_8 
REMARK    4  A    between atoms: O3_8  and  C6_9 
REMARK    5  A    between atoms: C20_23  and  C21_24 
REMARK    6  A    between atoms: C21_24  and  C23_26 
REMARK    7  A    between atoms: C23_26  and  C24_27 
REMARK    8  A    between atoms: C24_27  and  C25_28 
REMARK    9  A    between atoms: C25_28  and  C26_29 
REMARK   10  A    between atoms: C33_36  and  O4_37 
REMARK   11  A    between atoms: C34_39  and  O5_40 
ROOT
HETATM    1  C6  UNL     1       4.067   0.050   0.159  1.00  0.00     0.122 C 
HETATM    2  C7  UNL     1       3.473   0.718  -1.024  1.00  0.00     0.033 C 
HETATM    3  C8  UNL     1       2.069   0.335  -1.347  1.00  0.00     0.012 C 
HETATM    4  C9  UNL     1       1.226   0.578  -0.082  1.00  0.00    -0.036 C 
HETATM    5  C10 UNL     1       1.547   1.988   0.344  1.00  0.00     0.016 C 
HETATM    6  C11 UNL     1       1.710  -0.464   0.899  1.00  0.00    -0.004 C 
HETATM    7  C12 UNL     1       0.903  -0.571   2.146  1.00  0.00     0.006 C 
HETATM    8  C13 UNL     1      -0.517  -0.073   2.001  1.00  0.00     0.006 C 
HETATM    9  C14 UNL     1      -0.950  -0.427   0.587  1.00  0.00    -0.005 C 
HETATM   10  C15 UNL     1      -0.206   0.378  -0.451  1.00  0.00    -0.002 C 
HETATM   11  C16 UNL     1      -0.966   1.639  -0.710  1.00  0.00     0.006 C 
HETATM   12  C17 UNL     1      -2.331   1.198  -1.301  1.00  0.00     0.010 C 
HETATM   13  C18 UNL     1      -3.113   0.706  -0.153  1.00  0.00    -0.036 C 
HETATM   14  C19 UNL     1      -3.321   1.796   0.902  1.00  0.00     0.016 C 
HETATM   15  C20 UNL     1      -4.468   0.116  -0.404  1.00  0.00    -0.002 C 
HETATM   16  C29 UNL     1      -4.239  -1.323  -0.804  1.00  0.00     0.006 C 
HETATM   17  C30 UNL     1      -2.746  -1.587  -0.560  1.00  0.00     0.006 C 
HETATM   18  C31 UNL     1      -2.402  -0.487   0.435  1.00  0.00    -0.002 C 
HETATM   19  C32 UNL     1       3.138  -0.286   1.259  1.00  0.00     0.037 C 
ENDROOT
BRANCH   1  20
HETATM   20  O3  UNL     1       5.050   0.914   0.698  1.00  0.00    -0.376 OA
BRANCH  20  21
HETATM   21  C5  UNL     1       6.312   0.379   0.659  1.00  0.00     0.177 C 
HETATM   22  C4  UNL     1       7.219   1.357  -0.069  1.00  0.00     0.205 C 
HETATM   23  O2  UNL     1       8.370   1.646   0.663  1.00  0.00    -0.356 OA
HETATM   24  C3  UNL     1       9.045   0.503   1.074  1.00  0.00     0.290 C 
HETATM   25  C34 UNL     1       8.244  -0.136   2.181  1.00  0.00     0.204 C 
HETATM   26  C33 UNL     1       6.818   0.341   2.103  1.00  0.00     0.182 C 
BRANCH  24  27
HETATM   27  O1  UNL     1       9.318  -0.374   0.045  1.00  0.00    -0.359 OA
BRANCH  27  28
HETATM   28  C2  UNL     1      10.716  -0.529  -0.089  1.00  0.00     0.166 C 
HETATM   29  C1  UNL     1      11.056  -1.474  -1.197  1.00  0.00     0.033 C 
ENDBRANCH  27  28
ENDBRANCH  24  27
BRANCH  25  30
HETATM   30  O5  UNL     1       8.362  -1.516   2.050  1.00  0.00    -0.388 OA
ATOM     31  H5  UNL     1       7.858  -1.918   2.747  1.00  0.00     0.210 HD
ENDBRANCH  25  30
BRANCH  26  32
HETATM   32  O4  UNL     1       6.780   1.662   2.576  1.00  0.00    -0.390 OA
ATOM     33  H4  UNL     1       7.094   1.638   3.472  1.00  0.00     0.210 HD
ENDBRANCH  26  32
ENDBRANCH  20  21
ENDBRANCH   1  20
BRANCH  15  34
HETATM   34  C21 UNL     1      -5.416   0.878  -1.226  1.00  0.00    -0.014 C 
HETATM   35  C22 UNL     1      -5.025   1.144  -2.654  1.00  0.00     0.010 C 
BRANCH  34  36
HETATM   36  C23 UNL     1      -6.855   0.478  -1.197  1.00  0.00     0.005 C 
BRANCH  36  37
HETATM   37  C24 UNL     1      -7.215  -0.882  -1.632  1.00  0.00     0.001 C 
BRANCH  37  38
HETATM   38  C25 UNL     1      -8.736  -1.032  -1.568  1.00  0.00     0.004 C 
BRANCH  38  39
HETATM   39  C26 UNL     1      -9.289  -0.832  -0.182  1.00  0.00    -0.023 C 
HETATM   40  C27 UNL     1      -8.645  -1.869   0.711  1.00  0.00     0.009 C 
HETATM   41  C28 UNL     1     -10.791  -1.161  -0.185  1.00  0.00     0.009 C 
ENDBRANCH  38  39
ENDBRANCH  37  38
ENDBRANCH  36  37
ENDBRANCH  34  36
ENDBRANCH  15  34
TORSDOF 11
