REMARK  11 active torsions:
REMARK  status: ('A' for Active; 'I' for Inactive)
REMARK    1  A    between atoms: N1_2  and  C2_4 
REMARK    2  A    between atoms: C2_4  and  C4_6 
REMARK       I    between atoms: C4_6  and  N2_8 
REMARK    3  A    between atoms: N2_8  and  C5_10 
REMARK    4  A    between atoms: C5_10  and  C6_11 
REMARK    5  A    between atoms: C5_10  and  C23_35 
REMARK       I    between atoms: C6_11  and  N3_13 
REMARK    6  A    between atoms: N3_13  and  C7_15 
REMARK    7  A    between atoms: C7_15  and  C8_16 
REMARK    8  A    between atoms: C7_15  and  C12_20 
REMARK    9  A    between atoms: C8_16  and  C9_17 
REMARK       I    between atoms: C12_20  and  N4_22 
REMARK   10  A    between atoms: C16_26  and  O4_27 
REMARK   11  A    between atoms: C18_30  and  C19_31 
ROOT
HETATM    1  C7  UNL     1      -0.633  -1.296  -1.284  1.00  0.00     0.177 C 
ENDROOT
BRANCH   1   2
HETATM    2  N3  UNL     1       0.772  -0.727  -1.365  1.00  0.00    -0.346 N 
HETATM    3  C6  UNL     1       1.689  -0.868  -0.347  1.00  0.00     0.241 C 
HETATM    4  O2  UNL     1       1.281  -1.503   0.703  1.00  0.00    -0.271 OA
ATOM      5  H3  UNL     1       1.048  -0.220  -2.206  1.00  0.00     0.163 HD
BRANCH   3   6
HETATM    6  C5  UNL     1       3.081  -0.402  -0.251  1.00  0.00     0.180 C 
BRANCH   6   7
HETATM    7  N2  UNL     1       3.315   0.172   1.070  1.00  0.00    -0.346 N 
HETATM    8  C4  UNL     1       4.279  -0.369   1.967  1.00  0.00     0.240 C 
HETATM    9  O1  UNL     1       4.975  -1.367   1.675  1.00  0.00    -0.271 OA
ATOM     10  H2  UNL     1       2.772   0.985   1.359  1.00  0.00     0.163 HD
BRANCH   8  11
HETATM   11  C2  UNL     1       4.475   0.262   3.289  1.00  0.00     0.165 C 
HETATM   12  C3  UNL     1       4.657   1.764   3.167  1.00  0.00     0.042 C 
BRANCH  11  13
HETATM   13  N1  UNL     1       5.517  -0.268   4.092  1.00  0.00    -0.414 N 
HETATM   14  C1  UNL     1       6.851  -0.079   3.608  1.00  0.00     0.140 C 
ATOM     15  H1  UNL     1       5.326  -0.757   4.967  1.00  0.00     0.153 HD
ENDBRANCH  11  13
ENDBRANCH   8  11
ENDBRANCH   6   7
BRANCH   6  16
HETATM   16  C23 UNL     1       3.560   0.490  -1.342  1.00  0.00     0.009 C 
HETATM   17  C24 UNL     1       5.072   0.735  -1.126  1.00  0.00     0.012 C 
HETATM   18  C25 UNL     1       3.512  -0.306  -2.660  1.00  0.00     0.012 C 
ENDBRANCH   6  16
ENDBRANCH   3   6
ENDBRANCH   1   2
BRANCH   1  19
HETATM   19  C8  UNL     1      -0.772  -1.904  -2.630  1.00  0.00     0.038 C 
BRANCH  19  20
HETATM   20  C9  UNL     1      -1.984  -2.628  -3.027  1.00  0.00    -0.020 C 
HETATM   21  C10 UNL     1      -1.756  -3.039  -4.515  1.00  0.00     0.009 C 
HETATM   22  C11 UNL     1      -2.005  -3.980  -2.268  1.00  0.00     0.009 C 
ENDBRANCH  19  20
ENDBRANCH   1  19
BRANCH   1  23
HETATM   23  C12 UNL     1      -1.511  -0.078  -1.072  1.00  0.00     0.243 C 
HETATM   24  O3  UNL     1      -1.230   0.853  -1.850  1.00  0.00    -0.271 OA
HETATM   25  N4  UNL     1      -2.511   0.011  -0.120  1.00  0.00    -0.345 N 
HETATM   26  C13 UNL     1      -2.595  -1.275   0.634  1.00  0.00     0.126 C 
HETATM   27  C18 UNL     1      -3.349   1.092   0.186  1.00  0.00     0.097 C 
HETATM   28  C14 UNL     1      -3.815  -1.363   1.507  1.00  0.00     0.022 C 
HETATM   29  C15 UNL     1      -3.783  -0.446   2.684  1.00  0.00     0.033 C 
HETATM   30  C16 UNL     1      -2.691   0.598   2.568  1.00  0.00     0.120 C 
HETATM   31  C17 UNL     1      -3.102   1.662   1.599  1.00  0.00     0.057 C 
BRANCH  30  32
HETATM   32  O4  UNL     1      -2.645   1.232   3.834  1.00  0.00    -0.396 OA
ATOM     33  H4  UNL     1      -1.960   1.887   3.761  1.00  0.00     0.210 HD
ENDBRANCH  30  32
BRANCH  27  34
HETATM   34  C19 UNL     1      -3.520   2.280  -0.679  1.00  0.00    -0.031 C 
HETATM   35  C20 UNL     1      -3.999   2.060  -2.067  1.00  0.00     0.016 C 
HETATM   36  C21 UNL     1      -4.721   3.094  -0.034  1.00  0.00     0.016 C 
HETATM   37  C22 UNL     1      -2.431   3.315  -0.654  1.00  0.00     0.016 C 
ENDBRANCH  27  34
ENDBRANCH   1  23
TORSDOF 11
