REMARK  12 active torsions:
REMARK  status: ('A' for Active; 'I' for Inactive)
REMARK    1  A    between atoms: C2_2  and  C3_3 
REMARK    2  A    between atoms: C3_3  and  C5_5 
REMARK    3  A    between atoms: C5_5  and  O1_6 
REMARK    4  A    between atoms: C5_5  and  C6_8 
REMARK    5  A    between atoms: C6_8  and  O2_9 
REMARK    6  A    between atoms: C6_8  and  C7_11 
REMARK    7  A    between atoms: C7_11  and  C8_12 
REMARK    8  A    between atoms: C7_11  and  N1_15 
REMARK    9  A    between atoms: C8_12  and  O3_13 
REMARK       I    between atoms: N1_15  and  C9_17 
REMARK   10  A    between atoms: C9_17  and  C10_19 
REMARK   11  A    between atoms: C10_19  and  N2_21 
REMARK   12  A    between atoms: N3_25  and  C15_26 
ROOT
HETATM    1  C10 UNL     1       0.191   1.183   1.773  1.00  0.00     0.177 C 
HETATM    2  C11 UNL     1       0.691  -0.123   2.329  1.00  0.00     0.042 C 
ENDROOT
BRANCH   1   3
HETATM    3  C9  UNL     1       0.969   1.442   0.526  1.00  0.00     0.244 C 
HETATM    4  N1  UNL     1       2.375   1.406   0.487  1.00  0.00    -0.328 N 
ATOM      5  H1  UNL     1       2.862   1.191   1.357  1.00  0.00     0.168 HD
HETATM    6  O4  UNL     1       0.323   1.700  -0.516  1.00  0.00    -0.271 OA
BRANCH   4   7
HETATM    7  C7  UNL     1       3.177   1.646  -0.672  1.00  0.00     0.044 C 
BRANCH   7   8
HETATM    8  C6  UNL     1       3.926   0.495  -1.222  1.00  0.00     0.195 C 
BRANCH   8   9
HETATM    9  C5  UNL     1       4.922  -0.186  -0.379  1.00  0.00     0.156 C 
BRANCH   9  10
HETATM   10  C3  UNL     1       5.524  -1.392  -1.120  1.00  0.00     0.013 C 
HETATM   11  C4  UNL     1       6.410  -0.918  -2.243  1.00  0.00     0.012 C 
BRANCH  10  12
HETATM   12  C2  UNL     1       6.326  -2.228  -0.143  1.00  0.00     0.002 C 
HETATM   13  C1  UNL     1       5.399  -2.685   0.971  1.00  0.00     0.005 C 
ENDBRANCH  10  12
ENDBRANCH   9  10
BRANCH   9  14
HETATM   14  O1  UNL     1       5.968   0.517   0.121  1.00  0.00    -0.392 OA
ATOM     15  H1  UNL     1       5.596   1.262   0.579  1.00  0.00     0.210 HD
ENDBRANCH   9  14
ENDBRANCH   8   9
BRANCH   8  16
HETATM   16  O2  UNL     1       2.968  -0.502  -1.606  1.00  0.00    -0.387 OA
ATOM     17  H2  UNL     1       2.325  -0.062  -2.150  1.00  0.00     0.210 HD
ENDBRANCH   8  16
ENDBRANCH   7   8
BRANCH   7  18
HETATM   18  C8  UNL     1       3.964   2.928  -0.644  1.00  0.00     0.219 C 
BRANCH  18  19
HETATM   19  O3  UNL     1       4.841   3.073   0.389  1.00  0.00    -0.395 OA
ATOM     20  H3  UNL     1       5.338   3.882   0.407  1.00  0.00     0.209 HD
ENDBRANCH  18  19
ENDBRANCH   7  18
ENDBRANCH   4   7
ENDBRANCH   1   3
BRANCH   1  21
HETATM   21  N2  UNL     1      -1.201   1.239   1.536  1.00  0.00    -0.321 N 
HETATM   22  C12 UNL     1      -2.007   2.219   2.243  1.00  0.00     0.130 C 
HETATM   23  C13 UNL     1      -2.932   2.917   1.241  1.00  0.00     0.040 C 
HETATM   24  C14 UNL     1      -3.868   1.969   0.573  1.00  0.00     0.129 C 
HETATM   25  N3  UNL     1      -3.312   0.673   0.341  1.00  0.00    -0.329 N 
HETATM   26  C23 UNL     1      -1.943   0.414   0.634  1.00  0.00     0.321 C 
HETATM   27  O7  UNL     1      -1.364  -0.543   0.107  1.00  0.00    -0.247 OA
BRANCH  25  28
HETATM   28  C15 UNL     1      -4.180  -0.371  -0.199  1.00  0.00     0.089 C 
HETATM   29  C16 UNL     1      -4.726  -0.030  -1.552  1.00  0.00     0.028 C 
HETATM   30  C17 UNL     1      -4.791  -1.312  -2.370  1.00  0.00     0.034 C 
HETATM   31  C18 UNL     1      -5.927  -2.133  -1.801  1.00  0.00     0.133 C 
HETATM   32  C19 UNL     1      -5.578  -2.771  -0.497  1.00  0.00     0.047 C 
HETATM   33  O6  UNL     1      -7.085  -1.374  -1.543  1.00  0.00    -0.316 OA
HETATM   34  C20 UNL     1      -6.122  -1.802   0.510  1.00  0.00     0.090 C 
HETATM   35  C21 UNL     1      -5.247  -0.640   0.821  1.00  0.00     0.040 C 
HETATM   36  C22 UNL     1      -7.354  -1.326  -0.186  1.00  0.00     0.263 C 
HETATM   37  O5  UNL     1      -8.402  -0.965   0.404  1.00  0.00    -0.265 OA
ENDBRANCH  25  28
ENDBRANCH   1  21
TORSDOF 12
