REMARK  1 active torsions:
REMARK  status: ('A' for Active; 'I' for Inactive)
REMARK    1  A    between atoms: N1_4  and  C4_5 
ROOT
HETATM    1  C1  UNL     1      -2.236  -1.336  -0.486  1.00  0.00     0.029 C 
HETATM    2  C2  UNL     1      -0.933  -1.607   0.239  1.00  0.00     0.032 C 
HETATM    3  C3  UNL     1       0.163  -0.975  -0.571  1.00  0.00     0.273 C 
HETATM    4  N1  UNL     1       0.777   0.163   0.103  1.00  0.00     0.094 N 
HETATM    5  C7  UNL     1       0.117   1.406  -0.195  1.00  0.00     0.300 C 
HETATM    6  C8  UNL     1      -1.064   1.706   0.668  1.00  0.00     0.262 C 
HETATM    7  N2  UNL     1      -1.906   0.582   0.948  1.00  0.00    -0.073 N 
ATOM      8  H21 UNL     1      -2.538   0.796   1.720  1.00  0.00     0.277 HD
ATOM      9  H22 UNL     1      -1.363  -0.171   1.369  1.00  0.00     0.277 HD
HETATM   10  C9  UNL     1      -2.646   0.092  -0.181  1.00  0.00     0.232 C 
ENDROOT
BRANCH   4  11
HETATM   11  C4  UNL     1       2.114   0.271  -0.481  1.00  0.00     0.223 A 
HETATM   12  C5  UNL     1       3.279   0.621   0.353  1.00  0.00     0.038 A 
HETATM   13  C6  UNL     1       3.075  -0.807   0.027  1.00  0.00     0.038 A 
ENDBRANCH   4  11
TORSDOF 1
