REMARK  2 active torsions:
REMARK  status: ('A' for Active; 'I' for Inactive)
REMARK    1  A    between atoms: N1_3  and  C3_5 
REMARK    2  A    between atoms: C6_8  and  O1_9 
ROOT
HETATM    1  C1  UNL     1       4.376   0.825  -0.331  1.00  0.00     0.037 C 
HETATM    2  C2  UNL     1       3.264   0.816   0.140  1.00  0.00    -0.005 C 
HETATM    3  N1  UNL     1       1.987   0.794   0.702  1.00  0.00    -0.345 N 
ATOM      4  H1  UNL     1       1.890   1.025   1.691  1.00  0.00     0.170 HD
ENDROOT
BRANCH   3   5
HETATM    5  C3  UNL     1       0.804   0.464  -0.037  1.00  0.00     0.101 C 
HETATM    6  C4  UNL     1       0.781  -0.916  -0.658  1.00  0.00     0.012 C 
HETATM    7  C5  UNL     1      -0.579  -0.957  -1.289  1.00  0.00     0.039 C 
HETATM    8  C9  UNL     1       0.489  -1.415   0.753  1.00  0.00     0.016 C 
HETATM    9  C6  UNL     1      -1.400  -0.292  -0.163  1.00  0.00     0.127 C 
HETATM   10  C8  UNL     1      -0.313  -0.111   0.841  1.00  0.00     0.039 C 
BRANCH   9  11
HETATM   11  O1  UNL     1      -1.811   0.932  -0.618  1.00  0.00    -0.390 OA
HETATM   12  C7  UNL     1      -3.187   1.115  -0.576  1.00  0.00     0.202 C 
ENDBRANCH   9  11
ENDBRANCH   3   5
TORSDOF 2
