REMARK  2 active torsions:
REMARK  status: ('A' for Active; 'I' for Inactive)
REMARK    1  A    between atoms: C2_2  and  O1_3 
REMARK    2  A    between atoms: C2_2  and  C3_5 
ROOT
HETATM    1  C3  UNL     1       0.760  -0.194  -0.734  1.00  0.00     0.071 C 
HETATM    2  C4  UNL     1       0.005  -1.449  -0.365  1.00  0.00     0.243 C 
HETATM    3  N1  UNL     1      -1.296  -1.520  -0.981  1.00  0.00    -0.074 N 
ATOM      4  H11 UNL     1      -1.676  -2.464  -0.915  1.00  0.00     0.277 HD
ATOM      5  H12 UNL     1      -1.220  -1.438  -1.995  1.00  0.00     0.277 HD
HETATM    6  C5  UNL     1      -2.228  -0.560  -0.462  1.00  0.00     0.232 C 
HETATM    7  C6  UNL     1      -1.885  -0.010   0.873  1.00  0.00     0.028 C 
HETATM    8  C7  UNL     1      -0.712   0.907   0.930  1.00  0.00     0.006 C 
HETATM    9  C8  UNL     1       0.042   1.048  -0.349  1.00  0.00    -0.007 C 
HETATM   10  C9  UNL     1       0.963   2.225  -0.235  1.00  0.00     0.011 C 
ENDROOT
BRANCH   1  11
HETATM   11  C2  UNL     1       2.139  -0.318  -0.221  1.00  0.00     0.040 C 
HETATM   12  C1  UNL     1       2.542  -1.294   0.567  1.00  0.00     0.046 C 
BRANCH  11  13
HETATM   13  O1  UNL     1       3.070   0.640  -0.585  1.00  0.00    -0.365 OA
ATOM     14  H1  UNL     1       2.779   1.344  -1.153  1.00  0.00     0.217 HD
ENDBRANCH  11  13
ENDBRANCH   1  11
TORSDOF 2
