REMARK  2 active torsions:
REMARK  status: ('A' for Active; 'I' for Inactive)
REMARK    1  A    between atoms: S1_2  and  C3_4 
REMARK    2  A    between atoms: C7_8  and  O1_9 
ROOT
HETATM    1  C3  UNL     1      -0.300  -0.316  -0.572  1.00  0.00     0.065 C 
HETATM    2  C4  UNL     1      -0.850   1.068  -0.875  1.00  0.00     0.017 C 
HETATM    3  C5  UNL     1      -1.701   1.448   0.301  1.00  0.00     0.004 C 
HETATM    4  C6  UNL     1      -1.648   0.260   1.268  1.00  0.00     0.033 C 
HETATM    5  C7  UNL     1      -1.357  -0.872   0.318  1.00  0.00     0.131 C 
ENDROOT
BRANCH   1   6
HETATM    6  S1  UNL     1       1.263  -0.089   0.133  1.00  0.00    -0.221 SA
HETATM    7  C1  UNL     1       2.147  -1.495   0.589  1.00  0.00     0.078 C 
HETATM    8  C2  UNL     1       2.166   1.017  -0.928  1.00  0.00     0.078 C 
ENDBRANCH   1   6
BRANCH   5   9
HETATM    9  O1  UNL     1      -1.057  -2.057   0.922  1.00  0.00    -0.394 OA
ATOM     10  H1  UNL     1      -1.731  -2.412   1.490  1.00  0.00     0.210 HD
ENDBRANCH   5   9
TORSDOF 2
