REMARK  12 active torsions:
REMARK  status: ('A' for Active; 'I' for Inactive)
REMARK    1  A    between atoms: C2_2  and  C3_3 
REMARK    2  A    between atoms: C2_2  and  C13_13 
REMARK    3  A    between atoms: C3_3  and  C4_4 
REMARK    4  A    between atoms: C4_4  and  C7_7 
REMARK    5  A    between atoms: C14_15  and  C15_16 
REMARK    6  A    between atoms: C15_16  and  O2_17 
REMARK    7  A    between atoms: O2_17  and  C16_18 
REMARK    8  A    between atoms: C16_18  and  C17_20 
REMARK    9  A    between atoms: C22_25  and  N1_26 
REMARK   10  A    between atoms: C26_32  and  O4_33 
REMARK   11  A    between atoms: C27_35  and  O5_36 
REMARK   12  A    between atoms: C28_38  and  O6_39 
ROOT
HETATM    1  C13 UNL     1      -1.097  -0.801  -0.480  1.00  0.00     0.157 C 
HETATM    2  O1  UNL     1      -0.336   0.286  -0.076  1.00  0.00    -0.373 OA
HETATM    3  C14 UNL     1       1.008  -0.093   0.187  1.00  0.00     0.177 C 
HETATM    4  C26 UNL     1       1.151  -1.468   0.649  1.00  0.00     0.180 C 
HETATM    5  C27 UNL     1      -0.131  -1.759   1.510  1.00  0.00     0.180 C 
HETATM    6  C28 UNL     1      -1.233  -1.935   0.444  1.00  0.00     0.178 C 
ENDROOT
BRANCH   3   7
HETATM    7  C15 UNL     1       1.927   0.449  -0.817  1.00  0.00     0.213 C 
BRANCH   7   8
HETATM    8  O2  UNL     1       3.245   0.104  -0.738  1.00  0.00    -0.315 OA
BRANCH   8   9
HETATM    9  C16 UNL     1       3.969  -0.984  -1.061  1.00  0.00     0.295 C 
HETATM   10  O3  UNL     1       3.350  -1.959  -1.596  1.00  0.00    -0.259 OA
BRANCH   9  11
HETATM   11  C17 UNL     1       5.406  -1.155  -0.859  1.00  0.00     0.068 A 
HETATM   12  C18 UNL     1       6.010  -2.332  -1.308  1.00  0.00     0.020 A 
HETATM   13  C19 UNL     1       7.349  -2.560  -1.175  1.00  0.00     0.001 A 
HETATM   14  C20 UNL     1       8.163  -1.623  -0.583  1.00  0.00     0.002 A 
HETATM   15  C21 UNL     1       7.595  -0.462  -0.133  1.00  0.00     0.032 A 
HETATM   16  C22 UNL     1       6.234  -0.248  -0.278  1.00  0.00     0.072 A 
BRANCH  16  17
HETATM   17  N1  UNL     1       5.698   0.969   0.221  1.00  0.00    -0.267 N 
HETATM   18  C23 UNL     1       5.562   2.120  -0.433  1.00  0.00     0.118 A 
HETATM   19  C24 UNL     1       5.005   3.029   0.449  1.00  0.00     0.038 A 
HETATM   20  C25 UNL     1       4.822   2.354   1.646  1.00  0.00     0.109 A 
HETATM   21  N2  UNL     1       5.257   1.100   1.466  1.00  0.00    -0.305 N 
ATOM     22  H2  UNL     1       5.250   0.364   2.172  1.00  0.00     0.186 HD
ENDBRANCH  16  17
ENDBRANCH   9  11
ENDBRANCH   8   9
ENDBRANCH   7   8
ENDBRANCH   3   7
BRANCH   4  23
HETATM   23  O4  UNL     1       2.258  -1.695   1.475  1.00  0.00    -0.390 OA
ATOM     24  H4  UNL     1       2.351  -2.591   1.776  1.00  0.00     0.210 HD
ENDBRANCH   4  23
BRANCH   1  25
HETATM   25  C2  UNL     1      -2.251  -0.443  -1.294  1.00  0.00     0.014 C 
HETATM   26  C1  UNL     1      -1.566   0.212  -2.599  1.00  0.00     0.012 C 
BRANCH  25  27
HETATM   27  C3  UNL     1      -3.282   0.534  -0.900  1.00  0.00     0.020 C 
BRANCH  27  28
HETATM   28  C4  UNL     1      -4.192   0.427   0.208  1.00  0.00    -0.020 C 
HETATM   29  C5  UNL     1      -3.546   0.411   1.556  1.00  0.00     0.020 C 
HETATM   30  C6  UNL     1      -4.973  -0.926   0.153  1.00  0.00     0.020 C 
BRANCH  28  31
HETATM   31  C7  UNL     1      -5.275   1.432   0.259  1.00  0.00    -0.050 A 
HETATM   32  C8  UNL     1      -6.196   1.326   1.273  1.00  0.00     0.008 A 
HETATM   33  C9  UNL     1      -7.242   2.257   1.351  1.00  0.00     0.001 A 
HETATM   34  C10 UNL     1      -7.350   3.275   0.418  1.00  0.00     0.000 A 
HETATM   35  C11 UNL     1      -6.415   3.377  -0.603  1.00  0.00     0.001 A 
HETATM   36  C12 UNL     1      -5.383   2.431  -0.653  1.00  0.00     0.008 A 
ENDBRANCH  28  31
ENDBRANCH  27  28
ENDBRANCH  25  27
ENDBRANCH   1  25
BRANCH   5  37
HETATM   37  O5  UNL     1       0.117  -2.934   2.170  1.00  0.00    -0.390 OA
ATOM     38  H5  UNL     1      -0.658  -3.110   2.690  1.00  0.00     0.210 HD
ENDBRANCH   5  37
BRANCH   6  39
HETATM   39  O6  UNL     1      -0.841  -3.175  -0.178  1.00  0.00    -0.390 OA
ATOM     40  H6  UNL     1      -0.929  -3.908   0.420  1.00  0.00     0.210 HD
ENDBRANCH   6  39
TORSDOF 12
