REMARK  13 active torsions:
REMARK  status: ('A' for Active; 'I' for Inactive)
REMARK    1  A    between atoms: O1_2  and  C2_3 
REMARK    2  A    between atoms: C2_3  and  C3_5 
REMARK    3  A    between atoms: C3_5  and  C4_6 
REMARK    4  A    between atoms: C3_5  and  O4_9 
REMARK    5  A    between atoms: C4_6  and  O3_7 
REMARK    6  A    between atoms: O4_9  and  C5_10 
REMARK    7  A    between atoms: C5_10  and  C6_12 
REMARK    8  A    between atoms: C8_14  and  C9_15 
REMARK    9  A    between atoms: C9_15  and  C10_16 
REMARK   10  A    between atoms: C13_19  and  C14_20 
REMARK   11  A    between atoms: C15_21  and  C16_22 
REMARK   12  A    between atoms: C18_24  and  O6_25 
REMARK   13  A    between atoms: C19_27  and  O7_28 
ROOT
HETATM    1  C10 UNL     1      -2.560  -2.591   0.550  1.00  0.00     0.001 A 
HETATM    2  C11 UNL     1      -1.686  -3.643   0.059  1.00  0.00    -0.006 A 
HETATM    3  C12 UNL     1      -1.976  -4.554  -1.089  1.00  0.00     0.011 C 
HETATM    4  C13 UNL     1      -1.385  -2.178  -0.308  1.00  0.00     0.016 A 
ENDROOT
BRANCH   4   5
HETATM    5  C14 UNL     1      -0.245  -1.505   0.334  1.00  0.00    -0.025 C 
HETATM    6  C15 UNL     1       0.759  -1.019  -0.362  1.00  0.00    -0.023 C 
BRANCH   6   7
HETATM    7  C16 UNL     1       1.923  -0.334   0.285  1.00  0.00     0.044 C 
HETATM    8  C17 UNL     1       2.000   1.119  -0.091  1.00  0.00     0.046 C 
HETATM    9  C18 UNL     1       2.822   1.865   0.948  1.00  0.00     0.148 C 
HETATM   10  C19 UNL     1       4.108   2.284   0.321  1.00  0.00     0.157 C 
HETATM   11  C20 UNL     1       5.269   1.392   0.621  1.00  0.00     0.007 C 
HETATM   12  C21 UNL     1       6.487   1.999  -0.089  1.00  0.00     0.020 C 
HETATM   13  C22 UNL     1       5.579   1.382   2.089  1.00  0.00     0.020 C 
HETATM   14  C23 UNL     1       5.123  -0.006   0.101  1.00  0.00     0.133 C 
HETATM   15  C24 UNL     1       4.848  -0.081  -1.356  1.00  0.00     0.036 C 
HETATM   16  O8  UNL     1       4.195  -0.768   0.776  1.00  0.00    -0.374 OA
HETATM   17  C25 UNL     1       3.609  -0.933  -1.475  1.00  0.00     0.041 C 
HETATM   18  C26 UNL     1       3.175  -1.099  -0.065  1.00  0.00     0.065 C 
HETATM   19  C27 UNL     1       2.859  -2.583   0.158  1.00  0.00     0.047 C 
BRANCH   9  20
HETATM   20  O6  UNL     1       2.092   3.038   1.252  1.00  0.00    -0.393 OA
ATOM     21  H6  UNL     1       2.606   3.504   1.901  1.00  0.00     0.210 HD
ENDBRANCH   9  20
BRANCH  10  22
HETATM   22  O7  UNL     1       4.445   3.563   0.824  1.00  0.00    -0.392 OA
ATOM     23  H7  UNL     1       5.264   3.830   0.424  1.00  0.00     0.210 HD
ENDBRANCH  10  22
ENDBRANCH   6   7
ENDBRANCH   4   5
BRANCH   1  24
HETATM   24  C9  UNL     1      -3.951  -2.306   0.046  1.00  0.00     0.033 C 
BRANCH  24  25
HETATM   25  C8  UNL     1      -4.027  -1.961  -1.370  1.00  0.00    -0.013 C 
HETATM   26  C6  UNL     1      -4.444  -0.866  -1.944  1.00  0.00     0.009 C 
HETATM   27  C7  UNL     1      -4.383  -0.851  -3.466  1.00  0.00     0.054 C 
BRANCH  26  28
HETATM   28  C5  UNL     1      -4.954   0.328  -1.312  1.00  0.00     0.289 C 
HETATM   29  O5  UNL     1      -5.314   1.296  -2.065  1.00  0.00    -0.260 OA
BRANCH  28  30
HETATM   30  O4  UNL     1      -5.104   0.558   0.029  1.00  0.00    -0.300 OA
BRANCH  30  31
HETATM   31  C3  UNL     1      -5.620   1.788   0.481  1.00  0.00     0.255 C 
BRANCH  31  32
HETATM   32  C2  UNL     1      -4.628   2.516   1.325  1.00  0.00     0.290 C 
HETATM   33  O2  UNL     1      -4.926   3.635   1.812  1.00  0.00    -0.262 OA
BRANCH  32  34
HETATM   34  O1  UNL     1      -3.367   2.011   1.607  1.00  0.00    -0.324 OA
HETATM   35  C1  UNL     1      -2.464   2.747   2.416  1.00  0.00     0.213 C 
ENDBRANCH  32  34
ENDBRANCH  31  32
BRANCH  31  36
HETATM   36  C4  UNL     1      -6.901   1.520   1.225  1.00  0.00     0.207 C 
BRANCH  36  37
HETATM   37  O3  UNL     1      -7.778   0.906   0.334  1.00  0.00    -0.398 OA
ATOM     38  H3  UNL     1      -8.586   0.737   0.804  1.00  0.00     0.209 HD
ENDBRANCH  36  37
ENDBRANCH  31  36
ENDBRANCH  30  31
ENDBRANCH  28  30
ENDBRANCH  26  28
ENDBRANCH  24  25
ENDBRANCH   1  24
TORSDOF 13
