REMARK  10 active torsions:
REMARK  status: ('A' for Active; 'I' for Inactive)
REMARK    1  A    between atoms: O1_2  and  C2_3 
REMARK    2  A    between atoms: C5_6  and  C7_8 
REMARK    3  A    between atoms: C7_8  and  C8_9 
REMARK    4  A    between atoms: C8_9  and  C9_10 
REMARK    5  A    between atoms: C21_24  and  C22_25 
REMARK    6  A    between atoms: C21_24  and  O4_28 
REMARK    7  A    between atoms: C22_25  and  O3_26 
REMARK    8  A    between atoms: C24_31  and  O6_32 
REMARK    9  A    between atoms: C24_31  and  C25_34 
REMARK   10  A    between atoms: C25_34  and  O7_35 
ROOT
HETATM    1  C9  UNL     1      -0.272  -1.827   0.343  1.00  0.00     0.030 C 
HETATM    2  C10 UNL     1      -0.550  -3.125  -0.379  1.00  0.00     0.025 C 
HETATM    3  C11 UNL     1      -1.057  -1.751   1.615  1.00  0.00     0.136 C 
HETATM    4  O2  UNL     1      -1.421  -2.602   2.374  1.00  0.00    -0.297 OA
HETATM    5  C12 UNL     1      -1.345  -0.288   1.807  1.00  0.00     0.085 C 
HETATM    6  C13 UNL     1      -1.376   0.321   0.434  1.00  0.00     0.012 C 
HETATM    7  C14 UNL     1      -0.830  -0.708  -0.505  1.00  0.00     0.067 C 
HETATM    8  S1  UNL     1      -2.034  -1.346  -1.691  1.00  0.00    -0.162 SA
HETATM    9  C15 UNL     1      -3.417  -0.193  -1.913  1.00  0.00     0.087 C 
HETATM   10  C16 UNL     1      -3.770   0.242  -0.478  1.00  0.00     0.002 C 
HETATM   11  C17 UNL     1      -4.177  -0.990   0.230  1.00  0.00     0.019 C 
HETATM   12  C18 UNL     1      -2.604   0.988   0.029  1.00  0.00     0.003 C 
HETATM   13  C19 UNL     1      -3.216   1.850   1.103  1.00  0.00     0.009 C 
HETATM   14  C20 UNL     1      -4.319   2.505   0.252  1.00  0.00     0.041 C 
HETATM   15  C21 UNL     1      -4.829   1.311  -0.567  1.00  0.00     0.089 C 
ENDROOT
BRANCH   1  16
HETATM   16  C8  UNL     1       1.159  -1.664   0.724  1.00  0.00     0.021 C 
BRANCH  16  17
HETATM   17  C7  UNL     1       2.139  -1.673  -0.404  1.00  0.00     0.039 C 
BRANCH  17  18
HETATM   18  C5  UNL     1       3.581  -1.507   0.095  1.00  0.00     0.061 C 
HETATM   19  C4  UNL     1       4.465  -1.531  -1.098  1.00  0.00     0.040 C 
HETATM   20  C3  UNL     1       4.773  -0.181  -1.675  1.00  0.00     0.040 C 
HETATM   21  C2  UNL     1       5.024   0.879  -0.645  1.00  0.00     0.185 C 
HETATM   22  C24 UNL     1       4.686   0.435   0.761  1.00  0.00     0.210 C 
HETATM   23  O5  UNL     1       3.610  -0.379   0.851  1.00  0.00    -0.340 OA
HETATM   24  C6  UNL     1       3.965  -2.679   0.991  1.00  0.00     0.046 C 
BRANCH  21  25
HETATM   25  O1  UNL     1       4.211   1.968  -0.951  1.00  0.00    -0.385 OA
HETATM   26  C1  UNL     1       4.958   3.130  -1.144  1.00  0.00     0.202 C 
ENDBRANCH  21  25
BRANCH  22  27
HETATM   27  O6  UNL     1       4.369   1.628   1.459  1.00  0.00    -0.362 OA
ATOM     28  H6  UNL     1       4.157   1.349   2.342  1.00  0.00     0.213 HD
ENDBRANCH  22  27
BRANCH  22  29
HETATM   29  C25 UNL     1       5.930  -0.094   1.449  1.00  0.00     0.235 C 
BRANCH  29  30
HETATM   30  O7  UNL     1       5.670  -0.274   2.790  1.00  0.00    -0.395 OA
ATOM     31  H7  UNL     1       6.449  -0.605   3.221  1.00  0.00     0.209 HD
ENDBRANCH  29  30
ENDBRANCH  22  29
ENDBRANCH  17  18
ENDBRANCH  16  17
ENDBRANCH   1  16
BRANCH  15  32
HETATM   32  C22 UNL     1      -6.154   0.946   0.012  1.00  0.00     0.203 C 
BRANCH  32  33
HETATM   33  O3  UNL     1      -6.073   0.556   1.365  1.00  0.00    -0.398 OA
ATOM     34  H3  UNL     1      -6.917   0.323   1.734  1.00  0.00     0.209 HD
ENDBRANCH  32  33
ENDBRANCH  15  32
BRANCH  15  35
HETATM   35  O4  UNL     1      -5.006   1.685  -1.890  1.00  0.00    -0.382 OA
HETATM   36  C23 UNL     1      -5.945   2.653  -2.109  1.00  0.00     0.202 C 
ENDBRANCH  15  35
TORSDOF 10
