REMARK  0 active torsions:
REMARK  status: ('A' for Active; 'I' for Inactive)
ROOT
HETATM    1  C1  UNL     1      -1.534  -1.560   0.056  1.00  0.00     0.070 C 
HETATM    2  C2  UNL     1      -0.247  -0.800  -0.020  1.00  0.00     0.029 A 
HETATM    3  N1  UNL     1       0.999  -1.257  -0.175  1.00  0.00    -0.336 N 
ATOM      4  H1  UNL     1       1.241  -2.244  -0.267  1.00  0.00     0.168 HD
HETATM    5  C3  UNL     1       1.895  -0.252  -0.195  1.00  0.00     0.189 A 
HETATM    6  C4  UNL     1       3.334  -0.358  -0.346  1.00  0.00     0.137 C 
HETATM    7  N2  UNL     1       4.484  -0.424  -0.474  1.00  0.00    -0.188 NA
HETATM    8  N3  UNL     1       1.171   0.870  -0.046  1.00  0.00    -0.336 N 
ATOM      9  H3  UNL     1       1.559   1.813  -0.019  1.00  0.00     0.168 HD
HETATM   10  C5  UNL     1      -0.137   0.575   0.063  1.00  0.00     0.029 A 
HETATM   11  C6  UNL     1      -1.287   1.492   0.240  1.00  0.00     0.070 C 
ENDROOT
TORSDOF 0
