REMARK  2 active torsions:
REMARK  status: ('A' for Active; 'I' for Inactive)
REMARK    1  A    between atoms: O1_2  and  C2_3 
REMARK       I    between atoms: C2_3  and  N1_5 
REMARK    2  A    between atoms: N1_5  and  C3_7 
ROOT
HETATM    1  C2  UNL     1       1.258   0.401  -0.135  1.00  0.00     0.360 C 
HETATM    2  O2  UNL     1       1.383  -0.664  -0.774  1.00  0.00    -0.239 OA
HETATM    3  N1  UNL     1      -0.019   0.686   0.429  1.00  0.00    -0.329 N 
ATOM      4  H1  UNL     1      -0.145   1.551   0.955  1.00  0.00     0.165 HD
ENDROOT
BRANCH   3   5
HETATM    5  C3  UNL     1      -1.141  -0.212   0.279  1.00  0.00     0.024 C 
HETATM    6  C4  UNL     1      -0.766  -1.533   0.895  1.00  0.00     0.037 C 
HETATM    7  C5  UNL     1      -2.356   0.397   0.910  1.00  0.00     0.037 C 
HETATM    8  C6  UNL     1      -1.409  -0.331  -1.203  1.00  0.00     0.037 C 
ENDBRANCH   3   5
BRANCH   1   9
HETATM    9  O1  UNL     1       2.342   1.234  -0.009  1.00  0.00    -0.309 OA
HETATM   10  C1  UNL     1       3.591   0.888  -0.599  1.00  0.00     0.215 C 
ENDBRANCH   1   9
TORSDOF 2
