REMARK  2 active torsions:
REMARK  status: ('A' for Active; 'I' for Inactive)
REMARK    1  A    between atoms: C3_3  and  S1_5 
REMARK    2  A    between atoms: S1_5  and  C5_6 
ROOT
HETATM    1  C1  UNL     1       3.468  -0.571  -0.495  1.00  0.00     0.018 C 
HETATM    2  C2  UNL     1       2.306  -0.352  -0.291  1.00  0.00    -0.071 C 
HETATM    3  C3  UNL     1       0.855  -0.103  -0.043  1.00  0.00     0.052 C 
HETATM    4  C4  UNL     1       0.591   0.717   0.909  1.00  0.00     0.041 C 
ENDROOT
BRANCH   3   5
HETATM    5  S1  UNL     1      -0.320  -0.925  -1.040  1.00  0.00    -0.025 SA
BRANCH   5   6
HETATM    6  C5  UNL     1      -1.976  -0.569  -0.673  1.00  0.00     0.298 C 
HETATM    7  N1  UNL     1      -2.417   0.304   0.336  1.00  0.00    -0.051 NA
HETATM    8  O1  UNL     1      -2.902  -1.138  -1.368  1.00  0.00    -0.263 OA
ENDBRANCH   5   6
ENDBRANCH   3   5
TORSDOF 2
