REMARK  2 active torsions:
REMARK  status: ('A' for Active; 'I' for Inactive)
REMARK    1  A    between atoms: C2_2  and  O1_3 
REMARK    2  A    between atoms: C2_2  and  C3_5 
ROOT
HETATM    1  C3  UNL     1       0.513   0.437   0.090  1.00  0.00     0.046 C 
HETATM    2  C4  UNL     1      -0.343   0.135   1.270  1.00  0.00     0.279 C 
HETATM    3  N1  UNL     1      -1.697  -0.226   0.838  1.00  0.00     0.088 N 
HETATM    4  C5  UNL     1      -2.175   0.724  -0.153  1.00  0.00     0.272 C 
HETATM    5  C6  UNL     1      -1.365   0.703  -1.417  1.00  0.00     0.035 C 
HETATM    6  C7  UNL     1      -0.129  -0.159  -1.127  1.00  0.00    -0.003 C 
HETATM    7  C8  UNL     1      -0.663  -1.558  -0.865  1.00  0.00     0.035 C 
HETATM    8  C9  UNL     1      -1.676  -1.531   0.243  1.00  0.00     0.272 C 
ENDROOT
BRANCH   1   9
HETATM    9  C2  UNL     1       1.949   0.026   0.249  1.00  0.00     0.120 C 
HETATM   10  C1  UNL     1       2.645   0.680   1.388  1.00  0.00     0.040 C 
BRANCH   9  11
HETATM   11  O1  UNL     1       2.631   0.312  -0.933  1.00  0.00    -0.396 OA
ATOM     12  H1  UNL     1       2.186  -0.106  -1.661  1.00  0.00     0.210 HD
ENDBRANCH   9  11
ENDBRANCH   1   9
TORSDOF 2
