REMARK  1 active torsions:
REMARK  status: ('A' for Active; 'I' for Inactive)
REMARK    1  A    between atoms: N2_10  and  C7_11 
ROOT
HETATM    1  C1  UNL     1      -2.151   1.080   0.302  1.00  0.00     0.037 C 
HETATM    2  C2  UNL     1      -1.060   1.568  -0.640  1.00  0.00     0.040 C 
HETATM    3  C3  UNL     1      -0.131   0.377  -0.843  1.00  0.00     0.249 C 
HETATM    4  C4  UNL     1      -0.960  -0.837  -1.167  1.00  0.00     0.268 C 
HETATM    5  N1  UNL     1      -1.806  -1.239  -0.067  1.00  0.00    -0.067 N 
ATOM      6  H11 UNL     1      -1.578  -2.167   0.289  1.00  0.00     0.277 HD
ATOM      7  H12 UNL     1      -2.764  -1.436  -0.356  1.00  0.00     0.277 HD
HETATM    8  C5  UNL     1      -1.727  -0.217   0.947  1.00  0.00     0.214 C 
HETATM    9  C6  UNL     1      -0.306  -0.197   1.448  1.00  0.00     0.306 C 
HETATM   10  N2  UNL     1       0.593   0.230   0.415  1.00  0.00     0.101 N 
ENDROOT
BRANCH  10  11
HETATM   11  C7  UNL     1       1.701  -0.654   0.181  1.00  0.00     0.223 A 
HETATM   12  C8  UNL     1       3.020  -0.466   0.804  1.00  0.00     0.038 A 
HETATM   13  C9  UNL     1       2.837   0.011  -0.600  1.00  0.00     0.038 A 
ENDBRANCH  10  11
TORSDOF 1
