REMARK  1 active torsions:
REMARK  status: ('A' for Active; 'I' for Inactive)
REMARK    1  A    between atoms: N1_4  and  N2_5 
ROOT
HETATM    1  N2  UNL     1      -0.530   0.651   0.261  1.00  0.00    -0.247 NA
HETATM    2  C4  UNL     1      -1.417   0.869  -0.840  1.00  0.00     0.135 C 
HETATM    3  C5  UNL     1      -2.165  -0.370  -1.265  1.00  0.00     0.248 C 
HETATM    4  N3  UNL     1      -2.687  -1.127  -0.174  1.00  0.00    -0.073 N 
ATOM      5  H31 UNL     1      -2.246  -2.044  -0.105  1.00  0.00     0.277 HD
ATOM      6  H32 UNL     1      -3.645  -1.431  -0.349  1.00  0.00     0.277 HD
HETATM    7  C6  UNL     1      -2.578  -0.389   1.055  1.00  0.00     0.248 C 
HETATM    8  C7  UNL     1      -1.096  -0.103   1.327  1.00  0.00     0.135 C 
ENDROOT
BRANCH   1   9
HETATM    9  N1  UNL     1       0.685   0.210  -0.202  1.00  0.00    -0.250 NA
HETATM   10  C3  UNL     1       1.373  -0.697   0.655  1.00  0.00     0.108 C 
HETATM   11  C2  UNL     1       2.834  -0.553   0.287  1.00  0.00     0.017 C 
HETATM   12  C1  UNL     1       2.887   0.523  -0.777  1.00  0.00     0.017 C 
HETATM   13  C8  UNL     1       1.615   1.291  -0.501  1.00  0.00     0.108 C 
ENDBRANCH   1   9
TORSDOF 1
