REMARK  4 active torsions:
REMARK  status: ('A' for Active; 'I' for Inactive)
REMARK       I    between atoms: C3_3  and  N1_5 
REMARK    1  A    between atoms: N1_5  and  C4_7 
REMARK    2  A    between atoms: C5_8  and  C6_9 
REMARK    3  A    between atoms: C7_11  and  N2_12 
REMARK    4  A    between atoms: N2_12  and  O3_14 
ROOT
HETATM    1  C1  UNL     1       5.069  -0.179   0.863  1.00  0.00     0.022 C 
HETATM    2  C2  UNL     1       4.113  -0.432   0.181  1.00  0.00    -0.016 C 
HETATM    3  C3  UNL     1       2.953  -0.718  -0.666  1.00  0.00     0.300 C 
HETATM    4  O1  UNL     1       3.012  -1.666  -1.502  1.00  0.00    -0.258 OA
HETATM    5  N1  UNL     1       1.811   0.078  -0.516  1.00  0.00    -0.311 N 
ATOM      6  H1  UNL     1       1.924   1.053  -0.792  1.00  0.00     0.170 HD
ENDROOT
BRANCH   5   7
HETATM    7  C4  UNL     1       0.669  -0.227  -0.093  1.00  0.00     0.121 C 
HETATM    8  C5  UNL     1      -0.279   0.799  -0.060  1.00  0.00     0.080 C 
HETATM    9  C7  UNL     1      -1.639   0.676  -0.214  1.00  0.00     0.144 C 
HETATM   10  N3  UNL     1      -2.440  -0.326   0.253  1.00  0.00    -0.292 N 
HETATM   11  C8  UNL     1      -2.055  -1.606   0.464  1.00  0.00     0.328 C 
ATOM     12  H3  UNL     1      -3.410  -0.090   0.460  1.00  0.00     0.172 HD
HETATM   13  O4  UNL     1      -2.979  -2.380   0.823  1.00  0.00    -0.247 OA
HETATM   14  N4  UNL     1      -0.813  -2.168   0.342  1.00  0.00    -0.274 N 
HETATM   15  C9  UNL     1       0.387  -1.509   0.313  1.00  0.00     0.277 C 
ATOM     16  H4  UNL     1      -0.778  -3.184   0.265  1.00  0.00     0.173 HD
HETATM   17  O5  UNL     1       1.365  -2.179   0.720  1.00  0.00    -0.266 OA
BRANCH   8  18
HETATM   18  C6  UNL     1       0.233   2.107   0.188  1.00  0.00     0.276 C 
HETATM   19  O2  UNL     1      -0.563   3.105   0.307  1.00  0.00    -0.301 OA
ENDBRANCH   8  18
BRANCH   9  20
HETATM   20  N2  UNL     1      -2.319   1.658  -0.954  1.00  0.00    -0.252 N 
ATOM     21  H2  UNL     1      -1.777   2.372  -1.441  1.00  0.00     0.196 HD
BRANCH  20  22
HETATM   22  O3  UNL     1      -3.670   1.689  -1.043  1.00  0.00    -0.288 OA
ATOM     23  H3  UNL     1      -4.130   2.353  -1.543  1.00  0.00     0.244 HD
ENDBRANCH  20  22
ENDBRANCH   9  20
ENDBRANCH   5   7
TORSDOF 4
