REMARK  4 active torsions:
REMARK  status: ('A' for Active; 'I' for Inactive)
REMARK    1  A    between atoms: N1_1  and  C1_4 
REMARK    2  A    between atoms: C2_9  and  S1_10 
REMARK    3  A    between atoms: S1_10  and  N4_13 
REMARK       I    between atoms: C3_15  and  N6_17 
REMARK    4  A    between atoms: N6_17  and  O3_19 
ROOT
HETATM    1  C1  UNL     1       3.365  -1.027   0.037  1.00  0.00     0.691 A 
HETATM    2  N2  UNL     1       2.586  -1.900   0.698  1.00  0.00    -0.131 N 
ATOM      3  H2  UNL     1       2.982  -2.788   1.006  1.00  0.00     0.205 HD
HETATM    4  N3  UNL     1       1.331  -1.635   0.955  1.00  0.00    -0.272 N 
ATOM      5  H3  UNL     1       0.780  -2.330   1.460  1.00  0.00     0.188 HD
HETATM    6  C2  UNL     1       0.726  -0.473   0.579  1.00  0.00     0.206 A 
HETATM    7  C4  UNL     1       1.508   0.439  -0.102  1.00  0.00     0.173 A 
HETATM    8  N7  UNL     1       0.930   1.667  -0.519  1.00  0.00    -0.079 NA
HETATM    9  N8  UNL     1       2.802   0.127  -0.349  1.00  0.00    -0.175 N 
ATOM     10  H8  UNL     1       3.376   0.803  -0.853  1.00  0.00     0.185 HD
ENDROOT
BRANCH   6  11
HETATM   11  S1  UNL     1      -0.936  -0.159   0.937  1.00  0.00     0.285 S 
HETATM   12  O1  UNL     1      -1.379  -0.853   2.207  1.00  0.00    -0.198 OA
HETATM   13  O2  UNL     1      -1.207   1.318   1.161  1.00  0.00    -0.198 OA
BRANCH  11  14
HETATM   14  N4  UNL     1      -1.943  -0.723  -0.331  1.00  0.00    -0.251 N 
HETATM   15  C3  UNL     1      -3.142  -0.243  -0.526  1.00  0.00     0.222 C 
HETATM   16  N5  UNL     1      -3.597   0.774   0.352  1.00  0.00    -0.061 NA
HETATM   17  N6  UNL     1      -3.930  -0.751  -1.595  1.00  0.00    -0.240 N 
ATOM     18  H6  UNL     1      -4.258  -0.147  -2.349  1.00  0.00     0.197 HD
ATOM     19  H4  UNL     1      -1.596  -1.455  -0.951  1.00  0.00     0.181 HD
BRANCH  17  20
HETATM   20  O3  UNL     1      -4.206  -1.986  -1.570  1.00  0.00    -0.287 OA
ATOM     21  H3  UNL     1      -4.732  -2.325  -2.284  1.00  0.00     0.244 HD
ENDBRANCH  17  20
ENDBRANCH  11  14
ENDBRANCH   6  11
BRANCH   1  22
HETATM   22  N1  UNL     1       4.605  -1.324  -0.201  1.00  0.00    -0.233 N 
ATOM     23  H12 UNL     1       5.033  -2.202   0.093  1.00  0.00     0.174 HD
ATOM     24  H11 UNL     1       5.196  -0.661  -0.703  1.00  0.00     0.174 HD
ENDBRANCH   1  22
TORSDOF 4
