REMARK  6 active torsions:
REMARK  status: ('A' for Active; 'I' for Inactive)
REMARK       I    between atoms: C2_2  and  N1_4 
REMARK    1  A    between atoms: N1_4  and  C3_6 
REMARK    2  A    between atoms: C4_11  and  S1_12 
REMARK    3  A    between atoms: S1_12  and  N4_13 
REMARK    4  A    between atoms: N5_18  and  C5_19 
REMARK    5  A    between atoms: C5_19  and  O4_20 
REMARK    6  A    between atoms: O4_20  and  N6_21 
ROOT
HETATM    1  C3  UNL     1       0.945  -0.492   0.121  1.00  0.00     0.705 A 
HETATM    2  N2  UNL     1       0.941  -1.833   0.044  1.00  0.00    -0.129 N 
ATOM      3  H2  UNL     1       1.736  -2.449   0.213  1.00  0.00     0.205 HD
HETATM    4  N3  UNL     1      -0.272  -2.205  -0.288  1.00  0.00    -0.260 N 
ATOM      5  H3  UNL     1      -0.563  -3.174  -0.417  1.00  0.00     0.190 HD
HETATM    6  C4  UNL     1      -1.096  -1.124  -0.438  1.00  0.00     0.257 A 
HETATM    7  N5  UNL     1      -0.314  -0.064  -0.178  1.00  0.00    -0.128 N 
ENDROOT
BRANCH   6   8
HETATM    8  S1  UNL     1      -2.793  -1.159  -0.866  1.00  0.00     0.291 S 
HETATM    9  O2  UNL     1      -3.037  -2.383  -1.728  1.00  0.00    -0.198 OA
HETATM   10  O3  UNL     1      -3.108   0.016  -1.735  1.00  0.00    -0.198 OA
BRANCH   8  11
HETATM   11  N4  UNL     1      -3.778  -1.217   0.555  1.00  0.00    -0.322 N 
ATOM     12  H42 UNL     1      -3.406  -1.229   1.505  1.00  0.00     0.169 HD
ATOM     13  H41 UNL     1      -4.767  -1.237   0.306  1.00  0.00     0.169 HD
ENDBRANCH   8  11
ENDBRANCH   6   8
BRANCH   7  14
HETATM   14  C5  UNL     1      -0.699   1.338  -0.191  1.00  0.00     0.352 C 
BRANCH  14  15
HETATM   15  O4  UNL     1      -1.164   1.740   1.067  1.00  0.00    -0.267 OA
BRANCH  15  16
HETATM   16  N6  UNL     1      -1.496   3.057   0.950  1.00  0.00    -0.309 N 
ATOM     17  H62 UNL     1      -1.416   3.624   0.106  1.00  0.00     0.184 HD
ATOM     18  H61 UNL     1      -1.835   3.350   1.866  1.00  0.00     0.184 HD
ENDBRANCH  15  16
ENDBRANCH  14  15
ENDBRANCH   7  14
BRANCH   1  19
HETATM   19  N1  UNL     1       1.935   0.282   0.418  1.00  0.00    -0.158 N 
HETATM   20  C2  UNL     1       3.196  -0.310   0.708  1.00  0.00     0.232 C 
HETATM   21  C1  UNL     1       4.405   0.054  -0.087  1.00  0.00     0.118 C 
HETATM   22  O1  UNL     1       3.353  -1.151   1.631  1.00  0.00    -0.273 OA
ATOM     23  H1  UNL     1       1.816   1.295   0.444  1.00  0.00     0.187 HD
ENDBRANCH   1  19
TORSDOF 6
