REMARK  7 active torsions:
REMARK  status: ('A' for Active; 'I' for Inactive)
REMARK    1  A    between atoms: O1_2  and  C2_3 
REMARK    2  A    between atoms: C4_5  and  C5_6 
REMARK    3  A    between atoms: C5_6  and  O2_7 
REMARK    4  A    between atoms: C6_10  and  C7_11 
REMARK    5  A    between atoms: C7_11  and  C8_12 
REMARK    6  A    between atoms: C8_12  and  C9_13 
REMARK       I    between atoms: C9_13  and  N1_15 
REMARK    7  A    between atoms: N1_15  and  C10_17 
ROOT
HETATM    1  C9  UNL     1       0.608   1.210   1.145  1.00  0.00     0.217 C 
HETATM    2  O4  UNL     1       0.827   1.553  -0.027  1.00  0.00    -0.274 OA
HETATM    3  N1  UNL     1      -0.729   0.784   1.441  1.00  0.00    -0.356 N 
ATOM      4  H1  UNL     1      -0.955   0.493   2.392  1.00  0.00     0.162 HD
ENDROOT
BRANCH   1   5
HETATM    5  C8  UNL     1       1.665   1.244   2.150  1.00  0.00     0.105 C 
BRANCH   5   6
HETATM    6  C7  UNL     1       3.082   1.266   1.703  1.00  0.00     0.044 C 
BRANCH   6   7
HETATM    7  C6  UNL     1       3.551   0.062   1.057  1.00  0.00     0.151 C 
HETATM    8  C2  UNL     1       3.100  -0.553  -0.166  1.00  0.00     0.152 C 
HETATM    9  C3  UNL     1       4.000  -1.880  -0.038  1.00  0.00     0.068 C 
HETATM   10  C4  UNL     1       5.157  -1.325   0.711  1.00  0.00     0.148 C 
HETATM   11  O3  UNL     1       4.968   0.045   0.836  1.00  0.00    -0.376 OA
BRANCH   8  12
HETATM   12  O1  UNL     1       3.494  -0.003  -1.379  1.00  0.00    -0.388 OA
HETATM   13  C1  UNL     1       2.677  -0.196  -2.445  1.00  0.00     0.202 C 
ENDBRANCH   8  12
BRANCH  10  14
HETATM   14  C5  UNL     1       6.490  -1.663   0.085  1.00  0.00     0.196 C 
BRANCH  14  15
HETATM   15  O2  UNL     1       7.510  -1.156   0.880  1.00  0.00    -0.398 OA
ATOM     16  H2  UNL     1       8.348  -1.369   0.486  1.00  0.00     0.209 HD
ENDBRANCH  14  15
ENDBRANCH  10  14
ENDBRANCH   6   7
ENDBRANCH   5   6
ENDBRANCH   1   5
BRANCH   3  17
HETATM   17  C10 UNL     1      -1.768   0.754   0.434  1.00  0.00     0.089 C 
HETATM   18  C11 UNL     1      -2.918   1.653   0.823  1.00  0.00     0.063 C 
HETATM   19  C12 UNL     1      -4.199   1.280   0.110  1.00  0.00     0.121 C 
HETATM   20  C13 UNL     1      -4.842   2.594  -0.307  1.00  0.00     0.046 C 
HETATM   21  C14 UNL     1      -5.187   0.612   1.033  1.00  0.00     0.046 C 
HETATM   22  N2  UNL     1      -3.972   0.533  -1.098  1.00  0.00    -0.059 N 
HETATM   23  C15 UNL     1      -3.236  -0.681  -0.919  1.00  0.00     0.121 C 
ATOM     24  H22 UNL     1      -4.857   0.345  -1.570  1.00  0.00     0.279 HD
ATOM     25  H21 UNL     1      -3.521   1.121  -1.799  1.00  0.00     0.279 HD
HETATM   26  C16 UNL     1      -2.485  -0.957  -2.209  1.00  0.00     0.046 C 
HETATM   27  C17 UNL     1      -4.234  -1.837  -0.763  1.00  0.00     0.046 C 
HETATM   28  C18 UNL     1      -2.261  -0.661   0.203  1.00  0.00     0.063 C 
ENDBRANCH   3  17
TORSDOF 7
