REMARK  8 active torsions:
REMARK  status: ('A' for Active; 'I' for Inactive)
REMARK    1  A    between atoms: C2_2  and  O1_4 
REMARK    2  A    between atoms: O1_4  and  C4_5 
REMARK    3  A    between atoms: C6_7  and  O2_8 
REMARK    4  A    between atoms: C13_17  and  N1_18 
REMARK    5  A    between atoms: N1_18  and  C14_20 
REMARK    6  A    between atoms: C14_20  and  C15_21 
REMARK    7  A    between atoms: C15_21  and  C18_24 
REMARK    8  A    between atoms: C18_24  and  O4_25 
ROOT
HETATM    1  C4  UNL     1      -3.048   0.231  -0.487  1.00  0.00     0.131 C 
HETATM    2  C5  UNL     1      -3.068   1.371  -1.531  1.00  0.00     0.064 C 
HETATM    3  C6  UNL     1      -1.640   1.961  -1.510  1.00  0.00     0.125 C 
HETATM    4  C7  UNL     1      -1.111   1.341  -0.289  1.00  0.00     0.032 C 
HETATM    5  C8  UNL     1       0.333   1.347   0.018  1.00  0.00     0.041 C 
HETATM    6  C9  UNL     1       0.450   1.571   1.511  1.00  0.00     0.009 C 
HETATM    7  C10 UNL     1       0.148   0.369   2.328  1.00  0.00     0.003 C 
HETATM    8  C11 UNL     1      -1.092  -0.356   1.859  1.00  0.00     0.032 C 
HETATM    9  C12 UNL     1      -0.992  -0.929   0.483  1.00  0.00     0.131 C 
HETATM   10  O3  UNL     1       0.391  -1.048   0.208  1.00  0.00    -0.361 OA
HETATM   11  C13 UNL     1       0.909   0.040  -0.447  1.00  0.00     0.225 C 
HETATM   12  C19 UNL     1      -1.581  -0.106  -0.559  1.00  0.00     0.051 C 
ENDROOT
BRANCH  11  13
HETATM   13  N1  UNL     1       2.285  -0.085  -0.622  1.00  0.00    -0.376 N 
ATOM     14  H1  UNL     1       2.622  -0.289  -1.563  1.00  0.00     0.161 HD
BRANCH  13  15
HETATM   15  C14 UNL     1       3.231   0.046   0.379  1.00  0.00     0.069 C 
BRANCH  15  16
HETATM   16  C15 UNL     1       4.644  -0.162  -0.162  1.00  0.00     0.005 C 
HETATM   17  C16 UNL     1       5.599   0.001   1.011  1.00  0.00     0.023 C 
HETATM   18  C17 UNL     1       4.903   0.953  -1.135  1.00  0.00     0.023 C 
BRANCH  16  19
HETATM   19  C18 UNL     1       4.838  -1.509  -0.783  1.00  0.00     0.178 C 
BRANCH  19  20
HETATM   20  O4  UNL     1       4.613  -2.518   0.119  1.00  0.00    -0.400 OA
ATOM     21  H4  UNL     1       4.736  -3.373  -0.275  1.00  0.00     0.209 HD
ENDBRANCH  19  20
ENDBRANCH  16  19
ENDBRANCH  15  16
ENDBRANCH  13  15
ENDBRANCH  11  13
BRANCH   3  22
HETATM   22  O2  UNL     1      -0.968   1.559  -2.647  1.00  0.00    -0.395 OA
ATOM     23  H2  UNL     1      -0.090   1.922  -2.634  1.00  0.00     0.210 HD
ENDBRANCH   3  22
BRANCH   1  24
HETATM   24  O1  UNL     1      -3.876  -0.799  -0.813  1.00  0.00    -0.381 OA
BRANCH  24  25
HETATM   25  C2  UNL     1      -4.842  -1.080   0.141  1.00  0.00     0.113 C 
HETATM   26  C1  UNL     1      -6.234  -0.862  -0.409  1.00  0.00     0.039 C 
HETATM   27  C3  UNL     1      -4.760  -2.439   0.732  1.00  0.00     0.039 C 
ENDBRANCH  24  25
ENDBRANCH   1  24
TORSDOF 8
