REMARK  8 active torsions:
REMARK  status: ('A' for Active; 'I' for Inactive)
REMARK    1  A    between atoms: C2_2  and  C3_3 
REMARK    2  A    between atoms: C3_3  and  C4_4 
REMARK    3  A    between atoms: C4_4  and  N1_6 
REMARK    4  A    between atoms: N1_6  and  C6_8 
REMARK    5  A    between atoms: C9_15  and  N4_16 
REMARK    6  A    between atoms: N4_16  and  C10_18 
REMARK    7  A    between atoms: C15_26  and  O1_27 
REMARK    8  A    between atoms: O1_27  and  C16_28 
ROOT
HETATM    1  C6  UNL     1      -1.344  -0.485  -0.727  1.00  0.00     0.132 A 
HETATM    2  N2  UNL     1      -1.135  -1.776  -0.992  1.00  0.00    -0.337 N 
ATOM      3  H2  UNL     1      -1.927  -2.388  -1.187  1.00  0.00     0.168 HD
HETATM    4  C7  UNL     1       0.113  -2.275  -1.004  1.00  0.00     0.182 A 
HETATM    5  N3  UNL     1       1.200  -1.531  -0.759  1.00  0.00    -0.349 N 
ATOM      6  H3  UNL     1       2.129  -1.952  -0.779  1.00  0.00     0.167 HD
HETATM    7  C8  UNL     1       1.051  -0.226  -0.487  1.00  0.00     0.090 A 
HETATM    8  C9  UNL     1       2.137   0.598  -0.224  1.00  0.00     0.062 A 
HETATM    9  C14 UNL     1       1.851   1.949   0.048  1.00  0.00     0.087 A 
HETATM   10  C15 UNL     1       0.594   2.472   0.064  1.00  0.00     0.144 A 
HETATM   11  N6  UNL     1      -0.415   1.609  -0.201  1.00  0.00    -0.332 N 
ATOM     12  H6  UNL     1      -1.369   1.970  -0.196  1.00  0.00     0.168 HD
HETATM   13  C18 UNL     1      -0.235   0.306  -0.470  1.00  0.00     0.107 A 
ENDROOT
BRANCH   8  14
HETATM   14  N4  UNL     1       3.323   0.204  -0.219  1.00  0.00    -0.382 N 
ATOM     15  H4  UNL     1       3.975   0.959  -0.005  1.00  0.00     0.160 HD
BRANCH  14  16
HETATM   16  C10 UNL     1       3.980  -1.009  -0.433  1.00  0.00     0.109 C 
HETATM   17  C11 UNL     1       5.492  -0.806  -0.686  1.00  0.00     0.054 C 
HETATM   18  C12 UNL     1       6.030  -2.096  -0.104  1.00  0.00     0.234 C 
HETATM   19  N5  UNL     1       5.363  -2.060   1.209  1.00  0.00    -0.073 N 
HETATM   20  C13 UNL     1       3.971  -1.926   0.794  1.00  0.00     0.257 C 
ATOM     21  H52 UNL     1       5.566  -2.844   1.830  1.00  0.00     0.277 HD
ATOM     22  H51 UNL     1       5.701  -1.349   1.857  1.00  0.00     0.277 HD
ENDBRANCH  14  16
ENDBRANCH   8  14
BRANCH  10  23
HETATM   23  O1  UNL     1       0.290   3.789   0.326  1.00  0.00    -0.336 OA
BRANCH  23  24
HETATM   24  C16 UNL     1       1.228   4.770   0.604  1.00  0.00     0.173 C 
HETATM   25  C17 UNL     1       2.215   5.024  -0.490  1.00  0.00     0.034 C 
ENDBRANCH  23  24
ENDBRANCH  10  23
BRANCH   1  26
HETATM   26  N1  UNL     1      -2.492   0.073  -0.695  1.00  0.00    -0.370 N 
ATOM     27  H1  UNL     1      -2.505   1.070  -0.480  1.00  0.00     0.161 HD
BRANCH  26  28
HETATM   28  C4  UNL     1      -3.752  -0.538  -0.925  1.00  0.00     0.079 C 
HETATM   29  C5  UNL     1      -4.742   0.580  -1.267  1.00  0.00     0.032 C 
BRANCH  28  30
HETATM   30  C3  UNL     1      -4.326  -1.248   0.280  1.00  0.00     0.024 C 
BRANCH  30  31
HETATM   31  C2  UNL     1      -5.696  -1.781  -0.164  1.00  0.00    -0.003 C 
HETATM   32  C1  UNL     1      -6.366  -2.517   0.976  1.00  0.00     0.005 C 
ENDBRANCH  30  31
ENDBRANCH  28  30
ENDBRANCH  26  28
ENDBRANCH   1  26
TORSDOF 8
