REMARK  8 active torsions:
REMARK  status: ('A' for Active; 'I' for Inactive)
REMARK    1  A    between atoms: C4_4  and  C5_5 
REMARK    2  A    between atoms: C4_4  and  C6_7 
REMARK    3  A    between atoms: C6_7  and  C7_8 
REMARK    4  A    between atoms: C7_8  and  C8_9 
REMARK    5  A    between atoms: C8_9  and  O2_10 
REMARK    6  A    between atoms: C8_9  and  C9_12 
REMARK    7  A    between atoms: C10_13  and  C11_14 
REMARK    8  A    between atoms: C19_26  and  O4_27 
ROOT
HETATM    1  C6  UNL     1      -0.388  -0.675   0.150  1.00  0.00     0.019 C 
ENDROOT
BRANCH   1   2
HETATM    2  C4  UNL     1      -1.548   0.063   0.787  1.00  0.00     0.014 C 
HETATM    3  C3  UNL     1      -2.481  -1.037   1.314  1.00  0.00     0.023 C 
HETATM    4  C2  UNL     1      -3.409  -1.444   0.203  1.00  0.00     0.012 C 
HETATM    5  C1  UNL     1      -4.129  -2.724   0.555  1.00  0.00     0.012 C 
HETATM    6  C19 UNL     1      -4.399  -0.346  -0.061  1.00  0.00     0.129 C 
HETATM    7  C16 UNL     1      -3.707   0.984  -0.114  1.00  0.00    -0.020 C 
HETATM    8  C15 UNL     1      -2.223   0.894  -0.271  1.00  0.00     0.028 C 
HETATM    9  C17 UNL     1      -4.237   1.700  -1.366  1.00  0.00     0.017 C 
HETATM   10  C18 UNL     1      -4.116   1.865   1.057  1.00  0.00     0.017 C 
BRANCH   6  11
HETATM   11  O4  UNL     1      -5.440  -0.357   0.888  1.00  0.00    -0.394 OA
ATOM     12  H4  UNL     1      -6.066   0.338   0.721  1.00  0.00     0.210 HD
ENDBRANCH   6  11
BRANCH   2  13
HETATM   13  C5  UNL     1      -1.115   0.961   1.869  1.00  0.00     0.240 C 
HETATM   14  O1  UNL     1      -0.914   2.165   1.730  1.00  0.00    -0.306 OA
ENDBRANCH   2  13
ENDBRANCH   1   2
BRANCH   1  15
HETATM   15  C7  UNL     1       0.636   0.269  -0.426  1.00  0.00     0.037 C 
BRANCH  15  16
HETATM   16  C8  UNL     1       1.777  -0.535  -1.053  1.00  0.00     0.140 C 
BRANCH  16  17
HETATM   17  O2  UNL     1       1.213  -1.340  -2.076  1.00  0.00    -0.392 OA
ATOM     18  H2  UNL     1       1.921  -1.839  -2.465  1.00  0.00     0.210 HD
ENDBRANCH  16  17
BRANCH  16  19
HETATM   19  C9  UNL     1       2.750   0.336  -1.727  1.00  0.00     0.002 C 
HETATM   20  C10 UNL     1       3.867   0.690  -1.118  1.00  0.00     0.006 C 
BRANCH  20  21
HETATM   21  C11 UNL     1       4.161   0.215   0.254  1.00  0.00     0.232 C 
HETATM   22  C12 UNL     1       5.144   1.191   0.880  1.00  0.00     0.204 C 
HETATM   23  O3  UNL     1       6.288   0.578   1.333  1.00  0.00    -0.387 OA
HETATM   24  C13 UNL     1       6.964  -0.113   0.340  1.00  0.00     0.195 C 
HETATM   25  C14 UNL     1       6.032  -0.958  -0.503  1.00  0.00     0.259 C 
HETATM   26  N1  UNL     1       4.794  -1.093   0.231  1.00  0.00    -0.064 N 
ATOM     27  H12 UNL     1       4.923  -1.490   1.162  1.00  0.00     0.278 HD
ATOM     28  H11 UNL     1       4.187  -1.823  -0.141  1.00  0.00     0.278 HD
ENDBRANCH  20  21
ENDBRANCH  16  19
ENDBRANCH  15  16
ENDBRANCH   1  15
TORSDOF 8
