REMARK  17 active torsions:
REMARK  status: ('A' for Active; 'I' for Inactive)
REMARK    1  A    between atoms: N1_1  and  C1_5 
REMARK    2  A    between atoms: C3_7  and  O1_8 
REMARK    3  A    between atoms: N2_10  and  C4_11 
REMARK    4  A    between atoms: C5_12  and  C6_13 
REMARK    5  A    between atoms: C6_13  and  O2_14 
REMARK    6  A    between atoms: C6_13  and  C7_16 
REMARK    7  A    between atoms: C7_16  and  C8_17 
REMARK    8  A    between atoms: C8_17  and  C9_18 
REMARK    9  A    between atoms: C9_18  and  C10_19 
REMARK   10  A    between atoms: C10_19  and  N3_20 
REMARK   11  A    between atoms: N3_20  and  C11_22 
REMARK   12  A    between atoms: C13_29  and  O3_30 
REMARK   13  A    between atoms: C14_35  and  O5_36 
REMARK   14  A    between atoms: C14_35  and  C15_38 
REMARK   15  A    between atoms: C15_38  and  C16_39 
REMARK   16  A    between atoms: N8_45  and  O6_47 
REMARK   17  A    between atoms: C20_51  and  O8_52 
ROOT
HETATM    1  C4  UNL     1      -2.432   1.478   0.321  1.00  0.00     0.291 C 
HETATM    2  C5  UNL     1      -1.431   0.692  -0.545  1.00  0.00     0.190 C 
HETATM    3  O4  UNL     1      -1.891  -0.589  -0.490  1.00  0.00    -0.343 OA
HETATM    4  C14 UNL     1      -3.236  -0.591  -0.227  1.00  0.00     0.193 C 
HETATM    5  C20 UNL     1      -3.700   0.878  -0.242  1.00  0.00     0.216 C 
ENDROOT
BRANCH   2   6
HETATM    6  C6  UNL     1      -0.056   0.877   0.103  1.00  0.00     0.149 C 
BRANCH   6   7
HETATM    7  O2  UNL     1      -0.122   0.522   1.437  1.00  0.00    -0.393 OA
ATOM      8  H2  UNL     1       0.731   0.637   1.839  1.00  0.00     0.210 HD
ENDBRANCH   6   7
BRANCH   6   9
HETATM    9  C7  UNL     1       0.942   0.131  -0.715  1.00  0.00     0.034 C 
BRANCH   9  10
HETATM   10  C8  UNL     1       2.361   0.205  -0.270  1.00  0.00     0.004 C 
BRANCH  10  11
HETATM   11  C9  UNL     1       2.588  -0.342   1.092  1.00  0.00     0.020 C 
BRANCH  11  12
HETATM   12  C10 UNL     1       4.106  -0.231   1.347  1.00  0.00     0.138 C 
BRANCH  12  13
HETATM   13  N3  UNL     1       4.822  -1.007   0.375  1.00  0.00    -0.227 N 
ATOM     14  H3  UNL     1       4.332  -1.543  -0.342  1.00  0.00     0.177 HD
BRANCH  13  15
HETATM   15  C11 UNL     1       6.256  -0.999   0.452  1.00  0.00     0.674 C 
HETATM   16  N4  UNL     1       6.971  -1.719  -0.343  1.00  0.00    -0.202 N 
HETATM   17  C12 UNL     1       8.410  -1.766  -0.328  1.00  0.00     0.376 C 
ATOM     18  H4  UNL     1       6.484  -2.295  -1.030  1.00  0.00     0.179 HD
HETATM   19  N5  UNL     1       9.004  -1.163   0.830  1.00  0.00    -0.014 N 
HETATM   20  C13 UNL     1       8.344   0.096   1.108  1.00  0.00     0.442 C 
ATOM     21  H52 UNL     1       8.999  -1.788   1.636  1.00  0.00     0.284 HD
ATOM     22  H51 UNL     1      10.014  -1.057   0.735  1.00  0.00     0.284 HD
HETATM   23  N6  UNL     1       6.949  -0.203   1.401  1.00  0.00    -0.175 N 
ATOM     24  H6  UNL     1       6.493   0.142   2.246  1.00  0.00     0.182 HD
BRANCH  20  25
HETATM   25  O3  UNL     1       8.390   0.843  -0.087  1.00  0.00    -0.354 OA
ATOM     26  H3  UNL     1       7.957   1.669   0.095  1.00  0.00     0.214 HD
ENDBRANCH  20  25
ENDBRANCH  13  15
ENDBRANCH  12  13
ENDBRANCH  11  12
ENDBRANCH  10  11
ENDBRANCH   9  10
ENDBRANCH   6   9
ENDBRANCH   2   6
BRANCH   1  27
HETATM   27  N2  UNL     1      -2.290   2.853   0.230  1.00  0.00     0.129 N 
HETATM   28  C3  UNL     1      -2.498   3.532  -0.982  1.00  0.00     0.359 C 
HETATM   29  C2  UNL     1      -3.486   4.668  -0.693  1.00  0.00     0.098 C 
HETATM   30  C1  UNL     1      -3.253   4.930   0.787  1.00  0.00     0.216 C 
HETATM   31  C21 UNL     1      -2.959   3.537   1.303  1.00  0.00     0.309 C 
BRANCH  28  32
HETATM   32  O1  UNL     1      -1.301   4.160  -1.359  1.00  0.00    -0.368 OA
ATOM     33  H1  UNL     1      -0.689   3.456  -1.538  1.00  0.00     0.212 HD
ENDBRANCH  28  32
BRANCH  30  34
HETATM   34  N1  UNL     1      -2.056   5.725   0.993  1.00  0.00    -0.073 N 
ATOM     35  H13 UNL     1      -1.241   5.298   0.554  1.00  0.00     0.274 HD
ATOM     36  H12 UNL     1      -2.084   6.593   0.457  1.00  0.00     0.274 HD
ATOM     37  H11 UNL     1      -1.900   5.901   1.986  1.00  0.00     0.274 HD
ENDBRANCH  30  34
ENDBRANCH   1  27
BRANCH   5  38
HETATM   38  O8  UNL     1      -4.806   1.061   0.543  1.00  0.00    -0.388 OA
ATOM     39  H8  UNL     1      -5.603   0.684   0.189  1.00  0.00     0.210 HD
ENDBRANCH   5  38
BRANCH   4  40
HETATM   40  O5  UNL     1      -3.431  -1.018   1.084  1.00  0.00    -0.363 OA
ATOM     41  H5  UNL     1      -4.363  -1.019   1.266  1.00  0.00     0.213 HD
ENDBRANCH   4  40
BRANCH   4  42
HETATM   42  C15 UNL     1      -4.033  -1.406  -1.218  1.00  0.00     0.112 C 
BRANCH  42  43
HETATM   43  C16 UNL     1      -3.542  -2.815  -1.167  1.00  0.00     0.267 C 
HETATM   44  N7  UNL     1      -3.680  -3.449   0.130  1.00  0.00    -0.058 N 
HETATM   45  C17 UNL     1      -3.736  -4.866  -0.120  1.00  0.00     0.295 C 
ATOM     46  H72 UNL     1      -2.951  -3.182   0.792  1.00  0.00     0.278 HD
ATOM     47  H71 UNL     1      -4.472  -3.101   0.670  1.00  0.00     0.278 HD
HETATM   48  C18 UNL     1      -4.075  -5.065  -1.555  1.00  0.00     0.105 C 
HETATM   49  N8  UNL     1      -4.268  -6.205  -2.147  1.00  0.00    -0.268 N 
HETATM   50  C19 UNL     1      -4.142  -3.732  -2.140  1.00  0.00     0.206 C 
ATOM     51  H8  UNL     1      -4.499  -6.246  -3.140  1.00  0.00     0.194 HD
HETATM   52  O7  UNL     1      -4.612  -3.409  -3.246  1.00  0.00    -0.289 OA
BRANCH  49  53
HETATM   53  O6  UNL     1      -4.155  -7.341  -1.412  1.00  0.00    -0.290 OA
ATOM     54  H6  UNL     1      -4.296  -8.175  -1.845  1.00  0.00     0.244 HD
ENDBRANCH  49  53
ENDBRANCH  42  43
ENDBRANCH   4  42
TORSDOF 17
