REMARK  11 active torsions:
REMARK  status: ('A' for Active; 'I' for Inactive)
REMARK       I    between atoms: N1_1  and  C1_5 
REMARK       I    between atoms: C1_5  and  N2_6 
REMARK       I    between atoms: C1_5  and  N3_10 
REMARK    1  A    between atoms: N3_10  and  C2_12 
REMARK    2  A    between atoms: C3_17  and  N6_18 
REMARK    3  A    between atoms: N6_18  and  C4_20 
REMARK    4  A    between atoms: C4_20  and  C5_21 
REMARK    5  A    between atoms: C4_20  and  C10_43 
REMARK    6  A    between atoms: C6_24  and  C7_25 
REMARK    7  A    between atoms: C8_30  and  S1_31 
REMARK    8  A    between atoms: S1_31  and  N10_32 
REMARK    9  A    between atoms: C9_38  and  O3_39 
REMARK   10  A    between atoms: C10_43  and  N12_44 
REMARK   11  A    between atoms: C10_43  and  O4_48 
ROOT
HETATM    1  C4  UNL     1      -0.680  -0.544   0.933  1.00  0.00     0.223 C 
ENDROOT
BRANCH   1   2
HETATM    2  N6  UNL     1      -1.415  -1.691   0.519  1.00  0.00    -0.208 N 
ATOM      3  H6  UNL     1      -0.976  -2.605   0.632  1.00  0.00     0.178 HD
BRANCH   2   4
HETATM    4  C3  UNL     1      -2.606  -1.650   0.008  1.00  0.00     0.708 A 
HETATM    5  N5  UNL     1      -3.326  -2.713  -0.392  1.00  0.00    -0.117 N 
HETATM    6  N4  UNL     1      -4.506  -2.292  -0.867  1.00  0.00    -0.117 N 
ATOM      7  H5  UNL     1      -3.022  -3.685  -0.342  1.00  0.00     0.206 HD
HETATM    8  C2  UNL     1      -4.555  -0.951  -0.776  1.00  0.00     0.710 A 
ATOM      9  H4  UNL     1      -5.245  -2.890  -1.237  1.00  0.00     0.206 HD
HETATM   10  N13 UNL     1      -3.382  -0.579  -0.238  1.00  0.00    -0.020 N 
ATOM     11  H13 UNL     1      -3.115   0.386  -0.042  1.00  0.00     0.203 HD
BRANCH   8  12
HETATM   12  N3  UNL     1      -5.575  -0.266  -1.159  1.00  0.00    -0.172 N 
HETATM   13  C1  UNL     1      -5.665   1.165  -1.078  1.00  0.00     0.494 C 
HETATM   14  N1  UNL     1      -6.663   1.464  -0.040  1.00  0.00    -0.032 N 
HETATM   15  N2  UNL     1      -5.990   1.792  -2.325  1.00  0.00    -0.032 N 
ATOM     16  H13 UNL     1      -6.792   2.470   0.072  1.00  0.00     0.278 HD
ATOM     17  H12 UNL     1      -7.604   1.216  -0.347  1.00  0.00     0.278 HD
ATOM     18  H11 UNL     1      -6.432   1.018   0.848  1.00  0.00     0.278 HD
ATOM     19  H23 UNL     1      -6.931   1.544  -2.632  1.00  0.00     0.278 HD
ATOM     20  H22 UNL     1      -6.119   2.798  -2.213  1.00  0.00     0.278 HD
ATOM     21  H21 UNL     1      -5.298   1.585  -3.045  1.00  0.00     0.278 HD
ATOM     22  H3  UNL     1      -6.372  -0.773  -1.545  1.00  0.00     0.181 HD
ENDBRANCH   8  12
ENDBRANCH   2   4
ENDBRANCH   1   2
BRANCH   1  23
HETATM   23  C5  UNL     1       0.767  -0.829   0.768  1.00  0.00     0.112 A 
HETATM   24  N7  UNL     1       1.742  -0.057   0.238  1.00  0.00    -0.338 N 
HETATM   25  C6  UNL     1       2.907  -0.683   0.277  1.00  0.00     0.120 A 
ATOM     26  H7  UNL     1       1.599   0.880  -0.140  1.00  0.00     0.167 HD
HETATM   27  C9  UNL     1       2.694  -1.905   0.850  1.00  0.00     0.171 A 
HETATM   28  N11 UNL     1       1.362  -1.970   1.145  1.00  0.00    -0.323 N 
ATOM     29  H11 UNL     1       0.893  -2.763   1.584  1.00  0.00     0.169 HD
BRANCH  25  30
HETATM   30  C7  UNL     1       4.220  -0.208  -0.192  1.00  0.00     0.123 A 
HETATM   31  N8  UNL     1       5.382  -0.847  -0.147  1.00  0.00    -0.290 N 
HETATM   32  N9  UNL     1       6.422  -0.293  -0.595  1.00  0.00    -0.282 N 
ATOM     33  H8  UNL     1       5.434  -1.785   0.250  1.00  0.00     0.187 HD
HETATM   34  C8  UNL     1       6.357   0.929  -1.113  1.00  0.00     0.207 A 
ATOM     35  H9  UNL     1       7.315  -0.784  -0.560  1.00  0.00     0.188 HD
HETATM   36  S2  UNL     1       4.678   1.264  -0.923  1.00  0.00    -0.036 SA
BRANCH  34  37
HETATM   37  S1  UNL     1       7.646   1.912  -1.797  1.00  0.00     0.280 S 
HETATM   38  O1  UNL     1       8.652   0.967  -2.430  1.00  0.00    -0.199 OA
HETATM   39  O2  UNL     1       7.043   2.743  -2.888  1.00  0.00    -0.199 OA
BRANCH  37  40
HETATM   40  N10 UNL     1       8.366   2.867  -0.581  1.00  0.00    -0.323 N 
ATOM     41 2H10 UNL     1       8.079   2.858   0.398  1.00  0.00     0.169 HD
ATOM     42 1H10 UNL     1       9.113   3.437  -0.978  1.00  0.00     0.169 HD
ENDBRANCH  37  40
ENDBRANCH  34  37
ENDBRANCH  25  30
BRANCH  27  43
HETATM   43  O3  UNL     1       3.653  -2.882   1.083  1.00  0.00    -0.344 OA
ATOM     44  H3  UNL     1       3.505  -3.732   1.481  1.00  0.00     0.219 HD
ENDBRANCH  27  43
ENDBRANCH   1  23
BRANCH   1  45
HETATM   45  C10 UNL     1      -0.898  -0.163   2.378  1.00  0.00     0.347 C 
BRANCH  45  46
HETATM   46  N12 UNL     1      -0.105   1.051   2.609  1.00  0.00    -0.051 N 
ATOM     47 3H12 UNL     1       0.879   0.945   2.362  1.00  0.00     0.277 HD
ATOM     48 2H12 UNL     1      -0.318   1.804   1.955  1.00  0.00     0.277 HD
ATOM     49 1H12 UNL     1      -0.252   1.308   3.585  1.00  0.00     0.277 HD
ENDBRANCH  45  46
BRANCH  45  50
HETATM   50  O4  UNL     1      -2.202   0.132   2.683  1.00  0.00    -0.368 OA
ATOM     51  H4  UNL     1      -2.339   0.372   3.592  1.00  0.00     0.212 HD
ENDBRANCH  45  50
ENDBRANCH   1  45
TORSDOF 11
