REMARK  9 active torsions:
REMARK  status: ('A' for Active; 'I' for Inactive)
REMARK    1  A    between atoms: N1_2  and  C2_4 
REMARK    2  A    between atoms: C5_9  and  O3_10 
REMARK    3  A    between atoms: O3_10  and  C6_11 
REMARK    4  A    between atoms: C6_11  and  C7_13 
REMARK    5  A    between atoms: C7_13  and  C8_14 
REMARK    6  A    between atoms: C11_19  and  O6_20 
REMARK       I    between atoms: N3_22  and  C12_23 
REMARK       I    between atoms: C12_23  and  N4_24 
REMARK       I    between atoms: C12_23  and  N5_28 
REMARK    7  A    between atoms: C13_32  and  O7_33 
REMARK    8  A    between atoms: C15_36  and  N6_37 
REMARK       I    between atoms: N6_37  and  C16_39 
REMARK    9  A    between atoms: N8_41  and  O8_43 
ROOT
HETATM    1  C2  UNL     1      -2.331  -2.363  -0.067  1.00  0.00     0.243 C 
HETATM    2  O1  UNL     1      -1.435  -2.532  -1.114  1.00  0.00    -0.334 OA
HETATM    3  C3  UNL     1      -0.349  -1.663  -0.868  1.00  0.00     0.281 C 
HETATM    4  O2  UNL     1       0.412  -2.354   0.119  1.00  0.00    -0.350 OA
HETATM    5  C4  UNL     1       0.200  -1.300   0.974  1.00  0.00     0.179 C 
HETATM    6  C5  UNL     1       1.472  -0.459   0.982  1.00  0.00     0.200 C 
HETATM    7  C9  UNL     1       0.998   0.837   0.475  1.00  0.00     0.037 A 
HETATM    8  C10 UNL     1      -0.288   0.764  -0.040  1.00  0.00     0.025 A 
HETATM    9  C11 UNL     1      -0.555   2.063  -0.436  1.00  0.00     0.155 A 
HETATM   10  N3  UNL     1       0.513   2.832  -0.167  1.00  0.00    -0.255 N 
HETATM   11  C12 UNL     1       0.621   4.267  -0.440  1.00  0.00     0.490 C 
HETATM   12  N4  UNL     1       1.237   4.960   0.674  1.00  0.00    -0.032 N 
ATOM     13  H41 UNL     1       1.312   5.959   0.484  1.00  0.00     0.279 HD
ATOM     14  H42 UNL     1       2.140   4.554   0.918  1.00  0.00     0.279 HD
ATOM     15  H43 UNL     1       0.745   4.779   1.549  1.00  0.00     0.279 HD
HETATM   16  N5  UNL     1       1.379   4.541  -1.621  1.00  0.00    -0.032 N 
ATOM     17  H51 UNL     1       1.454   5.540  -1.811  1.00  0.00     0.279 HD
ATOM     18  H52 UNL     1       1.000   4.041  -2.425  1.00  0.00     0.279 HD
ATOM     19  H53 UNL     1       2.300   4.105  -1.576  1.00  0.00     0.279 HD
HETATM   20  C13 UNL     1       1.481   2.128   0.388  1.00  0.00     0.157 A 
HETATM   21  C14 UNL     1      -0.775  -0.608   0.063  1.00  0.00     0.095 C 
HETATM   22  C15 UNL     1      -2.220  -0.851   0.241  1.00  0.00     0.153 C 
ENDROOT
BRANCH   9  23
HETATM   23  O6  UNL     1      -1.682   2.629  -1.023  1.00  0.00    -0.345 OA
ATOM     24  H6  UNL     1      -1.865   3.521  -1.295  1.00  0.00     0.219 HD
ENDBRANCH   9  23
BRANCH  20  25
HETATM   25  O7  UNL     1       2.733   2.622   0.793  1.00  0.00    -0.345 OA
ATOM     26  H7  UNL     1       3.065   3.510   0.733  1.00  0.00     0.219 HD
ENDBRANCH  20  25
BRANCH   6  27
HETATM   27  O3  UNL     1       2.459  -0.957   0.103  1.00  0.00    -0.308 OA
BRANCH  27  28
HETATM   28  C6  UNL     1       3.737  -1.294   0.458  1.00  0.00     0.268 C 
HETATM   29  O4  UNL     1       4.059  -1.147   1.679  1.00  0.00    -0.265 OA
BRANCH  28  30
HETATM   30  C7  UNL     1       4.683  -1.808  -0.564  1.00  0.00     0.210 C 
BRANCH  30  31
HETATM   31  C8  UNL     1       5.994  -2.107   0.023  1.00  0.00     0.240 C 
HETATM   32  N2  UNL     1       7.075  -1.220  -0.150  1.00  0.00    -0.062 NA
HETATM   33  O5  UNL     1       6.176  -3.159   0.691  1.00  0.00    -0.276 OA
ENDBRANCH  30  31
ENDBRANCH  28  30
ENDBRANCH  27  28
ENDBRANCH   6  27
BRANCH  22  34
HETATM   34  N6  UNL     1      -2.974  -0.289  -0.881  1.00  0.00    -0.353 N 
HETATM   35  C16 UNL     1      -4.382  -0.397  -0.936  1.00  0.00     0.208 C 
HETATM   36  N7  UNL     1      -5.240   0.104   0.084  1.00  0.00    -0.062 NA
HETATM   37  N8  UNL     1      -4.960  -0.979  -1.956  1.00  0.00    -0.241 N 
ATOM     38  H8  UNL     1      -4.372  -1.349  -2.703  1.00  0.00     0.197 HD
ATOM     39  H6  UNL     1      -2.476   0.187  -1.633  1.00  0.00     0.162 HD
BRANCH  37  40
HETATM   40  O8  UNL     1      -6.302  -1.112  -2.064  1.00  0.00    -0.287 OA
ATOM     41  H8  UNL     1      -6.722  -1.534  -2.804  1.00  0.00     0.244 HD
ENDBRANCH  37  40
ENDBRANCH  22  34
BRANCH   1  42
HETATM   42  N1  UNL     1      -2.266  -3.223   1.014  1.00  0.00    -0.399 N 
HETATM   43  C1  UNL     1      -3.280  -3.114   2.017  1.00  0.00     0.142 C 
ATOM     44  H1  UNL     1      -1.519  -3.913   1.094  1.00  0.00     0.155 HD
ENDBRANCH   1  42
TORSDOF 9
