REMARK  8 active torsions:
REMARK  status: ('A' for Active; 'I' for Inactive)
REMARK    1  A    between atoms: N2_5  and  C3_6 
REMARK    2  A    between atoms: C3_6  and  C4_7 
REMARK    3  A    between atoms: C5_13  and  N5_14 
REMARK    4  A    between atoms: N6_17  and  N7_18 
REMARK    5  A    between atoms: N8_21  and  C6_22 
REMARK    6  A    between atoms: C6_22  and  C7_23 
REMARK    7  A    between atoms: C7_23  and  N9_24 
REMARK    8  A    between atoms: C13_42  and  N15_43 
ROOT
HETATM    1  N9  UNL     1      -2.473  -0.143  -0.158  1.00  0.00    -0.312 N 
HETATM    2  C8  UNL     1      -3.394   0.795  -0.158  1.00  0.00     0.156 A 
HETATM    3  C9  UNL     1      -3.364   2.224   0.059  1.00  0.00     0.169 A 
HETATM    4  N10 UNL     1      -2.218   2.950   0.388  1.00  0.00    -0.289 N 
ATOM      5  H10 UNL     1      -1.264   2.595   0.455  1.00  0.00     0.172 HD
HETATM    6  C10 UNL     1      -2.639   4.246   0.604  1.00  0.00     0.340 A 
HETATM    7  O2  UNL     1      -1.892   5.182   0.912  1.00  0.00    -0.245 OA
HETATM    8  N11 UNL     1      -3.961   4.323   0.417  1.00  0.00    -0.250 N 
ATOM      9  H11 UNL     1      -4.553   5.148   0.508  1.00  0.00     0.192 HD
HETATM   10  N12 UNL     1      -4.329   3.114   0.093  1.00  0.00    -0.278 N 
ATOM     11  H12 UNL     1      -5.298   2.877  -0.119  1.00  0.00     0.189 HD
HETATM   12  N13 UNL     1      -4.663   0.212  -0.358  1.00  0.00    -0.332 N 
ATOM     13  H13 UNL     1      -5.563   0.688  -0.413  1.00  0.00     0.168 HD
HETATM   14  C11 UNL     1      -4.432  -1.081  -0.459  1.00  0.00     0.148 A 
HETATM   15  C12 UNL     1      -5.315  -2.139  -0.644  1.00  0.00     0.290 A 
HETATM   16  O3  UNL     1      -6.561  -1.926  -0.765  1.00  0.00    -0.265 OA
HETATM   17  N14 UNL     1      -4.863  -3.393  -0.704  1.00  0.00    -0.154 N 
ATOM     18  H14 UNL     1      -5.508  -4.170  -0.845  1.00  0.00     0.187 HD
HETATM   19  C13 UNL     1      -3.542  -3.615  -0.576  1.00  0.00     0.680 A 
HETATM   20  N16 UNL     1      -2.657  -2.597  -0.394  1.00  0.00    -0.174 N 
ATOM     21  H16 UNL     1      -1.659  -2.785  -0.296  1.00  0.00     0.186 HD
HETATM   22  C14 UNL     1      -3.121  -1.351  -0.347  1.00  0.00     0.157 A 
ENDROOT
BRANCH   1  23
HETATM   23  C7  UNL     1      -1.061  -0.046  -0.191  1.00  0.00     0.154 C 
BRANCH  23  24
HETATM   24  C6  UNL     1      -0.270   0.156   1.029  1.00  0.00     0.174 C 
BRANCH  24  25
HETATM   25  N8  UNL     1       1.147   0.068   0.654  1.00  0.00    -0.241 N 
HETATM   26  C2  UNL     1       1.790  -1.170   0.351  1.00  0.00     0.113 C 
HETATM   27  C1  UNL     1       1.253  -2.504   0.714  1.00  0.00     0.092 C 
HETATM   28  N1  UNL     1       2.924  -0.927  -0.245  1.00  0.00    -0.268 N 
HETATM   29  N2  UNL     1       3.034   0.490  -0.392  1.00  0.00    -0.191 N 
ATOM     30  H1  UNL     1       3.607  -1.621  -0.550  1.00  0.00     0.190 HD
HETATM   31  N6  UNL     1       2.066   1.016   0.391  1.00  0.00    -0.117 N 
BRANCH  29  32
HETATM   32  C3  UNL     1       4.030   1.024  -1.243  1.00  0.00     0.236 C 
BRANCH  32  33
HETATM   33  C4  UNL     1       5.408   1.039  -0.740  1.00  0.00     0.101 A 
HETATM   34  N3  UNL     1       6.196   2.170  -0.718  1.00  0.00    -0.240 N 
HETATM   35  O1  UNL     1       7.392   1.853  -0.336  1.00  0.00    -0.155 OA
ATOM     36  H3  UNL     1       5.885   3.110  -0.964  1.00  0.00     0.196 HD
HETATM   37  N4  UNL     1       7.479   0.587  -0.094  1.00  0.00    -0.224 N 
HETATM   38  C5  UNL     1       6.267   0.047  -0.329  1.00  0.00     0.147 A 
ATOM     39  H4  UNL     1       8.312   0.088   0.218  1.00  0.00     0.198 HD
BRANCH  38  40
HETATM   40  N5  UNL     1       5.939  -1.162  -0.173  1.00  0.00    -0.382 N 
ATOM     41  H52 UNL     1       5.022  -1.571  -0.351  1.00  0.00     0.157 HD
ATOM     42  H51 UNL     1       6.576  -1.898   0.132  1.00  0.00     0.157 HD
ENDBRANCH  38  40
ENDBRANCH  32  33
ENDBRANCH  29  32
BRANCH  31  43
HETATM   43  N7  UNL     1       2.232   2.120   1.113  1.00  0.00    -0.307 N 
ATOM     44  H72 UNL     1       2.928   2.838   0.914  1.00  0.00     0.180 HD
ATOM     45  H71 UNL     1       1.501   2.517   1.704  1.00  0.00     0.180 HD
ENDBRANCH  31  43
ENDBRANCH  24  25
ENDBRANCH  23  24
ENDBRANCH   1  23
BRANCH  19  46
HETATM   46  N15 UNL     1      -3.135  -4.831  -0.617  1.00  0.00    -0.234 N 
ATOM     47 2H15 UNL     1      -3.798  -5.594  -0.753  1.00  0.00     0.174 HD
ATOM     48 1H15 UNL     1      -2.134  -4.999  -0.520  1.00  0.00     0.174 HD
ENDBRANCH  19  46
TORSDOF 8
