REMARK  9 active torsions:
REMARK  status: ('A' for Active; 'I' for Inactive)
REMARK       I    between atoms: C1_4  and  N3_6 
REMARK    1  A    between atoms: C4_15  and  C5_16 
REMARK    2  A    between atoms: C4_15  and  C12_30 
REMARK    3  A    between atoms: C6_19  and  C7_20 
REMARK    4  A    between atoms: C12_30  and  N11_31 
REMARK    5  A    between atoms: C12_30  and  C13_35 
REMARK    6  A    between atoms: C13_35  and  O2_36 
REMARK    7  A    between atoms: C13_35  and  C14_38 
REMARK    8  A    between atoms: C14_38  and  O3_39 
REMARK    9  A    between atoms: C15_41  and  O4_42 
ROOT
HETATM    1  N1  UNL     1       1.303   2.764   2.406  1.00  0.00    -0.373 N 
ATOM      2  H11 UNL     1       2.156   2.321   2.065  1.00  0.00     0.158 HD
ATOM      3  H12 UNL     1       1.335   3.091   3.372  1.00  0.00     0.158 HD
HETATM    4  C1  UNL     1       0.306   2.847   1.600  1.00  0.00     0.193 C 
HETATM    5  N2  UNL     1      -0.881   3.464   2.075  1.00  0.00    -0.063 NA
HETATM    6  N3  UNL     1       0.262   2.391   0.255  1.00  0.00    -0.257 N 
HETATM    7  C2  UNL     1       0.316   3.501  -0.685  1.00  0.00     0.202 A 
HETATM    8  N4  UNL     1       0.508   4.849  -0.249  1.00  0.00    -0.063 NA
HETATM    9  N5  UNL     1       0.193   3.347  -1.949  1.00  0.00    -0.304 N 
ATOM     10  H5  UNL     1       0.227   4.155  -2.571  1.00  0.00     0.171 HD
HETATM   11  C3  UNL     1       0.009   2.042  -2.480  1.00  0.00     0.193 A 
HETATM   12  N6  UNL     1      -0.110   1.812  -3.867  1.00  0.00    -0.063 NA
HETATM   13  N7  UNL     1      -0.010   1.079  -1.683  1.00  0.00    -0.329 N 
ATOM     14  H7  UNL     1      -0.160   0.163  -2.106  1.00  0.00     0.165 HD
HETATM   15  C4  UNL     1       0.153   1.081  -0.231  1.00  0.00     0.217 A 
ENDROOT
BRANCH  15  16
HETATM   16  C5  UNL     1       1.609   0.510  -0.212  1.00  0.00     0.201 A 
HETATM   17  N8  UNL     1       1.895  -0.741  -0.469  1.00  0.00    -0.319 N 
HETATM   18  C6  UNL     1       3.209  -0.910  -0.393  1.00  0.00     0.138 A 
ATOM     19  H8  UNL     1       1.217  -1.469  -0.692  1.00  0.00     0.169 HD
HETATM   20  N10 UNL     1       3.718   0.318  -0.069  1.00  0.00    -0.242 N 
HETATM   21  O1  UNL     1       2.697   1.155   0.030  1.00  0.00    -0.218 OA
ATOM     22  H10 UNL     1       4.702   0.546   0.070  1.00  0.00     0.196 HD
BRANCH  18  23
HETATM   23  C7  UNL     1       3.975  -2.133  -0.617  1.00  0.00     0.012 A 
HETATM   24  C8  UNL     1       5.372  -2.045  -0.773  1.00  0.00     0.032 A 
HETATM   25  C9  UNL     1       6.106  -3.187  -0.969  1.00  0.00     0.088 A 
HETATM   26  N9  UNL     1       5.544  -4.418  -1.016  1.00  0.00    -0.375 N 
HETATM   27  C10 UNL     1       4.192  -4.543  -0.869  1.00  0.00     0.088 A 
ATOM     28  H9  UNL     1       6.125  -5.244  -1.160  1.00  0.00     0.164 HD
HETATM   29  C11 UNL     1       3.432  -3.384  -0.671  1.00  0.00     0.032 A 
ENDBRANCH  18  23
ENDBRANCH  15  16
BRANCH  15  30
HETATM   30  C12 UNL     1      -0.637   0.063   0.452  1.00  0.00     0.273 C 
BRANCH  30  31
HETATM   31  N11 UNL     1      -0.172  -0.303   1.775  1.00  0.00    -0.068 N 
ATOM     32 3H11 UNL     1       0.806  -0.589   1.735  1.00  0.00     0.275 HD
ATOM     33 2H11 UNL     1      -0.093   0.529   2.360  1.00  0.00     0.275 HD
ATOM     34 1H11 UNL     1      -0.725  -1.015   2.253  1.00  0.00     0.275 HD
ENDBRANCH  30  31
BRANCH  30  35
HETATM   35  C13 UNL     1      -2.139   0.221   0.446  1.00  0.00     0.192 C 
BRANCH  35  36
HETATM   36  O2  UNL     1      -2.640   0.858  -0.689  1.00  0.00    -0.390 OA
ATOM     37  H2  UNL     1      -3.585   0.957  -0.693  1.00  0.00     0.210 HD
ENDBRANCH  35  36
BRANCH  35  38
HETATM   38  C14 UNL     1      -2.884  -1.138   0.537  1.00  0.00     0.144 C 
HETATM   39  C15 UNL     1      -4.418  -0.824   0.789  1.00  0.00     0.190 C 
HETATM   40  C16 UNL     1      -4.537  -2.202   0.180  1.00  0.00     0.251 A 
HETATM   41  N12 UNL     1      -4.215  -2.644  -1.112  1.00  0.00    -0.057 N 
HETATM   42  C17 UNL     1      -3.486  -1.524  -0.763  1.00  0.00     0.259 A 
ATOM     43 2H12 UNL     1      -3.904  -3.559  -1.438  1.00  0.00     0.278 HD
ATOM     44 1H12 UNL     1      -4.814  -2.816  -1.919  1.00  0.00     0.278 HD
BRANCH  38  45
HETATM   45  O3  UNL     1      -2.450  -2.042   1.444  1.00  0.00    -0.382 OA
ATOM     46  H3  UNL     1      -2.906  -2.874   1.500  1.00  0.00     0.210 HD
ENDBRANCH  38  45
BRANCH  39  47
HETATM   47  O4  UNL     1      -4.756  -0.833   2.109  1.00  0.00    -0.390 OA
ATOM     48  H4  UNL     1      -5.675  -0.645   2.260  1.00  0.00     0.210 HD
ENDBRANCH  39  47
ENDBRANCH  35  38
ENDBRANCH  30  35
ENDBRANCH  15  30
TORSDOF 9
