REMARK  0 active torsions:
REMARK  status: ('A' for Active; 'I' for Inactive)
ROOT
HETATM    1  N1  UNL     1      -3.289   2.107   1.126  1.00  0.00    -0.197 NA
HETATM    2  C1  UNL     1      -2.435   1.580   0.551  1.00  0.00     0.069 C 
HETATM    3  C2  UNL     1      -1.354   0.910  -0.148  1.00  0.00     0.173 C 
HETATM    4  C3  UNL     1      -1.644  -0.532  -0.505  1.00  0.00     0.348 C 
HETATM    5  C4  UNL     1      -2.806  -1.103   0.126  1.00  0.00     0.097 C 
HETATM    6  N2  UNL     1      -3.745  -1.569   0.623  1.00  0.00    -0.195 NA
HETATM    7  N3  UNL     1      -0.358  -0.947   0.065  1.00  0.00     0.114 N 
HETATM    8  C5  UNL     1       0.615  -1.185  -0.926  1.00  0.00     0.275 C 
HETATM    9  C6  UNL     1       2.003  -0.752  -0.640  1.00  0.00     0.030 C 
HETATM   10  C7  UNL     1       2.171   0.183   0.498  1.00  0.00     0.004 C 
HETATM   11  C8  UNL     1       0.949   1.025   0.748  1.00  0.00     0.037 C 
HETATM   12  C9  UNL     1      -0.318   0.262   0.776  1.00  0.00     0.245 C 
ENDROOT
TORSDOF 0
