REMARK  4 active torsions:
REMARK  status: ('A' for Active; 'I' for Inactive)
REMARK    1  A    between atoms: C2_2  and  C3_3 
REMARK    2  A    between atoms: C2_2  and  O1_12 
REMARK    3  A    between atoms: C4_4  and  C5_5 
REMARK    4  A    between atoms: O1_12  and  O2_13 
ROOT
HETATM    1  C5  UNL     1      -0.914  -0.047  -0.352  1.00  0.00     0.086 A 
HETATM    2  C6  UNL     1      -1.602   1.077   0.043  1.00  0.00     0.039 A 
HETATM    3  C7  UNL     1      -2.979   1.124  -0.025  1.00  0.00     0.004 A 
HETATM    4  C8  UNL     1      -3.644   0.002  -0.503  1.00  0.00     0.017 A 
HETATM    5  C9  UNL     1      -2.942  -1.117  -0.895  1.00  0.00     0.089 A 
HETATM    6  N1  UNL     1      -1.606  -1.107  -0.807  1.00  0.00    -0.359 N 
ATOM      7  H1  UNL     1      -1.091  -1.938  -1.097  1.00  0.00     0.166 HD
ENDROOT
BRANCH   1   8
HETATM    8  C4  UNL     1       0.517  -0.152  -0.303  1.00  0.00    -0.041 C 
HETATM    9  C3  UNL     1       1.722  -0.222  -0.266  1.00  0.00    -0.033 C 
BRANCH   9  10
HETATM   10  C2  UNL     1       3.156  -0.287  -0.237  1.00  0.00     0.150 C 
HETATM   11  C1  UNL     1       3.878   0.154   0.768  1.00  0.00     0.064 C 
BRANCH  10  12
HETATM   12  O1  UNL     1       3.778  -0.850  -1.341  1.00  0.00    -0.192 OA
BRANCH  12  13
HETATM   13  O2  UNL     1       5.054  -1.251  -1.241  1.00  0.00    -0.244 OA
ATOM     14  H2  UNL     1       5.480  -1.637  -1.997  1.00  0.00     0.254 HD
ENDBRANCH  12  13
ENDBRANCH  10  12
ENDBRANCH   9  10
ENDBRANCH   1   8
TORSDOF 4
