REMARK  0 active torsions:
REMARK  status: ('A' for Active; 'I' for Inactive)
ROOT
HETATM    1  C1  UNL     1      -0.104  -1.660   0.256  1.00  0.00     0.033 C 
HETATM    2  C2  UNL     1       1.112  -0.810   0.160  1.00  0.00     0.038 C 
HETATM    3  C3  UNL     1       0.999   0.611   0.482  1.00  0.00     0.238 C 
HETATM    4  C4  UNL     1       1.745   1.362  -0.649  1.00  0.00     0.114 C 
HETATM    5  S1  UNL     1       0.426   0.967  -1.889  1.00  0.00    -0.101 SA
HETATM    6  C5  UNL     1      -0.918   1.221  -0.731  1.00  0.00     0.523 C 
HETATM    7  N1  UNL     1      -1.677   0.152  -0.254  1.00  0.00     0.160 N 
HETATM    8  C6  UNL     1      -1.272  -1.161  -0.536  1.00  0.00     0.279 C 
HETATM    9  C7  UNL     1      -1.339   0.597   1.107  1.00  0.00     0.551 C 
HETATM   10  N2  UNL     1      -0.224   1.259   0.534  1.00  0.00     0.166 N 
ENDROOT
TORSDOF 0
