REMARK  9 active torsions:
REMARK  status: ('A' for Active; 'I' for Inactive)
REMARK    1  A    between atoms: C2_2  and  C4_4 
REMARK    2  A    between atoms: C4_4  and  C5_5 
REMARK    3  A    between atoms: C7_10  and  C8_11 
REMARK    4  A    between atoms: C8_11  and  C9_12 
REMARK    5  A    between atoms: C13_19  and  C14_20 
REMARK    6  A    between atoms: C14_20  and  C15_21 
REMARK    7  A    between atoms: C19_28  and  C20_29 
REMARK    8  A    between atoms: C24_36  and  C25_37 
REMARK    9  A    between atoms: C25_37  and  C26_38 
ROOT
HETATM    1  C5  UNL     1       1.365   1.683   0.232  1.00  0.00     0.177 C 
HETATM    2  N1  UNL     1       0.553   2.017  -0.928  1.00  0.00    -0.346 N 
ATOM      3  H1  UNL     1       0.998   2.620  -1.620  1.00  0.00     0.163 HD
HETATM    4  C6  UNL     1      -0.751   1.624  -1.220  1.00  0.00     0.241 C 
HETATM    5  O1  UNL     1      -0.905   1.091  -2.387  1.00  0.00    -0.271 OA
HETATM    6  C7  UNL     1      -1.965   1.728  -0.406  1.00  0.00     0.177 C 
HETATM    7  N2  UNL     1      -1.876   1.290   0.948  1.00  0.00    -0.346 N 
ATOM      8  H2  UNL     1      -1.283   1.866   1.545  1.00  0.00     0.163 HD
HETATM    9  C12 UNL     1      -2.468   0.202   1.589  1.00  0.00     0.241 C 
HETATM   10  O2  UNL     1      -2.868   0.486   2.791  1.00  0.00    -0.271 OA
HETATM   11  C13 UNL     1      -2.694  -1.161   1.113  1.00  0.00     0.177 C 
HETATM   12  N3  UNL     1      -1.781  -1.652   0.120  1.00  0.00    -0.346 N 
ATOM     13  H3  UNL     1      -1.972  -1.306  -0.820  1.00  0.00     0.163 HD
HETATM   14  C18 UNL     1      -0.686  -2.508   0.191  1.00  0.00     0.241 C 
HETATM   15  O3  UNL     1      -0.809  -3.662  -0.391  1.00  0.00    -0.271 OA
HETATM   16  C19 UNL     1       0.641  -2.353   0.819  1.00  0.00     0.180 C 
HETATM   17  N4  UNL     1       1.685  -2.890  -0.069  1.00  0.00    -0.346 N 
ATOM     18  H4  UNL     1       2.187  -3.719   0.250  1.00  0.00     0.163 HD
HETATM   19  C23 UNL     1       2.051  -2.359  -1.320  1.00  0.00     0.241 C 
HETATM   20  O4  UNL     1       2.090  -3.135  -2.349  1.00  0.00    -0.271 OA
HETATM   21  C24 UNL     1       2.415  -0.955  -1.627  1.00  0.00     0.177 C 
HETATM   22  N5  UNL     1       2.962  -0.224  -0.500  1.00  0.00    -0.346 N 
ATOM     23  H5  UNL     1       3.612  -0.726   0.105  1.00  0.00     0.163 HD
HETATM   24  C29 UNL     1       2.679   1.120  -0.161  1.00  0.00     0.241 C 
HETATM   25  O5  UNL     1       3.661   1.923  -0.199  1.00  0.00    -0.271 OA
ENDROOT
BRANCH   1  26
HETATM   26  C4  UNL     1       1.580   3.004   0.960  1.00  0.00     0.038 C 
BRANCH  26  27
HETATM   27  C2  UNL     1       2.379   2.889   2.212  1.00  0.00    -0.020 C 
HETATM   28  C1  UNL     1       2.490   4.291   2.796  1.00  0.00     0.009 C 
HETATM   29  C3  UNL     1       1.694   2.056   3.274  1.00  0.00     0.009 C 
ENDBRANCH  26  27
ENDBRANCH   1  26
BRANCH   6  30
HETATM   30  C8  UNL     1      -2.484   3.181  -0.449  1.00  0.00     0.038 C 
BRANCH  30  31
HETATM   31  C9  UNL     1      -2.806   3.573  -1.856  1.00  0.00    -0.020 C 
HETATM   32  C10 UNL     1      -3.872   2.679  -2.422  1.00  0.00     0.009 C 
HETATM   33  C11 UNL     1      -3.119   5.033  -2.007  1.00  0.00     0.009 C 
ENDBRANCH  30  31
ENDBRANCH   6  30
BRANCH  21  34
HETATM   34  C25 UNL     1       3.281  -0.866  -2.870  1.00  0.00     0.038 C 
BRANCH  34  35
HETATM   35  C26 UNL     1       4.563  -1.599  -2.828  1.00  0.00    -0.020 C 
HETATM   36  C27 UNL     1       5.234  -1.356  -4.199  1.00  0.00     0.009 C 
HETATM   37  C28 UNL     1       5.521  -1.098  -1.797  1.00  0.00     0.009 C 
ENDBRANCH  34  35
ENDBRANCH  21  34
BRANCH  11  38
HETATM   38  C14 UNL     1      -4.154  -1.262   0.588  1.00  0.00     0.038 C 
BRANCH  38  39
HETATM   39  C15 UNL     1      -4.402  -2.688   0.090  1.00  0.00    -0.020 C 
HETATM   40  C16 UNL     1      -4.203  -3.677   1.211  1.00  0.00     0.009 C 
HETATM   41  C17 UNL     1      -5.822  -2.699  -0.426  1.00  0.00     0.009 C 
ENDBRANCH  38  39
ENDBRANCH  11  38
BRANCH  16  42
HETATM   42  C20 UNL     1       0.801  -3.098   2.124  1.00  0.00     0.009 C 
HETATM   43  C21 UNL     1      -0.121  -2.716   3.215  1.00  0.00     0.012 C 
HETATM   44  C22 UNL     1       2.255  -2.873   2.553  1.00  0.00     0.012 C 
ENDBRANCH  16  42
TORSDOF 9
