REMARK  9 active torsions:
REMARK  status: ('A' for Active; 'I' for Inactive)
REMARK    1  A    between atoms: C1_2  and  C2_4 
REMARK    2  A    between atoms: C2_4  and  C3_5 
REMARK    3  A    between atoms: C3_5  and  N1_6 
REMARK    4  A    between atoms: C3_5  and  C17_25 
REMARK       I    between atoms: N1_6  and  C4_8 
REMARK    5  A    between atoms: C4_8  and  C5_10 
REMARK    6  A    between atoms: C5_10  and  N2_11 
REMARK       I    between atoms: N2_11  and  C6_13 
REMARK    7  A    between atoms: C6_13  and  C7_15 
REMARK       I    between atoms: C17_25  and  N3_27 
REMARK    8  A    between atoms: N3_27  and  C18_29 
REMARK    9  A    between atoms: C18_29  and  C19_30 
ROOT
HETATM    1  N1  UNL     1       2.252   0.498  -0.733  1.00  0.00    -0.346 N 
ATOM      2  H1  UNL     1       2.535   1.461  -0.551  1.00  0.00     0.163 HD
HETATM    3  C4  UNL     1       0.916   0.096  -0.593  1.00  0.00     0.236 C 
HETATM    4  O3  UNL     1       0.594  -1.092  -0.831  1.00  0.00    -0.272 OA
ENDROOT
BRANCH   1   5
HETATM    5  C3  UNL     1       3.250  -0.534  -1.159  1.00  0.00     0.186 C 
BRANCH   5   6
HETATM    6  C2  UNL     1       3.659  -0.151  -2.523  1.00  0.00     0.147 C 
BRANCH   6   7
HETATM    7  C1  UNL     1       4.558  -1.037  -3.243  1.00  0.00     0.175 C 
HETATM    8  O1  UNL     1       4.847  -2.195  -2.845  1.00  0.00    -0.648 OA
HETATM    9  O2  UNL     1       5.144  -0.627  -4.427  1.00  0.00    -0.648 OA
ENDBRANCH   6   7
ENDBRANCH   5   6
BRANCH   5  10
HETATM   10  C17 UNL     1       4.279  -0.431  -0.093  1.00  0.00     0.242 C 
HETATM   11  O5  UNL     1       3.795  -0.298   1.098  1.00  0.00    -0.271 OA
HETATM   12  N3  UNL     1       5.654  -0.453  -0.192  1.00  0.00    -0.339 N 
ATOM     13  H3  UNL     1       6.052  -0.551  -1.126  1.00  0.00     0.164 HD
BRANCH  12  14
HETATM   14  C18 UNL     1       6.575  -0.350   0.908  1.00  0.00     0.136 A 
HETATM   15  C20 UNL     1       6.296   0.374   2.151  1.00  0.00     0.062 A 
HETATM   16  C21 UNL     1       6.253  -1.108   2.205  1.00  0.00     0.100 A 
HETATM   17 BR1  UNL     1       7.723  -2.058   3.050  1.00  0.00    -0.088 Br
BRANCH  14  18
HETATM   18  C19 UNL     1       8.057  -0.403   0.547  1.00  0.00     0.203 C 
HETATM   19  O6  UNL     1       8.336  -0.831  -0.579  1.00  0.00    -0.646 OA
HETATM   20  O7  UNL     1       9.015   0.004   1.427  1.00  0.00    -0.646 OA
ENDBRANCH  14  18
ENDBRANCH  12  14
ENDBRANCH   5  10
ENDBRANCH   1   5
BRANCH   3  21
HETATM   21  C5  UNL     1      -0.110   1.080  -0.164  1.00  0.00     0.225 C 
BRANCH  21  22
HETATM   22  N2  UNL     1      -1.419   0.480  -0.108  1.00  0.00    -0.352 N 
HETATM   23  C6  UNL     1      -2.531   1.251   0.304  1.00  0.00     0.226 C 
HETATM   24  O4  UNL     1      -2.361   2.442   0.620  1.00  0.00    -0.273 OA
ATOM     25  H2  UNL     1      -1.543  -0.499  -0.365  1.00  0.00     0.162 HD
BRANCH  23  26
HETATM   26  C7  UNL     1      -3.902   0.678   0.366  1.00  0.00     0.042 C 
HETATM   27  C8  UNL     1      -3.863  -0.574   1.198  1.00  0.00     0.024 C 
HETATM   28  C9  UNL     1      -5.245  -1.207   1.237  1.00  0.00    -0.013 C 
HETATM   29  C10 UNL     1      -5.662  -1.492  -0.178  1.00  0.00     0.009 C 
HETATM   30  C14 UNL     1      -6.160  -0.203   1.912  1.00  0.00     0.009 C 
HETATM   31  C11 UNL     1      -5.780  -0.202  -0.956  1.00  0.00    -0.013 C 
HETATM   32  C12 UNL     1      -6.684   0.805  -0.305  1.00  0.00     0.009 C 
HETATM   33  C16 UNL     1      -4.406   0.405  -1.028  1.00  0.00     0.024 C 
HETATM   34  C13 UNL     1      -6.210   1.056   1.112  1.00  0.00    -0.013 C 
HETATM   35  C15 UNL     1      -4.815   1.661   1.024  1.00  0.00     0.024 C 
ENDBRANCH  23  26
ENDBRANCH  21  22
ENDBRANCH   3  21
TORSDOF 9
