REMARK  10 active torsions:
REMARK  status: ('A' for Active; 'I' for Inactive)
REMARK    1  A    between atoms: C1_2  and  C2_4 
REMARK    2  A    between atoms: C2_4  and  C3_5 
REMARK    3  A    between atoms: C2_4  and  N4_25 
REMARK    4  A    between atoms: C3_5  and  N2_6 
REMARK       I    between atoms: N2_6  and  C4_8 
REMARK    5  A    between atoms: C4_8  and  C5_10 
REMARK    6  A    between atoms: C10_15  and  C11_16 
REMARK       I    between atoms: C11_16  and  N3_18 
REMARK    7  A    between atoms: N3_18  and  C12_20 
REMARK       I    between atoms: N4_25  and  C17_27 
REMARK    8  A    between atoms: C17_27  and  C18_29 
REMARK    9  A    between atoms: C20_31  and  C21_32 
REMARK   10  A    between atoms: C23_35  and  O5_36 
ROOT
HETATM    1  N2  UNL     1       0.401  -1.031  -0.349  1.00  0.00    -0.338 N 
ATOM      2  H2  UNL     1       1.158  -0.398  -0.608  1.00  0.00     0.167 HD
HETATM    3  C4  UNL     1       0.814  -2.354  -0.118  1.00  0.00     0.226 C 
HETATM    4  O2  UNL     1      -0.005  -3.235   0.224  1.00  0.00    -0.273 OA
ENDROOT
BRANCH   1   5
HETATM    5  C3  UNL     1      -0.862  -0.420  -0.289  1.00  0.00     0.098 C 
BRANCH   5   6
HETATM    6  C2  UNL     1      -1.941  -0.756  -1.242  1.00  0.00     0.212 C 
BRANCH   6   7
HETATM    7  C1  UNL     1      -2.433  -2.121  -1.335  1.00  0.00     0.259 C 
HETATM    8  N1  UNL     1      -2.039  -3.000  -2.415  1.00  0.00    -0.060 NA
HETATM    9  O1  UNL     1      -3.225  -2.565  -0.470  1.00  0.00    -0.274 OA
ENDBRANCH   6   7
BRANCH   6  10
HETATM   10  N4  UNL     1      -3.072   0.139  -0.812  1.00  0.00    -0.343 N 
HETATM   11  C17 UNL     1      -3.585   1.139  -1.659  1.00  0.00     0.225 C 
HETATM   12  O4  UNL     1      -3.049   1.245  -2.795  1.00  0.00    -0.273 OA
ATOM     13  H4  UNL     1      -3.477   0.018   0.116  1.00  0.00     0.163 HD
BRANCH  11  14
HETATM   14  C18 UNL     1      -4.687   1.986  -1.193  1.00  0.00     0.107 C 
HETATM   15  C19 UNL     1      -5.932   1.200  -0.833  1.00  0.00     0.022 C 
HETATM   16  C20 UNL     1      -6.690   2.088   0.134  1.00  0.00    -0.001 C 
HETATM   17  C22 UNL     1      -5.615   2.832   0.854  1.00  0.00     0.038 C 
HETATM   18  C23 UNL     1      -4.385   2.856  -0.028  1.00  0.00     0.131 C 
BRANCH  16  19
HETATM   19  C21 UNL     1      -7.538   1.243   1.042  1.00  0.00     0.089 C 
HETATM   20 BR1  UNL     1      -8.509   2.347   2.278  1.00  0.00    -0.096 Br
ENDBRANCH  16  19
BRANCH  18  21
HETATM   21  O5  UNL     1      -3.280   2.447   0.709  1.00  0.00    -0.395 OA
ATOM     22  H5  UNL     1      -3.087   3.004   1.454  1.00  0.00     0.210 HD
ENDBRANCH  18  21
ENDBRANCH  11  14
ENDBRANCH   6  10
ENDBRANCH   5   6
ENDBRANCH   1   5
BRANCH   3  23
HETATM   23  C5  UNL     1       2.235  -2.783  -0.263  1.00  0.00     0.091 C 
HETATM   24  C6  UNL     1       2.814  -2.338  -1.578  1.00  0.00     0.015 C 
HETATM   25  C7  UNL     1       4.168  -2.939  -1.781  1.00  0.00     0.001 C 
HETATM   26  C8  UNL     1       4.625  -3.799  -0.646  1.00  0.00     0.001 C 
HETATM   27  C9  UNL     1       4.413  -3.244   0.709  1.00  0.00     0.015 C 
HETATM   28  C10 UNL     1       3.076  -2.577   0.938  1.00  0.00     0.091 C 
BRANCH  28  29
HETATM   29  C11 UNL     1       3.197  -1.218   1.462  1.00  0.00     0.223 C 
HETATM   30  O3  UNL     1       2.694  -0.911   2.608  1.00  0.00    -0.273 OA
HETATM   31  N3  UNL     1       3.842  -0.141   0.817  1.00  0.00    -0.356 N 
ATOM     32  H3  UNL     1       4.268  -0.305  -0.095  1.00  0.00     0.162 HD
BRANCH  31  33
HETATM   33  C12 UNL     1       3.927   1.177   1.385  1.00  0.00     0.084 C 
HETATM   34  C13 UNL     1       5.305   1.735   1.427  1.00  0.00     0.025 C 
HETATM   35  C14 UNL     1       5.243   3.194   1.091  1.00  0.00     0.002 C 
HETATM   36  C15 UNL     1       3.772   3.512   0.935  1.00  0.00     0.002 C 
HETATM   37  C16 UNL     1       3.179   2.181   0.531  1.00  0.00     0.025 C 
ENDBRANCH  31  33
ENDBRANCH  28  29
ENDBRANCH   3  23
TORSDOF 10
