REMARK  11 active torsions:
REMARK  status: ('A' for Active; 'I' for Inactive)
REMARK    1  A    between atoms: C2_2  and  C4_4 
REMARK    2  A    between atoms: C4_4  and  C5_5 
REMARK    3  A    between atoms: C5_5  and  N1_6 
REMARK    4  A    between atoms: C5_5  and  C15_21 
REMARK    5  A    between atoms: N1_6  and  C6_8 
REMARK    6  A    between atoms: C6_8  and  O1_9 
REMARK    7  A    between atoms: C7_11  and  N2_12 
REMARK    8  A    between atoms: C7_11  and  C12_18 
REMARK       I    between atoms: N2_12  and  C8_13 
REMARK    9  A    between atoms: C8_13  and  C9_15 
REMARK       I    between atoms: C15_21  and  N3_23 
REMARK   10  A    between atoms: C20_29  and  C21_30 
REMARK       I    between atoms: C21_30  and  N4_32 
REMARK   11  A    between atoms: N4_32  and  C22_34 
ROOT
HETATM    1  C15 UNL     1      -1.231  -0.839   1.411  1.00  0.00     0.243 C 
HETATM    2  O3  UNL     1      -0.915  -0.235   2.458  1.00  0.00    -0.271 OA
HETATM    3  N3  UNL     1      -2.584  -0.709   0.912  1.00  0.00    -0.337 N 
HETATM    4  C16 UNL     1      -3.696  -1.439   1.465  1.00  0.00     0.128 C 
HETATM    5  C17 UNL     1      -4.356  -2.213   0.382  1.00  0.00     0.040 C 
HETATM    6  C18 UNL     1      -4.549  -1.527  -0.927  1.00  0.00     0.086 C 
HETATM    7 CL1  UNL     1      -6.322  -1.480  -1.257  1.00  0.00    -0.125 Cl
HETATM    8  C19 UNL     1      -4.045  -0.157  -1.031  1.00  0.00     0.055 C 
HETATM    9  C20 UNL     1      -2.934   0.238  -0.152  1.00  0.00     0.181 C 
ENDROOT
BRANCH   1  10
HETATM   10  C5  UNL     1      -0.268  -1.665   0.693  1.00  0.00     0.176 C 
BRANCH  10  11
HETATM   11  C4  UNL     1      -0.110  -2.969   1.404  1.00  0.00     0.038 C 
BRANCH  11  12
HETATM   12  C2  UNL     1       0.256  -4.192   0.672  1.00  0.00    -0.020 C 
HETATM   13  C1  UNL     1      -0.972  -4.549  -0.244  1.00  0.00     0.009 C 
HETATM   14  C3  UNL     1       1.420  -4.192  -0.241  1.00  0.00     0.009 C 
ENDBRANCH  11  12
ENDBRANCH  10  11
BRANCH  10  15
HETATM   15  N1  UNL     1       0.980  -1.103   0.350  1.00  0.00    -0.355 N 
ATOM     16  H1  UNL     1       1.737  -1.774   0.223  1.00  0.00     0.162 HD
BRANCH  15  17
HETATM   17  C6  UNL     1       1.336   0.243   0.157  1.00  0.00     0.178 C 
HETATM   18  C7  UNL     1       2.479   0.809  -0.369  1.00  0.00     0.163 C 
BRANCH  17  19
HETATM   19  O1  UNL     1       0.370   1.101   0.550  1.00  0.00    -0.344 OA
ATOM     20  H1  UNL     1       0.611   2.011   0.420  1.00  0.00     0.219 HD
ENDBRANCH  17  19
BRANCH  18  21
HETATM   21  N2  UNL     1       3.677   0.995   0.326  1.00  0.00    -0.366 NA
HETATM   22  C8  UNL     1       4.808   1.143   1.017  1.00  0.00     0.295 C 
HETATM   23  O2  UNL     1       5.395   0.705   1.949  1.00  0.00    -0.257 OA
BRANCH  22  24
HETATM   24  C9  UNL     1       5.656   2.311   0.332  1.00  0.00     0.085 C 
HETATM   25  C10 UNL     1       6.214   3.008   1.558  1.00  0.00     0.020 C 
HETATM   26  C11 UNL     1       6.634   1.754  -0.550  1.00  0.00     0.020 C 
ENDBRANCH  22  24
ENDBRANCH  18  21
BRANCH  18  27
HETATM   27  C12 UNL     1       2.939   0.261  -1.730  1.00  0.00    -0.042 C 
HETATM   28  C13 UNL     1       3.657  -1.013  -1.702  1.00  0.00     0.046 C 
HETATM   29  C14 UNL     1       3.366   1.305  -2.658  1.00  0.00     0.046 C 
ENDBRANCH  18  27
ENDBRANCH  15  17
ENDBRANCH  10  15
ENDBRANCH   1  10
BRANCH   9  30
HETATM   30  C21 UNL     1      -3.447   1.419   0.723  1.00  0.00     0.259 C 
HETATM   31  O4  UNL     1      -2.959   1.551   1.842  1.00  0.00    -0.270 OA
HETATM   32  N4  UNL     1      -4.409   2.190   0.258  1.00  0.00    -0.156 N 
ATOM     33  H4  UNL     1      -4.900   1.643  -0.449  1.00  0.00     0.187 HD
BRANCH  32  34
HETATM   34  C22 UNL     1      -4.970   3.276   0.305  1.00  0.00     0.703 A 
HETATM   35  N5  UNL     1      -6.029   3.565  -0.484  1.00  0.00    -0.128 N 
HETATM   36  N6  UNL     1      -6.512   4.712  -0.336  1.00  0.00    -0.237 N 
ATOM     37  H5  UNL     1      -6.409   2.896  -1.154  1.00  0.00     0.205 HD
HETATM   38  C23 UNL     1      -5.775   5.349   0.648  1.00  0.00     0.353 A 
ATOM     39  H6  UNL     1      -7.303   5.104  -0.847  1.00  0.00     0.192 HD
HETATM   40  O5  UNL     1      -5.951   6.501   1.054  1.00  0.00    -0.245 OA
HETATM   41  N7  UNL     1      -4.829   4.396   1.014  1.00  0.00    -0.139 N 
ATOM     42  H7  UNL     1      -4.119   4.537   1.733  1.00  0.00     0.189 HD
ENDBRANCH  32  34
ENDBRANCH   9  30
TORSDOF 11
