REMARK  10 active torsions:
REMARK  status: ('A' for Active; 'I' for Inactive)
REMARK    1  A    between atoms: C2_2  and  C3_3 
REMARK    2  A    between atoms: C3_3  and  C4_4 
REMARK    3  A    between atoms: C4_4  and  N1_5 
REMARK       I    between atoms: N1_5  and  C5_7 
REMARK    4  A    between atoms: C5_7  and  C6_9 
REMARK    5  A    between atoms: C8_11  and  C9_12 
REMARK    6  A    between atoms: C9_12  and  O2_13 
REMARK    7  A    between atoms: C9_12  and  C10_15 
REMARK       I    between atoms: C10_15  and  N2_17 
REMARK    8  A    between atoms: N2_17  and  C11_19 
REMARK    9  A    between atoms: C11_19  and  C13_21 
REMARK       I    between atoms: N3_25  and  C17_26 
REMARK       I    between atoms: C17_26  and  N4_28 
REMARK   10  A    between atoms: N4_28  and  C18_30 
ROOT
HETATM    1  C10 UNL     1      -0.885   0.117  -0.701  1.00  0.00     0.247 C 
HETATM    2  O3  UNL     1      -1.163   1.247  -1.175  1.00  0.00    -0.271 OA
HETATM    3  N2  UNL     1      -1.715  -0.985  -1.002  1.00  0.00    -0.353 N 
ATOM      4  H2  UNL     1      -1.461  -1.888  -0.602  1.00  0.00     0.163 HD
ENDROOT
BRANCH   3   5
HETATM    5  C11 UNL     1      -2.881  -0.933  -1.823  1.00  0.00     0.103 C 
HETATM    6  C12 UNL     1      -2.740  -1.789  -3.064  1.00  0.00     0.034 C 
BRANCH   5   7
HETATM    7  C13 UNL     1      -4.150  -1.278  -1.079  1.00  0.00     0.111 C 
HETATM    8  C14 UNL     1      -5.360  -1.208  -2.002  1.00  0.00     0.029 C 
HETATM    9  C15 UNL     1      -5.611   0.282  -2.077  1.00  0.00     0.022 C 
HETATM   10  C16 UNL     1      -5.108   0.800  -0.747  1.00  0.00     0.128 C 
HETATM   11  N3  UNL     1      -4.499  -0.327  -0.077  1.00  0.00    -0.327 N 
HETATM   12  C17 UNL     1      -4.286  -0.469   1.310  1.00  0.00     0.337 C 
HETATM   13  O4  UNL     1      -3.748  -1.482   1.816  1.00  0.00    -0.246 OA
HETATM   14  N4  UNL     1      -4.692   0.569   2.185  1.00  0.00    -0.140 N 
ATOM     15  H4  UNL     1      -4.034   1.293   2.474  1.00  0.00     0.189 HD
BRANCH  14  16
HETATM   16  C18 UNL     1      -5.924   0.579   2.613  1.00  0.00     0.701 A 
HETATM   17  N5  UNL     1      -6.503   1.466   3.439  1.00  0.00    -0.185 N 
HETATM   18  C19 UNL     1      -7.778   1.129   3.636  1.00  0.00     0.215 A 
ATOM     19  H5  UNL     1      -6.038   2.274   3.853  1.00  0.00     0.185 HD
HETATM   20  N6  UNL     1      -7.999   0.015   2.923  1.00  0.00    -0.281 N 
HETATM   21  N7  UNL     1      -6.898  -0.318   2.311  1.00  0.00    -0.131 N 
ATOM     22  H6  UNL     1      -8.884  -0.489   2.869  1.00  0.00     0.188 HD
ATOM     23  H7  UNL     1      -6.785  -1.127   1.700  1.00  0.00     0.205 HD
ENDBRANCH  14  16
ENDBRANCH   5   7
ENDBRANCH   3   5
BRANCH   1  24
HETATM   24  C9  UNL     1       0.312   0.000   0.157  1.00  0.00     0.214 C 
BRANCH  24  25
HETATM   25  C8  UNL     1       1.239  -1.103  -0.295  1.00  0.00     0.025 C 
HETATM   26  C7  UNL     1       2.318  -1.273   0.736  1.00  0.00     0.023 C 
HETATM   27  C6  UNL     1       3.590  -0.743   0.163  1.00  0.00     0.092 C 
HETATM   28  C21 UNL     1       3.282  -0.197  -1.212  1.00  0.00     0.071 C 
HETATM   29  C20 UNL     1       1.931  -0.767  -1.594  1.00  0.00     0.024 C 
HETATM   30 BR1  UNL     1       4.662  -0.782  -2.434  1.00  0.00    -0.090 Br
BRANCH  27  31
HETATM   31  C5  UNL     1       4.260   0.233   1.037  1.00  0.00     0.223 C 
HETATM   32  N1  UNL     1       5.491   0.849   0.666  1.00  0.00    -0.361 N 
ATOM     33  H1  UNL     1       5.915   0.604  -0.229  1.00  0.00     0.162 HD
HETATM   34  O1  UNL     1       3.751   0.540   2.133  1.00  0.00    -0.273 OA
BRANCH  32  35
HETATM   35  C4  UNL     1       6.149   1.795   1.504  1.00  0.00     0.122 C 
BRANCH  35  36
HETATM   36  C3  UNL     1       7.429   2.367   1.071  1.00  0.00     0.019 C 
BRANCH  36  37
HETATM   37  C2  UNL     1       8.600   1.490   0.894  1.00  0.00    -0.003 C 
HETATM   38  C1  UNL     1       8.469   0.419  -0.126  1.00  0.00     0.005 C 
ENDBRANCH  36  37
ENDBRANCH  35  36
ENDBRANCH  32  35
ENDBRANCH  27  31
ENDBRANCH  24  25
BRANCH  24  39
HETATM   39  O2  UNL     1       0.954   1.205   0.310  1.00  0.00    -0.386 OA
ATOM     40  H2  UNL     1       0.371   1.899   0.594  1.00  0.00     0.210 HD
ENDBRANCH  24  39
ENDBRANCH   1  24
TORSDOF 10
