REMARK  11 active torsions:
REMARK  status: ('A' for Active; 'I' for Inactive)
REMARK    1  A    between atoms: C2_2  and  N1_3 
REMARK    2  A    between atoms: C2_2  and  C19_31 
REMARK       I    between atoms: N1_3  and  C3_5 
REMARK    3  A    between atoms: C3_5  and  C4_7 
REMARK       I    between atoms: N2_8  and  C5_10 
REMARK    4  A    between atoms: C5_10  and  C6_12 
REMARK    5  A    between atoms: N3_18  and  C12_19 
REMARK    6  A    between atoms: C12_19  and  O3_20 
REMARK    7  A    between atoms: C12_19  and  N4_22 
REMARK    8  A    between atoms: N4_22  and  C13_24 
REMARK       I    between atoms: C19_31  and  N5_33 
REMARK    9  A    between atoms: N5_33  and  C20_34 
REMARK   10  A    between atoms: C20_34  and  C21_35 
REMARK   11  A    between atoms: C20_34  and  C22_38 
ROOT
HETATM    1  C4  UNL     1       1.088   0.598  -0.111  1.00  0.00     0.165 C 
HETATM    2  N2  UNL     1      -0.138   0.786  -0.644  1.00  0.00    -0.330 N 
ATOM      3  H2  UNL     1      -0.185   1.680  -1.134  1.00  0.00     0.168 HD
HETATM    4  C5  UNL     1      -1.388   0.100  -0.723  1.00  0.00     0.249 C 
HETATM    5  O2  UNL     1      -1.476  -0.972  -0.106  1.00  0.00    -0.270 OA
ENDROOT
BRANCH   4   6
HETATM    6  C6  UNL     1      -2.438   0.682  -1.521  1.00  0.00     0.113 C 
HETATM    7  C7  UNL     1      -1.961   0.242  -2.977  1.00  0.00     0.049 C 
HETATM    8  C8  UNL     1      -2.307   2.231  -1.572  1.00  0.00     0.041 C 
HETATM    9  C9  UNL     1      -3.387   2.912  -2.312  1.00  0.00     0.004 C 
HETATM   10  C10 UNL     1      -4.485   2.163  -2.935  1.00  0.00     0.020 C 
HETATM   11  C11 UNL     1      -4.561   0.728  -2.641  1.00  0.00     0.128 C 
HETATM   12  N3  UNL     1      -3.808   0.391  -1.413  1.00  0.00    -0.330 N 
BRANCH  12  13
HETATM   13  C12 UNL     1      -4.519  -0.178  -0.371  1.00  0.00     0.216 C 
BRANCH  13  14
HETATM   14  O3  UNL     1      -3.833  -0.539   0.677  1.00  0.00    -0.333 OA
ATOM     15  H3  UNL     1      -4.321  -0.930   1.392  1.00  0.00     0.220 HD
ENDBRANCH  13  14
BRANCH  13  16
HETATM   16  N4  UNL     1      -5.885  -0.380  -0.321  1.00  0.00    -0.346 N 
ATOM     17  H4  UNL     1      -6.426  -0.052  -1.121  1.00  0.00     0.164 HD
BRANCH  16  18
HETATM   18  C13 UNL     1      -6.628  -1.010   0.751  1.00  0.00     0.046 C 
HETATM   19  C14 UNL     1      -6.484  -2.532   0.749  1.00  0.00     0.040 C 
HETATM   20  C15 UNL     1      -6.124  -0.549   2.125  1.00  0.00     0.032 C 
HETATM   21  C16 UNL     1      -7.303  -0.821   3.048  1.00  0.00     0.004 C 
HETATM   22  C17 UNL     1      -8.513  -0.663   2.184  1.00  0.00     0.023 C 
HETATM   23  C18 UNL     1      -8.056  -0.555   0.784  1.00  0.00     0.110 C 
HETATM   24 CL1  UNL     1      -9.078  -1.518  -0.325  1.00  0.00    -0.122 Cl
ENDBRANCH  16  18
ENDBRANCH  13  16
ENDBRANCH  12  13
ENDBRANCH   4   6
BRANCH   1  25
HETATM   25  C3  UNL     1       1.592   0.424   1.268  1.00  0.00     0.257 C 
HETATM   26  N1  UNL     1       2.979   0.287   1.265  1.00  0.00    -0.342 N 
ATOM     27  H1  UNL     1       3.276   0.289   0.289  1.00  0.00     0.163 HD
HETATM   28  O1  UNL     1       0.842   0.419   2.227  1.00  0.00    -0.267 OA
BRANCH  26  29
HETATM   29  C2  UNL     1       4.125   0.149   2.037  1.00  0.00     0.187 C 
HETATM   30  C1  UNL     1       3.706  -0.962   3.143  1.00  0.00     0.043 C 
BRANCH  29  31
HETATM   31  C19 UNL     1       5.125  -0.647   1.266  1.00  0.00     0.309 C 
HETATM   32  O4  UNL     1       4.817  -1.883   1.071  1.00  0.00    -0.255 OA
HETATM   33  N5  UNL     1       6.340  -0.187   0.690  1.00  0.00    -0.398 NA
BRANCH  33  34
HETATM   34  C20 UNL     1       7.498   0.239   0.137  1.00  0.00     0.259 C 
BRANCH  34  35
HETATM   35  C21 UNL     1       7.213   0.174  -1.408  1.00  0.00     0.267 C 
HETATM   36  N6  UNL     1       7.621   1.129  -2.317  1.00  0.00    -0.059 NA
HETATM   37  O5  UNL     1       6.555  -0.839  -1.770  1.00  0.00    -0.273 OA
ENDBRANCH  34  35
BRANCH  34  38
HETATM   38  C22 UNL     1       8.667  -0.688   0.318  1.00  0.00     0.022 C 
HETATM   39  C23 UNL     1       9.907  -0.231  -0.325  1.00  0.00     0.013 C 
HETATM   40  C24 UNL     1       9.007  -1.014   1.764  1.00  0.00     0.013 C 
ENDBRANCH  34  38
ENDBRANCH  33  34
ENDBRANCH  29  31
ENDBRANCH  26  29
ENDBRANCH   1  25
TORSDOF 11
