REMARK  14 active torsions:
REMARK  status: ('A' for Active; 'I' for Inactive)
REMARK    1  A    between atoms: N1_5  and  C5_6 
REMARK    2  A    between atoms: C5_6  and  O1_7 
REMARK    3  A    between atoms: C5_6  and  C6_9 
REMARK    4  A    between atoms: C6_9  and  N2_10 
REMARK    5  A    between atoms: C6_9  and  C23_37 
REMARK       I    between atoms: N2_10  and  C7_12 
REMARK    6  A    between atoms: C7_12  and  C8_14 
REMARK    7  A    between atoms: C8_14  and  N3_15 
REMARK    8  A    between atoms: C8_14  and  C9_19 
REMARK       I    between atoms: C9_19  and  N4_21 
REMARK    9  A    between atoms: N4_21  and  C10_23 
REMARK   10  A    between atoms: C10_23  and  C11_24 
REMARK   11  A    between atoms: C10_23  and  C12_26 
REMARK   12  A    between atoms: C12_26  and  C13_27 
REMARK   13  A    between atoms: C23_37  and  N5_38 
REMARK   14  A    between atoms: C23_37  and  O4_42 
ROOT
HETATM    1  C8  UNL     1       1.220  -3.098  -0.352  1.00  0.00     0.365 C 
ENDROOT
BRANCH   1   2
HETATM    2  C7  UNL     1       2.065  -2.199   0.441  1.00  0.00     0.258 C 
HETATM    3  N2  UNL     1       2.693  -1.069  -0.105  1.00  0.00    -0.343 N 
ATOM      4  H2  UNL     1       2.563  -0.857  -1.094  1.00  0.00     0.163 HD
HETATM    5  O2  UNL     1       2.280  -2.405   1.690  1.00  0.00    -0.271 OA
BRANCH   3   6
HETATM    6  C6  UNL     1       3.548  -0.167   0.727  1.00  0.00     0.215 C 
BRANCH   6   7
HETATM    7  C5  UNL     1       4.903  -0.412   0.258  1.00  0.00     0.141 C 
BRANCH   7   8
HETATM    8  N1  UNL     1       5.959   0.449  -0.013  1.00  0.00    -0.359 N 
HETATM    9  C2  UNL     1       7.370   0.172  -0.445  1.00  0.00     0.083 C 
HETATM   10  C1  UNL     1       8.255  -0.181   0.710  1.00  0.00     0.032 C 
HETATM   11  C3  UNL     1       7.485   1.577  -0.923  1.00  0.00     0.045 C 
HETATM   12  C4  UNL     1       6.250   1.853  -0.072  1.00  0.00     0.127 C 
ENDBRANCH   7   8
BRANCH   7  13
HETATM   13  O1  UNL     1       5.181  -1.689   0.048  1.00  0.00    -0.348 OA
ATOM     14  H1  UNL     1       4.459  -2.278   0.233  1.00  0.00     0.219 HD
ENDBRANCH   7  13
ENDBRANCH   6   7
BRANCH   6  15
HETATM   15  C23 UNL     1       3.086   1.223   0.636  1.00  0.00     0.347 C 
BRANCH  15  16
HETATM   16  N5  UNL     1       1.651   1.358   0.962  1.00  0.00    -0.051 N 
ATOM     17  H53 UNL     1       1.082   0.742   0.382  1.00  0.00     0.277 HD
ATOM     18  H52 UNL     1       1.442   0.959   1.877  1.00  0.00     0.277 HD
ATOM     19  H51 UNL     1       1.330   2.324   0.899  1.00  0.00     0.277 HD
ENDBRANCH  15  16
BRANCH  15  20
HETATM   20  O4  UNL     1       3.726   2.127   1.472  1.00  0.00    -0.368 OA
ATOM     21  H4  UNL     1       3.427   3.027   1.413  1.00  0.00     0.212 HD
ENDBRANCH  15  20
ENDBRANCH   6  15
ENDBRANCH   3   6
ENDBRANCH   1   2
BRANCH   1  22
HETATM   22  N3  UNL     1       1.139  -4.347   0.408  1.00  0.00    -0.058 N 
ATOM     23  H33 UNL     1       2.050  -4.743   0.640  1.00  0.00     0.275 HD
ATOM     24  H32 UNL     1       0.813  -4.221   1.366  1.00  0.00     0.275 HD
ATOM     25  H31 UNL     1       0.551  -4.972  -0.144  1.00  0.00     0.275 HD
ENDBRANCH   1  22
BRANCH   1  26
HETATM   26  C9  UNL     1      -0.173  -2.565  -0.574  1.00  0.00     0.258 C 
HETATM   27  O3  UNL     1      -1.077  -3.254  -0.042  1.00  0.00    -0.271 OA
HETATM   28  N4  UNL     1      -0.460  -1.423  -1.294  1.00  0.00    -0.353 N 
ATOM     29  H4  UNL     1       0.339  -0.927  -1.688  1.00  0.00     0.162 HD
BRANCH  28  30
HETATM   30  C10 UNL     1      -1.788  -0.836  -1.560  1.00  0.00     0.095 C 
BRANCH  30  31
HETATM   31  C11 UNL     1      -2.553  -1.933  -2.260  1.00  0.00     0.110 C 
HETATM   32 BR1  UNL     1      -1.560  -2.409  -3.896  1.00  0.00    -0.094 Br
ENDBRANCH  30  31
BRANCH  30  33
HETATM   33  C12 UNL     1      -2.294  -0.385  -0.263  1.00  0.00     0.035 C 
BRANCH  33  34
HETATM   34  C13 UNL     1      -3.587   0.307  -0.118  1.00  0.00    -0.037 C 
HETATM   35  C14 UNL     1      -3.684   0.571   1.407  1.00  0.00     0.014 C 
HETATM   36  C15 UNL     1      -4.940   1.248   1.801  1.00  0.00    -0.013 C 
HETATM   37  C16 UNL     1      -5.003   2.593   1.149  1.00  0.00     0.009 C 
HETATM   38  C20 UNL     1      -6.087   0.349   1.405  1.00  0.00     0.009 C 
HETATM   39  C17 UNL     1      -4.890   2.379  -0.348  1.00  0.00    -0.013 C 
HETATM   40  C18 UNL     1      -6.145   1.626  -0.740  1.00  0.00     0.009 C 
HETATM   41  C22 UNL     1      -3.617   1.690  -0.741  1.00  0.00     0.014 C 
HETATM   42  C19 UNL     1      -6.078   0.242  -0.078  1.00  0.00    -0.013 C 
HETATM   43  C21 UNL     1      -4.801  -0.404  -0.637  1.00  0.00     0.014 C 
ENDBRANCH  33  34
ENDBRANCH  30  33
ENDBRANCH  28  30
ENDBRANCH   1  26
TORSDOF 14
