REMARK  10 active torsions:
REMARK  status: ('A' for Active; 'I' for Inactive)
REMARK    1  A    between atoms: C2_2  and  C3_4 
REMARK    2  A    between atoms: C6_14  and  N4_15 
REMARK    3  A    between atoms: N4_15  and  C7_17 
REMARK       I    between atoms: N5_20  and  C10_21 
REMARK       I    between atoms: C10_21  and  N6_23 
REMARK    4  A    between atoms: N6_23  and  C11_25 
REMARK    5  A    between atoms: C11_25  and  C13_27 
REMARK       I    between atoms: C13_27  and  N7_29 
REMARK    6  A    between atoms: N7_29  and  C14_31 
REMARK    7  A    between atoms: C14_31  and  C15_32 
REMARK    8  A    between atoms: C15_32  and  C16_33 
REMARK    9  A    between atoms: C16_33  and  N8_34 
REMARK       I    between atoms: N8_34  and  C17_36 
REMARK   10  A    between atoms: C17_36  and  C18_38 
ROOT
HETATM    1  C7  UNL     1      -3.677  -0.997   0.137  1.00  0.00     0.086 C 
HETATM    2  C8  UNL     1      -2.495  -0.267   0.674  1.00  0.00     0.045 C 
HETATM    3  C9  UNL     1      -1.478   0.039  -0.441  1.00  0.00     0.129 C 
HETATM    4  N5  UNL     1      -1.225  -1.133  -1.222  1.00  0.00    -0.334 N 
HETATM    5  C10 UNL     1       0.074  -1.608  -1.444  1.00  0.00     0.319 C 
HETATM    6  O2  UNL     1       0.184  -2.692  -2.121  1.00  0.00    -0.247 OA
HETATM    7  N6  UNL     1       1.255  -1.001  -0.995  1.00  0.00    -0.330 N 
ATOM      8  H6  UNL     1       1.208  -0.135  -0.458  1.00  0.00     0.165 HD
HETATM    9  C19 UNL     1      -2.392  -1.799  -1.796  1.00  0.00     0.129 C 
HETATM   10  C20 UNL     1      -3.656  -1.072  -1.385  1.00  0.00     0.045 C 
ENDROOT
BRANCH   7  11
HETATM   11  C11 UNL     1       2.561  -1.607  -1.295  1.00  0.00     0.174 C 
HETATM   12  C12 UNL     1       3.205  -0.789  -2.447  1.00  0.00     0.042 C 
BRANCH  11  13
HETATM   13  C13 UNL     1       3.500  -1.471  -0.170  1.00  0.00     0.240 C 
HETATM   14  O3  UNL     1       3.152  -0.856   0.858  1.00  0.00    -0.271 OA
HETATM   15  N7  UNL     1       4.790  -2.031  -0.253  1.00  0.00    -0.359 N 
ATOM     16  H7  UNL     1       5.033  -2.534  -1.106  1.00  0.00     0.162 HD
BRANCH  15  17
HETATM   17  C14 UNL     1       5.784  -1.945   0.774  1.00  0.00     0.124 C 
BRANCH  17  18
HETATM   18  C15 UNL     1       6.188  -0.500   1.066  1.00  0.00     0.039 C 
BRANCH  18  19
HETATM   19  C16 UNL     1       6.738   0.029  -0.239  1.00  0.00     0.124 C 
BRANCH  19  20
HETATM   20  N8  UNL     1       7.170   1.390  -0.154  1.00  0.00    -0.360 N 
HETATM   21  C17 UNL     1       8.200   1.790   0.730  1.00  0.00     0.227 C 
HETATM   22  O4  UNL     1       8.789   0.990   1.481  1.00  0.00    -0.273 OA
ATOM     23  H8  UNL     1       6.724   2.091  -0.746  1.00  0.00     0.162 HD
BRANCH  21  24
HETATM   24  C18 UNL     1       8.605   3.237   0.770  1.00  0.00     0.187 C 
HETATM   25 BR1  UNL     1      10.011   3.467   2.070  1.00  0.00    -0.087 Br
ENDBRANCH  21  24
ENDBRANCH  19  20
ENDBRANCH  18  19
ENDBRANCH  17  18
ENDBRANCH  15  17
ENDBRANCH  11  13
ENDBRANCH   7  11
BRANCH   1  26
HETATM   26  N4  UNL     1      -4.893  -0.609   0.682  1.00  0.00    -0.370 N 
ATOM     27  H4  UNL     1      -5.397  -1.357   1.157  1.00  0.00     0.161 HD
BRANCH  26  28
HETATM   28  C6  UNL     1      -5.484   0.501   0.694  1.00  0.00     0.132 A 
HETATM   29  C3  UNL     1      -6.745   0.589   1.348  1.00  0.00     0.070 A 
HETATM   30  C4  UNL     1      -7.447   1.768   1.388  1.00  0.00     0.125 A 
HETATM   31  N1  UNL     1      -6.954   2.856   0.810  1.00  0.00    -0.201 N 
HETATM   32  C5  UNL     1      -5.744   2.800   0.174  1.00  0.00     0.677 A 
ATOM     33  H1  UNL     1      -7.476   3.732   0.840  1.00  0.00     0.183 HD
HETATM   34  N2  UNL     1      -5.307   3.804  -0.352  1.00  0.00    -0.234 N 
HETATM   35  N3  UNL     1      -5.037   1.613   0.134  1.00  0.00    -0.176 N 
ATOM     36  H22 UNL     1      -5.829   4.680  -0.322  1.00  0.00     0.174 HD
ATOM     37  H21 UNL     1      -4.405   3.762  -0.826  1.00  0.00     0.174 HD
ATOM     38  H3  UNL     1      -4.137   1.594  -0.345  1.00  0.00     0.186 HD
BRANCH  29  39
HETATM   39  C2  UNL     1      -7.230  -0.633   1.952  1.00  0.00     0.160 C 
HETATM   40  C1  UNL     1      -8.516  -0.712   2.700  1.00  0.00     0.097 C 
HETATM   41  O1  UNL     1      -6.581  -1.705   1.876  1.00  0.00    -0.293 OA
ENDBRANCH  29  39
ENDBRANCH  26  28
ENDBRANCH   1  26
TORSDOF 10
