REMARK  9 active torsions:
REMARK  status: ('A' for Active; 'I' for Inactive)
REMARK    1  A    between atoms: C11_16  and  N4_17 
REMARK       I    between atoms: N4_17  and  C12_19 
REMARK       I    between atoms: C12_19  and  N6_24 
REMARK    2  A    between atoms: N6_24  and  C15_26 
REMARK    3  A    between atoms: C15_26  and  C16_27 
REMARK       I    between atoms: C16_27  and  N7_29 
REMARK    4  A    between atoms: N7_29  and  C17_31 
REMARK    5  A    between atoms: C17_31  and  C18_32 
REMARK       I    between atoms: C18_32  and  N8_34 
REMARK    6  A    between atoms: N8_34  and  C19_36 
REMARK    7  A    between atoms: C19_36  and  C20_37 
REMARK    8  A    between atoms: C19_36  and  C24_41 
REMARK    9  A    between atoms: C20_37  and  C21_38 
ROOT
HETATM    1  C1  UNL     1      -3.692  -1.078  -3.718  1.00  0.00     0.221 C 
HETATM    2  N1  UNL     1      -3.644  -1.322  -2.587  1.00  0.00    -0.462 NA
HETATM    3  C2  UNL     1      -3.584  -1.599  -1.186  1.00  0.00     0.215 C 
HETATM    4  C3  UNL     1      -4.932  -2.010  -0.656  1.00  0.00     0.106 C 
HETATM    5  C4  UNL     1      -5.475  -0.729  -0.068  1.00  0.00     0.393 C 
HETATM    6  N2  UNL     1      -6.286  -0.080  -1.059  1.00  0.00    -0.041 N 
ATOM      7  H21 UNL     1      -6.958  -0.730  -1.467  1.00  0.00     0.280 HD
ATOM      8  H22 UNL     1      -5.742   0.138  -1.894  1.00  0.00     0.280 HD
HETATM    9  C5  UNL     1      -6.947   1.099  -0.545  1.00  0.00     0.189 C 
HETATM   10  C6  UNL     1      -8.155   0.735   0.303  1.00  0.00     0.040 C 
HETATM   11  C7  UNL     1      -5.998   1.891   0.314  1.00  0.00     0.038 C 
HETATM   12  C8  UNL     1      -6.188   3.350  -0.003  1.00  0.00     0.014 C 
HETATM   13  C9  UNL     1      -4.589   1.475  -0.024  1.00  0.00     0.248 C 
HETATM   14  N3  UNL     1      -4.352   0.088   0.305  1.00  0.00    -0.017 N 
HETATM   15  C10 UNL     1      -4.221  -0.038   1.755  1.00  0.00     0.278 C 
HETATM   16  C11 UNL     1      -3.183  -0.374  -0.406  1.00  0.00     0.341 C 
ENDROOT
BRANCH  16  17
HETATM   17  N4  UNL     1      -2.065  -0.608   0.474  1.00  0.00    -0.192 N 
HETATM   18  C12 UNL     1      -0.833  -1.092  -0.080  1.00  0.00     0.683 C 
HETATM   19  N5  UNL     1      -0.049  -0.243  -0.628  1.00  0.00    -0.150 N 
HETATM   20  N6  UNL     1      -0.560  -2.474   0.012  1.00  0.00    -0.217 N 
HETATM   21  C13 UNL     1      -0.263   1.110  -0.746  1.00  0.00     0.015 C 
ATOM     22  H5  UNL     1       0.822  -0.606  -1.016  1.00  0.00     0.195 HD
HETATM   23  C14 UNL     1      -0.427   2.304  -0.842  1.00  0.00     0.037 C 
ATOM     24  H6  UNL     1      -1.203  -3.077   0.525  1.00  0.00     0.178 HD
ATOM     25  H4  UNL     1      -2.149  -0.432   1.475  1.00  0.00     0.180 HD
BRANCH  20  26
HETATM   26  C15 UNL     1       0.602  -3.046  -0.601  1.00  0.00     0.240 C 
BRANCH  26  27
HETATM   27  C16 UNL     1       1.811  -2.581   0.124  1.00  0.00     0.236 C 
HETATM   28  O1  UNL     1       1.748  -1.805   1.125  1.00  0.00    -0.272 OA
HETATM   29  N7  UNL     1       3.076  -3.042  -0.345  1.00  0.00    -0.351 N 
ATOM     30  H7  UNL     1       3.118  -3.674  -1.144  1.00  0.00     0.163 HD
BRANCH  29  31
HETATM   31  C17 UNL     1       4.293  -2.626   0.296  1.00  0.00     0.225 C 
BRANCH  31  32
HETATM   32  C18 UNL     1       4.457  -1.178   0.173  1.00  0.00     0.236 C 
HETATM   33  O2  UNL     1       3.648  -0.439  -0.427  1.00  0.00    -0.272 OA
HETATM   34  N8  UNL     1       5.605  -0.552   0.767  1.00  0.00    -0.345 N 
ATOM     35  H8  UNL     1       6.291  -1.116   1.269  1.00  0.00     0.163 HD
BRANCH  34  36
HETATM   36  C19 UNL     1       5.785   0.849   0.655  1.00  0.00     0.185 C 
BRANCH  36  37
HETATM   37  C20 UNL     1       6.873   1.371  -0.195  1.00  0.00     0.040 C 
BRANCH  37  38
HETATM   38  C21 UNL     1       8.233   0.947   0.217  1.00  0.00    -0.020 C 
HETATM   39  C22 UNL     1       9.224   1.637  -0.773  1.00  0.00     0.009 C 
HETATM   40  C23 UNL     1       8.482  -0.519   0.001  1.00  0.00     0.009 C 
ENDBRANCH  37  38
ENDBRANCH  36  37
BRANCH  36  41
HETATM   41  C24 UNL     1       5.800   1.500   2.018  1.00  0.00     0.196 C 
HETATM   42  O3  UNL     1       5.662   0.807   3.060  1.00  0.00    -0.646 OA
HETATM   43  O4  UNL     1       5.964   2.856   2.151  1.00  0.00    -0.646 OA
ENDBRANCH  36  41
ENDBRANCH  34  36
ENDBRANCH  31  32
ENDBRANCH  29  31
ENDBRANCH  26  27
ENDBRANCH  20  26
ENDBRANCH  16  17
TORSDOF 9
