REMARK  8 active torsions:
REMARK  status: ('A' for Active; 'I' for Inactive)
REMARK    1  A    between atoms: C2_2  and  C3_3 
REMARK    2  A    between atoms: C3_3  and  C4_4 
REMARK    3  A    between atoms: C3_3  and  N3_14 
REMARK    4  A    between atoms: C4_4  and  N1_5 
REMARK       I    between atoms: N3_14  and  C9_16 
REMARK    5  A    between atoms: C9_16  and  C10_18 
REMARK    6  A    between atoms: C10_18  and  C11_19 
REMARK    7  A    between atoms: C10_18  and  N8_35 
REMARK    8  A    between atoms: C11_19  and  C12_20 
REMARK       I    between atoms: N5_25  and  C15_26 
REMARK       I    between atoms: C15_26  and  N6_28 
REMARK       I    between atoms: N8_35  and  C21_37 
ROOT
HETATM    1  C10 UNL     1      -0.084  -0.352  -1.887  1.00  0.00     0.085 C 
ENDROOT
BRANCH   1   2
HETATM    2  C9  UNL     1       1.299  -0.025  -1.562  1.00  0.00     0.264 C 
HETATM    3  N3  UNL     1       2.150  -0.985  -0.952  1.00  0.00    -0.350 N 
ATOM      4  H3  UNL     1       1.779  -1.912  -0.743  1.00  0.00     0.163 HD
HETATM    5  O2  UNL     1       1.788   1.093  -1.801  1.00  0.00    -0.266 OA
BRANCH   3   6
HETATM    6  C3  UNL     1       3.536  -0.688  -0.615  1.00  0.00     0.103 C 
BRANCH   6   7
HETATM    7  C2  UNL     1       4.486  -1.548  -1.424  1.00  0.00     0.022 C 
HETATM    8  C1  UNL     1       4.173  -1.423  -2.917  1.00  0.00     0.007 C 
ENDBRANCH   6   7
BRANCH   6   9
HETATM    9  C4  UNL     1       3.792  -0.772   0.853  1.00  0.00     0.167 C 
BRANCH   9  10
HETATM   10  N1  UNL     1       5.124  -0.341   1.219  1.00  0.00    -0.269 N 
HETATM   11  S1  UNL     1       5.583   1.333   1.640  1.00  0.00    -0.018 SA
HETATM   12  C5  UNL     1       7.366   1.013   1.756  1.00  0.00     0.095 C 
HETATM   13  C6  UNL     1       8.056   2.008   0.851  1.00  0.00     0.052 C 
HETATM   14  C7  UNL     1       7.863   1.136   3.184  1.00  0.00     0.052 C 
HETATM   15  N2  UNL     1       7.480  -0.335   1.324  1.00  0.00    -0.323 N 
HETATM   16  C8  UNL     1       6.307  -1.078   1.328  1.00  0.00     0.329 C 
ATOM     17  H2  UNL     1       8.371  -0.734   1.028  1.00  0.00     0.166 HD
HETATM   18  O1  UNL     1       6.271  -2.353   1.422  1.00  0.00    -0.246 OA
ENDBRANCH   9  10
ENDBRANCH   6   9
ENDBRANCH   3   6
ENDBRANCH   1   2
BRANCH   1  19
HETATM   19  C11 UNL     1      -0.757  -1.325  -0.946  1.00  0.00     0.122 C 
BRANCH  19  20
HETATM   20  C12 UNL     1      -2.151  -1.623  -1.318  1.00  0.00     0.043 A 
HETATM   21  C13 UNL     1      -2.477  -2.513  -2.360  1.00  0.00     0.115 A 
HETATM   22  N4  UNL     1      -3.785  -2.605  -2.460  1.00  0.00    -0.360 N 
HETATM   23  C14 UNL     1      -4.346  -1.815  -1.530  1.00  0.00     0.193 A 
ATOM     24  H4  UNL     1      -4.290  -3.181  -3.133  1.00  0.00     0.166 HD
HETATM   25  N5  UNL     1      -3.348  -1.217  -0.830  1.00  0.00    -0.263 N 
HETATM   26  C15 UNL     1      -3.460  -0.331   0.264  1.00  0.00     0.331 C 
HETATM   27  O3  UNL     1      -2.387   0.126   0.823  1.00  0.00    -0.246 OA
HETATM   28  N6  UNL     1      -4.641   0.139   0.852  1.00  0.00    -0.307 N 
HETATM   29  C16 UNL     1      -4.627   1.082   2.015  1.00  0.00     0.157 C 
HETATM   30  C20 UNL     1      -6.005  -0.115   0.548  1.00  0.00     0.365 C 
HETATM   31  C17 UNL     1      -6.000   1.689   1.931  1.00  0.00     0.258 C 
HETATM   32  N7  UNL     1      -6.841   0.590   1.491  1.00  0.00    -0.057 N 
HETATM   33  C18 UNL     1      -7.208  -0.276   2.569  1.00  0.00     0.274 C 
HETATM   34  C19 UNL     1      -7.995   1.164   0.806  1.00  0.00     0.274 C 
ENDBRANCH  19  20
ENDBRANCH   1  19
BRANCH   1  35
HETATM   35  N8  UNL     1      -0.815   0.736  -2.385  1.00  0.00    -0.329 N 
HETATM   36  C21 UNL     1      -1.087   2.004  -1.867  1.00  0.00     0.186 C 
HETATM   37  N9  UNL     1      -1.971   2.760  -2.418  1.00  0.00    -0.374 N 
HETATM   38  N10 UNL     1      -0.431   2.521  -0.738  1.00  0.00    -0.064 NA
ATOM     39  H92 UNL     1      -2.447   2.385  -3.238  1.00  0.00     0.158 HD
ATOM     40  H91 UNL     1      -2.170   3.686  -2.040  1.00  0.00     0.158 HD
ATOM     41  H8  UNL     1      -1.228   0.569  -3.303  1.00  0.00     0.168 HD
ENDBRANCH   1  35
TORSDOF 8
