REMARK  11 active torsions:
REMARK  status: ('A' for Active; 'I' for Inactive)
REMARK       I    between atoms: N1_2  and  C2_4 
REMARK    1  A    between atoms: C2_4  and  C3_6 
REMARK    2  A    between atoms: C4_7  and  C5_8 
REMARK    3  A    between atoms: C5_8  and  C6_9 
REMARK       I    between atoms: C6_9  and  N2_11 
REMARK       I    between atoms: N5_16  and  C8_17 
REMARK       I    between atoms: C8_17  and  N6_19 
REMARK    4  A    between atoms: N6_19  and  C9_21 
REMARK    5  A    between atoms: N7_24  and  C12_25 
REMARK    6  A    between atoms: C12_25  and  O4_26 
REMARK    7  A    between atoms: C12_25  and  C13_28 
REMARK    8  A    between atoms: C17_32  and  C18_33 
REMARK    9  A    between atoms: C18_33  and  C19_34 
REMARK   10  A    between atoms: C19_34  and  C20_35 
REMARK   11  A    between atoms: C20_35  and  N8_36 
ROOT
HETATM    1  C3  UNL     1       0.617   1.114  -0.921  1.00  0.00     0.128 C 
HETATM    2  C4  UNL     1      -0.672   0.465  -1.474  1.00  0.00     0.137 C 
HETATM    3  N5  UNL     1      -0.620  -0.757  -0.664  1.00  0.00    -0.232 N 
HETATM    4  C8  UNL     1      -1.651  -1.295   0.095  1.00  0.00     0.338 C 
HETATM    5  O3  UNL     1      -2.808  -0.765  -0.046  1.00  0.00    -0.245 OA
HETATM    6  N6  UNL     1      -1.606  -2.352   1.023  1.00  0.00    -0.338 N 
ATOM      7  H6  UNL     1      -0.722  -2.828   1.204  1.00  0.00     0.164 HD
HETATM    8  N7  UNL     1       0.703  -1.233  -0.872  1.00  0.00    -0.262 N 
HETATM    9  C17 UNL     1       1.502  -0.018  -0.661  1.00  0.00     0.126 C 
ENDROOT
BRANCH   2  10
HETATM   10  C5  UNL     1      -1.873   1.289  -1.334  1.00  0.00     0.131 C 
BRANCH  10  11
HETATM   11  C6  UNL     1      -1.750   2.565  -2.096  1.00  0.00     0.225 C 
HETATM   12  O2  UNL     1      -0.802   2.818  -2.869  1.00  0.00    -0.273 OA
HETATM   13  N2  UNL     1      -2.766   3.536  -1.929  1.00  0.00    -0.304 N 
HETATM   14  C7  UNL     1      -3.416   4.109  -2.876  1.00  0.00     0.203 C 
ATOM     15  H2  UNL     1      -3.002   3.804  -0.973  1.00  0.00     0.171 HD
HETATM   16  N3  UNL     1      -3.191   3.835  -4.247  1.00  0.00    -0.066 NA
HETATM   17  N4  UNL     1      -4.405   5.067  -2.532  1.00  0.00    -0.066 NA
ENDBRANCH  10  11
ENDBRANCH   2  10
BRANCH   1  18
HETATM   18  C2  UNL     1       0.186   1.884   0.266  1.00  0.00     0.225 C 
HETATM   19  N1  UNL     1       0.168   3.269   0.427  1.00  0.00    -0.365 N 
HETATM   20  C1  UNL     1      -0.282   3.883   1.646  1.00  0.00     0.149 C 
ATOM     21  H1  UNL     1       0.483   3.862  -0.341  1.00  0.00     0.161 HD
HETATM   22  O1  UNL     1      -0.217   1.184   1.255  1.00  0.00    -0.273 OA
ENDBRANCH   1  18
BRANCH   9  23
HETATM   23  C18 UNL     1       2.311  -0.072   0.565  1.00  0.00     0.030 C 
BRANCH  23  24
HETATM   24  C19 UNL     1       3.279   1.037   0.764  1.00  0.00     0.022 C 
BRANCH  24  25
HETATM   25  C20 UNL     1       4.003   0.756   2.085  1.00  0.00     0.122 C 
BRANCH  25  26
HETATM   26  N8  UNL     1       4.971   1.799   2.370  1.00  0.00    -0.367 N 
HETATM   27  C21 UNL     1       4.597   2.713   3.218  1.00  0.00     0.196 C 
HETATM   28  N9  UNL     1       3.316   2.708   3.844  1.00  0.00    -0.067 NA
HETATM   29  N10 UNL     1       5.467   3.781   3.564  1.00  0.00    -0.067 NA
ATOM     30  H8  UNL     1       5.892   1.815   1.931  1.00  0.00     0.161 HD
ENDBRANCH  25  26
ENDBRANCH  24  25
ENDBRANCH  23  24
ENDBRANCH   9  23
BRANCH   8  31
HETATM   31  C12 UNL     1       1.148  -2.491  -1.292  1.00  0.00     0.141 C 
BRANCH  31  32
HETATM   32  O4  UNL     1       2.455  -2.641  -1.271  1.00  0.00    -0.348 OA
ATOM     33  H4  UNL     1       2.757  -3.495  -1.556  1.00  0.00     0.219 HD
ENDBRANCH  31  32
BRANCH  31  34
HETATM   34  C13 UNL     1       0.471  -3.686  -1.762  1.00  0.00     0.015 C 
HETATM   35  C14 UNL     1      -0.855  -3.514  -2.408  1.00  0.00     0.023 C 
HETATM   36  C15 UNL     1       1.356  -4.304  -2.932  1.00  0.00     0.023 C 
HETATM   37  C16 UNL     1       0.439  -4.820  -0.780  1.00  0.00     0.023 C 
ENDBRANCH  31  34
ENDBRANCH   8  31
BRANCH   6  38
HETATM   38  C9  UNL     1      -2.791  -2.766   1.716  1.00  0.00     0.078 C 
HETATM   39  C10 UNL     1      -3.045  -4.242   1.565  1.00  0.00     0.032 C 
HETATM   40  C11 UNL     1      -2.723  -2.433   3.197  1.00  0.00     0.032 C 
ENDBRANCH   6  38
TORSDOF 11
