REMARK  8 active torsions:
REMARK  status: ('A' for Active; 'I' for Inactive)
REMARK    1  A    between atoms: C2_2  and  C4_4 
REMARK    2  A    between atoms: C4_4  and  C5_5 
REMARK    3  A    between atoms: N2_13  and  C10_14 
REMARK    4  A    between atoms: C10_14  and  C11_15 
REMARK    5  A    between atoms: C12_16  and  C13_17 
REMARK    6  A    between atoms: C13_17  and  C14_18 
REMARK    7  A    between atoms: C14_18  and  N3_19 
REMARK    8  A    between atoms: C16_30  and  C17_31 
REMARK       I    between atoms: C17_31  and  N7_33 
ROOT
HETATM    1  C5  UNL     1      -0.775  -2.267  -0.892  1.00  0.00     0.177 C 
HETATM    2  N1  UNL     1      -0.487  -2.467   0.478  1.00  0.00    -0.346 N 
ATOM      3  H1  UNL     1      -1.299  -2.531   1.091  1.00  0.00     0.163 HD
HETATM    4  C6  UNL     1       0.764  -2.590   1.116  1.00  0.00     0.246 C 
HETATM    5  O1  UNL     1       0.744  -3.267   2.179  1.00  0.00    -0.271 OA
HETATM    6  C7  UNL     1       2.051  -2.063   0.739  1.00  0.00     0.123 C 
HETATM    7  C8  UNL     1       3.028  -2.561   1.831  1.00  0.00     0.049 C 
HETATM    8  C9  UNL     1       2.677  -2.626  -0.496  1.00  0.00     0.049 C 
HETATM    9  N2  UNL     1       2.118  -0.610   0.713  1.00  0.00    -0.197 N 
HETATM   10  C15 UNL     1       1.305   0.238   1.522  1.00  0.00     0.673 C 
HETATM   11  N5  UNL     1       2.026   1.158   2.146  1.00  0.00    -0.235 N 
ATOM     12  H51 UNL     1       1.445   1.764   2.725  1.00  0.00     0.174 HD
ATOM     13  H52 UNL     1       3.030   1.148   1.965  1.00  0.00     0.174 HD
HETATM   14  N6  UNL     1      -0.052   0.251   1.767  1.00  0.00    -0.197 N 
ATOM     15  H6  UNL     1      -0.300   0.140   2.750  1.00  0.00     0.180 HD
HETATM   16  C16 UNL     1      -1.215   0.397   0.859  1.00  0.00     0.295 C 
HETATM   17  N8  UNL     1      -0.837   0.288  -0.502  1.00  0.00    -0.330 N 
ATOM     18  H8  UNL     1      -0.797   1.170  -1.012  1.00  0.00     0.165 HD
HETATM   19  C23 UNL     1      -0.506  -0.861  -1.261  1.00  0.00     0.242 C 
HETATM   20  O4  UNL     1       0.089  -0.692  -2.393  1.00  0.00    -0.271 OA
ENDROOT
BRANCH   9  21
HETATM   21  C10 UNL     1       3.125  -0.059  -0.207  1.00  0.00     0.169 C 
BRANCH  21  22
HETATM   22  C11 UNL     1       3.177   1.386  -0.255  1.00  0.00    -0.010 C 
HETATM   23  C12 UNL     1       4.181   2.183   0.017  1.00  0.00    -0.027 C 
BRANCH  23  24
HETATM   24  C13 UNL     1       5.487   1.670   0.442  1.00  0.00     0.048 C 
BRANCH  24  25
HETATM   25  C14 UNL     1       6.599   2.079  -0.523  1.00  0.00     0.142 C 
BRANCH  25  26
HETATM   26  N3  UNL     1       6.366   1.591  -1.831  1.00  0.00    -0.343 N 
HETATM   27  N4  UNL     1       7.310   1.149  -2.533  1.00  0.00    -0.349 N 
ATOM     28  H42 UNL     1       8.251   1.149  -2.140  1.00  0.00     0.176 HD
ATOM     29  H41 UNL     1       7.142   0.797  -3.476  1.00  0.00     0.176 HD
ATOM     30  H3  UNL     1       5.419   1.598  -2.209  1.00  0.00     0.179 HD
ENDBRANCH  25  26
ENDBRANCH  24  25
ENDBRANCH  23  24
ENDBRANCH  21  22
ENDBRANCH   9  21
BRANCH  16  31
HETATM   31  C17 UNL     1      -1.802   1.772   1.070  1.00  0.00     0.269 C 
HETATM   32  O2  UNL     1      -1.039   2.515   1.799  1.00  0.00    -0.269 OA
HETATM   33  N7  UNL     1      -2.970   2.330   0.630  1.00  0.00    -0.285 N 
HETATM   34  C18 UNL     1      -3.225   3.740   0.997  1.00  0.00     0.135 C 
HETATM   35  C22 UNL     1      -3.925   1.617  -0.120  1.00  0.00     0.226 C 
HETATM   36  C19 UNL     1      -4.673   4.058   1.039  1.00  0.00     0.021 C 
HETATM   37  C20 UNL     1      -5.460   3.461  -0.103  1.00  0.00     0.011 C 
HETATM   38  C21 UNL     1      -5.384   1.953   0.066  1.00  0.00     0.103 C 
HETATM   39  O3  UNL     1      -3.677   0.721  -0.936  1.00  0.00    -0.273 OA
ENDBRANCH  16  31
BRANCH   1  40
HETATM   40  C4  UNL     1      -2.243  -2.617  -1.189  1.00  0.00     0.038 C 
BRANCH  40  41
HETATM   41  C2  UNL     1      -2.579  -2.407  -2.650  1.00  0.00    -0.020 C 
HETATM   42  C1  UNL     1      -1.760  -3.236  -3.585  1.00  0.00     0.009 C 
HETATM   43  C3  UNL     1      -4.046  -2.659  -2.866  1.00  0.00     0.009 C 
ENDBRANCH  40  41
ENDBRANCH   1  40
TORSDOF 8
