REMARK  5 active torsions:
REMARK  status: ('A' for Active; 'I' for Inactive)
REMARK    1  A    between atoms: C2_2  and  O1_3 
REMARK    2  A    between atoms: O1_3  and  C3_4 
REMARK    3  A    between atoms: C3_4  and  C4_6 
REMARK    4  A    between atoms: N1_12  and  S1_13 
REMARK    5  A    between atoms: S1_13  and  C10_16 
ROOT
HETATM    1  C4  UNL     1      -0.804  -0.638  -1.029  1.00  0.00     0.066 C 
HETATM    2  C5  UNL     1      -1.187  -1.142  -2.406  1.00  0.00     0.021 C 
HETATM    3  C6  UNL     1      -2.699  -1.128  -2.504  1.00  0.00     0.001 C 
HETATM    4  C7  UNL     1      -3.092   0.330  -2.496  1.00  0.00     0.002 C 
HETATM    5  C8  UNL     1      -2.774   0.908  -1.154  1.00  0.00     0.022 C 
HETATM    6  C9  UNL     1      -1.330   0.773  -0.844  1.00  0.00     0.092 C 
HETATM    7  N1  UNL     1      -0.910   1.177   0.454  1.00  0.00    -0.204 NA
HETATM    8  C12 UNL     1       0.515   1.416   0.417  1.00  0.00     0.117 C 
HETATM    9  C13 UNL     1       1.316   0.137   0.123  1.00  0.00    -0.026 C 
HETATM   10  C14 UNL     1       1.376  -0.651   1.353  1.00  0.00     0.011 C 
HETATM   11  C15 UNL     1       2.296  -0.229   2.430  1.00  0.00     0.001 C 
HETATM   12  C16 UNL     1       3.730  -0.257   2.246  1.00  0.00     0.000 C 
HETATM   13  C17 UNL     1       4.354  -1.289   1.398  1.00  0.00     0.000 C 
HETATM   14  C18 UNL     1       3.996  -1.432   0.001  1.00  0.00     0.000 C 
HETATM   15  C19 UNL     1       3.650  -0.262  -0.814  1.00  0.00     0.001 C 
HETATM   16  C20 UNL     1       2.605   0.667  -0.429  1.00  0.00     0.011 C 
HETATM   17  C21 UNL     1       0.679  -0.658  -0.979  1.00  0.00     0.032 C 
ENDROOT
BRANCH   7  18
HETATM   18  S1  UNL     1      -1.609   2.636   1.041  1.00  0.00     0.211 S 
HETATM   19  O3  UNL     1      -3.116   2.585   1.094  1.00  0.00    -0.211 OA
HETATM   20  O4  UNL     1      -1.050   2.980   2.407  1.00  0.00    -0.211 OA
BRANCH  18  21
HETATM   21  C10 UNL     1      -1.174   3.999  -0.012  1.00  0.00     0.153 C 
HETATM   22  C11 UNL     1      -1.846   5.237   0.599  1.00  0.00     0.022 C 
ENDBRANCH  18  21
ENDBRANCH   7  18
BRANCH   1  23
HETATM   23  C3  UNL     1      -1.422  -1.578  -0.060  1.00  0.00     0.269 C 
HETATM   24  O2  UNL     1      -2.264  -1.258   0.813  1.00  0.00    -0.264 OA
BRANCH  23  25
HETATM   25  O1  UNL     1      -1.044  -2.912  -0.118  1.00  0.00    -0.321 OA
BRANCH  25  26
HETATM   26  C2  UNL     1      -1.609  -3.845   0.789  1.00  0.00     0.174 C 
HETATM   27  C1  UNL     1      -3.106  -3.935   0.667  1.00  0.00     0.034 C 
ENDBRANCH  25  26
ENDBRANCH  23  25
ENDBRANCH   1  23
TORSDOF 5
