REMARK  5 active torsions:
REMARK  status: ('A' for Active; 'I' for Inactive)
REMARK    1  A    between atoms: O1_2  and  C2_3 
REMARK    2  A    between atoms: C2_3  and  C3_5 
REMARK    3  A    between atoms: C9_11  and  C10_12 
REMARK    4  A    between atoms: C10_12  and  C11_13 
REMARK       I    between atoms: C11_13  and  N1_15 
REMARK    5  A    between atoms: N1_15  and  C13_17 
ROOT
HETATM    1  C3  UNL     1      -4.141  -0.004   0.485  1.00  0.00     0.112 C 
HETATM    2  C4  UNL     1      -3.752   0.117   1.930  1.00  0.00     0.028 C 
HETATM    3  C5  UNL     1      -2.316  -0.392   2.137  1.00  0.00     0.007 C 
HETATM    4  C6  UNL     1      -1.360   0.249   1.153  1.00  0.00    -0.006 C 
HETATM    5  C7  UNL     1       0.033  -0.043   1.509  1.00  0.00    -0.009 C 
HETATM    6  C8  UNL     1       0.334  -1.315   2.208  1.00  0.00     0.011 C 
HETATM    7  C9  UNL     1       0.982   0.287   0.350  1.00  0.00     0.006 C 
HETATM    8  C16 UNL     1       0.644  -0.442  -0.911  1.00  0.00    -0.043 C 
HETATM    9  C17 UNL     1       1.575  -1.538  -1.306  1.00  0.00     0.015 C 
HETATM   10  C18 UNL     1       0.619   0.565  -2.071  1.00  0.00     0.015 C 
HETATM   11  C19 UNL     1      -0.750  -1.039  -0.891  1.00  0.00     0.014 C 
HETATM   12  C20 UNL     1      -1.745  -0.085  -0.267  1.00  0.00    -0.004 C 
HETATM   13  C21 UNL     1      -3.063  -0.746  -0.251  1.00  0.00     0.016 C 
HETATM   14  C22 UNL     1      -3.706  -1.038  -1.564  1.00  0.00     0.014 C 
HETATM   15  C23 UNL     1      -5.132  -1.417  -1.147  1.00  0.00     0.080 C 
HETATM   16  C24 UNL     1      -5.290  -0.919   0.244  1.00  0.00     0.145 C 
HETATM   17  O4  UNL     1      -6.170  -1.209   0.996  1.00  0.00    -0.297 OA
ENDROOT
BRANCH   7  18
HETATM   18  C10 UNL     1       2.350   0.094   0.892  1.00  0.00     0.108 C 
BRANCH  18  19
HETATM   19  C11 UNL     1       3.508   0.384   0.063  1.00  0.00     0.220 C 
HETATM   20  O3  UNL     1       3.422   0.920  -1.056  1.00  0.00    -0.273 OA
HETATM   21  N1  UNL     1       4.798   0.031   0.573  1.00  0.00    -0.352 N 
HETATM   22  C12 UNL     1       4.884  -0.592   1.869  1.00  0.00     0.153 C 
BRANCH  21  23
HETATM   23  C13 UNL     1       6.001   0.274  -0.155  1.00  0.00     0.078 C 
HETATM   24  C14 UNL     1       6.030  -0.397  -1.505  1.00  0.00     0.032 C 
HETATM   25  C15 UNL     1       6.232   1.765  -0.379  1.00  0.00     0.032 C 
ENDBRANCH  21  23
ENDBRANCH  18  19
ENDBRANCH   7  18
BRANCH   1  26
HETATM   26  C2  UNL     1      -4.506   1.297  -0.116  1.00  0.00     0.275 C 
HETATM   27  O2  UNL     1      -3.936   1.853  -1.075  1.00  0.00    -0.264 OA
BRANCH  26  28
HETATM   28  O1  UNL     1      -5.599   1.997   0.426  1.00  0.00    -0.326 OA
HETATM   29  C1  UNL     1      -5.991   3.244  -0.110  1.00  0.00     0.213 C 
ENDBRANCH  26  28
ENDBRANCH   1  26
TORSDOF 5
