REMARK  5 active torsions:
REMARK  status: ('A' for Active; 'I' for Inactive)
REMARK    1  A    between atoms: C8_8  and  C9_9 
REMARK    2  A    between atoms: C9_9  and  O1_10 
REMARK    3  A    between atoms: O1_10  and  S1_11 
REMARK    4  A    between atoms: S1_11  and  C10_14 
REMARK    5  A    between atoms: C10_14  and  C11_15 
ROOT
HETATM    1  C1  UNL     1       0.941  -3.591  -1.221  1.00  0.00     0.015 C 
HETATM    2  C2  UNL     1       0.044  -3.060  -0.402  1.00  0.00    -0.078 A 
HETATM    3  C3  UNL     1      -1.456  -3.041  -0.082  1.00  0.00     0.027 A 
HETATM    4  C4  UNL     1      -2.242  -2.475  -1.174  1.00  0.00    -0.009 C 
HETATM    5  C5  UNL     1      -1.895  -3.187  -2.465  1.00  0.00     0.010 C 
HETATM    6  C6  UNL     1      -2.034  -0.964  -1.380  1.00  0.00     0.011 C 
HETATM    7  C7  UNL     1      -1.893  -0.307  -0.051  1.00  0.00     0.013 C 
HETATM    8  C8  UNL     1      -0.632  -0.749   0.598  1.00  0.00    -0.005 C 
HETATM    9  C14 UNL     1      -0.689  -0.293   2.071  1.00  0.00     0.013 C 
HETATM   10  C15 UNL     1      -0.814   1.203   2.141  1.00  0.00     0.010 C 
HETATM   11  C16 UNL     1      -2.088   1.555   1.491  1.00  0.00     0.024 C 
HETATM   12  C17 UNL     1      -2.535   2.944   1.632  1.00  0.00    -0.024 C 
HETATM   13  C18 UNL     1      -3.766   3.255   1.245  1.00  0.00    -0.023 C 
HETATM   14  C19 UNL     1      -4.579   2.103   0.687  1.00  0.00     0.106 C 
HETATM   15  C20 UNL     1      -3.628   1.469  -0.307  1.00  0.00     0.139 C 
HETATM   16  O4  UNL     1      -4.096   1.258  -1.394  1.00  0.00    -0.297 OA
HETATM   17  C21 UNL     1      -2.228   1.139   0.036  1.00  0.00     0.028 C 
HETATM   18  C22 UNL     1      -1.370   2.036  -0.836  1.00  0.00     0.024 C 
HETATM   19  C23 UNL     1      -0.565  -2.259   0.692  1.00  0.00     0.034 A 
ENDROOT
BRANCH   8  20
HETATM   20  C9  UNL     1       0.660  -0.259   0.107  1.00  0.00     0.200 C 
BRANCH  20  21
HETATM   21  O1  UNL     1       1.026  -0.515  -1.184  1.00  0.00    -0.275 OA
BRANCH  21  22
HETATM   22  S1  UNL     1       2.540   0.171  -1.434  1.00  0.00     0.265 S 
HETATM   23  O2  UNL     1       3.230  -0.349  -2.633  1.00  0.00    -0.199 OA
HETATM   24  O3  UNL     1       2.311   1.667  -1.565  1.00  0.00    -0.199 OA
BRANCH  22  25
HETATM   25  C10 UNL     1       3.504  -0.060   0.051  1.00  0.00     0.174 C 
BRANCH  25  26
HETATM   26  C11 UNL     1       4.885   0.537  -0.108  1.00  0.00    -0.007 C 
HETATM   27  C12 UNL     1       4.858   2.010  -0.387  1.00  0.00     0.010 C 
HETATM   28  C13 UNL     1       5.656   0.277   1.159  1.00  0.00     0.010 C 
ENDBRANCH  25  26
ENDBRANCH  22  25
ENDBRANCH  21  22
ENDBRANCH  20  21
ENDBRANCH   8  20
TORSDOF 5
