REMARK  4 active torsions:
REMARK  status: ('A' for Active; 'I' for Inactive)
REMARK    1  A    between atoms: C2_2  and  S1_3 
REMARK    2  A    between atoms: S1_3  and  N1_6 
REMARK    3  A    between atoms: C10_14  and  N2_15 
REMARK       I    between atoms: N2_15  and  C12_17 
REMARK    4  A    between atoms: C12_17  and  C13_19 
ROOT
HETATM    1  N1  UNL     1      -3.031   1.200  -0.159  1.00  0.00    -0.244 N 
HETATM    2  C3  UNL     1      -2.977  -0.063   0.348  1.00  0.00     0.035 A 
HETATM    3  C4  UNL     1      -1.719  -0.549   0.092  1.00  0.00    -0.024 A 
HETATM    4  C5  UNL     1      -0.989   0.440  -0.586  1.00  0.00    -0.003 A 
HETATM    5  C6  UNL     1      -1.847   1.516  -0.724  1.00  0.00     0.037 A 
HETATM    6  C7  UNL     1      -1.382   2.746  -1.416  1.00  0.00     0.059 C 
HETATM    7  C8  UNL     1      -0.438   2.318  -2.526  1.00  0.00     0.008 C 
HETATM    8  C9  UNL     1       0.731   1.557  -2.025  1.00  0.00     0.031 C 
HETATM    9  C10 UNL     1       0.413   0.445  -1.092  1.00  0.00     0.122 C 
HETATM   10  C19 UNL     1      -1.283  -1.910   0.502  1.00  0.00     0.041 C 
HETATM   11  C20 UNL     1      -2.406  -2.712   1.062  1.00  0.00     0.005 C 
HETATM   12  C21 UNL     1      -3.775  -2.311   0.563  1.00  0.00     0.006 C 
HETATM   13  C22 UNL     1      -3.998  -0.875   1.057  1.00  0.00     0.059 C 
ENDROOT
BRANCH   9  14
HETATM   14  N2  UNL     1       1.387   0.354  -0.002  1.00  0.00    -0.347 N 
HETATM   15  C11 UNL     1       1.451   1.430   0.935  1.00  0.00     0.153 C 
HETATM   16  C12 UNL     1       2.243  -0.774   0.133  1.00  0.00     0.224 C 
HETATM   17  O3  UNL     1       2.132  -1.711  -0.723  1.00  0.00    -0.273 OA
BRANCH  16  18
HETATM   18  C13 UNL     1       3.232  -0.861   1.232  1.00  0.00     0.078 C 
HETATM   19  C14 UNL     1       3.912  -2.234   1.142  1.00  0.00     0.014 C 
HETATM   20  C15 UNL     1       4.936  -2.177   0.056  1.00  0.00     0.001 C 
HETATM   21  C16 UNL     1       6.100  -1.353   0.564  1.00  0.00     0.000 C 
HETATM   22  C17 UNL     1       5.659  -0.188   1.385  1.00  0.00     0.001 C 
HETATM   23  C18 UNL     1       4.231   0.242   1.099  1.00  0.00     0.014 C 
ENDBRANCH  16  18
ENDBRANCH   9  14
BRANCH   1  24
HETATM   24  S1  UNL     1      -4.425   2.197  -0.059  1.00  0.00     0.258 S 
HETATM   25  O1  UNL     1      -4.217   3.548  -0.656  1.00  0.00    -0.201 OA
HETATM   26  O2  UNL     1      -4.832   2.386   1.379  1.00  0.00    -0.201 OA
BRANCH  24  27
HETATM   27  C2  UNL     1      -5.745   1.425  -0.920  1.00  0.00     0.122 C 
HETATM   28  C1  UNL     1      -6.986   1.591  -0.534  1.00  0.00     0.025 C 
ENDBRANCH  24  27
ENDBRANCH   1  24
TORSDOF 4
