REMARK  6 active torsions:
REMARK  status: ('A' for Active; 'I' for Inactive)
REMARK    1  A    between atoms: N2_7  and  C4_8 
REMARK    2  A    between atoms: C4_8  and  C5_9 
REMARK    3  A    between atoms: C5_9  and  C6_10 
REMARK    4  A    between atoms: C6_10  and  C7_11 
REMARK    5  A    between atoms: C7_11  and  N3_12 
REMARK    6  A    between atoms: N3_12  and  C8_15 
ROOT
HETATM    1  C6  UNL     1       0.893   0.828   1.481  1.00  0.00     0.029 C 
ENDROOT
BRANCH   1   2
HETATM    2  C5  UNL     1       1.578  -0.460   1.714  1.00  0.00     0.022 C 
BRANCH   2   3
HETATM    3  C4  UNL     1       2.077  -1.212   0.540  1.00  0.00     0.129 C 
BRANCH   3   4
HETATM    4  N2  UNL     1       3.087  -0.530  -0.240  1.00  0.00    -0.353 N 
HETATM    5  C3  UNL     1       4.404  -0.654   0.064  1.00  0.00     0.095 A 
HETATM    6  C2  UNL     1       5.368  -0.017  -0.681  1.00  0.00     0.065 A 
HETATM    7  C1  UNL     1       5.024   0.771  -1.765  1.00  0.00     0.100 A 
HETATM    8  N1  UNL     1       5.944   1.360  -2.449  1.00  0.00    -0.385 N 
HETATM    9  N5  UNL     1       3.717   0.879  -2.045  1.00  0.00    -0.339 N 
ATOM     10  H12 UNL     1       6.938   1.278  -2.236  1.00  0.00     0.157 HD
ATOM     11  H11 UNL     1       5.690   1.941  -3.248  1.00  0.00     0.157 HD
HETATM   12  C13 UNL     1       2.786   0.234  -1.287  1.00  0.00     0.184 A 
ATOM     13  H5  UNL     1       3.416   1.451  -2.834  1.00  0.00     0.168 HD
ENDBRANCH   3   4
ENDBRANCH   2   3
ENDBRANCH   1   2
BRANCH   1  14
HETATM   14  C7  UNL     1      -0.369   0.785   0.689  1.00  0.00     0.235 C 
BRANCH  14  15
HETATM   15  N3  UNL     1      -1.391  -0.036   1.310  1.00  0.00    -0.046 N 
ATOM     16  H32 UNL     1      -1.037  -0.975   1.494  1.00  0.00     0.279 HD
ATOM     17  H31 UNL     1      -1.567   0.270   2.267  1.00  0.00     0.279 HD
BRANCH  15  18
HETATM   18  C8  UNL     1      -2.605  -0.093   0.570  1.00  0.00     0.382 C 
HETATM   19  C9  UNL     1      -2.465  -0.710  -0.792  1.00  0.00     0.062 C 
HETATM   20  C10 UNL     1      -3.825  -1.282  -1.198  1.00  0.00     0.005 C 
HETATM   21  C11 UNL     1      -4.884  -0.380  -0.647  1.00  0.00     0.028 C 
HETATM   22  C12 UNL     1      -4.411   1.025  -0.452  1.00  0.00     0.235 C 
HETATM   23  N4  UNL     1      -3.301   1.153   0.438  1.00  0.00    -0.046 N 
ATOM     24  H42 UNL     1      -3.586   1.523   1.345  1.00  0.00     0.279 HD
ATOM     25  H41 UNL     1      -2.675   1.906   0.153  1.00  0.00     0.279 HD
ENDBRANCH  15  18
ENDBRANCH  14  15
ENDBRANCH   1  14
TORSDOF 6
