REMARK  8 active torsions:
REMARK  status: ('A' for Active; 'I' for Inactive)
REMARK    1  A    between atoms: N1_1  and  C1_4 
REMARK    2  A    between atoms: N3_7  and  C2_8 
REMARK    3  A    between atoms: C2_8  and  C3_9 
REMARK    4  A    between atoms: C9_17  and  C10_18 
REMARK    5  A    between atoms: C10_18  and  C11_19 
REMARK    6  A    between atoms: C11_19  and  C12_20 
REMARK    7  A    between atoms: C12_20  and  C13_21 
REMARK    8  A    between atoms: C13_21  and  N5_22 
ROOT
HETATM    1  C1  UNL     1      -0.111  -1.869   0.738  1.00  0.00     0.121 A 
HETATM    2  N2  UNL     1       1.112  -2.077   0.187  1.00  0.00    -0.283 N 
ATOM      3  H2  UNL     1       1.717  -2.879   0.363  1.00  0.00     0.189 HD
HETATM    4  N3  UNL     1       1.386  -1.063  -0.616  1.00  0.00    -0.297 N 
HETATM    5  C8  UNL     1       0.342  -0.187  -0.593  1.00  0.00     0.121 A 
HETATM    6  C9  UNL     1      -0.613  -0.685   0.260  1.00  0.00     0.004 A 
ENDROOT
BRANCH   4   7
HETATM    7  C2  UNL     1       2.618  -0.932  -1.388  1.00  0.00     0.188 C 
BRANCH   7   8
HETATM    8  C3  UNL     1       3.627  -0.209  -0.577  1.00  0.00    -0.023 A 
HETATM    9  C4  UNL     1       3.651   1.166  -0.650  1.00  0.00     0.011 A 
HETATM   10  C5  UNL     1       4.578   1.869   0.091  1.00  0.00     0.018 A 
HETATM   11  C6  UNL     1       5.463   1.167   0.894  1.00  0.00     0.087 A 
HETATM   12  N4  UNL     1       5.393  -0.162   0.924  1.00  0.00    -0.375 N 
HETATM   13  C7  UNL     1       4.520  -0.897   0.231  1.00  0.00     0.096 A 
ATOM     14  H4  UNL     1       6.056  -0.656   1.521  1.00  0.00     0.164 HD
ENDBRANCH   7   8
ENDBRANCH   4   7
BRANCH   1  15
HETATM   15  N1  UNL     1      -0.693  -2.643   1.563  1.00  0.00    -0.384 N 
ATOM     16  H12 UNL     1      -0.320  -3.523   1.918  1.00  0.00     0.157 HD
ATOM     17  H11 UNL     1      -1.612  -2.487   1.977  1.00  0.00     0.157 HD
ENDBRANCH   1  15
BRANCH   6  18
HETATM   18  C10 UNL     1      -1.909  -0.006   0.540  1.00  0.00     0.044 C 
BRANCH  18  19
HETATM   19  C11 UNL     1      -3.032  -0.635  -0.187  1.00  0.00     0.006 C 
BRANCH  19  20
HETATM   20  C12 UNL     1      -4.372  -0.078   0.039  1.00  0.00     0.027 C 
BRANCH  20  21
HETATM   21  C13 UNL     1      -4.660   1.328  -0.291  1.00  0.00     0.229 C 
BRANCH  21  22
HETATM   22  N5  UNL     1      -3.882   2.244   0.466  1.00  0.00    -0.079 N 
ATOM     23  H53 UNL     1      -3.990   2.075   1.466  1.00  0.00     0.274 HD
ATOM     24  H52 UNL     1      -2.887   2.043   0.370  1.00  0.00     0.274 HD
ATOM     25  H51 UNL     1      -4.081   3.218   0.237  1.00  0.00     0.274 HD
ENDBRANCH  21  22
ENDBRANCH  20  21
ENDBRANCH  19  20
ENDBRANCH  18  19
ENDBRANCH   6  18
TORSDOF 8
