REMARK  7 active torsions:
REMARK  status: ('A' for Active; 'I' for Inactive)
REMARK    1  A    between atoms: N1_1  and  C1_5 
REMARK    2  A    between atoms: C1_5  and  C2_6 
REMARK    3  A    between atoms: C2_6  and  C3_7 
REMARK    4  A    between atoms: C7_13  and  N3_14 
REMARK    5  A    between atoms: N3_14  and  C8_16 
REMARK    6  A    between atoms: C8_16  and  C9_17 
REMARK    7  A    between atoms: C9_17  and  C10_18 
ROOT
HETATM    1  C3  UNL     1      -2.093   0.756   0.395  1.00  0.00     0.027 C 
HETATM    2  C4  UNL     1      -2.725   1.782  -0.519  1.00  0.00     0.120 C 
HETATM    3  N2  UNL     1      -2.935   1.314  -1.848  1.00  0.00    -0.421 N 
ATOM      4  H2  UNL     1      -3.823   1.438  -2.334  1.00  0.00     0.153 HD
HETATM    5  C5  UNL     1      -1.819   0.660  -2.455  1.00  0.00     0.115 C 
HETATM    6  C6  UNL     1      -1.478  -0.550  -1.583  1.00  0.00     0.044 C 
HETATM    7  C7  UNL     1      -0.929   0.061  -0.280  1.00  0.00     0.083 C 
ENDROOT
BRANCH   7   8
HETATM    8  N3  UNL     1      -0.022   1.087  -0.689  1.00  0.00    -0.416 N 
ATOM      9  H3  UNL     1      -0.347   2.031  -0.898  1.00  0.00     0.153 HD
BRANCH   8  10
HETATM   10  C8  UNL     1       1.347   0.738  -0.792  1.00  0.00     0.120 C 
BRANCH  10  11
HETATM   11  C9  UNL     1       1.915   0.474   0.602  1.00  0.00     0.076 C 
BRANCH  11  12
HETATM   12  C10 UNL     1       3.361   0.115   0.503  1.00  0.00     0.010 A 
HETATM   13  C11 UNL     1       3.748  -1.197   0.365  1.00  0.00     0.025 A 
HETATM   14  C12 UNL     1       5.102  -1.517   0.264  1.00  0.00     0.003 A 
HETATM   15  C13 UNL     1       6.038  -0.527   0.304  1.00  0.00     0.017 A 
HETATM   16  C14 UNL     1       5.623   0.799   0.445  1.00  0.00     0.088 A 
HETATM   17  N4  UNL     1       4.316   1.055   0.537  1.00  0.00    -0.369 N 
ATOM     18  H4  UNL     1       4.026   2.027   0.640  1.00  0.00     0.165 HD
ENDBRANCH  11  12
ENDBRANCH  10  11
ENDBRANCH   8  10
ENDBRANCH   7   8
BRANCH   1  19
HETATM   19  C2  UNL     1      -3.153  -0.162   0.903  1.00  0.00     0.035 C 
BRANCH  19  20
HETATM   20  C1  UNL     1      -2.651  -1.230   1.825  1.00  0.00     0.230 C 
BRANCH  20  21
HETATM   21  N1  UNL     1      -3.721  -2.082   2.292  1.00  0.00    -0.079 N 
ATOM     22  H13 UNL     1      -4.467  -1.538   2.725  1.00  0.00     0.274 HD
ATOM     23  H12 UNL     1      -4.246  -2.480   1.513  1.00  0.00     0.274 HD
ATOM     24  H11 UNL     1      -3.379  -2.809   2.920  1.00  0.00     0.274 HD
ENDBRANCH  20  21
ENDBRANCH  19  20
ENDBRANCH   1  19
TORSDOF 7
