REMARK  9 active torsions:
REMARK  status: ('A' for Active; 'I' for Inactive)
REMARK    1  A    between atoms: N1_1  and  C1_5 
REMARK    2  A    between atoms: C1_5  and  C2_6 
REMARK    3  A    between atoms: C1_5  and  C14_32 
REMARK    4  A    between atoms: C2_6  and  N2_7 
REMARK    5  A    between atoms: N4_16  and  O2_17 
REMARK    6  A    between atoms: O2_17  and  C8_18 
REMARK    7  A    between atoms: C14_32  and  O6_33 
REMARK    8  A    between atoms: C14_32  and  C15_35 
REMARK    9  A    between atoms: C15_35  and  O7_36 
ROOT
HETATM    1  N2  UNL     1       1.026  -0.378   0.830  1.00  0.00    -0.324 N 
HETATM    2  C3  UNL     1       0.549  -1.615   0.606  1.00  0.00     0.122 A 
HETATM    3  C4  UNL     1      -0.816  -1.568   0.529  1.00  0.00     0.085 A 
HETATM    4  C5  UNL     1      -1.207  -0.252   0.713  1.00  0.00     0.129 A 
HETATM    5  C6  UNL     1      -0.052   0.470   0.899  1.00  0.00     0.143 A 
HETATM    6  N3  UNL     1      -0.390   1.745   1.080  1.00  0.00    -0.290 N 
ATOM      7  H3  UNL     1       0.268   2.507   1.241  1.00  0.00     0.172 HD
HETATM    8  C7  UNL     1      -1.737   1.882   1.019  1.00  0.00     0.353 A 
HETATM    9  O1  UNL     1      -2.420   2.936   1.144  1.00  0.00    -0.244 OA
HETATM   10  N4  UNL     1      -2.212   0.646   0.793  1.00  0.00    -0.165 N 
HETATM   11  C11 UNL     1      -1.612  -2.765   0.308  1.00  0.00     0.254 A 
HETATM   12  O3  UNL     1      -2.872  -2.688   0.240  1.00  0.00    -0.281 OA
HETATM   13  C12 UNL     1      -1.018  -4.087   0.157  1.00  0.00     0.299 A 
HETATM   14  O4  UNL     1      -1.681  -5.127  -0.034  1.00  0.00    -0.264 OA
HETATM   15  N6  UNL     1       0.399  -4.133   0.240  1.00  0.00    -0.285 N 
ATOM     16  H6  UNL     1       0.878  -5.028   0.143  1.00  0.00     0.172 HD
HETATM   17  C13 UNL     1       1.161  -2.953   0.456  1.00  0.00     0.276 A 
HETATM   18  O5  UNL     1       2.409  -3.102   0.518  1.00  0.00    -0.266 OA
ENDROOT
BRANCH   1  19
HETATM   19  C2  UNL     1       2.400  -0.027   0.910  1.00  0.00     0.166 C 
BRANCH  19  20
HETATM   20  C1  UNL     1       3.033   0.556  -0.297  1.00  0.00     0.232 C 
BRANCH  20  21
HETATM   21  N1  UNL     1       2.944  -0.346  -1.409  1.00  0.00    -0.071 N 
ATOM     22  H13 UNL     1       3.334  -1.261  -1.184  1.00  0.00     0.274 HD
ATOM     23  H12 UNL     1       1.981  -0.629  -1.588  1.00  0.00     0.274 HD
ATOM     24  H11 UNL     1       3.380   0.055  -2.240  1.00  0.00     0.274 HD
ENDBRANCH  20  21
BRANCH  20  25
HETATM   25  C14 UNL     1       4.535   0.796  -0.059  1.00  0.00     0.173 C 
BRANCH  25  26
HETATM   26  O6  UNL     1       4.690   1.669   1.032  1.00  0.00    -0.391 OA
ATOM     27  H6  UNL     1       5.617   1.817   1.179  1.00  0.00     0.210 HD
ENDBRANCH  25  26
BRANCH  25  28
HETATM   28  C15 UNL     1       5.123   1.500  -1.272  1.00  0.00     0.197 C 
BRANCH  28  29
HETATM   29  O7  UNL     1       6.488   1.793  -1.029  1.00  0.00    -0.398 OA
ATOM     30  H7  UNL     1       6.855   2.233  -1.787  1.00  0.00     0.209 HD
ENDBRANCH  28  29
ENDBRANCH  25  28
ENDBRANCH  20  25
ENDBRANCH  19  20
ENDBRANCH   1  19
BRANCH  10  31
HETATM   31  O2  UNL     1      -3.527   0.290   0.656  1.00  0.00    -0.260 OA
BRANCH  31  32
HETATM   32  C8  UNL     1      -4.494   1.069   0.021  1.00  0.00     0.204 C 
HETATM   33  C9  UNL     1      -5.361   0.257  -0.947  1.00  0.00     0.268 C 
HETATM   34  N5  UNL     1      -6.494   1.026  -0.486  1.00  0.00    -0.070 N 
HETATM   35  C10 UNL     1      -5.801   1.240   0.767  1.00  0.00     0.268 C 
ATOM     36  H52 UNL     1      -6.838   1.818  -1.029  1.00  0.00     0.277 HD
ATOM     37  H51 UNL     1      -7.432   0.624  -0.497  1.00  0.00     0.277 HD
ENDBRANCH  31  32
ENDBRANCH  10  31
TORSDOF 9
