REMARK  8 active torsions:
REMARK  status: ('A' for Active; 'I' for Inactive)
REMARK       I    between atoms: C1_4  and  N3_6 
REMARK    1  A    between atoms: N3_6  and  C2_8 
REMARK       I    between atoms: N5_13  and  C4_14 
REMARK    2  A    between atoms: C4_14  and  C5_16 
REMARK    3  A    between atoms: C5_16  and  N6_17 
REMARK    4  A    between atoms: C6_21  and  N7_22 
REMARK    5  A    between atoms: C8_24  and  C9_25 
REMARK       I    between atoms: C9_25  and  N8_27 
REMARK    6  A    between atoms: N8_27  and  O4_29 
REMARK    7  A    between atoms: C10_33  and  O5_34 
REMARK    8  A    between atoms: O5_34  and  S1_35 
ROOT
HETATM    1  C2  UNL     1      -2.000  -1.113   0.191  1.00  0.00     0.151 A 
HETATM    2  N4  UNL     1      -2.761  -0.118  -0.273  1.00  0.00    -0.291 N 
ATOM      3  H4  UNL     1      -3.769  -0.258  -0.336  1.00  0.00     0.172 HD
HETATM    4  C3  UNL     1      -2.246   1.058  -0.659  1.00  0.00     0.336 A 
HETATM    5  O1  UNL     1      -3.081   1.897  -1.076  1.00  0.00    -0.246 OA
HETATM    6  N5  UNL     1      -0.905   1.313  -0.601  1.00  0.00    -0.212 N 
HETATM    7  C4  UNL     1      -0.407   2.583  -0.998  1.00  0.00     0.259 C 
HETATM    8  O2  UNL     1       0.846   2.744  -0.982  1.00  0.00    -0.271 OA
HETATM    9  C6  UNL     1      -0.145   0.320  -0.138  1.00  0.00     0.179 A 
HETATM   10  C10 UNL     1      -0.651  -0.916   0.271  1.00  0.00     0.182 A 
ENDROOT
BRANCH   9  11
HETATM   11  N7  UNL     1       1.265   0.432  -0.010  1.00  0.00    -0.245 N 
HETATM   12  C7  UNL     1       2.371   0.136  -0.736  1.00  0.00     0.155 A 
HETATM   13  C8  UNL     1       3.222   0.559   0.261  1.00  0.00     0.136 A 
HETATM   14  N9  UNL     1       2.097   0.839   0.946  1.00  0.00    -0.286 N 
ATOM     15  H9  UNL     1       1.938   1.228   1.875  1.00  0.00     0.188 HD
BRANCH  13  16
HETATM   16  C9  UNL     1       4.664   0.658   0.477  1.00  0.00     0.294 C 
HETATM   17  O3  UNL     1       5.139   1.110   1.550  1.00  0.00    -0.264 OA
HETATM   18  N8  UNL     1       5.567   0.243  -0.528  1.00  0.00    -0.232 N 
ATOM     19  H8  UNL     1       5.200  -0.126  -1.405  1.00  0.00     0.197 HD
BRANCH  18  20
HETATM   20  O4  UNL     1       6.891   0.323  -0.356  1.00  0.00    -0.287 OA
ATOM     21  H4  UNL     1       7.498   0.044  -1.032  1.00  0.00     0.244 HD
ENDBRANCH  18  20
ENDBRANCH  13  16
ENDBRANCH   9  11
BRANCH  10  22
HETATM   22  O5  UNL     1       0.159  -1.916   0.743  1.00  0.00    -0.206 OA
BRANCH  22  23
HETATM   23  S1  UNL     1       0.900  -3.137  -0.122  1.00  0.00     0.257 S 
HETATM   24  O6  UNL     1       0.771  -3.010  -1.612  1.00  0.00    -0.572 OA
HETATM   25  O7  UNL     1       0.189  -4.434   0.253  1.00  0.00    -0.572 OA
HETATM   26  O8  UNL     1       2.491  -3.338   0.339  1.00  0.00    -0.572 OA
ENDBRANCH  22  23
ENDBRANCH  10  22
BRANCH   7  27
HETATM   27  C5  UNL     1      -1.181   3.747  -1.431  1.00  0.00     0.333 C 
BRANCH  27  28
HETATM   28  N6  UNL     1      -1.854   4.355  -0.283  1.00  0.00    -0.071 N 
ATOM     29  H63 UNL     1      -2.428   3.682   0.225  1.00  0.00     0.274 HD
ATOM     30  H62 UNL     1      -1.200   4.587   0.465  1.00  0.00     0.274 HD
ATOM     31  H61 UNL     1      -2.393   5.166  -0.585  1.00  0.00     0.274 HD
ENDBRANCH  27  28
ENDBRANCH   7  27
BRANCH   1  32
HETATM   32  N3  UNL     1      -2.504  -2.241   0.560  1.00  0.00    -0.314 N 
HETATM   33  C1  UNL     1      -3.896  -2.519   0.506  1.00  0.00     0.187 C 
HETATM   34  N1  UNL     1      -4.515  -2.759  -0.591  1.00  0.00    -0.373 N 
HETATM   35  N2  UNL     1      -4.621  -2.530   1.725  1.00  0.00    -0.064 NA
ATOM     36  H12 UNL     1      -5.515  -2.959  -0.630  1.00  0.00     0.158 HD
ATOM     37  H11 UNL     1      -3.994  -2.751  -1.468  1.00  0.00     0.158 HD
ATOM     38  H3  UNL     1      -1.875  -2.966   0.906  1.00  0.00     0.170 HD
ENDBRANCH   1  32
TORSDOF 8
