REMARK  5 active torsions:
REMARK  status: ('A' for Active; 'I' for Inactive)
REMARK    1  A    between atoms: C3_5  and  N2_6 
REMARK    2  A    between atoms: C4_11  and  N4_12 
REMARK    3  A    between atoms: N4_12  and  N5_14 
REMARK    4  A    between atoms: N5_14  and  S1_16 
REMARK    5  A    between atoms: S1_16  and  C5_19 
ROOT
HETATM    1  C1  UNL     1      -4.238  -1.655   0.243  1.00  0.00     0.070 C 
HETATM    2  C2  UNL     1      -3.427  -0.451   0.005  1.00  0.00     0.044 A 
HETATM    3  N1  UNL     1      -3.951   0.705  -0.471  1.00  0.00    -0.195 N 
ATOM      4  H1  UNL     1      -4.946   0.781  -0.684  1.00  0.00     0.184 HD
HETATM    5  C3  UNL     1      -3.126   1.747  -0.654  1.00  0.00     0.677 A 
HETATM    6  N3  UNL     1      -1.815   1.703  -0.390  1.00  0.00    -0.174 N 
ATOM      7  H3  UNL     1      -1.249   2.535  -0.554  1.00  0.00     0.186 HD
HETATM    8  C4  UNL     1      -1.210   0.569   0.095  1.00  0.00     0.155 A 
HETATM    9  C9  UNL     1      -2.068  -0.495   0.279  1.00  0.00     0.079 A 
HETATM   10 BR1  UNL     1      -1.362  -2.153   0.954  1.00  0.00    -0.045 Br
ENDROOT
BRANCH   8  11
HETATM   11  N4  UNL     1       0.041   0.571   0.333  1.00  0.00    -0.274 N 
ATOM     12  H4  UNL     1       0.506   1.457   0.134  1.00  0.00     0.189 HD
BRANCH  11  13
HETATM   13  N5  UNL     1       0.867  -0.405   0.808  1.00  0.00    -0.221 N 
ATOM     14  H5  UNL     1       0.786  -0.666   1.791  1.00  0.00     0.200 HD
BRANCH  13  15
HETATM   15  S1  UNL     1       2.046  -1.228  -0.159  1.00  0.00     0.282 S 
HETATM   16  O1  UNL     1       1.543  -1.294  -1.554  1.00  0.00    -0.198 OA
HETATM   17  O2  UNL     1       2.337  -2.566   0.410  1.00  0.00    -0.198 OA
BRANCH  15  18
HETATM   18  C5  UNL     1       3.549  -0.283  -0.169  1.00  0.00     0.121 A 
HETATM   19  C6  UNL     1       4.783  -0.670   0.263  1.00  0.00     0.033 A 
HETATM   20  C7  UNL     1       5.787   0.230   0.155  1.00  0.00     0.009 A 
HETATM   21  C8  UNL     1       5.478   1.446  -0.378  1.00  0.00     0.051 A 
HETATM   22  S2  UNL     1       3.816   1.313  -0.712  1.00  0.00    -0.088 SA
ENDBRANCH  15  18
ENDBRANCH  13  15
ENDBRANCH  11  13
ENDBRANCH   8  11
BRANCH   5  23
HETATM   23  N2  UNL     1      -3.607   2.871  -1.112  1.00  0.00    -0.234 N 
ATOM     24  H22 UNL     1      -4.606   2.905  -1.313  1.00  0.00     0.174 HD
ATOM     25  H21 UNL     1      -2.980   3.663  -1.251  1.00  0.00     0.174 HD
ENDBRANCH   5  23
TORSDOF 5
