REMARK  4 active torsions:
REMARK  status: ('A' for Active; 'I' for Inactive)
REMARK    1  A    between atoms: O1_2  and  C2_3 
REMARK    2  A    between atoms: C3_6  and  N2_7 
REMARK    3  A    between atoms: N2_7  and  C4_9 
REMARK    4  A    between atoms: C4_9  and  C5_10 
ROOT
HETATM    1  C5  UNL     1      -1.003  -0.762  -0.551  1.00  0.00    -0.039 A 
HETATM    2  C6  UNL     1      -1.849  -1.744  -0.091  1.00  0.00     0.018 A 
HETATM    3  C7  UNL     1      -3.213  -1.500  -0.056  1.00  0.00    -0.034 A 
HETATM    4  C8  UNL     1      -4.180  -2.520   0.431  1.00  0.00     0.050 C 
HETATM    5  C9  UNL     1      -3.720  -0.286  -0.479  1.00  0.00     0.058 A 
HETATM    6  N3  UNL     1      -5.034  -0.010  -0.461  1.00  0.00    -0.307 N 
ATOM      7  H3  UNL     1      -5.675  -0.727  -0.122  1.00  0.00     0.170 HD
HETATM    8  C10 UNL     1      -5.547   1.164  -0.867  1.00  0.00     0.327 A 
HETATM    9  O2  UNL     1      -6.799   1.400  -0.840  1.00  0.00    -0.247 OA
HETATM   10  N4  UNL     1      -4.732   2.134  -1.320  1.00  0.00    -0.275 N 
ATOM     11  H4  UNL     1      -5.113   3.028  -1.630  1.00  0.00     0.173 HD
HETATM   12  C11 UNL     1      -3.404   1.905  -1.358  1.00  0.00     0.261 A 
HETATM   13  O3  UNL     1      -2.581   2.781  -1.775  1.00  0.00    -0.267 OA
HETATM   14  C12 UNL     1      -2.867   0.707  -0.944  1.00  0.00     0.060 A 
HETATM   15  C13 UNL     1      -1.510   0.450  -0.973  1.00  0.00     0.028 A 
ENDROOT
BRANCH   1  16
HETATM   16  C4  UNL     1       0.459  -1.024  -0.588  1.00  0.00     0.160 C 
BRANCH  16  17
HETATM   17  N2  UNL     1       1.042  -0.614   0.675  1.00  0.00    -0.370 N 
ATOM     18  H2  UNL     1       0.493  -0.675   1.532  1.00  0.00     0.161 HD
BRANCH  17  19
HETATM   19  C3  UNL     1       2.253  -0.172   0.717  1.00  0.00     0.128 A 
HETATM   20  N1  UNL     1       2.976  -0.093  -0.427  1.00  0.00    -0.307 N 
HETATM   21  C2  UNL     1       4.239   0.359  -0.443  1.00  0.00     0.225 A 
ATOM     22  H1  UNL     1       2.546  -0.387  -1.304  1.00  0.00     0.171 HD
HETATM   23  N5  UNL     1       4.790   0.744   0.730  1.00  0.00    -0.324 N 
HETATM   24  C15 UNL     1       4.125   0.688   1.889  1.00  0.00     0.034 A 
ATOM     25  H5  UNL     1       5.749   1.090   0.731  1.00  0.00     0.169 HD
HETATM   26  C14 UNL     1       2.826   0.224   1.913  1.00  0.00     0.100 A 
HETATM   27  C16 UNL     1       4.737   1.112   3.173  1.00  0.00     0.070 C 
HETATM   28 CL1  UNL     1       1.892   0.123   3.395  1.00  0.00    -0.078 Cl
BRANCH  21  29
HETATM   29  O1  UNL     1       4.944   0.423  -1.636  1.00  0.00    -0.327 OA
HETATM   30  C1  UNL     1       4.322   0.009  -2.838  1.00  0.00     0.213 C 
ENDBRANCH  21  29
ENDBRANCH  17  19
ENDBRANCH  16  17
ENDBRANCH   1  16
TORSDOF 4
