REMARK  3 active torsions:
REMARK  status: ('A' for Active; 'I' for Inactive)
REMARK    1  A    between atoms: C3_3  and  C4_4 
REMARK    2  A    between atoms: N1_9  and  C7_10 
REMARK    3  A    between atoms: C7_10  and  C8_11 
ROOT
HETATM    1  C1  UNL     1       2.611  -1.058  -2.699  1.00  0.00     0.070 C 
HETATM    2  C2  UNL     1       2.665  -0.425  -1.331  1.00  0.00     0.035 A 
HETATM    3  C3  UNL     1       1.556  -0.357  -0.561  1.00  0.00     0.056 A 
HETATM    4  N2  UNL     1       1.693   0.265   0.688  1.00  0.00    -0.350 N 
ATOM      5  H2  UNL     1       0.864   0.327   1.279  1.00  0.00     0.166 HD
HETATM    6  C10 UNL     1       2.928   0.826   1.199  1.00  0.00     0.112 A 
HETATM    7  C11 UNL     1       2.976   1.399   2.396  1.00  0.00     0.119 C 
HETATM    8 CL1  UNL     1       1.535   1.481   3.374  1.00  0.00    -0.094 Cl
HETATM    9  C12 UNL     1       4.098   0.731   0.344  1.00  0.00     0.273 A 
HETATM   10  O4  UNL     1       5.193   1.200   0.737  1.00  0.00    -0.266 OA
HETATM   11  N3  UNL     1       3.909   0.097  -0.908  1.00  0.00    -0.324 N 
ATOM     12  H3  UNL     1       4.709   0.013  -1.535  1.00  0.00     0.169 HD
ENDROOT
BRANCH   3  13
HETATM   13  C4  UNL     1       0.323  -0.888  -1.052  1.00  0.00     0.056 C 
HETATM   14  C5  UNL     1      -0.877  -1.029  -0.648  1.00  0.00     0.078 C 
HETATM   15  S1  UNL     1      -2.112  -1.834  -1.810  1.00  0.00    -0.055 SA
HETATM   16  C9  UNL     1      -1.741  -0.806   0.473  1.00  0.00     0.266 C 
HETATM   17  C6  UNL     1      -3.438  -0.725  -1.199  1.00  0.00     0.149 C 
HETATM   18  S2  UNL     1      -4.603  -0.084  -2.088  1.00  0.00    -0.052 SA
HETATM   19  N1  UNL     1      -3.119  -0.637   0.176  1.00  0.00    -0.288 N 
HETATM   20  O3  UNL     1      -1.308  -0.765   1.676  1.00  0.00    -0.266 OA
BRANCH  19  21
HETATM   21  C7  UNL     1      -4.138  -0.369   1.191  1.00  0.00     0.246 C 
BRANCH  21  22
HETATM   22  C8  UNL     1      -4.302   1.093   1.402  1.00  0.00     0.192 C 
HETATM   23  O1  UNL     1      -5.138   1.516   2.240  1.00  0.00    -0.647 OA
HETATM   24  O2  UNL     1      -3.565   2.036   0.707  1.00  0.00    -0.647 OA
ENDBRANCH  21  22
ENDBRANCH  19  21
ENDBRANCH   3  13
TORSDOF 3
