REMARK  10 active torsions:
REMARK  status: ('A' for Active; 'I' for Inactive)
REMARK    1  A    between atoms: N1_1  and  C1_5 
REMARK    2  A    between atoms: C1_5  and  C2_6 
REMARK    3  A    between atoms: C2_6  and  N2_7 
REMARK    4  A    between atoms: N2_7  and  C3_9 
REMARK    5  A    between atoms: C3_9  and  N3_11 
REMARK    6  A    between atoms: N3_11  and  N4_13 
REMARK    7  A    between atoms: N4_13  and  C4_15 
REMARK    8  A    between atoms: C4_15  and  N5_17 
REMARK    9  A    between atoms: N5_17  and  C5_19 
REMARK   10  A    between atoms: C5_19  and  C6_20 
ROOT
HETATM    1  N3  UNL     1      -0.315   0.113   0.726  1.00  0.00    -0.274 N 
ATOM      2  H3  UNL     1      -0.558  -0.360   1.596  1.00  0.00     0.189 HD
ENDROOT
BRANCH   1   3
HETATM    3  C3  UNL     1      -1.335   0.292  -0.215  1.00  0.00     0.186 C 
HETATM    4  S1  UNL     1      -1.038   1.046  -1.617  1.00  0.00    -0.040 SA
BRANCH   3   5
HETATM    5  N2  UNL     1      -2.645  -0.158   0.024  1.00  0.00    -0.364 N 
ATOM      6  H2  UNL     1      -2.857  -0.619   0.909  1.00  0.00     0.162 HD
BRANCH   5   7
HETATM    7  C2  UNL     1      -3.709   0.016  -0.958  1.00  0.00     0.149 C 
BRANCH   7   8
HETATM    8  C1  UNL     1      -5.028  -0.322  -0.312  1.00  0.00     0.249 C 
BRANCH   8   9
HETATM    9  N1  UNL     1      -5.267   0.565   0.812  1.00  0.00    -0.078 N 
ATOM     10  H13 UNL     1      -4.498   0.552   1.481  1.00  0.00     0.274 HD
ATOM     11  H12 UNL     1      -5.212   1.548   0.544  1.00  0.00     0.274 HD
ATOM     12  H11 UNL     1      -6.160   0.336   1.249  1.00  0.00     0.274 HD
ENDBRANCH   8   9
ENDBRANCH   7   8
ENDBRANCH   5   7
ENDBRANCH   3   5
ENDBRANCH   1   3
BRANCH   1  13
HETATM   13  N4  UNL     1       0.997   0.526   0.571  1.00  0.00    -0.274 N 
ATOM     14  H4  UNL     1       1.200   1.524   0.633  1.00  0.00     0.189 HD
BRANCH  13  15
HETATM   15  C4  UNL     1       2.083  -0.372   0.328  1.00  0.00     0.186 C 
HETATM   16  S2  UNL     1       1.857  -1.993   0.217  1.00  0.00    -0.040 SA
BRANCH  15  17
HETATM   17  N5  UNL     1       3.384   0.128   0.155  1.00  0.00    -0.365 N 
ATOM     18  H5  UNL     1       3.539   1.135   0.191  1.00  0.00     0.161 HD
BRANCH  17  19
HETATM   19  C5  UNL     1       4.502  -0.747  -0.072  1.00  0.00     0.133 C 
BRANCH  19  20
HETATM   20  C6  UNL     1       5.749   0.085  -0.489  1.00  0.00     0.104 C 
HETATM   21 BR1  UNL     1       6.193   1.341   0.884  1.00  0.00    -0.095 Br
ENDBRANCH  19  20
ENDBRANCH  17  19
ENDBRANCH  15  17
ENDBRANCH  13  15
ENDBRANCH   1  13
TORSDOF 10
