REMARK  4 active torsions:
REMARK  status: ('A' for Active; 'I' for Inactive)
REMARK    1  A    between atoms: C2_2  and  C6_8 
REMARK    2  A    between atoms: N1_3  and  C3_5 
REMARK    3  A    between atoms: C8_15  and  N4_16 
REMARK    4  A    between atoms: C8_15  and  C10_20 
REMARK       I    between atoms: N4_16  and  C9_17 
ROOT
HETATM    1  C6  UNL     1       0.254  -1.405  -1.125  1.00  0.00     0.201 C 
HETATM    2  N2  UNL     1       0.023  -2.810  -1.121  1.00  0.00    -0.352 N 
ATOM      3  H2  UNL     1      -0.863  -3.311  -1.188  1.00  0.00     0.162 HD
HETATM    4  C7  UNL     1       1.366  -3.352  -0.998  1.00  0.00     0.171 C 
HETATM    5  S1  UNL     1       1.859  -4.880  -1.280  1.00  0.00    -0.041 SA
HETATM    6  N3  UNL     1       2.246  -2.295  -0.570  1.00  0.00    -0.320 N 
ATOM      7  H3  UNL     1       3.262  -2.237  -0.641  1.00  0.00     0.166 HD
HETATM    8  C8  UNL     1       1.280  -1.300   0.009  1.00  0.00     0.275 C 
ENDROOT
BRANCH   1   9
HETATM    9  C2  UNL     1      -0.859  -0.501  -1.077  1.00  0.00     0.007 C 
HETATM   10  C1  UNL     1      -1.950  -0.568  -2.077  1.00  0.00     0.065 C 
HETATM   11  N1  UNL     1      -0.937   0.401  -0.189  1.00  0.00    -0.391 N 
ATOM     12  H1  UNL     1      -0.181   0.440   0.495  1.00  0.00     0.159 HD
BRANCH  11  13
HETATM   13  C3  UNL     1      -1.967   1.356  -0.055  1.00  0.00     0.073 C 
HETATM   14  C4  UNL     1      -1.954   2.450  -1.069  1.00  0.00     0.031 C 
HETATM   15  C5  UNL     1      -1.867   2.010   1.329  1.00  0.00     0.031 C 
ENDBRANCH  11  13
ENDBRANCH   1   9
BRANCH   8  16
HETATM   16  N4  UNL     1       1.774  -0.076   0.181  1.00  0.00    -0.375 NA
HETATM   17  C9  UNL     1       2.205   1.010   0.349  1.00  0.00     0.273 C 
HETATM   18  N5  UNL     1       3.002   1.703  -0.663  1.00  0.00    -0.053 NA
HETATM   19  N6  UNL     1       2.023   1.799   1.536  1.00  0.00    -0.053 NA
ENDBRANCH   8  16
BRANCH   8  20
HETATM   20  C10 UNL     1       0.787  -1.973   1.246  1.00  0.00     0.296 C 
HETATM   21  N7  UNL     1      -0.122  -1.380   2.129  1.00  0.00    -0.057 NA
HETATM   22  O1  UNL     1       1.193  -3.118   1.526  1.00  0.00    -0.271 OA
ENDBRANCH   8  20
TORSDOF 4
