REMARK  5 active torsions:
REMARK  status: ('A' for Active; 'I' for Inactive)
REMARK    1  A    between atoms: N1_2  and  C3_4 
REMARK    2  A    between atoms: C5_6  and  N2_7 
REMARK    3  A    between atoms: N2_7  and  C6_9 
REMARK    4  A    between atoms: C14_19  and  S1_20 
REMARK    5  A    between atoms: S1_20  and  N3_21 
ROOT
HETATM    1  C3  UNL     1      -1.079  -1.301  -0.059  1.00  0.00     0.050 A 
HETATM    2  C4  UNL     1       0.207  -0.792  -0.287  1.00  0.00     0.061 A 
HETATM    3  C5  UNL     1       0.389   0.564  -0.299  1.00  0.00     0.053 A 
HETATM    4  C11 UNL     1      -0.670   1.399  -0.092  1.00  0.00     0.072 A 
HETATM    5 CL1  UNL     1      -0.332   3.139  -0.126  1.00  0.00    -0.081 Cl
HETATM    6  C12 UNL     1      -1.982   0.929   0.141  1.00  0.00     0.009 A 
HETATM    7  C13 UNL     1      -3.078   1.671   0.353  1.00  0.00     0.047 A 
HETATM    8  C14 UNL     1      -4.258   1.011   0.560  1.00  0.00     0.121 A 
HETATM    9  S2  UNL     1      -3.811  -0.621   0.453  1.00  0.00    -0.074 SA
HETATM   10  C15 UNL     1      -2.141  -0.443   0.149  1.00  0.00     0.045 A 
ENDROOT
BRANCH   3  11
HETATM   11  N2  UNL     1       1.677   1.111  -0.545  1.00  0.00    -0.384 N 
ATOM     12  H2  UNL     1       1.752   2.125  -0.627  1.00  0.00     0.160 HD
BRANCH  11  13
HETATM   13  C6  UNL     1       2.870   0.348  -0.685  1.00  0.00     0.085 C 
HETATM   14  C7  UNL     1       4.036   1.235  -1.156  1.00  0.00     0.051 C 
HETATM   15  C8  UNL     1       4.987   1.551  -0.016  1.00  0.00     0.169 C 
HETATM   16  O1  UNL     1       5.638   0.399   0.429  1.00  0.00    -0.391 OA
HETATM   17  C9  UNL     1       4.795  -0.709   0.339  1.00  0.00     0.169 C 
HETATM   18  C10 UNL     1       3.361  -0.264   0.604  1.00  0.00     0.051 C 
ENDBRANCH  11  13
ENDBRANCH   3  11
BRANCH   1  19
HETATM   19  N1  UNL     1      -1.280  -2.700  -0.044  1.00  0.00    -0.388 N 
HETATM   20  C1  UNL     1      -0.137  -3.592  -0.259  1.00  0.00     0.149 C 
HETATM   21  C2  UNL     1      -2.579  -3.269   0.176  1.00  0.00     0.149 C 
ENDBRANCH   1  19
BRANCH   8  22
HETATM   22  S1  UNL     1      -5.851   1.723   0.863  1.00  0.00     0.263 S 
HETATM   23  O2  UNL     1      -6.458   1.183   2.114  1.00  0.00    -0.200 OA
HETATM   24  O3  UNL     1      -6.724   1.320  -0.294  1.00  0.00    -0.200 OA
BRANCH  22  25
HETATM   25  N3  UNL     1      -5.734   3.438   0.868  1.00  0.00    -0.324 N 
ATOM     26  H32 UNL     1      -4.868   3.955   0.717  1.00  0.00     0.169 HD
ATOM     27  H31 UNL     1      -6.651   3.848   1.043  1.00  0.00     0.169 HD
ENDBRANCH  22  25
ENDBRANCH   8  22
TORSDOF 5
