REMARK  5 active torsions:
REMARK  status: ('A' for Active; 'I' for Inactive)
REMARK    1  A    between atoms: C2_2  and  C3_3 
REMARK    2  A    between atoms: C3_3  and  C6_6 
REMARK    3  A    between atoms: N3_14  and  C10_15 
REMARK    4  A    between atoms: C14_19  and  N4_20 
REMARK    5  A    between atoms: N5_23  and  O1_24 
ROOT
HETATM    1  C6  UNL     1      -1.307   0.257  -0.344  1.00  0.00     0.121 A 
HETATM    2  N1  UNL     1      -0.052  -0.175  -0.200  1.00  0.00    -0.327 N 
ATOM      3  H1  UNL     1       0.107  -1.182  -0.192  1.00  0.00     0.169 HD
HETATM    4  C7  UNL     1       1.028   0.640  -0.063  1.00  0.00     0.140 A 
HETATM    5  C8  UNL     1       0.732   2.007  -0.078  1.00  0.00     0.072 A 
HETATM    6  C9  UNL     1       1.966   2.592   0.072  1.00  0.00     0.126 A 
HETATM    7  N2  UNL     1       2.913   1.666   0.168  1.00  0.00    -0.306 N 
ATOM      8  H2  UNL     1       3.910   1.850   0.283  1.00  0.00     0.186 HD
HETATM    9  N3  UNL     1       2.354   0.458   0.090  1.00  0.00    -0.267 N 
HETATM   10  C14 UNL     1      -0.556   2.457  -0.219  1.00  0.00     0.145 A 
HETATM   11  N5  UNL     1      -1.570   1.543  -0.357  1.00  0.00    -0.194 N 
ENDROOT
BRANCH   1  12
HETATM   12  C3  UNL     1      -2.412  -0.744  -0.447  1.00  0.00     0.013 C 
HETATM   13  C4  UNL     1      -3.735  -0.121  -0.008  1.00  0.00     0.023 C 
HETATM   14  C5  UNL     1      -2.497  -1.236  -1.847  1.00  0.00     0.023 C 
BRANCH  12  15
HETATM   15  C2  UNL     1      -2.197  -1.887   0.555  1.00  0.00     0.012 C 
HETATM   16  C1  UNL     1      -3.373  -2.840   0.422  1.00  0.00     0.006 C 
ENDBRANCH  12  15
ENDBRANCH   1  12
BRANCH  11  17
HETATM   17  O1  UNL     1      -2.808   2.124  -0.529  1.00  0.00    -0.280 OA
ATOM     18  H1  UNL     1      -2.998   3.055  -0.538  1.00  0.00     0.245 HD
ENDBRANCH  11  17
BRANCH  10  19
HETATM   19  N4  UNL     1      -0.855   3.660  -0.134  1.00  0.00    -0.378 N 
HETATM   20  C15 UNL     1      -0.232   4.890   0.092  1.00  0.00     0.147 C 
ATOM     21  H4  UNL     1      -1.858   3.788  -0.270  1.00  0.00     0.160 HD
ENDBRANCH  10  19
BRANCH   9  22
HETATM   22  C10 UNL     1       3.059  -0.765   0.166  1.00  0.00     0.044 C 
HETATM   23  C11 UNL     1       2.481  -1.740   1.156  1.00  0.00     0.039 C 
HETATM   24  C12 UNL     1       3.262  -1.367  -1.204  1.00  0.00     0.039 C 
HETATM   25  C13 UNL     1       4.470  -0.464   0.670  1.00  0.00     0.039 C 
ENDBRANCH   9  22
TORSDOF 5
