REMARK  5 active torsions:
REMARK  status: ('A' for Active; 'I' for Inactive)
REMARK    1  A    between atoms: C1_2  and  C2_3 
REMARK    2  A    between atoms: C1_2  and  C17_21 
REMARK    3  A    between atoms: C2_3  and  C3_4 
REMARK    4  A    between atoms: C8_9  and  N1_10 
REMARK       I    between atoms: N1_10  and  C9_12 
REMARK    5  A    between atoms: C9_12  and  C10_14 
ROOT
HETATM    1  C3  UNL     1      -2.262  -1.282  -0.422  1.00  0.00    -0.005 C 
HETATM    2  C4  UNL     1      -2.223  -2.096  -1.720  1.00  0.00     0.005 C 
HETATM    3  C5  UNL     1      -1.338  -3.312  -1.549  1.00  0.00     0.000 C 
HETATM    4  C6  UNL     1       0.040  -2.993  -1.071  1.00  0.00     0.002 C 
HETATM    5  C7  UNL     1       0.092  -2.557   0.374  1.00  0.00     0.025 C 
HETATM    6  C8  UNL     1       0.050  -1.054   0.517  1.00  0.00     0.084 C 
HETATM    7  C16 UNL     1      -1.019  -0.426  -0.324  1.00  0.00     0.030 C 
ENDROOT
BRANCH   6   8
HETATM    8  N1  UNL     1       1.345  -0.442   0.223  1.00  0.00    -0.356 N 
HETATM    9  C9  UNL     1       2.060   0.276   1.219  1.00  0.00     0.222 C 
HETATM   10  O2  UNL     1       1.589   0.400   2.382  1.00  0.00    -0.273 OA
ATOM     11  H1  UNL     1       1.742  -0.532  -0.712  1.00  0.00     0.162 HD
BRANCH   9  12
HETATM   12  C10 UNL     1       3.354   0.875   0.891  1.00  0.00     0.078 C 
HETATM   13  C11 UNL     1       4.338  -0.216   0.451  1.00  0.00     0.014 C 
HETATM   14  C12 UNL     1       5.678   0.437   0.284  1.00  0.00     0.001 C 
HETATM   15  C13 UNL     1       5.678   1.586  -0.676  1.00  0.00     0.000 C 
HETATM   16  C14 UNL     1       4.540   2.548  -0.432  1.00  0.00     0.001 C 
HETATM   17  C15 UNL     1       3.224   1.822  -0.293  1.00  0.00     0.014 C 
ENDBRANCH   9  12
ENDBRANCH   6   8
BRANCH   1  18
HETATM   18  C2  UNL     1      -3.454  -0.369  -0.551  1.00  0.00     0.089 C 
BRANCH  18  19
HETATM   19  C1  UNL     1      -3.687   0.496   0.619  1.00  0.00     0.166 C 
HETATM   20  O1  UNL     1      -3.008   0.472   1.674  1.00  0.00    -0.292 OA
BRANCH  19  21
HETATM   21  C17 UNL     1      -4.791   1.456   0.550  1.00  0.00     0.050 A 
HETATM   22  C18 UNL     1      -5.658   1.663  -0.485  1.00  0.00     0.023 A 
HETATM   23  C19 UNL     1      -6.602   2.605  -0.325  1.00  0.00     0.009 A 
HETATM   24  C20 UNL     1      -6.617   3.282   0.864  1.00  0.00     0.050 A 
HETATM   25  S1  UNL     1      -5.316   2.582   1.717  1.00  0.00    -0.098 SA
ENDBRANCH  19  21
ENDBRANCH  18  19
ENDBRANCH   1  18
TORSDOF 5
