REMARK  6 active torsions:
REMARK  status: ('A' for Active; 'I' for Inactive)
REMARK    1  A    between atoms: C2_2  and  C3_3 
REMARK    2  A    between atoms: C3_3  and  C4_4 
REMARK    3  A    between atoms: C4_4  and  O2_6 
REMARK    4  A    between atoms: O2_6  and  C5_7 
REMARK    5  A    between atoms: C7_9  and  N1_10 
REMARK    6  A    between atoms: N1_10  and  C8_12 
ROOT
HETATM    1  C5  UNL     1       1.878   0.069  -0.078  1.00  0.00     0.138 C 
HETATM    2  C6  UNL     1       0.655   0.651  -0.739  1.00  0.00     0.057 C 
HETATM    3  C7  UNL     1      -0.422  -0.333  -0.998  1.00  0.00     0.080 C 
HETATM    4  C16 UNL     1       0.148  -1.742  -0.796  1.00  0.00     0.034 C 
HETATM    5  C17 UNL     1       1.424  -1.891  -1.553  1.00  0.00     0.022 C 
HETATM    6  C18 UNL     1       1.865  -3.299  -1.410  1.00  0.00    -0.085 C 
HETATM    7  C19 UNL     1       1.305  -4.325  -2.013  1.00  0.00     0.014 C 
HETATM    8  C20 UNL     1       3.020  -3.370  -0.494  1.00  0.00     0.034 C 
HETATM    9  C21 UNL     1       3.196  -1.979   0.082  1.00  0.00     0.012 C 
HETATM   10  C22 UNL     1       2.490  -1.047  -0.876  1.00  0.00     0.024 C 
ENDROOT
BRANCH   3  11
HETATM   11  N1  UNL     1      -1.572  -0.254  -0.154  1.00  0.00    -0.412 N 
ATOM     12  H1  UNL     1      -1.820  -1.025   0.467  1.00  0.00     0.154 HD
BRANCH  11  13
HETATM   13  C8  UNL     1      -2.358   0.921  -0.202  1.00  0.00     0.084 C 
HETATM   14  C9  UNL     1      -3.009   1.161  -1.524  1.00  0.00     0.025 C 
HETATM   15  C10 UNL     1      -4.441   0.689  -1.614  1.00  0.00     0.002 C 
HETATM   16  C11 UNL     1      -5.327   1.206  -0.529  1.00  0.00     0.001 C 
HETATM   17  C12 UNL     1      -4.568   1.727   0.666  1.00  0.00     0.011 C 
HETATM   18  C13 UNL     1      -3.356   0.870   0.951  1.00  0.00    -0.028 C 
HETATM   19  C14 UNL     1      -3.770  -0.533   1.302  1.00  0.00     0.017 C 
HETATM   20  C15 UNL     1      -2.700   1.482   2.196  1.00  0.00     0.017 C 
ENDBRANCH  11  13
ENDBRANCH   3  11
BRANCH   1  21
HETATM   21  O2  UNL     1       2.833   1.039   0.206  1.00  0.00    -0.315 OA
BRANCH  21  22
HETATM   22  C4  UNL     1       3.221   1.363   1.506  1.00  0.00     0.262 C 
HETATM   23  O1  UNL     1       2.655   0.721   2.420  1.00  0.00    -0.265 OA
BRANCH  22  24
HETATM   24  C3  UNL     1       4.221   2.380   1.835  1.00  0.00     0.137 C 
BRANCH  24  25
HETATM   25  C2  UNL     1       5.382   2.392   0.922  1.00  0.00    -0.027 C 
HETATM   26  C1  UNL     1       6.591   2.175   1.409  1.00  0.00     0.007 C 
ENDBRANCH  24  25
ENDBRANCH  22  24
ENDBRANCH  21  22
ENDBRANCH   1  21
TORSDOF 6
