REMARK  6 active torsions:
REMARK  status: ('A' for Active; 'I' for Inactive)
REMARK       I    between atoms: C1_2  and  N1_3 
REMARK    1  A    between atoms: C1_2  and  O2_20 
REMARK    2  A    between atoms: N1_3  and  C2_5 
REMARK    3  A    between atoms: N2_8  and  C5_9 
REMARK    4  A    between atoms: C5_9  and  C6_10 
REMARK    5  A    between atoms: C6_10  and  C7_11 
REMARK    6  A    between atoms: O2_20  and  C16_21 
ROOT
HETATM    1  C2  UNL     1       1.098  -1.897   0.471  1.00  0.00     0.096 C 
HETATM    2  C3  UNL     1       0.179  -1.586   1.633  1.00  0.00     0.070 C 
HETATM    3  C4  UNL     1      -0.552  -0.311   1.413  1.00  0.00     0.065 C 
HETATM    4  N2  UNL     1      -0.968  -0.005   0.125  1.00  0.00    -0.374 N 
HETATM    5  C14 UNL     1      -0.434  -0.692  -0.977  1.00  0.00     0.065 C 
HETATM    6  C15 UNL     1       0.161  -2.033  -0.734  1.00  0.00     0.070 C 
ENDROOT
BRANCH   1   7
HETATM    7  N1  UNL     1       1.986  -0.797   0.194  1.00  0.00    -0.332 N 
HETATM    8  C1  UNL     1       3.409  -0.989   0.148  1.00  0.00     0.361 C 
HETATM    9  O1  UNL     1       3.885  -2.120   0.349  1.00  0.00    -0.238 OA
ATOM     10  H1  UNL     1       1.599   0.132   0.028  1.00  0.00     0.165 HD
BRANCH   8  11
HETATM   11  O2  UNL     1       4.281   0.045  -0.115  1.00  0.00    -0.299 OA
BRANCH  11  12
HETATM   12  C16 UNL     1       5.687  -0.148  -0.161  1.00  0.00     0.133 C 
HETATM   13  C17 UNL     1       6.144   0.335  -1.521  1.00  0.00     0.032 C 
HETATM   14  C18 UNL     1       7.579  -0.040  -1.724  1.00  0.00     0.002 C 
HETATM   15  C19 UNL     1       8.405   0.593  -0.641  1.00  0.00     0.000 C 
HETATM   16  C20 UNL     1       7.890   0.346   0.740  1.00  0.00     0.002 C 
HETATM   17  C21 UNL     1       6.413   0.687   0.874  1.00  0.00     0.032 C 
ENDBRANCH  11  12
ENDBRANCH   8  11
ENDBRANCH   1   7
BRANCH   4  18
HETATM   18  C5  UNL     1      -2.309   0.488  -0.040  1.00  0.00     0.127 C 
BRANCH  18  19
HETATM   19  C6  UNL     1      -3.262  -0.614   0.267  1.00  0.00     0.024 C 
BRANCH  19  20
HETATM   20  C7  UNL     1      -4.721  -0.245   0.144  1.00  0.00    -0.013 C 
HETATM   21  C8  UNL     1      -5.004   0.189  -1.251  1.00  0.00     0.005 C 
HETATM   22  C9  UNL     1      -6.461   0.495  -1.500  1.00  0.00     0.000 C 
HETATM   23  C10 UNL     1      -7.261   0.590  -0.236  1.00  0.00     0.000 C 
HETATM   24  C11 UNL     1      -7.024   1.956   0.369  1.00  0.00     0.000 C 
HETATM   25  C12 UNL     1      -5.546   2.078   0.665  1.00  0.00     0.000 C 
HETATM   26  C13 UNL     1      -5.051   0.772   1.186  1.00  0.00     0.005 C 
ENDBRANCH  19  20
ENDBRANCH  18  19
ENDBRANCH   4  18
TORSDOF 6
