REMARK  6 active torsions:
REMARK  status: ('A' for Active; 'I' for Inactive)
REMARK    1  A    between atoms: C11_11  and  C12_12 
REMARK    2  A    between atoms: C12_12  and  C13_13 
REMARK    3  A    between atoms: C13_13  and  C14_14 
REMARK    4  A    between atoms: C14_14  and  C15_15 
REMARK    5  A    between atoms: C15_15  and  O2_17 
REMARK    6  A    between atoms: O2_17  and  C16_18 
ROOT
HETATM    1  C16 UNL     1       7.818   1.535  -0.607  1.00  0.00     0.302 C 
HETATM    2  C17 UNL     1       8.977   0.664  -0.633  1.00  0.00     0.085 C 
HETATM    3  N1  UNL     1       9.909  -0.030  -0.631  1.00  0.00    -0.195 NA
ENDROOT
BRANCH   1   4
HETATM    4  O2  UNL     1       6.763   0.862   0.059  1.00  0.00    -0.307 OA
BRANCH   4   5
HETATM    5  C15 UNL     1       6.287  -0.315  -0.491  1.00  0.00     0.259 C 
HETATM    6  O1  UNL     1       6.769  -0.791  -1.560  1.00  0.00    -0.265 OA
BRANCH   5   7
HETATM    7  C14 UNL     1       5.180  -1.025   0.198  1.00  0.00     0.111 C 
BRANCH   7   8
HETATM    8  C13 UNL     1       3.885  -0.228   0.122  1.00  0.00     0.010 C 
BRANCH   8   9
HETATM    9  C12 UNL     1       2.821  -1.011   0.811  1.00  0.00     0.005 C 
BRANCH   9  10
HETATM   10  C11 UNL     1       1.478  -0.331   0.843  1.00  0.00    -0.014 C 
HETATM   11  C10 UNL     1       0.534  -1.280   1.571  1.00  0.00     0.005 C 
HETATM   12  C9  UNL     1      -0.260  -1.865   0.419  1.00  0.00     0.010 C 
HETATM   13  C8  UNL     1      -0.547  -0.583  -0.376  1.00  0.00    -0.040 C 
HETATM   14  C7  UNL     1      -1.184  -0.866  -1.693  1.00  0.00     0.010 C 
HETATM   15  C18 UNL     1       0.891  -0.068  -0.515  1.00  0.00     0.014 C 
HETATM   16  C19 UNL     1      -1.373   0.291   0.499  1.00  0.00     0.015 C 
HETATM   17  C6  UNL     1      -2.643  -1.196  -1.401  1.00  0.00     0.014 C 
HETATM   18  C4  UNL     1      -3.366   0.114  -1.042  1.00  0.00    -0.022 C 
HETATM   19  C3  UNL     1      -4.636  -0.258  -0.367  1.00  0.00    -0.015 C 
HETATM   20  C5  UNL     1      -3.755   0.706  -2.394  1.00  0.00     0.020 C 
HETATM   21  C20 UNL     1      -2.496   1.025  -0.255  1.00  0.00    -0.002 C 
HETATM   22  C2  UNL     1      -5.254   0.638   0.388  1.00  0.00    -0.087 C 
HETATM   23  C1  UNL     1      -6.526   0.226   1.048  1.00  0.00     0.043 C 
HETATM   24  C22 UNL     1      -4.666   1.986   0.559  1.00  0.00     0.034 C 
HETATM   25  C21 UNL     1      -3.185   1.852   0.789  1.00  0.00     0.010 C 
ENDBRANCH   9  10
ENDBRANCH   8   9
ENDBRANCH   7   8
ENDBRANCH   5   7
ENDBRANCH   4   5
ENDBRANCH   1   4
TORSDOF 6
