REMARK  6 active torsions:
REMARK  status: ('A' for Active; 'I' for Inactive)
REMARK       I    between atoms: C1_2  and  N1_3 
REMARK    1  A    between atoms: C1_2  and  C13_19 
REMARK    2  A    between atoms: N1_3  and  C2_5 
REMARK    3  A    between atoms: C2_5  and  C3_6 
REMARK    4  A    between atoms: C3_6  and  C4_7 
REMARK    5  A    between atoms: C4_7  and  S1_8 
REMARK    6  A    between atoms: S1_8  and  C5_9 
REMARK       I    between atoms: C5_9  and  N2_11 
ROOT
HETATM    1  C3  UNL     1       0.772  -1.766  -1.209  1.00  0.00     0.030 C 
ENDROOT
BRANCH   1   2
HETATM    2  C2  UNL     1       1.120  -0.334  -1.428  1.00  0.00     0.123 C 
BRANCH   2   3
HETATM    3  N1  UNL     1       2.112   0.165  -0.535  1.00  0.00    -0.361 N 
HETATM    4  C1  UNL     1       3.425  -0.353  -0.469  1.00  0.00     0.221 C 
HETATM    5  O1  UNL     1       3.749  -1.290  -1.229  1.00  0.00    -0.273 OA
ATOM      6  H1  UNL     1       1.862   0.934   0.087  1.00  0.00     0.162 HD
BRANCH   4   7
HETATM    7  C13 UNL     1       4.450   0.168   0.467  1.00  0.00     0.078 C 
HETATM    8  C14 UNL     1       5.736  -0.575   0.284  1.00  0.00     0.014 C 
HETATM    9  C15 UNL     1       6.835   0.182   0.999  1.00  0.00     0.001 C 
HETATM   10  C16 UNL     1       7.101   1.520   0.345  1.00  0.00     0.000 C 
HETATM   11  C17 UNL     1       5.874   2.090  -0.309  1.00  0.00     0.001 C 
HETATM   12  C18 UNL     1       4.603   1.668   0.358  1.00  0.00     0.014 C 
ENDBRANCH   4   7
ENDBRANCH   2   3
ENDBRANCH   1   2
BRANCH   1  13
HETATM   13  C4  UNL     1      -0.296  -2.202  -2.199  1.00  0.00     0.086 C 
BRANCH  13  14
HETATM   14  S1  UNL     1      -1.810  -1.228  -2.028  1.00  0.00    -0.069 SA
BRANCH  14  15
HETATM   15  C5  UNL     1      -2.559  -1.568  -0.446  1.00  0.00     0.281 C 
HETATM   16  O2  UNL     1      -1.990  -2.388   0.317  1.00  0.00    -0.260 OA
HETATM   17  N2  UNL     1      -3.779  -0.924  -0.051  1.00  0.00    -0.343 N 
HETATM   18  C6  UNL     1      -4.275  -0.025  -1.047  1.00  0.00     0.126 C 
HETATM   19  C12 UNL     1      -4.198  -1.358   1.271  1.00  0.00     0.126 C 
HETATM   20  C7  UNL     1      -5.770   0.112  -0.921  1.00  0.00     0.020 C 
HETATM   21  C8  UNL     1      -6.192   1.219  -0.005  1.00  0.00     0.002 C 
HETATM   22  C9  UNL     1      -6.018   0.863   1.459  1.00  0.00     0.000 C 
HETATM   23  C10 UNL     1      -4.607   1.047   1.918  1.00  0.00     0.002 C 
HETATM   24  C11 UNL     1      -3.945  -0.262   2.255  1.00  0.00     0.020 C 
ENDBRANCH  14  15
ENDBRANCH  13  14
ENDBRANCH   1  13
TORSDOF 6
