REMARK  7 active torsions:
REMARK  status: ('A' for Active; 'I' for Inactive)
REMARK    1  A    between atoms: C2_2  and  N1_3 
REMARK    2  A    between atoms: C2_2  and  C3_7 
REMARK    3  A    between atoms: C3_7  and  C4_8 
REMARK    4  A    between atoms: C4_8  and  C5_9 
REMARK    5  A    between atoms: C5_9  and  C6_10 
REMARK    6  A    between atoms: C6_10  and  C8_12 
REMARK    7  A    between atoms: C12_16  and  C14_18 
ROOT
HETATM    1  C14 UNL     1      -4.268  -1.945  -0.896  1.00  0.00     0.133 C 
HETATM    2  C15 UNL     1      -3.661  -1.960  -2.215  1.00  0.00     0.059 C 
HETATM    3  N2  UNL     1      -3.204  -1.978  -3.279  1.00  0.00    -0.197 NA
ENDROOT
BRANCH   1   4
HETATM    4  C12 UNL     1      -3.886  -0.805  -0.013  1.00  0.00    -0.028 C 
HETATM    5  C11 UNL     1      -2.481  -0.646   0.364  1.00  0.00     0.006 C 
HETATM    6  C10 UNL     1      -1.447  -1.459  -0.323  1.00  0.00     0.007 C 
HETATM    7  C19 UNL     1      -1.950   0.781   0.398  1.00  0.00    -0.006 C 
HETATM    8  C9  UNL     1      -0.135  -1.498   0.434  1.00  0.00     0.009 C 
HETATM    9  C8  UNL     1       0.252  -0.247   1.134  1.00  0.00     0.027 C 
HETATM   10  C21 UNL     1      -0.799   0.748   1.419  1.00  0.00     0.094 A 
HETATM   11  C22 UNL     1      -0.928   1.561   2.586  1.00  0.00     0.208 A 
HETATM   12  O1  UNL     1      -1.569   0.367   2.683  1.00  0.00    -0.374 OA
HETATM   13  C18 UNL     1      -3.036   1.702   0.977  1.00  0.00     0.012 C 
HETATM   14  C20 UNL     1      -1.578   1.344  -0.917  1.00  0.00     0.019 C 
HETATM   15  C17 UNL     1      -4.305   1.652   0.208  1.00  0.00     0.002 C 
HETATM   16  C16 UNL     1      -4.501   0.461  -0.652  1.00  0.00     0.010 C 
HETATM   17  C13 UNL     1      -4.754  -0.979   1.258  1.00  0.00     0.016 C 
BRANCH   9  18
HETATM   18  C6  UNL     1       1.552   0.256   0.539  1.00  0.00    -0.012 C 
HETATM   19  C7  UNL     1       1.957   1.637   0.804  1.00  0.00     0.010 C 
BRANCH  18  20
HETATM   20  C5  UNL     1       2.677  -0.712   0.741  1.00  0.00     0.005 C 
BRANCH  20  21
HETATM   21  C4  UNL     1       3.875  -0.636  -0.090  1.00  0.00     0.002 C 
BRANCH  21  22
HETATM   22  C3  UNL     1       4.731   0.572  -0.093  1.00  0.00     0.032 C 
BRANCH  22  23
HETATM   23  C2  UNL     1       5.960   0.353  -1.021  1.00  0.00     0.179 C 
HETATM   24  C1  UNL     1       6.716  -0.817  -0.482  1.00  0.00     0.039 C 
BRANCH  23  25
HETATM   25  N1  UNL     1       5.504   0.184  -2.376  1.00  0.00    -0.075 N 
ATOM     26  H13 UNL     1       6.284  -0.051  -2.989  1.00  0.00     0.274 HD
ATOM     27  H12 UNL     1       4.952  -0.669  -2.464  1.00  0.00     0.274 HD
ATOM     28  H11 UNL     1       4.988   0.983  -2.744  1.00  0.00     0.274 HD
ENDBRANCH  23  25
ENDBRANCH  22  23
ENDBRANCH  21  22
ENDBRANCH  20  21
ENDBRANCH  18  20
ENDBRANCH   9  18
ENDBRANCH   1   4
TORSDOF 7
