REMARK  5 active torsions:
REMARK  status: ('A' for Active; 'I' for Inactive)
REMARK    1  A    between atoms: C1_2  and  C2_3 
REMARK       I    between atoms: C1_2  and  N2_17 
REMARK    2  A    between atoms: C3_4  and  C4_5 
REMARK    3  A    between atoms: C6_7  and  O2_8 
REMARK    4  A    between atoms: C7_10  and  O3_11 
REMARK    5  A    between atoms: N2_17  and  C9_19 
ROOT
HETATM    1  C4  UNL     1      -1.926   0.697  -0.541  1.00  0.00     0.211 C 
HETATM    2  C5  UNL     1      -2.023   0.575   0.964  1.00  0.00     0.071 C 
HETATM    3  C6  UNL     1      -3.457   0.506   1.370  1.00  0.00     0.150 C 
HETATM    4  C7  UNL     1      -4.190  -0.462   0.497  1.00  0.00     0.172 C 
HETATM    5  C8  UNL     1      -3.243  -1.301  -0.336  1.00  0.00     0.267 C 
HETATM    6  N1  UNL     1      -2.432  -0.479  -1.213  1.00  0.00    -0.065 N 
ATOM      7  H11 UNL     1      -1.675  -1.020  -1.632  1.00  0.00     0.278 HD
ATOM      8  H12 UNL     1      -2.941  -0.230  -2.061  1.00  0.00     0.278 HD
ENDROOT
BRANCH   1   9
HETATM    9  C3  UNL     1      -0.532   0.937  -0.996  1.00  0.00     0.011 C 
HETATM   10  C2  UNL     1       0.475   0.267  -0.471  1.00  0.00     0.072 C 
BRANCH  10  11
HETATM   11  C1  UNL     1       1.847   0.487  -0.903  1.00  0.00     0.241 C 
HETATM   12  O1  UNL     1       2.072   1.338  -1.797  1.00  0.00    -0.269 OA
HETATM   13  N2  UNL     1       2.889  -0.245  -0.322  1.00  0.00    -0.344 N 
ATOM     14  H2  UNL     1       2.654  -0.925   0.401  1.00  0.00     0.164 HD
BRANCH  13  15
HETATM   15  C9  UNL     1       4.283  -0.093  -0.688  1.00  0.00     0.147 C 
HETATM   16  C10 UNL     1       5.209   0.169   0.503  1.00  0.00     0.046 C 
HETATM   17  C11 UNL     1       6.336  -0.396  -0.330  1.00  0.00     0.079 C 
HETATM   18  S1  UNL     1       5.171  -1.649  -0.952  1.00  0.00    -0.144 SA
ENDBRANCH  13  15
ENDBRANCH  10  11
ENDBRANCH   1   9
BRANCH   3  19
HETATM   19  O2  UNL     1      -4.051   1.768   1.278  1.00  0.00    -0.393 OA
ATOM     20  H2  UNL     1      -4.964   1.724   1.537  1.00  0.00     0.210 HD
ENDBRANCH   3  19
BRANCH   4  21
HETATM   21  O3  UNL     1      -4.971  -1.356   1.236  1.00  0.00    -0.391 OA
ATOM     22  H3  UNL     1      -5.437  -1.971   0.681  1.00  0.00     0.210 HD
ENDBRANCH   4  21
TORSDOF 5
