REMARK  7 active torsions:
REMARK  status: ('A' for Active; 'I' for Inactive)
REMARK    1  A    between atoms: C1_4  and  O1_6 
REMARK    2  A    between atoms: O1_6  and  C2_7 
REMARK    3  A    between atoms: C2_7  and  C3_8 
REMARK    4  A    between atoms: C7_12  and  C8_13 
REMARK    5  A    between atoms: C7_12  and  C9_16 
REMARK    6  A    between atoms: C8_13  and  O2_14 
REMARK    7  A    between atoms: C12_19  and  O3_20 
ROOT
HETATM    1  C2  UNL     1       1.071   0.206   0.026  1.00  0.00     0.085 A 
HETATM    2  C6  UNL     1       0.563   0.118   1.487  1.00  0.00     0.055 A 
HETATM    3  C7  UNL     1      -0.242   0.697   0.307  1.00  0.00     0.020 A 
ENDROOT
BRANCH   3   4
HETATM    4  C8  UNL     1      -0.337   2.255   0.282  1.00  0.00     0.177 C 
BRANCH   4   5
HETATM    5  O2  UNL     1       0.534   2.730   1.243  1.00  0.00    -0.400 OA
ATOM      6  H2  UNL     1       0.476   3.678   1.228  1.00  0.00     0.209 HD
ENDBRANCH   4   5
ENDBRANCH   3   4
BRANCH   3   7
HETATM    7  C9  UNL     1      -1.578   0.113   0.174  1.00  0.00     0.002 C 
HETATM    8  C10 UNL     1      -1.831  -1.209   0.852  1.00  0.00     0.008 C 
HETATM    9  C11 UNL     1      -3.263  -1.478   0.381  1.00  0.00     0.032 C 
HETATM   10  C12 UNL     1      -3.344  -0.883  -1.006  1.00  0.00     0.118 C 
HETATM   11  C13 UNL     1      -2.262   0.141  -1.134  1.00  0.00     0.037 C 
BRANCH  10  12
HETATM   12  O3  UNL     1      -4.606  -0.330  -1.212  1.00  0.00    -0.396 OA
ATOM     13  H3  UNL     1      -4.657   0.044  -2.084  1.00  0.00     0.210 HD
ENDBRANCH  10  12
ENDBRANCH   3   7
BRANCH   1  14
HETATM   14  O1  UNL     1       2.121   1.201  -0.004  1.00  0.00    -0.312 OA
BRANCH  14  15
HETATM   15  C1  UNL     1       3.259   0.936   0.725  1.00  0.00     0.225 C 
HETATM   16  N1  UNL     1       3.291   0.133   1.731  1.00  0.00    -0.368 N 
ATOM     17  H12 UNL     1       4.134  -0.063   2.271  1.00  0.00     0.159 HD
ATOM     18  H11 UNL     1       2.399  -0.306   1.958  1.00  0.00     0.159 HD
HETATM   19  N2  UNL     1       4.519   1.556   0.405  1.00  0.00    -0.057 NA
ENDBRANCH  14  15
ENDBRANCH   1  14
BRANCH   1  20
HETATM   20  C3  UNL     1       1.577  -1.071  -0.523  1.00  0.00     0.022 A 
HETATM   21  C4  UNL     1       2.164  -1.018  -1.976  1.00  0.00     0.008 A 
HETATM   22  C5  UNL     1       1.053  -1.882  -1.603  1.00  0.00     0.008 A 
ENDBRANCH   1  20
TORSDOF 7
