REMARK  6 active torsions:
REMARK  status: ('A' for Active; 'I' for Inactive)
REMARK    1  A    between atoms: C2_2  and  N1_4 
REMARK    2  A    between atoms: N1_4  and  C4_6 
REMARK    3  A    between atoms: C4_6  and  O1_8 
REMARK    4  A    between atoms: O1_8  and  C5_9 
REMARK    5  A    between atoms: C8_14  and  C9_15 
REMARK       I    between atoms: C9_15  and  N3_17 
REMARK    6  A    between atoms: N3_17  and  N4_19 
ROOT
HETATM    1  C5  UNL     1       0.465   0.111   0.478  1.00  0.00     0.135 C 
HETATM    2  C6  UNL     1       0.321   0.073  -1.029  1.00  0.00     0.051 C 
HETATM    3  C7  UNL     1       1.581   0.589  -1.632  1.00  0.00     0.117 C 
HETATM    4  N2  UNL     1       2.451   1.205  -0.675  1.00  0.00    -0.409 N 
ATOM      5  H2  UNL     1       2.742   2.180  -0.753  1.00  0.00     0.154 HD
HETATM    6  C8  UNL     1       2.881   0.370   0.388  1.00  0.00     0.173 C 
HETATM    7  C10 UNL     1       1.755  -0.547   0.832  1.00  0.00     0.067 C 
ENDROOT
BRANCH   1   8
HETATM    8  O1  UNL     1      -0.671  -0.518   1.029  1.00  0.00    -0.322 OA
BRANCH   8   9
HETATM    9  C4  UNL     1      -1.895   0.100   0.686  1.00  0.00     0.210 C 
HETATM   10  S1  UNL     1      -2.080   1.679   1.054  1.00  0.00    -0.033 SA
BRANCH   9  11
HETATM   11  N1  UNL     1      -2.925  -0.625   0.043  1.00  0.00    -0.358 N 
ATOM     12  H1  UNL     1      -2.804  -1.611  -0.187  1.00  0.00     0.162 HD
BRANCH  11  13
HETATM   13  C2  UNL     1      -4.154   0.066  -0.280  1.00  0.00     0.076 C 
HETATM   14  C1  UNL     1      -5.130  -0.845  -0.998  1.00  0.00     0.032 C 
HETATM   15  C3  UNL     1      -4.761   0.573   0.996  1.00  0.00     0.032 C 
ENDBRANCH  11  13
ENDBRANCH   9  11
ENDBRANCH   8   9
ENDBRANCH   1   8
BRANCH   6  16
HETATM   16  C9  UNL     1       4.125  -0.389   0.084  1.00  0.00     0.258 C 
HETATM   17  O2  UNL     1       4.682  -0.248  -1.031  1.00  0.00    -0.270 OA
HETATM   18  N3  UNL     1       4.717  -1.277   1.013  1.00  0.00    -0.275 N 
ATOM     19  H3  UNL     1       4.285  -1.411   1.927  1.00  0.00     0.189 HD
BRANCH  18  20
HETATM   20  N4  UNL     1       5.877  -1.967   0.695  1.00  0.00    -0.343 N 
ATOM     21  H42 UNL     1       6.296  -1.821  -0.224  1.00  0.00     0.176 HD
ATOM     22  H41 UNL     1       6.304  -2.607   1.365  1.00  0.00     0.176 HD
ENDBRANCH  18  20
ENDBRANCH   6  16
TORSDOF 6
