REMARK  5 active torsions:
REMARK  status: ('A' for Active; 'I' for Inactive)
REMARK    1  A    between atoms: C2_2  and  N1_3 
REMARK    2  A    between atoms: N1_3  and  C3_5 
REMARK    3  A    between atoms: C3_5  and  C4_7 
REMARK    4  A    between atoms: C7_10  and  C8_11 
REMARK    5  A    between atoms: C8_11  and  C10_13 
ROOT
HETATM    1  C8  UNL     1       0.535   0.653  -0.347  1.00  0.00    -0.010 C 
HETATM    2  C9  UNL     1       0.308   1.846  -1.253  1.00  0.00     0.011 C 
ENDROOT
BRANCH   1   3
HETATM    3  C7  UNL     1       1.620  -0.185  -0.864  1.00  0.00     0.000 C 
HETATM    4  C4  UNL     1       2.005  -1.412  -0.131  1.00  0.00     0.051 C 
HETATM    5  C5  UNL     1       2.558  -1.927  -1.470  1.00  0.00     0.012 C 
HETATM    6  C6  UNL     1       1.467  -1.021  -2.098  1.00  0.00     0.006 C 
BRANCH   4   7
HETATM    7  C3  UNL     1       2.936  -1.381   0.977  1.00  0.00     0.077 C 
HETATM    8  S1  UNL     1       2.574  -2.383   2.291  1.00  0.00    -0.065 SA
BRANCH   7   9
HETATM    9  N1  UNL     1       4.102  -0.636   1.123  1.00  0.00    -0.384 N 
ATOM     10  H1  UNL     1       4.597  -0.803   1.999  1.00  0.00     0.160 HD
BRANCH   9  11
HETATM   11  C2  UNL     1       4.729   0.316   0.272  1.00  0.00     0.116 C 
HETATM   12  C1  UNL     1       6.078   0.706   0.909  1.00  0.00     0.026 C 
ENDBRANCH   9  11
ENDBRANCH   7   9
ENDBRANCH   4   7
ENDBRANCH   1   3
BRANCH   1  13
HETATM   13  C10 UNL     1      -0.716   0.038   0.152  1.00  0.00    -0.010 C 
HETATM   14  C11 UNL     1      -1.576   1.237   0.610  1.00  0.00     0.006 C 
HETATM   15  C12 UNL     1      -2.778   0.772   1.383  1.00  0.00     0.009 C 
HETATM   16  C13 UNL     1      -3.338  -0.525   0.874  1.00  0.00    -0.044 C 
HETATM   17  C14 UNL     1      -4.868  -0.415   0.917  1.00  0.00     0.015 C 
HETATM   18  C15 UNL     1      -2.984  -1.680   1.795  1.00  0.00     0.015 C 
HETATM   19  C16 UNL     1      -2.978  -0.796  -0.547  1.00  0.00    -0.011 C 
HETATM   20  C17 UNL     1      -3.703   0.216  -1.424  1.00  0.00     0.011 C 
HETATM   21  C18 UNL     1      -1.487  -0.804  -0.824  1.00  0.00     0.010 C 
ENDBRANCH   1  13
TORSDOF 5
