REMARK  3 active torsions:
REMARK  status: ('A' for Active; 'I' for Inactive)
REMARK    1  A    between atoms: C2_2  and  N1_4 
REMARK    2  A    between atoms: N1_4  and  C4_7 
REMARK    3  A    between atoms: C4_7  and  C5_8 
ROOT
HETATM    1  C5  UNL     1       1.748  -0.554  -0.505  1.00  0.00     0.011 C 
HETATM    2  C6  UNL     1       1.136  -0.430  -1.844  1.00  0.00     0.006 C 
HETATM    3  C7  UNL     1       0.109  -1.501  -1.977  1.00  0.00     0.001 C 
HETATM    4  C8  UNL     1      -1.185  -1.129  -1.338  1.00  0.00     0.006 C 
HETATM    5  C9  UNL     1      -1.190  -0.787   0.072  1.00  0.00    -0.002 C 
HETATM    6  C10 UNL     1      -0.364   0.294   0.616  1.00  0.00    -0.009 C 
HETATM    7  C11 UNL     1      -0.770   1.695   0.217  1.00  0.00     0.006 C 
HETATM    8  C12 UNL     1      -2.115   1.822  -0.381  1.00  0.00     0.010 C 
HETATM    9  C13 UNL     1      -3.131   0.821   0.039  1.00  0.00    -0.036 C 
HETATM   10  C14 UNL     1      -4.026   1.411   1.140  1.00  0.00     0.016 C 
HETATM   11  C15 UNL     1      -4.053   0.582  -1.151  1.00  0.00     0.010 C 
HETATM   12  C16 UNL     1      -4.286  -0.889  -1.241  1.00  0.00     0.002 C 
HETATM   13  C17 UNL     1      -3.628  -1.465  -0.016  1.00  0.00     0.010 C 
HETATM   14  C18 UNL     1      -2.635  -0.487   0.494  1.00  0.00    -0.033 C 
HETATM   15  C19 UNL     1      -2.628  -0.584   2.027  1.00  0.00     0.016 C 
HETATM   16  C20 UNL     1       1.105   0.137   0.613  1.00  0.00     0.011 C 
ENDROOT
BRANCH   1  17
HETATM   17  C4  UNL     1       3.206  -0.125  -0.606  1.00  0.00     0.237 C 
BRANCH  17  18
HETATM   18  N1  UNL     1       3.789  -0.250   0.703  1.00  0.00    -0.071 N 
ATOM     19  H12 UNL     1       3.659  -1.192   1.073  1.00  0.00     0.277 HD
ATOM     20  H11 UNL     1       3.252   0.274   1.394  1.00  0.00     0.277 HD
BRANCH  18  21
HETATM   21  C2  UNL     1       5.183   0.131   0.732  1.00  0.00     0.177 C 
HETATM   22  C1  UNL     1       6.018  -0.779  -0.156  1.00  0.00     0.039 C 
HETATM   23  C3  UNL     1       5.402   1.535   0.255  1.00  0.00     0.039 C 
ENDBRANCH  18  21
ENDBRANCH  17  18
ENDBRANCH   1  17
TORSDOF 3
