REMARK  5 active torsions:
REMARK  status: ('A' for Active; 'I' for Inactive)
REMARK    1  A    between atoms: C2_2  and  C4_4 
REMARK    2  A    between atoms: C4_4  and  C5_5 
REMARK    3  A    between atoms: C5_5  and  C6_6 
REMARK    4  A    between atoms: C8_8  and  C9_9 
REMARK       I    between atoms: C9_9  and  N1_11 
REMARK    5  A    between atoms: N1_11  and  C10_13 
ROOT
HETATM    1  C6  UNL     1      -0.679  -0.930   0.480  1.00  0.00    -0.024 A 
HETATM    2  C7  UNL     1      -1.492  -1.191   1.761  1.00  0.00     0.017 C 
HETATM    3  C8  UNL     1       0.770  -1.258   0.669  1.00  0.00     0.095 A 
HETATM    4  C14 UNL     1       0.615  -2.471  -0.154  1.00  0.00    -0.027 A 
HETATM    5  C15 UNL     1       0.753  -3.765   0.652  1.00  0.00     0.016 C 
HETATM    6  C16 UNL     1       1.397  -2.640  -1.414  1.00  0.00     0.016 C 
HETATM    7  C17 UNL     1      -0.825  -2.079  -0.444  1.00  0.00    -0.032 A 
HETATM    8  C18 UNL     1      -1.740  -3.201   0.067  1.00  0.00     0.016 C 
HETATM    9  C19 UNL     1      -1.122  -1.831  -1.887  1.00  0.00     0.016 C 
ENDROOT
BRANCH   3  10
HETATM   10  C9  UNL     1       1.785  -0.290   0.295  1.00  0.00     0.224 C 
HETATM   11  O1  UNL     1       2.587  -0.532  -0.641  1.00  0.00    -0.273 OA
HETATM   12  N1  UNL     1       1.978   0.971   0.910  1.00  0.00    -0.353 N 
ATOM     13  H1  UNL     1       1.355   1.216   1.679  1.00  0.00     0.163 HD
BRANCH  12  14
HETATM   14  C10 UNL     1       2.979   1.934   0.540  1.00  0.00     0.022 C 
HETATM   15  C11 UNL     1       2.793   2.359  -0.900  1.00  0.00     0.037 C 
HETATM   16  C12 UNL     1       2.909   3.178   1.402  1.00  0.00     0.037 C 
HETATM   17  C13 UNL     1       4.384   1.390   0.661  1.00  0.00     0.037 C 
ENDBRANCH  12  14
ENDBRANCH   3  10
BRANCH   1  18
HETATM   18  C5  UNL     1      -1.025   0.440   0.009  1.00  0.00     0.011 C 
BRANCH  18  19
HETATM   19  C4  UNL     1      -2.487   0.609  -0.299  1.00  0.00     0.005 C 
BRANCH  19  20
HETATM   20  C2  UNL     1      -2.726   2.051  -0.770  1.00  0.00    -0.023 C 
HETATM   21  C1  UNL     1      -4.217   2.178  -1.070  1.00  0.00     0.009 C 
HETATM   22  C3  UNL     1      -2.412   3.040   0.315  1.00  0.00     0.009 C 
ENDBRANCH  19  20
ENDBRANCH  18  19
ENDBRANCH   1  18
TORSDOF 5
