REMARK  5 active torsions:
REMARK  status: ('A' for Active; 'I' for Inactive)
REMARK    1  A    between atoms: C2_2  and  C4_4 
REMARK    2  A    between atoms: C4_4  and  C5_5 
REMARK    3  A    between atoms: C5_5  and  C6_6 
REMARK    4  A    between atoms: C6_6  and  O1_7 
REMARK    5  A    between atoms: C6_6  and  C7_9 
ROOT
HETATM    1  C7  UNL     1       0.378   0.697   1.305  1.00  0.00     0.023 C 
HETATM    2  C8  UNL     1       0.039  -0.641   1.903  1.00  0.00     0.008 C 
HETATM    3  C9  UNL     1      -1.467  -0.734   1.718  1.00  0.00     0.006 C 
HETATM    4  C10 UNL     1      -1.851   0.536   1.046  1.00  0.00    -0.002 C 
HETATM    5  C11 UNL     1      -3.119   0.546   0.309  1.00  0.00    -0.005 C 
HETATM    6  C12 UNL     1      -4.191  -0.244   1.015  1.00  0.00     0.010 C 
HETATM    7  C13 UNL     1      -4.977  -0.913  -0.064  1.00  0.00    -0.009 A 
HETATM    8  C14 UNL     1      -4.353  -2.134  -0.690  1.00  0.00     0.010 A 
HETATM    9  C15 UNL     1      -4.241  -0.804  -1.327  1.00  0.00    -0.006 A 
HETATM   10  C16 UNL     1      -3.037   0.078  -1.090  1.00  0.00    -0.006 C 
HETATM   11  C17 UNL     1      -1.815  -0.697  -1.441  1.00  0.00     0.006 C 
HETATM   12  C18 UNL     1      -0.542  -0.198  -0.864  1.00  0.00     0.010 C 
HETATM   13  C19 UNL     1      -0.611   0.820   0.201  1.00  0.00    -0.034 C 
HETATM   14  C20 UNL     1      -0.722   2.237  -0.322  1.00  0.00     0.016 C 
ENDROOT
BRANCH   1  15
HETATM   15  C6  UNL     1       1.782   0.966   1.064  1.00  0.00     0.123 C 
BRANCH  15  16
HETATM   16  C5  UNL     1       2.557   0.091   0.158  1.00  0.00     0.032 C 
BRANCH  16  17
HETATM   17  C4  UNL     1       4.030   0.523   0.269  1.00  0.00     0.006 C 
BRANCH  17  18
HETATM   18  C2  UNL     1       4.892  -0.332  -0.635  1.00  0.00    -0.023 C 
HETATM   19  C1  UNL     1       4.804  -1.793  -0.270  1.00  0.00     0.009 C 
HETATM   20  C3  UNL     1       4.551  -0.163  -2.086  1.00  0.00     0.009 C 
ENDBRANCH  17  18
ENDBRANCH  16  17
ENDBRANCH  15  16
BRANCH  15  21
HETATM   21  O1  UNL     1       1.961   2.290   0.640  1.00  0.00    -0.395 OA
ATOM     22  H1  UNL     1       1.463   2.852   1.222  1.00  0.00     0.210 HD
ENDBRANCH  15  21
ENDBRANCH   1  15
TORSDOF 5
