REMARK  4 active torsions:
REMARK  status: ('A' for Active; 'I' for Inactive)
REMARK    1  A    between atoms: C2_2  and  C3_3 
REMARK    2  A    between atoms: C5_5  and  C6_6 
REMARK    3  A    between atoms: C6_6  and  N1_7 
REMARK    4  A    between atoms: N1_7  and  C7_10 
ROOT
HETATM    1  C7  UNL     1       0.546  -0.658   0.495  1.00  0.00     0.186 C 
HETATM    2  C8  UNL     1       0.576   0.174  -0.727  1.00  0.00     0.038 C 
HETATM    3  C9  UNL     1      -0.742   0.104  -1.504  1.00  0.00    -0.008 C 
HETATM    4  C10 UNL     1      -0.918  -1.388  -1.756  1.00  0.00     0.010 C 
HETATM    5  C11 UNL     1      -1.544  -1.759  -0.394  1.00  0.00    -0.008 C 
HETATM    6  C12 UNL     1      -0.506  -1.658   0.674  1.00  0.00     0.038 C 
HETATM    7  C13 UNL     1      -2.616  -0.745  -0.372  1.00  0.00    -0.005 C 
HETATM    8  C14 UNL     1      -3.416  -0.564   0.860  1.00  0.00     0.014 C 
HETATM    9  C15 UNL     1      -4.385   0.566   0.620  1.00  0.00    -0.047 C 
HETATM   10  C16 UNL     1      -5.614   0.118  -0.130  1.00  0.00     0.015 C 
HETATM   11  C17 UNL     1      -4.849   1.001   2.020  1.00  0.00     0.015 C 
HETATM   12  C18 UNL     1      -3.815   1.775  -0.024  1.00  0.00     0.009 C 
HETATM   13  C19 UNL     1      -2.807   1.521  -1.121  1.00  0.00     0.006 C 
HETATM   14  C20 UNL     1      -1.813   0.533  -0.580  1.00  0.00    -0.006 C 
ENDROOT
BRANCH   1  15
HETATM   15  N1  UNL     1       1.858  -1.331   0.556  1.00  0.00    -0.070 N 
ATOM     16  H12 UNL     1       2.035  -1.942  -0.242  1.00  0.00     0.277 HD
ATOM     17  H11 UNL     1       1.909  -2.048   1.280  1.00  0.00     0.277 HD
BRANCH  15  18
HETATM   18  C6  UNL     1       2.851  -0.293   0.710  1.00  0.00     0.237 C 
BRANCH  18  19
HETATM   19  C5  UNL     1       4.254  -0.839   0.681  1.00  0.00     0.016 A 
HETATM   20  C3  UNL     1       5.332   0.218   0.844  1.00  0.00    -0.009 A 
HETATM   21  C4  UNL     1       5.151  -0.863   1.832  1.00  0.00     0.011 A 
BRANCH  20  22
HETATM   22  C2  UNL     1       6.463   0.234  -0.143  1.00  0.00     0.000 C 
HETATM   23  C1  UNL     1       6.361   1.472  -1.014  1.00  0.00     0.005 C 
ENDBRANCH  20  22
ENDBRANCH  18  19
ENDBRANCH  15  18
ENDBRANCH   1  15
TORSDOF 4
