REMARK  6 active torsions:
REMARK  status: ('A' for Active; 'I' for Inactive)
REMARK    1  A    between atoms: N1_1  and  C1_4 
REMARK    2  A    between atoms: N3_10  and  C4_11 
REMARK    3  A    between atoms: C4_11  and  C5_12 
REMARK    4  A    between atoms: C5_12  and  N4_13 
REMARK    5  A    between atoms: N4_13  and  C6_15 
REMARK    6  A    between atoms: C7_20  and  N7_21 
ROOT
HETATM    1  N4  UNL     1       1.424  -0.345  -1.074  1.00  0.00    -0.223 N 
ATOM      2  H4  UNL     1       1.455  -0.514  -2.079  1.00  0.00     0.177 HD
ENDROOT
BRANCH   1   3
HETATM    3  C5  UNL     1       0.144  -0.266  -0.411  1.00  0.00     0.158 C 
BRANCH   3   4
HETATM    4  C4  UNL     1      -0.945   0.192  -1.358  1.00  0.00     0.155 C 
BRANCH   4   5
HETATM    5  N3  UNL     1      -2.225   0.280  -0.731  1.00  0.00    -0.286 N 
HETATM    6  C1  UNL     1      -3.243  -0.726  -0.610  1.00  0.00     0.099 C 
HETATM    7  C2  UNL     1      -4.239  -0.215   0.330  1.00  0.00     0.200 C 
HETATM    8  N2  UNL     1      -3.998   1.198   0.417  1.00  0.00    -0.336 N 
HETATM    9  C3  UNL     1      -2.711   1.465  -0.089  1.00  0.00     0.324 C 
ATOM     10  H2  UNL     1      -4.650   1.892   0.784  1.00  0.00     0.164 HD
HETATM   11  O1  UNL     1      -2.118   2.580   0.026  1.00  0.00    -0.247 OA
BRANCH   6  12
HETATM   12  N1  UNL     1      -3.230  -1.843  -1.233  1.00  0.00    -0.387 N 
ATOM     13  H12 UNL     1      -3.953  -2.557  -1.147  1.00  0.00     0.157 HD
ATOM     14  H11 UNL     1      -2.535  -2.200  -1.889  1.00  0.00     0.157 HD
ENDBRANCH   6  12
ENDBRANCH   4   5
ENDBRANCH   3   4
ENDBRANCH   1   3
BRANCH   1  15
HETATM   15  C6  UNL     1       2.547  -0.205  -0.413  1.00  0.00     0.707 A 
HETATM   16  N5  UNL     1       2.717   0.021   0.902  1.00  0.00    -0.117 N 
HETATM   17  N6  UNL     1       4.003   0.104   1.198  1.00  0.00    -0.118 N 
ATOM     18  H5  UNL     1       1.959   0.115   1.578  1.00  0.00     0.206 HD
HETATM   19  C7  UNL     1       4.676  -0.073   0.047  1.00  0.00     0.705 A 
ATOM     20  H6  UNL     1       4.406   0.270   2.120  1.00  0.00     0.206 HD
HETATM   21  N8  UNL     1       3.782  -0.262  -0.940  1.00  0.00    -0.020 N 
ATOM     22  H8  UNL     1       4.004  -0.422  -1.923  1.00  0.00     0.203 HD
BRANCH  19  23
HETATM   23  N7  UNL     1       5.976  -0.065  -0.105  1.00  0.00    -0.233 N 
ATOM     24  H72 UNL     1       6.654   0.078   0.643  1.00  0.00     0.174 HD
ATOM     25  H71 UNL     1       6.486  -0.199  -0.978  1.00  0.00     0.174 HD
ENDBRANCH  19  23
ENDBRANCH   1  15
TORSDOF 6
