REMARK  7 active torsions:
REMARK  status: ('A' for Active; 'I' for Inactive)
REMARK    1  A    between atoms: N1_1  and  N2_4 
REMARK    2  A    between atoms: N2_4  and  N3_6 
REMARK       I    between atoms: C1_8  and  N4_9 
REMARK       I    between atoms: C1_8  and  N8_22 
REMARK    3  A    between atoms: N4_9  and  C2_11 
REMARK    4  A    between atoms: C2_11  and  C3_12 
REMARK    5  A    between atoms: C3_12  and  N5_13 
REMARK    6  A    between atoms: N6_17  and  N7_19 
REMARK    7  A    between atoms: N8_22  and  C4_24 
ROOT
HETATM    1  N3  UNL     1       0.190   1.749  -0.895  1.00  0.00    -0.118 N 
ATOM      2  H3  UNL     1       1.201   1.866  -0.830  1.00  0.00     0.207 HD
HETATM    3  C1  UNL     1      -0.305   0.589  -0.664  1.00  0.00     0.695 C 
HETATM    4  N4  UNL     1       0.554  -0.477  -0.333  1.00  0.00    -0.176 N 
ATOM      5  H4  UNL     1       0.287  -1.429  -0.583  1.00  0.00     0.185 HD
HETATM    6  N8  UNL     1      -1.697   0.386  -0.741  1.00  0.00    -0.219 N 
ATOM      7  H8  UNL     1      -2.145   0.502  -1.650  1.00  0.00     0.178 HD
ENDROOT
BRANCH   1   8
HETATM    8  N2  UNL     1      -0.587   2.862  -1.231  1.00  0.00    -0.235 N 
ATOM      9  H2  UNL     1      -0.188   3.579  -1.837  1.00  0.00     0.208 HD
BRANCH   8  10
HETATM   10  N1  UNL     1      -1.789   3.010  -0.800  1.00  0.00    -0.330 N 
ATOM     11  H12 UNL     1      -2.173   2.284  -0.195  1.00  0.00     0.178 HD
ATOM     12  H11 UNL     1      -2.356   3.822  -1.045  1.00  0.00     0.178 HD
ENDBRANCH   8  10
ENDBRANCH   1   8
BRANCH   4  13
HETATM   13  C2  UNL     1       1.783  -0.255   0.340  1.00  0.00     0.137 C 
HETATM   14  N6  UNL     1       1.764  -0.174   1.612  1.00  0.00    -0.294 N 
ATOM     15  H6  UNL     1       0.856  -0.275   2.066  1.00  0.00     0.187 HD
BRANCH  13  16
HETATM   16  C3  UNL     1       3.051  -0.124  -0.447  1.00  0.00     0.307 C 
BRANCH  16  17
HETATM   17  N5  UNL     1       3.288  -1.344  -1.213  1.00  0.00    -0.073 N 
ATOM     18  H53 UNL     1       3.289  -2.174  -0.620  1.00  0.00     0.274 HD
ATOM     19  H52 UNL     1       2.493  -1.585  -1.805  1.00  0.00     0.274 HD
ATOM     20  H51 UNL     1       4.151  -1.255  -1.749  1.00  0.00     0.274 HD
ENDBRANCH  16  17
ENDBRANCH  13  16
BRANCH  14  21
HETATM   21  N7  UNL     1       2.850   0.037   2.433  1.00  0.00    -0.344 N 
ATOM     22  H72 UNL     1       3.749   0.136   1.961  1.00  0.00     0.176 HD
ATOM     23  H71 UNL     1       2.835   0.102   3.451  1.00  0.00     0.176 HD
ENDBRANCH  14  21
ENDBRANCH   4  13
BRANCH   6  24
HETATM   24  C4  UNL     1      -2.529   0.026   0.375  1.00  0.00     0.118 C 
HETATM   25  C5  UNL     1      -2.169  -1.288   1.048  1.00  0.00     0.100 C 
HETATM   26  S1  UNL     1      -3.904  -1.437   1.557  1.00  0.00    -0.165 SA
HETATM   27  C6  UNL     1      -3.822  -0.636  -0.081  1.00  0.00     0.100 C 
ENDBRANCH   6  24
TORSDOF 7
