REMARK  2 active torsions:
REMARK  status: ('A' for Active; 'I' for Inactive)
REMARK    1  A    between atoms: C9_10  and  C10_11 
REMARK    2  A    between atoms: N2_16  and  C15_18 
ROOT
HETATM    1  C1  UNL     1       5.477   2.309   1.686  1.00  0.00     0.229 C 
HETATM    2  N1  UNL     1       4.392   2.344   1.228  1.00  0.00    -0.429 NA
HETATM    3  C2  UNL     1       3.093   2.418   0.705  1.00  0.00     0.112 A 
HETATM    4  C3  UNL     1       2.368   3.578   1.006  1.00  0.00     0.045 A 
HETATM    5  C4  UNL     1       1.095   3.666   0.513  1.00  0.00     0.004 A 
HETATM    6  C5  UNL     1       0.562   2.654  -0.242  1.00  0.00     0.014 A 
HETATM    7  C6  UNL     1       1.277   1.547  -0.518  1.00  0.00    -0.004 A 
HETATM    8  C7  UNL     1       2.564   1.400  -0.053  1.00  0.00    -0.005 A 
HETATM    9  C8  UNL     1       3.550   0.296  -0.260  1.00  0.00     0.047 C 
HETATM   10  C9  UNL     1       3.077  -0.955   0.379  1.00  0.00    -0.010 C 
HETATM   11  C12 UNL     1       1.666  -1.214   0.033  1.00  0.00     0.011 C 
HETATM   12  C13 UNL     1       1.196  -0.813  -1.319  1.00  0.00     0.058 C 
HETATM   13  C14 UNL     1       0.532   0.564  -1.338  1.00  0.00     0.016 C 
HETATM   14  N2  UNL     1      -0.829   0.581  -1.409  1.00  0.00    -0.383 N 
ATOM     15  H2  UNL     1      -1.184   1.069  -2.231  1.00  0.00     0.160 HD
ENDROOT
BRANCH  10  16
HETATM   16  C10 UNL     1       3.939  -2.154   0.067  1.00  0.00     0.000 C 
HETATM   17  C11 UNL     1       5.359  -1.999   0.512  1.00  0.00     0.005 C 
ENDBRANCH  10  16
BRANCH  14  18
HETATM   18  C15 UNL     1      -1.816   0.081  -0.608  1.00  0.00     0.031 C 
HETATM   19  C16 UNL     1      -1.943   0.545   0.817  1.00  0.00     0.035 C 
HETATM   20  C17 UNL     1      -3.143  -0.031   1.525  1.00  0.00    -0.012 C 
HETATM   21  C18 UNL     1      -4.362   0.628   0.908  1.00  0.00     0.009 C 
HETATM   22  C22 UNL     1      -3.307  -1.501   1.420  1.00  0.00     0.009 C 
HETATM   23  C19 UNL     1      -4.338   0.315  -0.550  1.00  0.00    -0.012 C 
HETATM   24  C20 UNL     1      -4.559  -1.188  -0.718  1.00  0.00     0.009 C 
HETATM   25  C24 UNL     1      -3.106   0.656  -1.272  1.00  0.00     0.035 C 
HETATM   26  C21 UNL     1      -3.387  -1.833  -0.077  1.00  0.00    -0.012 C 
HETATM   27  C23 UNL     1      -2.046  -1.409  -0.635  1.00  0.00     0.035 C 
ENDBRANCH  14  18
TORSDOF 2
