REMARK  4 active torsions:
REMARK  status: ('A' for Active; 'I' for Inactive)
REMARK    1  A    between atoms: C2_2  and  C3_3 
REMARK    2  A    between atoms: C3_3  and  C4_4 
REMARK    3  A    between atoms: C4_4  and  C6_6 
REMARK    4  A    between atoms: C22_22  and  O1_23 
ROOT
HETATM    1  C6  UNL     1      -2.666  -0.674  -0.388  1.00  0.00    -0.006 C 
HETATM    2  C7  UNL     1      -2.447  -1.450   0.864  1.00  0.00     0.006 C 
HETATM    3  C8  UNL     1      -1.030  -1.132   1.325  1.00  0.00     0.010 C 
HETATM    4  C9  UNL     1      -0.810   0.235   0.719  1.00  0.00     0.019 C 
HETATM    5  C10 UNL     1       0.614   0.600   0.637  1.00  0.00    -0.068 C 
HETATM    6  C11 UNL     1       1.177   1.012   1.772  1.00  0.00    -0.022 C 
HETATM    7  C12 UNL     1       2.589   1.422   1.902  1.00  0.00     0.032 C 
HETATM    8  C13 UNL     1       3.365   1.187   0.668  1.00  0.00    -0.005 C 
HETATM    9  C14 UNL     1       4.822   0.950   0.953  1.00  0.00     0.009 C 
HETATM   10  C15 UNL     1       5.222  -0.491   0.772  1.00  0.00    -0.018 C 
HETATM   11  C16 UNL     1       6.705  -0.612   1.001  1.00  0.00     0.010 C 
HETATM   12  C17 UNL     1       4.900  -1.022  -0.586  1.00  0.00     0.005 C 
HETATM   13  C18 UNL     1       3.808  -0.159  -1.243  1.00  0.00     0.006 C 
HETATM   14  C19 UNL     1       2.774   0.090  -0.231  1.00  0.00     0.005 C 
HETATM   15  C20 UNL     1       1.427   0.524  -0.639  1.00  0.00     0.009 C 
HETATM   16  C21 UNL     1       1.480   1.930  -1.216  1.00  0.00     0.023 C 
HETATM   17  C22 UNL     1       0.684  -0.372  -1.556  1.00  0.00     0.131 C 
HETATM   18  C23 UNL     1      -0.740  -0.023  -1.771  1.00  0.00     0.038 C 
HETATM   19  C24 UNL     1      -1.556   0.294  -0.573  1.00  0.00     0.001 C 
ENDROOT
BRANCH   1  20
HETATM   20  C4  UNL     1      -4.058  -0.066  -0.478  1.00  0.00    -0.014 C 
HETATM   21  C5  UNL     1      -4.307   0.967   0.542  1.00  0.00     0.010 C 
BRANCH  20  22
HETATM   22  C3  UNL     1      -5.021  -1.200  -0.437  1.00  0.00     0.004 C 
BRANCH  22  23
HETATM   23  C2  UNL     1      -6.448  -0.920  -0.678  1.00  0.00    -0.004 C 
HETATM   24  C1  UNL     1      -7.175  -0.031   0.265  1.00  0.00     0.005 C 
ENDBRANCH  22  23
ENDBRANCH  20  22
ENDBRANCH   1  20
BRANCH  17  25
HETATM   25  O1  UNL     1       1.226  -0.387  -2.865  1.00  0.00    -0.394 OA
ATOM     26  H1  UNL     1       0.750  -0.961  -3.453  1.00  0.00     0.210 HD
ENDBRANCH  17  25
TORSDOF 4
