REMARK  3 active torsions:
REMARK  status: ('A' for Active; 'I' for Inactive)
REMARK    1  A    between atoms: C8_8  and  C10_10 
REMARK    2  A    between atoms: C20_21  and  C21_22 
REMARK    3  A    between atoms: C21_22  and  C22_23 
ROOT
HETATM    1  C1  UNL     1       1.620   0.339   2.683  1.00  0.00     0.015 C 
HETATM    2  C2  UNL     1       1.126  -0.405   1.736  1.00  0.00    -0.079 C 
HETATM    3  C3  UNL     1      -0.067  -1.204   2.041  1.00  0.00     0.039 C 
HETATM    4  C4  UNL     1      -1.097  -1.350   0.983  1.00  0.00    -0.002 C 
HETATM    5  C5  UNL     1      -2.180  -0.334   1.034  1.00  0.00    -0.005 C 
HETATM    6  C6  UNL     1      -3.522  -0.919   0.618  1.00  0.00     0.006 C 
HETATM    7  C7  UNL     1      -4.052  -0.078  -0.501  1.00  0.00     0.011 C 
HETATM    8  C8  UNL     1      -3.223   1.162  -0.477  1.00  0.00    -0.031 C 
HETATM    9  C9  UNL     1      -3.058   1.832  -1.797  1.00  0.00     0.016 C 
HETATM   10  C11 UNL     1      -1.876   0.652  -0.025  1.00  0.00    -0.001 C 
HETATM   11  C12 UNL     1      -1.146  -0.108  -1.119  1.00  0.00     0.011 C 
HETATM   12  C13 UNL     1      -0.566  -1.255  -0.419  1.00  0.00    -0.004 C 
HETATM   13  C14 UNL     1       0.887  -1.451  -0.354  1.00  0.00     0.004 C 
HETATM   14  C15 UNL     1       1.613  -1.955  -1.544  1.00  0.00     0.007 C 
HETATM   15  C16 UNL     1       3.030  -1.964  -1.023  1.00  0.00     0.011 C 
HETATM   16  C17 UNL     1       3.026  -1.233   0.318  1.00  0.00    -0.028 A 
HETATM   17  C18 UNL     1       3.710  -1.843   1.423  1.00  0.00     0.011 A 
HETATM   18  C19 UNL     1       4.320  -0.637   0.706  1.00  0.00     0.011 A 
HETATM   19  C20 UNL     1       1.725  -0.475   0.395  1.00  0.00    -0.006 C 
ENDROOT
BRANCH   8  20
HETATM   20  C10 UNL     1      -3.715   2.125   0.579  1.00  0.00     0.095 C 
HETATM   21  S1  UNL     1      -5.410   2.643   0.323  1.00  0.00    -0.097 SA
ENDBRANCH   8  20
BRANCH  19  22
HETATM   22  C21 UNL     1       1.945   0.886  -0.073  1.00  0.00     0.015 C 
BRANCH  22  23
HETATM   23  C22 UNL     1       2.544   1.127  -1.423  1.00  0.00    -0.004 C 
HETATM   24  C23 UNL     1       2.627   2.663  -1.547  1.00  0.00     0.005 C 
ENDBRANCH  22  23
ENDBRANCH  19  22
TORSDOF 3
