REMARK  5 active torsions:
REMARK  status: ('A' for Active; 'I' for Inactive)
REMARK    1  A    between atoms: C5_6  and  C6_7 
REMARK    2  A    between atoms: N1_8  and  N2_10 
REMARK    3  A    between atoms: N2_10  and  C7_12 
REMARK    4  A    between atoms: C7_12  and  N3_14 
REMARK    5  A    between atoms: N3_14  and  C8_16 
ROOT
HETATM    1  N2  UNL     1       0.259   0.479  -1.070  1.00  0.00    -0.277 N 
ATOM      2  H2  UNL     1       0.121   0.792  -2.031  1.00  0.00     0.189 HD
ENDROOT
BRANCH   1   3
HETATM    3  N1  UNL     1       1.559   0.274  -0.628  1.00  0.00    -0.307 N 
HETATM    4  C6  UNL     1       2.014  -0.908  -0.524  1.00  0.00     0.144 C 
ATOM      5  H1  UNL     1       2.148   1.071  -0.387  1.00  0.00     0.186 HD
BRANCH   4   6
HETATM    6  C5  UNL     1       3.389  -1.140  -0.056  1.00  0.00     0.097 A 
HETATM    7  C2  UNL     1       4.297  -0.175   0.304  1.00  0.00    -0.025 A 
HETATM    8  C1  UNL     1       4.058   1.284   0.288  1.00  0.00     0.051 C 
HETATM    9  C3  UNL     1       5.463  -0.813   0.681  1.00  0.00     0.034 A 
HETATM   10  C4  UNL     1       5.199  -2.162   0.527  1.00  0.00     0.143 A 
HETATM   11  O1  UNL     1       3.964  -2.292   0.091  1.00  0.00    -0.321 OA
ENDBRANCH   4   6
ENDBRANCH   1   3
BRANCH   1  12
HETATM   12  C7  UNL     1      -0.885   0.279  -0.264  1.00  0.00     0.187 C 
HETATM   13  S1  UNL     1      -0.641  -0.220   1.264  1.00  0.00    -0.040 SA
BRANCH  12  14
HETATM   14  N3  UNL     1      -2.168   0.515  -0.810  1.00  0.00    -0.358 N 
ATOM     15  H3  UNL     1      -2.235   0.825  -1.779  1.00  0.00     0.162 HD
BRANCH  14  16
HETATM   16  C8  UNL     1      -3.390   0.336  -0.056  1.00  0.00     0.021 C 
HETATM   17  C9  UNL     1      -4.567   0.669  -0.940  1.00  0.00     0.037 C 
HETATM   18  C10 UNL     1      -3.342   1.220   1.170  1.00  0.00     0.037 C 
HETATM   19  C11 UNL     1      -3.527  -1.126   0.328  1.00  0.00     0.037 C 
ENDBRANCH  14  16
ENDBRANCH  12  14
ENDBRANCH   1  12
TORSDOF 5
