REMARK  5 active torsions:
REMARK  status: ('A' for Active; 'I' for Inactive)
REMARK    1  A    between atoms: C2_2  and  C8_15 
REMARK    2  A    between atoms: N1_3  and  N2_5 
REMARK    3  A    between atoms: N2_5  and  C3_7 
REMARK    4  A    between atoms: C3_7  and  N3_9 
REMARK    5  A    between atoms: N3_9  and  C4_11 
ROOT
HETATM    1  N2  UNL     1      -0.461  -0.432   1.005  1.00  0.00    -0.276 N 
ATOM      2  H2  UNL     1      -0.471  -1.269   1.587  1.00  0.00     0.189 HD
ENDROOT
BRANCH   1   3
HETATM    3  N1  UNL     1      -1.644   0.241   0.722  1.00  0.00    -0.302 N 
HETATM    4  C2  UNL     1      -2.618  -0.269   0.055  1.00  0.00     0.034 C 
HETATM    5  C1  UNL     1      -2.592  -1.628  -0.488  1.00  0.00     0.070 C 
ATOM      6  H1  UNL     1      -1.746   1.197   1.064  1.00  0.00     0.186 HD
BRANCH   4   7
HETATM    7  C8  UNL     1      -3.801   0.570  -0.161  1.00  0.00     0.012 A 
HETATM    8  C9  UNL     1      -4.954   0.221  -0.847  1.00  0.00     0.040 A 
HETATM    9  C10 UNL     1      -5.798   1.311  -0.800  1.00  0.00     0.142 A 
HETATM   10  O1  UNL     1      -5.200   2.254  -0.133  1.00  0.00    -0.334 OA
HETATM   11  C11 UNL     1      -4.016   1.871   0.269  1.00  0.00     0.154 A 
ENDBRANCH   4   7
ENDBRANCH   1   3
BRANCH   1  12
HETATM   12  C3  UNL     1       0.746   0.052   0.482  1.00  0.00     0.187 C 
HETATM   13  S1  UNL     1       0.724   1.385  -0.439  1.00  0.00    -0.040 SA
BRANCH  12  14
HETATM   14  N3  UNL     1       1.981  -0.587   0.733  1.00  0.00    -0.358 N 
ATOM     15  H3  UNL     1       1.968  -1.425   1.315  1.00  0.00     0.162 HD
BRANCH  14  16
HETATM   16  C4  UNL     1       3.244  -0.150   0.235  1.00  0.00     0.021 C 
HETATM   17  C5  UNL     1       4.356  -1.092   0.703  1.00  0.00     0.037 C 
HETATM   18  C6  UNL     1       3.569   1.225   0.777  1.00  0.00     0.037 C 
HETATM   19  C7  UNL     1       3.307  -0.069  -1.268  1.00  0.00     0.037 C 
ENDBRANCH  14  16
ENDBRANCH  12  14
ENDBRANCH   1  12
TORSDOF 5
