REMARK  6 active torsions:
REMARK  status: ('A' for Active; 'I' for Inactive)
REMARK    1  A    between atoms: C4_4  and  C5_5 
REMARK    2  A    between atoms: C5_5  and  C6_7 
REMARK    3  A    between atoms: C11_13  and  O3_14 
REMARK    4  A    between atoms: C20_24  and  C21_25 
REMARK    5  A    between atoms: N1_26  and  O4_28 
REMARK    6  A    between atoms: C22_30  and  O5_31 
ROOT
HETATM    1  C6  UNL     1       1.662   0.723  -0.787  1.00  0.00     0.123 C 
HETATM    2  C7  UNL     1       1.601   1.072  -2.300  1.00  0.00     0.055 C 
HETATM    3  C8  UNL     1       2.160  -0.693  -0.727  1.00  0.00     0.058 C 
HETATM    4  C9  UNL     1       0.990  -1.538  -1.070  1.00  0.00     0.059 A 
HETATM    5  C10 UNL     1       1.365  -2.940  -0.916  1.00  0.00     0.068 A 
HETATM    6  O2  UNL     1       2.241  -3.810  -1.328  1.00  0.00    -0.291 OA
HETATM    7  C11 UNL     1       2.076  -5.002  -0.815  1.00  0.00     0.183 A 
HETATM    8  C12 UNL     1       0.959  -4.860   0.021  1.00  0.00     0.074 A 
HETATM    9  C13 UNL     1       0.536  -3.553  -0.065  1.00  0.00    -0.019 A 
HETATM   10  C14 UNL     1      -0.493  -2.553   0.426  1.00  0.00     0.029 A 
HETATM   11  C15 UNL     1      -0.463  -2.746   1.893  1.00  0.00     0.016 C 
HETATM   12  C16 UNL     1      -0.277  -1.305  -0.259  1.00  0.00     0.008 A 
HETATM   13  C17 UNL     1      -1.346  -1.323  -1.392  1.00  0.00     0.014 C 
HETATM   14  C18 UNL     1      -2.697  -1.108  -0.769  1.00  0.00     0.007 C 
HETATM   15  C19 UNL     1      -2.648   0.401  -0.494  1.00  0.00     0.008 C 
HETATM   16  C20 UNL     1      -3.994   0.967  -0.373  1.00  0.00     0.060 C 
HETATM   17  C22 UNL     1      -3.948   2.448  -0.224  1.00  0.00     0.127 C 
HETATM   18  C23 UNL     1      -2.733   3.007   0.407  1.00  0.00     0.033 C 
HETATM   19  C24 UNL     1      -1.476   2.276   0.302  1.00  0.00     0.015 C 
HETATM   20  C25 UNL     1      -1.620   0.744   0.507  1.00  0.00    -0.008 C 
HETATM   21  C26 UNL     1      -2.136   0.781   1.951  1.00  0.00     0.019 C 
HETATM   22  C27 UNL     1      -0.316   0.030   0.386  1.00  0.00     0.075 C 
HETATM   23  C28 UNL     1       0.323   0.099   1.766  1.00  0.00     0.047 C 
HETATM   24  O6  UNL     1       0.453   0.951  -0.347  1.00  0.00    -0.360 OA
ENDROOT
BRANCH   1  25
HETATM   25  C5  UNL     1       2.767   1.588  -0.289  1.00  0.00     0.183 C 
HETATM   26  O1  UNL     1       2.560   2.517   0.518  1.00  0.00    -0.290 OA
BRANCH  25  27
HETATM   27  C4  UNL     1       4.143   1.416  -0.701  1.00  0.00     0.055 C 
HETATM   28  C2  UNL     1       5.154   2.121  -0.317  1.00  0.00    -0.084 C 
HETATM   29  C1  UNL     1       6.518   1.816  -0.837  1.00  0.00     0.043 C 
HETATM   30  C3  UNL     1       5.046   3.251   0.639  1.00  0.00     0.043 C 
ENDBRANCH  25  27
ENDBRANCH   1  25
BRANCH   7  31
HETATM   31  O3  UNL     1       2.789  -6.164  -1.005  1.00  0.00    -0.341 OA
ATOM     32  H3  UNL     1       2.669  -7.030  -0.632  1.00  0.00     0.220 HD
ENDBRANCH   7  31
BRANCH  16  33
HETATM   33  C21 UNL     1      -4.944   0.279   0.532  1.00  0.00     0.094 C 
HETATM   34  N1  UNL     1      -5.335  -0.896   0.307  1.00  0.00    -0.284 N 
ATOM     35  H1  UNL     1      -4.997  -1.396  -0.515  1.00  0.00     0.192 HD
BRANCH  34  36
HETATM   36  O4  UNL     1      -6.215  -1.505   1.166  1.00  0.00    -0.291 OA
ATOM     37  H4  UNL     1      -6.510  -2.392   0.996  1.00  0.00     0.244 HD
ENDBRANCH  34  36
ENDBRANCH  16  33
BRANCH  17  38
HETATM   38  O5  UNL     1      -5.068   2.817   0.560  1.00  0.00    -0.395 OA
ATOM     39  H5  UNL     1      -5.039   3.762   0.655  1.00  0.00     0.210 HD
ENDBRANCH  17  38
TORSDOF 6
