REMARK  8 active torsions:
REMARK  status: ('A' for Active; 'I' for Inactive)
REMARK    1  A    between atoms: C5_5  and  O1_6 
REMARK    2  A    between atoms: C5_5  and  C8_11 
REMARK    3  A    between atoms: O1_6  and  C6_7 
REMARK    4  A    between atoms: C6_7  and  C7_8 
REMARK    5  A    between atoms: C7_8  and  O2_9 
REMARK    6  A    between atoms: C9_13  and  S2_14 
REMARK    7  A    between atoms: C17_22  and  O3_23 
REMARK    8  A    between atoms: C21_29  and  O4_30 
ROOT
HETATM    1  C1  UNL     1       5.889  -1.506  -2.150  1.00  0.00     0.102 C 
HETATM    2  C2  UNL     1       4.989  -0.729  -1.873  1.00  0.00    -0.151 C 
HETATM    3  C3  UNL     1       3.956   0.216  -1.559  1.00  0.00     0.013 C 
HETATM    4  C4  UNL     1       3.787   1.298  -2.600  1.00  0.00     0.060 C 
HETATM    5  C5  UNL     1       3.198   0.173  -0.484  1.00  0.00     0.100 C 
ENDROOT
BRANCH   5   6
HETATM    6  O1  UNL     1       3.323  -0.791   0.442  1.00  0.00    -0.346 OA
BRANCH   6   7
HETATM    7  C6  UNL     1       3.220  -2.161   0.423  1.00  0.00     0.201 C 
BRANCH   7   8
HETATM    8  C7  UNL     1       3.494  -2.641   1.864  1.00  0.00     0.190 C 
BRANCH   8   9
HETATM    9  O2  UNL     1       4.787  -2.209   2.182  1.00  0.00    -0.399 OA
ATOM     10  H2  UNL     1       4.956  -2.504   3.069  1.00  0.00     0.209 HD
ENDBRANCH   8   9
ENDBRANCH   7   8
ENDBRANCH   6   7
ENDBRANCH   5   6
BRANCH   5  11
HETATM   11  C8  UNL     1       2.191   1.239  -0.311  1.00  0.00     0.048 A 
HETATM   12  S1  UNL     1       2.517   2.918  -0.578  1.00  0.00    -0.079 SA
HETATM   13  C9  UNL     1       0.974   3.534  -0.223  1.00  0.00     0.048 A 
HETATM   14  C11 UNL     1       0.230   2.420   0.096  1.00  0.00    -0.022 A 
HETATM   15  C12 UNL     1       0.870   1.220   0.050  1.00  0.00    -0.021 A 
HETATM   16  C25 UNL     1      -1.239   2.513   0.453  1.00  0.00     0.083 C 
HETATM   17  C13 UNL     1       0.086  -0.010   0.425  1.00  0.00     0.051 C 
HETATM   18  C14 UNL     1       0.272  -0.294   1.927  1.00  0.00     0.020 C 
HETATM   19  C15 UNL     1      -1.351   0.088   0.227  1.00  0.00    -0.028 A 
HETATM   20  C16 UNL     1      -1.997   1.289   0.262  1.00  0.00    -0.011 A 
HETATM   21  C24 UNL     1      -2.096  -1.052   0.029  1.00  0.00     0.003 A 
HETATM   22  C17 UNL     1      -3.360   1.375   0.109  1.00  0.00     0.094 A 
HETATM   23  C18 UNL     1      -4.134   0.273  -0.087  1.00  0.00     0.093 A 
HETATM   24  C19 UNL     1      -5.558   0.299  -0.247  1.00  0.00     0.103 C 
HETATM   25  C20 UNL     1      -3.463  -0.957  -0.124  1.00  0.00     0.051 A 
HETATM   26  N1  UNL     1      -6.730   0.335  -0.362  1.00  0.00    -0.191 NA
HETATM   27  C21 UNL     1      -3.968  -2.212  -0.306  1.00  0.00     0.154 A 
HETATM   28  N2  UNL     1      -2.956  -3.096  -0.273  1.00  0.00    -0.341 N 
HETATM   29  C22 UNL     1      -3.101  -4.538  -0.431  1.00  0.00     0.158 C 
HETATM   30  C23 UNL     1      -1.813  -2.412  -0.070  1.00  0.00     0.105 A 
BRANCH  13  31
HETATM   31  S2  UNL     1       0.568   5.270  -0.282  1.00  0.00    -0.127 SA
HETATM   32  C10 UNL     1      -1.083   5.702   0.168  1.00  0.00     0.096 C 
ENDBRANCH  13  31
BRANCH  22  33
HETATM   33  O3  UNL     1      -3.989   2.619   0.152  1.00  0.00    -0.359 OA
ATOM     34  H3  UNL     1      -4.931   2.678   0.046  1.00  0.00     0.217 HD
ENDBRANCH  22  33
BRANCH  27  35
HETATM   35  O4  UNL     1      -5.319  -2.560  -0.500  1.00  0.00    -0.345 OA
ATOM     36  H4  UNL     1      -5.670  -3.433  -0.627  1.00  0.00     0.219 HD
ENDBRANCH  27  35
ENDBRANCH   5  11
TORSDOF 8
