REMARK  6 active torsions:
REMARK  status: ('A' for Active; 'I' for Inactive)
REMARK    1  A    between atoms: O1_2  and  N1_3 
REMARK    2  A    between atoms: C5_8  and  C6_9 
REMARK    3  A    between atoms: C6_9  and  C7_10 
REMARK    4  A    between atoms: C7_10  and  C9_12 
REMARK    5  A    between atoms: C16_21  and  O3_22 
REMARK    6  A    between atoms: C18_25  and  O4_26 
ROOT
HETATM    1  C9  UNL     1       0.629  -1.380  -0.672  1.00  0.00     0.004 C 
HETATM    2  C10 UNL     1      -0.507  -0.496  -0.955  1.00  0.00     0.046 C 
HETATM    3  C11 UNL     1      -1.834  -1.102  -0.473  1.00  0.00    -0.026 A 
HETATM    4  C12 UNL     1      -1.928  -2.455  -0.380  1.00  0.00    -0.001 A 
HETATM    5  S1  UNL     1      -3.504  -2.726   0.189  1.00  0.00    -0.068 SA
HETATM    6  C13 UNL     1      -4.026  -1.107   0.301  1.00  0.00     0.132 A 
HETATM    7  O2  UNL     1      -5.185  -0.567   0.686  1.00  0.00    -0.301 OA
HETATM    8  C14 UNL     1      -5.390   0.711   0.700  1.00  0.00     0.096 A 
HETATM    9  C15 UNL     1      -6.581   1.275   1.096  1.00  0.00     0.075 A 
HETATM   10  C16 UNL     1      -6.788   2.623   1.108  1.00  0.00     0.071 A 
HETATM   11  C17 UNL     1      -5.795   3.468   0.719  1.00  0.00     0.074 A 
HETATM   12  C18 UNL     1      -4.560   2.928   0.306  1.00  0.00     0.085 A 
HETATM   13  C19 UNL     1      -4.367   1.543   0.301  1.00  0.00     0.082 A 
HETATM   14  C20 UNL     1      -3.169   1.005  -0.098  1.00  0.00     0.201 A 
HETATM   15  O5  UNL     1      -2.272   1.768  -0.451  1.00  0.00    -0.286 OA
HETATM   16  C21 UNL     1      -2.941  -0.390  -0.114  1.00  0.00     0.063 A 
HETATM   17  C22 UNL     1      -0.754  -3.291  -0.756  1.00  0.00     0.062 C 
HETATM   18  C23 UNL     1      -0.754  -4.630  -0.153  1.00  0.00     0.243 C 
HETATM   19  N2  UNL     1       0.628  -4.903   0.196  1.00  0.00    -0.074 N 
ATOM     20  H21 UNL     1       0.983  -5.760  -0.229  1.00  0.00     0.277 HD
ATOM     21  H22 UNL     1       0.744  -5.179   1.171  1.00  0.00     0.277 HD
HETATM   22  C24 UNL     1       1.411  -3.729  -0.157  1.00  0.00     0.242 C 
HETATM   23  C25 UNL     1       0.399  -2.628   0.060  1.00  0.00    -0.006 C 
HETATM   24  C26 UNL     1       0.073  -2.590   1.495  1.00  0.00     0.018 C 
ENDROOT
BRANCH   1  25
HETATM   25  C7  UNL     1       1.924  -0.708  -0.267  1.00  0.00    -0.013 C 
HETATM   26  C8  UNL     1       1.906  -0.002   1.029  1.00  0.00     0.010 C 
BRANCH  25  27
HETATM   27  C6  UNL     1       2.408   0.174  -1.392  1.00  0.00     0.015 C 
BRANCH  27  28
HETATM   28  C5  UNL     1       3.774   0.702  -1.347  1.00  0.00     0.034 C 
HETATM   29  C2  UNL     1       4.285   1.575  -0.304  1.00  0.00     0.014 C 
HETATM   30  N1  UNL     1       4.931   1.555   0.807  1.00  0.00    -0.275 N 
HETATM   31  C3  UNL     1       3.740   2.745  -1.097  1.00  0.00     0.056 C 
ATOM     32  H1  UNL     1       5.229   0.666   1.210  1.00  0.00     0.193 HD
HETATM   33  C4  UNL     1       3.903   1.877  -2.329  1.00  0.00     0.016 C 
BRANCH  30  34
HETATM   34  O1  UNL     1       5.217   2.725   1.445  1.00  0.00    -0.285 OA
HETATM   35  C1  UNL     1       6.578   3.017   1.766  1.00  0.00     0.237 C 
ENDBRANCH  30  34
ENDBRANCH  27  28
ENDBRANCH  25  27
ENDBRANCH   1  25
BRANCH  12  36
HETATM   36  O4  UNL     1      -3.640   3.839  -0.060  1.00  0.00    -0.360 OA
ATOM     37  H4  UNL     1      -2.808   3.475  -0.338  1.00  0.00     0.217 HD
ENDBRANCH  12  36
BRANCH  10  38
HETATM   38  O3  UNL     1      -8.018   3.174   1.517  1.00  0.00    -0.361 OA
ATOM     39  H3  UNL     1      -8.162   4.113   1.525  1.00  0.00     0.217 HD
ENDBRANCH  10  38
TORSDOF 6
