REMARK  6 active torsions:
REMARK  status: ('A' for Active; 'I' for Inactive)
REMARK    1  A    between atoms: C2_2  and  C3_3 
REMARK    2  A    between atoms: C3_3  and  C4_4 
REMARK    3  A    between atoms: C8_8  and  O1_9 
REMARK    4  A    between atoms: C9_11  and  O2_12 
REMARK    5  A    between atoms: C20_28  and  O3_29 
REMARK    6  A    between atoms: C23_32  and  O4_33 
ROOT
HETATM    1  C4  UNL     1       3.566   0.356   0.413  1.00  0.00    -0.018 A 
HETATM    2  C5  UNL     1       2.357   0.769   0.929  1.00  0.00     0.022 A 
HETATM    3  C6  UNL     1       1.287  -0.077   1.088  1.00  0.00    -0.020 A 
HETATM    4  C7  UNL     1       1.525  -1.403   0.679  1.00  0.00     0.025 A 
HETATM    5  C8  UNL     1       2.720  -1.835   0.164  1.00  0.00     0.112 A 
HETATM    6  C9  UNL     1       3.749  -0.951   0.029  1.00  0.00     0.108 A 
HETATM    7  C11 UNL     1       0.360  -2.366   0.784  1.00  0.00     0.103 C 
HETATM    8  N1  UNL     1      -0.475  -1.968  -0.260  1.00  0.00    -0.369 N 
ATOM      9  H1  UNL     1      -0.043  -1.792  -1.167  1.00  0.00     0.165 HD
HETATM   10  C12 UNL     1      -1.848  -1.793  -0.159  1.00  0.00     0.024 C 
HETATM   11  C13 UNL     1      -2.601  -2.630   0.850  1.00  0.00     0.107 C 
HETATM   12  C14 UNL     1      -3.748  -3.427   0.185  1.00  0.00     0.023 C 
HETATM   13  C15 UNL     1      -4.928  -2.551  -0.071  1.00  0.00     0.017 C 
HETATM   14  C16 UNL     1      -4.519  -1.480  -1.068  1.00  0.00     0.105 C 
HETATM   15  N2  UNL     1      -3.853  -0.427  -0.428  1.00  0.00    -0.235 NA
HETATM   16  S1  UNL     1      -4.364  -0.121   1.228  1.00  0.00    -0.006 SA
HETATM   17  S2  UNL     1      -3.379  -1.770   2.216  1.00  0.00    -0.070 SA
HETATM   18  C17 UNL     1      -2.365  -0.483  -0.499  1.00  0.00     0.151 C 
HETATM   19  C18 UNL     1      -1.902   0.787   0.034  1.00  0.00    -0.018 A 
HETATM   20  C19 UNL     1      -2.677   1.843  -0.515  1.00  0.00     0.047 A 
HETATM   21  C20 UNL     1      -2.552   3.161  -0.213  1.00  0.00     0.071 A 
HETATM   22  C22 UNL     1      -1.586   3.486   0.708  1.00  0.00     0.074 A 
HETATM   23  C23 UNL     1      -0.800   2.517   1.278  1.00  0.00     0.079 A 
HETATM   24  C24 UNL     1      -0.942   1.150   0.949  1.00  0.00     0.006 A 
HETATM   25  C25 UNL     1       0.024   0.315   1.669  1.00  0.00     0.027 C 
ENDROOT
BRANCH   1  26
HETATM   26  C3  UNL     1       4.687   1.334   0.270  1.00  0.00     0.068 C 
BRANCH  26  27
HETATM   27  C2  UNL     1       4.885   1.765  -1.136  1.00  0.00    -0.032 C 
HETATM   28  C1  UNL     1       6.019   1.569  -1.779  1.00  0.00     0.007 C 
ENDBRANCH  26  27
ENDBRANCH   1  26
BRANCH   6  29
HETATM   29  O2  UNL     1       4.940  -1.411  -0.492  1.00  0.00    -0.353 OA
HETATM   30  C10 UNL     1       5.914  -1.919   0.389  1.00  0.00     0.210 C 
ENDBRANCH   6  29
BRANCH   5  31
HETATM   31  O1  UNL     1       2.852  -3.183  -0.213  1.00  0.00    -0.357 OA
ATOM     32  H1  UNL     1       3.680  -3.482  -0.570  1.00  0.00     0.217 HD
ENDBRANCH   5  31
BRANCH  23  33
HETATM   33  O4  UNL     1       0.134   2.959   2.201  1.00  0.00    -0.360 OA
ATOM     34  H4  UNL     1       0.678   2.288   2.596  1.00  0.00     0.217 HD
ENDBRANCH  23  33
BRANCH  21  35
HETATM   35  O3  UNL     1      -3.361   4.155  -0.803  1.00  0.00    -0.356 OA
HETATM   36  C21 UNL     1      -3.203   5.504  -0.468  1.00  0.00     0.210 C 
ENDBRANCH  21  35
TORSDOF 6
