REMARK  7 active torsions:
REMARK  status: ('A' for Active; 'I' for Inactive)
REMARK    1  A    between atoms: C2_2  and  O1_3 
REMARK    2  A    between atoms: O1_3  and  C3_4 
REMARK    3  A    between atoms: C3_4  and  C4_6 
REMARK    4  A    between atoms: C9_11  and  O3_12 
REMARK    5  A    between atoms: C10_14  and  O4_15 
REMARK    6  A    between atoms: C20_26  and  O5_27 
REMARK    7  A    between atoms: C22_32  and  C23_33 
ROOT
HETATM    1  C4  UNL     1       3.206  -0.466   0.024  1.00  0.00     0.073 A 
HETATM    2  C5  UNL     1       2.091   0.350  -0.174  1.00  0.00     0.028 A 
HETATM    3  C6  UNL     1       0.846   0.102   0.349  1.00  0.00    -0.045 A 
HETATM    4  C7  UNL     1       0.680  -1.025   1.117  1.00  0.00    -0.020 A 
HETATM    5  C8  UNL     1       1.746  -1.847   1.333  1.00  0.00     0.047 A 
HETATM    6  C9  UNL     1       3.015  -1.587   0.797  1.00  0.00     0.082 A 
HETATM    7  C10 UNL     1      -0.637  -1.387   1.713  1.00  0.00     0.155 C 
HETATM    8  C11 UNL     1      -1.179  -2.705   1.253  1.00  0.00     0.015 C 
HETATM    9  C12 UNL     1      -0.739  -3.862   2.108  1.00  0.00     0.012 C 
HETATM   10  C13 UNL     1      -0.923  -3.051  -0.171  1.00  0.00     0.007 C 
HETATM   11  C14 UNL     1      -1.868  -2.458  -1.161  1.00  0.00     0.000 C 
HETATM   12  C15 UNL     1      -3.217  -2.089  -0.589  1.00  0.00     0.000 C 
HETATM   13  C16 UNL     1      -4.112  -1.644  -1.719  1.00  0.00     0.000 C 
HETATM   14  C17 UNL     1      -3.785  -0.280  -2.241  1.00  0.00     0.000 C 
HETATM   15  C18 UNL     1      -4.179   0.838  -1.302  1.00  0.00     0.003 C 
HETATM   16  C19 UNL     1      -3.393   2.085  -1.651  1.00  0.00     0.042 C 
HETATM   17  C20 UNL     1      -3.189   2.941  -0.421  1.00  0.00     0.217 C 
HETATM   18  C21 UNL     1      -1.847   3.563  -0.386  1.00  0.00     0.288 C 
HETATM   19  O6  UNL     1      -1.530   4.343  -1.318  1.00  0.00    -0.262 OA
HETATM   20  O7  UNL     1      -0.986   3.302   0.621  1.00  0.00    -0.309 OA
HETATM   21  C22 UNL     1      -0.524   2.063   1.115  1.00  0.00     0.171 C 
HETATM   22  C27 UNL     1      -0.246   1.051   0.068  1.00  0.00     0.076 C 
ENDROOT
BRANCH   1  23
HETATM   23  C3  UNL     1       4.471  -0.090  -0.586  1.00  0.00     0.296 C 
HETATM   24  O2  UNL     1       5.546  -0.714  -0.499  1.00  0.00    -0.259 OA
BRANCH  23  25
HETATM   25  O1  UNL     1       4.517   1.083  -1.350  1.00  0.00    -0.318 OA
BRANCH  25  26
HETATM   26  C2  UNL     1       5.719   1.500  -1.968  1.00  0.00     0.174 C 
HETATM   27  C1  UNL     1       6.222   0.464  -2.936  1.00  0.00     0.034 C 
ENDBRANCH  25  26
ENDBRANCH  23  25
ENDBRANCH   1  23
BRANCH   6  28
HETATM   28  O3  UNL     1       4.046  -2.461   1.057  1.00  0.00    -0.360 OA
ATOM     29  H3  UNL     1       3.914  -3.236   1.591  1.00  0.00     0.217 HD
ENDBRANCH   6  28
BRANCH   7  30
HETATM   30  O4  UNL     1      -0.413  -1.526   3.103  1.00  0.00    -0.391 OA
ATOM     31  H4  UNL     1      -1.253  -1.757   3.483  1.00  0.00     0.210 HD
ENDBRANCH   7  30
BRANCH  21  32
HETATM   32  C23 UNL     1       0.707   2.358   1.881  1.00  0.00    -0.004 A 
HETATM   33  C24 UNL     1       1.736   3.211   1.538  1.00  0.00     0.036 A 
HETATM   34  C25 UNL     1       2.677   3.181   2.544  1.00  0.00     0.142 A 
HETATM   35  O8  UNL     1       2.260   2.358   3.460  1.00  0.00    -0.334 OA
HETATM   36  C26 UNL     1       1.086   1.844   3.103  1.00  0.00     0.151 A 
ENDBRANCH  21  32
BRANCH  17  37
HETATM   37  O5  UNL     1      -3.459   2.206   0.731  1.00  0.00    -0.386 OA
ATOM     38  H5  UNL     1      -3.331   2.744   1.504  1.00  0.00     0.210 HD
ENDBRANCH  17  37
TORSDOF 7
