REMARK  6 active torsions:
REMARK  status: ('A' for Active; 'I' for Inactive)
REMARK    1  A    between atoms: C2_2  and  C24_28 
REMARK    2  A    between atoms: C3_3  and  C4_4 
REMARK    3  A    between atoms: C4_4  and  C5_5 
REMARK    4  A    between atoms: C17_17  and  C18_18 
REMARK    5  A    between atoms: C22_24  and  O1_25 
REMARK    6  A    between atoms: C24_28  and  O2_29 
ROOT
HETATM    1  C5  UNL     1       2.451  -0.295  -0.446  1.00  0.00    -0.003 C 
HETATM    2  C6  UNL     1       2.475   1.176  -0.066  1.00  0.00     0.009 C 
HETATM    3  C7  UNL     1       1.166   1.765  -0.535  1.00  0.00     0.028 C 
HETATM    4  C8  UNL     1       0.010   0.913  -0.176  1.00  0.00    -0.023 C 
HETATM    5  C9  UNL     1       0.053  -0.332   0.240  1.00  0.00    -0.072 C 
HETATM    6  C10 UNL     1       1.413  -0.978   0.371  1.00  0.00     0.019 C 
HETATM    7  C11 UNL     1       1.253  -2.433   0.050  1.00  0.00     0.010 C 
HETATM    8  C12 UNL     1       0.118  -2.624  -0.935  1.00  0.00     0.010 C 
HETATM    9  C13 UNL     1      -1.223  -2.379  -0.277  1.00  0.00    -0.034 C 
HETATM   10  C14 UNL     1      -1.560  -3.628   0.551  1.00  0.00     0.016 C 
HETATM   11  C15 UNL     1      -2.256  -2.272  -1.340  1.00  0.00     0.010 C 
HETATM   12  C16 UNL     1      -3.580  -1.727  -0.803  1.00  0.00     0.009 C 
HETATM   13  C17 UNL     1      -3.198  -0.258  -0.405  1.00  0.00     0.030 C 
HETATM   14  C22 UNL     1      -2.396  -0.461   0.832  1.00  0.00     0.132 C 
HETATM   15  C23 UNL     1      -1.093  -1.176   0.603  1.00  0.00     0.052 C 
ENDROOT
BRANCH   1  16
HETATM   16  C4  UNL     1       3.811  -0.836   0.012  1.00  0.00     0.032 C 
BRANCH  16  17
HETATM   17  C3  UNL     1       4.884  -0.092  -0.696  1.00  0.00    -0.022 C 
HETATM   18  C2  UNL     1       5.808   0.615  -0.080  1.00  0.00    -0.064 C 
HETATM   19  C1  UNL     1       5.804   0.692   1.402  1.00  0.00     0.045 C 
BRANCH  18  20
HETATM   20  C24 UNL     1       6.857   1.339  -0.844  1.00  0.00     0.197 C 
BRANCH  20  21
HETATM   21  O2  UNL     1       6.813   2.721  -0.600  1.00  0.00    -0.397 OA
ATOM     22  H2  UNL     1       7.484   3.184  -1.088  1.00  0.00     0.209 HD
ENDBRANCH  20  21
ENDBRANCH  18  20
ENDBRANCH  16  17
ENDBRANCH   1  16
BRANCH  14  23
HETATM   23  O1  UNL     1      -2.211   0.584   1.678  1.00  0.00    -0.394 OA
ATOM     24  H1  UNL     1      -1.699   0.454   2.468  1.00  0.00     0.210 HD
ENDBRANCH  14  23
BRANCH  13  25
HETATM   25  C18 UNL     1      -4.434   0.528  -0.208  1.00  0.00     0.066 C 
HETATM   26  C19 UNL     1      -4.179   1.962   0.012  1.00  0.00     0.032 C 
HETATM   27  C20 UNL     1      -5.511   2.660   0.253  1.00  0.00     0.055 C 
HETATM   28  C21 UNL     1      -5.182   4.081   0.656  1.00  0.00     0.022 C 
HETATM   29  S1  UNL     1      -6.201   1.835   1.751  1.00  0.00    -0.093 SA
HETATM   30  S2  UNL     1      -5.251  -0.073   1.339  1.00  0.00    -0.092 SA
ENDBRANCH  13  25
TORSDOF 6
