REMARK  6 active torsions:
REMARK  status: ('A' for Active; 'I' for Inactive)
REMARK    1  A    between atoms: C2_2  and  C3_3 
REMARK    2  A    between atoms: C11_12  and  O2_13 
REMARK    3  A    between atoms: C13_16  and  C14_17 
REMARK    4  A    between atoms: C14_17  and  O3_18 
REMARK    5  A    between atoms: C14_17  and  C15_20 
REMARK    6  A    between atoms: C14_17  and  C18_23 
ROOT
HETATM    1  C3  UNL     1       3.682  -1.122  -0.499  1.00  0.00     0.092 C 
HETATM    2  C4  UNL     1       4.700  -0.070  -0.949  1.00  0.00     0.048 C 
HETATM    3  C5  UNL     1       4.166   1.328  -0.790  1.00  0.00     0.018 C 
HETATM    4  C6  UNL     1       5.203   2.350  -0.396  1.00  0.00     0.010 C 
HETATM    5  C7  UNL     1       4.391   2.660   0.846  1.00  0.00     0.033 C 
HETATM    6  C8  UNL     1       3.490   1.508   0.549  1.00  0.00     0.126 C 
HETATM    7  O1  UNL     1       3.807   0.381   1.307  1.00  0.00    -0.372 OA
HETATM    8  C9  UNL     1       3.085  -0.744   0.814  1.00  0.00     0.193 C 
HETATM    9  C10 UNL     1       1.649  -0.378   0.763  1.00  0.00     0.016 A 
HETATM   10  C11 UNL     1       0.993  -0.048   1.936  1.00  0.00     0.075 A 
HETATM   11  C12 UNL     1      -0.332   0.309   1.889  1.00  0.00     0.047 A 
HETATM   12  C13 UNL     1      -1.080   0.362   0.700  1.00  0.00    -0.020 A 
HETATM   13  C24 UNL     1      -0.347   0.015  -0.426  1.00  0.00     0.020 A 
HETATM   14  C25 UNL     1       0.980  -0.347  -0.416  1.00  0.00    -0.017 A 
HETATM   15  C26 UNL     1       1.699  -0.705  -1.667  1.00  0.00     0.152 C 
HETATM   16  C27 UNL     1       0.727  -1.575  -2.486  1.00  0.00     0.045 C 
HETATM   17  O4  UNL     1       2.809  -1.475  -1.487  1.00  0.00    -0.368 OA
ENDROOT
BRANCH  12  18
HETATM   18  C14 UNL     1      -2.471   0.774   0.729  1.00  0.00     0.091 C 
BRANCH  18  19
HETATM   19  O3  UNL     1      -2.714   1.202   2.076  1.00  0.00    -0.384 OA
ATOM     20  H3  UNL     1      -3.625   1.472   2.095  1.00  0.00     0.211 HD
ENDBRANCH  18  19
BRANCH  18  21
HETATM   21  C15 UNL     1      -2.752   2.065   0.004  1.00  0.00     0.017 C 
HETATM   22  C16 UNL     1      -1.887   3.113   0.728  1.00  0.00     0.013 C 
HETATM   23  C17 UNL     1      -2.458   2.172  -1.412  1.00  0.00     0.013 C 
ENDBRANCH  18  21
BRANCH  18  24
HETATM   24  C18 UNL     1      -3.518  -0.263   0.554  1.00  0.00     0.025 C 
HETATM   25  C19 UNL     1      -4.919   0.372   0.640  1.00  0.00     0.008 C 
HETATM   26  C20 UNL     1      -5.884  -0.792   0.894  1.00  0.00     0.000 C 
HETATM   27  C21 UNL     1      -5.878  -1.706  -0.326  1.00  0.00     0.000 C 
HETATM   28  C22 UNL     1      -4.477  -2.259  -0.462  1.00  0.00     0.000 C 
HETATM   29  C23 UNL     1      -3.549  -1.054  -0.699  1.00  0.00     0.008 C 
ENDBRANCH  18  24
ENDBRANCH  12  18
BRANCH  10  30
HETATM   30  O2  UNL     1       1.662  -0.077   3.144  1.00  0.00    -0.360 OA
ATOM     31  H2  UNL     1       1.212   0.150   3.949  1.00  0.00     0.217 HD
ENDBRANCH  10  30
BRANCH   1  32
HETATM   32  C2  UNL     1       4.553  -2.368  -0.251  1.00  0.00     0.036 C 
HETATM   33  C1  UNL     1       3.709  -3.536   0.198  1.00  0.00     0.008 C 
ENDBRANCH   1  32
TORSDOF 6
