REMARK  6 active torsions:
REMARK  status: ('A' for Active; 'I' for Inactive)
REMARK    1  A    between atoms: C14_15  and  C15_16 
REMARK    2  A    between atoms: C15_16  and  C16_17 
REMARK    3  A    between atoms: C16_17  and  O2_18 
REMARK    4  A    between atoms: C16_17  and  C17_20 
REMARK    5  A    between atoms: C19_22  and  O3_23 
REMARK    6  A    between atoms: N1_25  and  C20_26 
ROOT
HETATM    1  C15 UNL     1      -0.191   0.301   0.506  1.00  0.00     0.048 C 
ENDROOT
BRANCH   1   2
HETATM    2  C14 UNL     1      -1.641   0.096   0.776  1.00  0.00    -0.012 C 
HETATM    3  C4  UNL     1      -2.597   0.579  -0.236  1.00  0.00     0.003 C 
HETATM    4  C3  UNL     1      -3.433   1.644   0.420  1.00  0.00     0.010 C 
HETATM    5  C5  UNL     1      -3.447  -0.499  -0.890  1.00  0.00     0.024 C 
HETATM    6  C2  UNL     1      -2.825   1.948   1.769  1.00  0.00    -0.017 C 
HETATM    7  C1  UNL     1      -2.117   3.284   1.793  1.00  0.00     0.010 C 
HETATM    8  C27 UNL     1      -1.922   0.808   2.099  1.00  0.00     0.016 C 
HETATM    9  C6  UNL     1      -4.388   0.093  -1.870  1.00  0.00     0.035 C 
HETATM   10  C12 UNL     1      -4.064  -1.436   0.113  1.00  0.00     0.134 C 
HETATM   11  C7  UNL     1      -5.797  -0.314  -1.768  1.00  0.00    -0.023 C 
HETATM   12  C8  UNL     1      -6.336  -0.887  -0.719  1.00  0.00    -0.077 C 
HETATM   13  C9  UNL     1      -7.446  -1.497   0.063  1.00  0.00     0.035 C 
HETATM   14  C11 UNL     1      -5.475  -1.156   0.470  1.00  0.00     0.044 C 
HETATM   15  C10 UNL     1      -6.359  -2.399   0.675  1.00  0.00     0.016 C 
HETATM   16  O1  UNL     1      -3.307  -1.458   1.283  1.00  0.00    -0.384 OA
HETATM   17  C13 UNL     1      -1.943  -1.394   1.011  1.00  0.00     0.178 C 
ENDBRANCH   1   2
BRANCH   1  18
HETATM   18  C16 UNL     1       0.401  -0.335  -0.687  1.00  0.00     0.153 C 
BRANCH  18  19
HETATM   19  O2  UNL     1      -0.129   0.047  -1.890  1.00  0.00    -0.391 OA
ATOM     20  H2  UNL     1       0.252  -0.362  -2.658  1.00  0.00     0.210 HD
ENDBRANCH  18  19
BRANCH  18  21
HETATM   21  C17 UNL     1       1.855   0.088  -0.713  1.00  0.00    -0.010 A 
HETATM   22  C18 UNL     1       2.298   1.317  -1.152  1.00  0.00     0.067 A 
HETATM   23  C19 UNL     1       3.674   1.343  -1.030  1.00  0.00     0.142 A 
HETATM   24  N1  UNL     1       4.047   0.150  -0.527  1.00  0.00    -0.333 N 
HETATM   25  C26 UNL     1       2.955  -0.613  -0.333  1.00  0.00     0.103 A 
BRANCH  23  26
HETATM   26  O3  UNL     1       4.487   2.418  -1.373  1.00  0.00    -0.346 OA
ATOM     27  H3  UNL     1       5.433   2.436  -1.289  1.00  0.00     0.219 HD
ENDBRANCH  23  26
BRANCH  24  28
HETATM   28  C20 UNL     1       5.389  -0.288  -0.226  1.00  0.00     0.091 C 
HETATM   29  C21 UNL     1       6.440   0.626  -0.768  1.00  0.00     0.026 C 
HETATM   30  C22 UNL     1       7.789  -0.034  -0.617  1.00  0.00     0.002 C 
HETATM   31  C23 UNL     1       7.685  -1.358   0.113  1.00  0.00     0.000 C 
HETATM   32  C24 UNL     1       6.926  -1.240   1.409  1.00  0.00     0.002 C 
HETATM   33  C25 UNL     1       5.628  -0.497   1.232  1.00  0.00     0.026 C 
ENDBRANCH  24  28
ENDBRANCH  18  21
ENDBRANCH   1  18
TORSDOF 6
