REMARK  8 active torsions:
REMARK  status: ('A' for Active; 'I' for Inactive)
REMARK    1  A    between atoms: C4_4  and  C6_6 
REMARK    2  A    between atoms: C6_6  and  C7_7 
REMARK    3  A    between atoms: C6_6  and  C12_14 
REMARK    4  A    between atoms: C7_7  and  O2_9 
REMARK    5  A    between atoms: O2_9  and  C8_10 
REMARK    6  A    between atoms: C15_17  and  C16_18 
REMARK    7  A    between atoms: C16_18  and  O3_19 
REMARK    8  A    between atoms: C17_21  and  O4_22 
ROOT
HETATM    1  C12 UNL     1      -0.001  -0.419  -0.615  1.00  0.00    -0.002 C 
HETATM    2  C13 UNL     1       0.708  -1.452  -1.544  1.00  0.00     0.021 C 
HETATM    3  C14 UNL     1       0.325  -0.992   0.768  1.00  0.00     0.024 C 
HETATM    4  C15 UNL     1      -0.536  -0.406   1.841  1.00  0.00     0.039 C 
HETATM    5  C17 UNL     1      -1.960  -0.876   1.477  1.00  0.00     0.130 C 
HETATM    6  C18 UNL     1      -2.329   0.004   0.263  1.00  0.00     0.032 C 
HETATM    7  C19 UNL     1      -3.786  -0.064   0.119  1.00  0.00    -0.041 C 
HETATM    8  C20 UNL     1      -4.439   0.672   1.295  1.00  0.00     0.015 C 
HETATM    9  C21 UNL     1      -4.457   0.485  -1.092  1.00  0.00     0.015 C 
HETATM   10  C22 UNL     1      -4.121  -1.557   0.160  1.00  0.00     0.009 C 
HETATM   11  C23 UNL     1      -3.343  -2.232  -0.895  1.00  0.00     0.002 C 
HETATM   12  C24 UNL     1      -1.897  -1.979  -1.022  1.00  0.00     0.011 C 
HETATM   13  C25 UNL     1      -1.476  -0.486  -0.872  1.00  0.00    -0.026 C 
HETATM   14  C26 UNL     1      -1.776   0.037  -2.230  1.00  0.00     0.016 C 
ENDROOT
BRANCH   1  15
HETATM   15  C6  UNL     1       0.809   0.787  -0.869  1.00  0.00     0.032 C 
BRANCH  15  16
HETATM   16  C4  UNL     1       0.640   2.103  -0.269  1.00  0.00    -0.047 C 
HETATM   17  C2  UNL     1       1.406   2.723   0.601  1.00  0.00    -0.081 C 
HETATM   18  C1  UNL     1       1.159   4.145   1.008  1.00  0.00     0.043 C 
HETATM   19  C3  UNL     1       2.568   2.124   1.280  1.00  0.00     0.043 C 
HETATM   20  C5  UNL     1      -0.462   3.055  -0.738  1.00  0.00     0.049 C 
ENDBRANCH  15  16
BRANCH  15  21
HETATM   21  C7  UNL     1       2.269   0.529  -1.127  1.00  0.00     0.291 C 
HETATM   22  O1  UNL     1       2.909   1.291  -1.963  1.00  0.00    -0.260 OA
BRANCH  21  23
HETATM   23  O2  UNL     1       3.057  -0.428  -0.598  1.00  0.00    -0.307 OA
BRANCH  23  24
HETATM   24  C8  UNL     1       4.356  -0.800  -0.745  1.00  0.00     0.060 C 
HETATM   25  C9  UNL     1       4.595  -1.194  -2.219  1.00  0.00     0.046 C 
HETATM   26  C10 UNL     1       5.455   0.115  -0.381  1.00  0.00     0.046 C 
HETATM   27  C11 UNL     1       4.624  -2.115   0.014  1.00  0.00     0.046 C 
ENDBRANCH  23  24
ENDBRANCH  21  23
ENDBRANCH  15  21
ENDBRANCH   1  15
BRANCH   4  28
HETATM   28  C16 UNL     1      -0.158  -1.004   3.148  1.00  0.00     0.171 C 
BRANCH  28  29
HETATM   29  O3  UNL     1      -0.935  -0.467   4.165  1.00  0.00    -0.400 OA
ATOM     30  H3  UNL     1      -0.693  -0.849   5.000  1.00  0.00     0.209 HD
ENDBRANCH  28  29
ENDBRANCH   4  28
BRANCH   5  31
HETATM   31  O4  UNL     1      -2.674  -0.604   2.601  1.00  0.00    -0.395 OA
ATOM     32  H4  UNL     1      -3.551  -0.893   2.377  1.00  0.00     0.210 HD
ENDBRANCH   5  31
TORSDOF 8
