REMARK  7 active torsions:
REMARK  status: ('A' for Active; 'I' for Inactive)
REMARK    1  A    between atoms: S1_2  and  C2_3 
REMARK    2  A    between atoms: C4_5  and  C5_6 
REMARK    3  A    between atoms: C5_6  and  C6_7 
REMARK    4  A    between atoms: C22_23  and  O1_24 
REMARK    5  A    between atoms: C23_26  and  C24_27 
REMARK    6  A    between atoms: C24_27  and  O2_28 
REMARK    7  A    between atoms: C25_30  and  O3_32 
ROOT
HETATM    1  C6  UNL     1       0.629  -0.487  -0.174  1.00  0.00     0.032 C 
HETATM    2  C7  UNL     1       0.542   0.811  -0.903  1.00  0.00    -0.037 C 
HETATM    3  C8  UNL     1       1.813   1.176  -1.644  1.00  0.00     0.015 C 
HETATM    4  C9  UNL     1       0.394   1.885   0.157  1.00  0.00     0.014 C 
HETATM    5  C10 UNL     1      -0.783   2.768  -0.004  1.00  0.00     0.036 C 
HETATM    6  C11 UNL     1      -2.132   2.144   0.077  1.00  0.00    -0.069 C 
HETATM    7  C12 UNL     1      -2.948   2.174  -1.209  1.00  0.00     0.035 C 
HETATM    8  C13 UNL     1      -3.083   0.740  -1.680  1.00  0.00     0.010 C 
HETATM    9  C14 UNL     1      -1.760   0.070  -1.787  1.00  0.00     0.002 C 
HETATM   10  C15 UNL     1      -0.560   0.841  -1.917  1.00  0.00     0.015 C 
HETATM   11  C16 UNL     1      -1.766  -1.088  -0.718  1.00  0.00     0.020 C 
HETATM   12  C17 UNL     1      -2.603  -2.085  -1.427  1.00  0.00     0.024 C 
HETATM   13  C18 UNL     1      -2.218  -0.481   0.524  1.00  0.00    -0.021 A 
HETATM   14  C19 UNL     1      -2.275   0.909   0.828  1.00  0.00    -0.025 A 
HETATM   15  C20 UNL     1      -2.652   1.291   2.124  1.00  0.00     0.015 A 
HETATM   16  C21 UNL     1      -2.976   0.424   3.125  1.00  0.00     0.038 A 
HETATM   17  C22 UNL     1      -2.931  -0.898   2.840  1.00  0.00     0.078 A 
HETATM   18  C23 UNL     1      -2.557  -1.326   1.551  1.00  0.00     0.027 A 
HETATM   19  C25 UNL     1      -0.319  -1.535  -0.793  1.00  0.00     0.071 C 
HETATM   20  C26 UNL     1       0.132  -2.829  -0.298  1.00  0.00     0.047 C 
ENDROOT
BRANCH   1  21
HETATM   21  C5  UNL     1       1.958  -1.023   0.181  1.00  0.00     0.036 C 
BRANCH  21  22
HETATM   22  C4  UNL     1       2.782  -0.156   1.058  1.00  0.00    -0.013 C 
HETATM   23  C2  UNL     1       4.051   0.042   0.838  1.00  0.00    -0.030 C 
HETATM   24  C3  UNL     1       4.812  -0.597  -0.256  1.00  0.00     0.055 C 
BRANCH  23  25
HETATM   25  S1  UNL     1       4.973   1.119   1.957  1.00  0.00    -0.140 SA
HETATM   26  C1  UNL     1       6.720   1.195   1.481  1.00  0.00     0.095 C 
ENDBRANCH  23  25
ENDBRANCH  21  22
ENDBRANCH   1  21
BRANCH  19  27
HETATM   27  O3  UNL     1      -0.072  -1.593  -2.206  1.00  0.00    -0.389 OA
ATOM     28  H3  UNL     1      -0.656  -2.238  -2.587  1.00  0.00     0.210 HD
ENDBRANCH  19  27
BRANCH  18  29
HETATM   29  C24 UNL     1      -2.664  -2.716   1.367  1.00  0.00     0.146 C 
BRANCH  29  30
HETATM   30  O2  UNL     1      -3.069  -3.483   2.343  1.00  0.00    -0.372 OA
ATOM     31  H2  UNL     1      -3.141  -4.422   2.219  1.00  0.00     0.216 HD
ENDBRANCH  29  30
ENDBRANCH  18  29
BRANCH  17  32
HETATM   32  O1  UNL     1      -3.260  -1.852   3.841  1.00  0.00    -0.360 OA
ATOM     33  H1  UNL     1      -3.228  -2.780   3.641  1.00  0.00     0.217 HD
ENDBRANCH  17  32
TORSDOF 7
