REMARK  17 active torsions:
REMARK  status: ('A' for Active; 'I' for Inactive)
REMARK    1  A    between atoms: N1_1  and  C1_4 
REMARK    2  A    between atoms: C2_7  and  N3_8 
REMARK    3  A    between atoms: N4_11  and  C3_12 
REMARK    4  A    between atoms: C4_16  and  C5_17 
REMARK    5  A    between atoms: C4_16  and  C6_20 
REMARK    6  A    between atoms: C5_17  and  O1_18 
REMARK    7  A    between atoms: C6_20  and  O2_21 
REMARK    8  A    between atoms: O2_21  and  C7_22 
REMARK    9  A    between atoms: C7_22  and  C8_24 
REMARK   10  A    between atoms: C9_25  and  C10_26 
REMARK   11  A    between atoms: C10_26  and  O4_27 
REMARK   12  A    between atoms: C10_26  and  O5_29 
REMARK   13  A    between atoms: C11_32  and  C12_33 
REMARK   14  A    between atoms: C12_33  and  O7_34 
REMARK   15  A    between atoms: C12_33  and  O8_36 
REMARK   16  A    between atoms: C16_43  and  S1_44 
REMARK   17  A    between atoms: S1_44  and  N7_45 
ROOT
HETATM    1  C3  UNL     1       2.810  -0.390   0.036  1.00  0.00     0.259 C 
HETATM    2  N5  UNL     1       2.190   0.190  -0.937  1.00  0.00    -0.265 N 
ATOM      3  H5  UNL     1       2.633   0.568  -1.775  1.00  0.00     0.186 HD
HETATM    4  N6  UNL     1       0.823   0.220  -0.667  1.00  0.00    -0.094 NA
HETATM    5  C4  UNL     1       0.634  -0.020   0.742  1.00  0.00     0.202 C 
HETATM    6  O10 UNL     1       1.889  -0.764   0.979  1.00  0.00    -0.285 OA
ENDROOT
BRANCH   5   7
HETATM    7  C5  UNL     1       0.757   1.166   1.620  1.00  0.00     0.225 C 
BRANCH   7   8
HETATM    8  O1  UNL     1       0.594   0.870   2.967  1.00  0.00    -0.396 OA
ATOM      9  H1  UNL     1       0.673   1.631   3.530  1.00  0.00     0.209 HD
ENDBRANCH   7   8
ENDBRANCH   5   7
BRANCH   5  10
HETATM   10  C6  UNL     1      -0.419  -1.021   1.037  1.00  0.00     0.240 C 
BRANCH  10  11
HETATM   11  O2  UNL     1      -1.691  -0.842   0.558  1.00  0.00    -0.313 OA
BRANCH  11  12
HETATM   12  C7  UNL     1      -2.665   0.100   0.753  1.00  0.00     0.300 C 
HETATM   13  O3  UNL     1      -2.357   1.005   1.541  1.00  0.00    -0.259 OA
BRANCH  12  14
HETATM   14  C8  UNL     1      -3.950  -0.028   0.040  1.00  0.00     0.124 A 
HETATM   15  C9  UNL     1      -4.946   0.874   0.138  1.00  0.00     0.128 A 
HETATM   16  O6  UNL     1      -6.123   0.622  -0.471  1.00  0.00    -0.308 OA
HETATM   17  C11 UNL     1      -6.393  -0.438  -1.164  1.00  0.00     0.111 A 
HETATM   18  C13 UNL     1      -5.402  -1.387  -1.294  1.00  0.00     0.093 A 
HETATM   19  C14 UNL     1      -4.180  -1.204  -0.704  1.00  0.00     0.193 A 
HETATM   20  O9  UNL     1      -3.238  -2.028  -0.784  1.00  0.00    -0.287 OA
BRANCH  15  21
HETATM   21  C10 UNL     1      -4.802   2.142   0.877  1.00  0.00     0.314 C 
BRANCH  21  22
HETATM   22  O4  UNL     1      -3.719   2.919   0.579  1.00  0.00    -0.365 OA
ATOM     23  H4  UNL     1      -3.626   3.736   1.055  1.00  0.00     0.213 HD
ENDBRANCH  21  22
BRANCH  21  24
HETATM   24  O5  UNL     1      -4.965   1.957   2.259  1.00  0.00    -0.365 OA
ATOM     25  H5  UNL     1      -4.872   2.774   2.735  1.00  0.00     0.213 HD
ENDBRANCH  21  24
ENDBRANCH  15  21
BRANCH  17  26
HETATM   26  C12 UNL     1      -7.738  -0.628  -1.805  1.00  0.00     0.312 C 
BRANCH  26  27
HETATM   27  O7  UNL     1      -8.177   0.513  -2.441  1.00  0.00    -0.365 OA
ATOM     28  H7  UNL     1      -9.028   0.393  -2.846  1.00  0.00     0.213 HD
ENDBRANCH  26  27
BRANCH  26  29
HETATM   29  O8  UNL     1      -7.678  -1.661  -2.720  1.00  0.00    -0.365 OA
ATOM     30  H8  UNL     1      -8.529  -1.781  -3.125  1.00  0.00     0.213 HD
ENDBRANCH  26  29
ENDBRANCH  17  26
ENDBRANCH  12  14
ENDBRANCH  11  12
ENDBRANCH  10  11
ENDBRANCH   5  10
BRANCH   1  31
HETATM   31  N4  UNL     1       4.211  -0.621   0.147  1.00  0.00    -0.118 N 
HETATM   32  C2  UNL     1       4.668  -1.641   0.911  1.00  0.00     0.687 A 
HETATM   33  N2  UNL     1       5.974  -1.914   1.058  1.00  0.00    -0.175 N 
HETATM   34  C1  UNL     1       6.904  -1.170   0.440  1.00  0.00     0.139 A 
ATOM     35  H2  UNL     1       6.263  -2.696   1.646  1.00  0.00     0.186 HD
HETATM   36  C16 UNL     1       6.478  -0.132  -0.339  1.00  0.00     0.139 A 
HETATM   37  C15 UNL     1       5.131   0.128  -0.475  1.00  0.00     0.148 A 
BRANCH  32  38
HETATM   38  N3  UNL     1       3.784  -2.364   1.511  1.00  0.00    -0.234 N 
ATOM     39  H32 UNL     1       4.128  -3.132   2.087  1.00  0.00     0.174 HD
ATOM     40  H31 UNL     1       2.792  -2.157   1.399  1.00  0.00     0.174 HD
ENDBRANCH  32  38
BRANCH  34  41
HETATM   41  N1  UNL     1       8.183  -1.421   0.572  1.00  0.00    -0.384 N 
ATOM     42  H12 UNL     1       8.501  -2.196   1.154  1.00  0.00     0.157 HD
ATOM     43  H11 UNL     1       8.890  -0.855   0.102  1.00  0.00     0.157 HD
ENDBRANCH  34  41
BRANCH  36  44
HETATM   44  S1  UNL     1       7.676   0.846  -1.151  1.00  0.00     0.261 S 
HETATM   45  O11 UNL     1       8.507  -0.038  -2.035  1.00  0.00    -0.201 OA
HETATM   46  O12 UNL     1       8.593   1.503  -0.160  1.00  0.00    -0.201 OA
BRANCH  44  47
HETATM   47  N7  UNL     1       6.903   2.089  -2.073  1.00  0.00    -0.324 N 
ATOM     48  H72 UNL     1       5.893   2.219  -2.125  1.00  0.00     0.169 HD
ATOM     49  H71 UNL     1       7.603   2.660  -2.547  1.00  0.00     0.169 HD
ENDBRANCH  44  47
ENDBRANCH  36  44
ENDBRANCH   1  31
TORSDOF 17
