REMARK  17 active torsions:
REMARK  status: ('A' for Active; 'I' for Inactive)
REMARK    1  A    between atoms: C3_3  and  C4_4 
REMARK    2  A    between atoms: C4_4  and  N1_5 
REMARK    3  A    between atoms: C4_4  and  N2_8 
REMARK    4  A    between atoms: N2_8  and  N3_10 
REMARK    5  A    between atoms: C8_22  and  S1_23 
REMARK    6  A    between atoms: S1_23  and  N7_24 
REMARK    7  A    between atoms: N8_29  and  N9_30 
REMARK    8  A    between atoms: N11_38  and  N12_39 
REMARK    9  A    between atoms: N12_39  and  C11_41 
REMARK   10  A    between atoms: C11_41  and  O3_42 
REMARK   11  A    between atoms: C11_41  and  N13_44 
REMARK   12  A    between atoms: N13_44  and  C12_46 
REMARK   13  A    between atoms: C12_46  and  O4_47 
REMARK   14  A    between atoms: C12_46  and  C13_49 
REMARK   15  A    between atoms: C13_49  and  C14_50 
REMARK   16  A    between atoms: C14_50  and  C15_51 
REMARK   17  A    between atoms: C15_51  and  N14_52 
ROOT
HETATM    1  C1  UNL     1      -0.124  -4.057   1.201  1.00  0.00     0.074 C 
HETATM    2  C2  UNL     1       0.348  -2.768   0.641  1.00  0.00     0.080 A 
HETATM    3  C3  UNL     1       1.639  -2.474   0.243  1.00  0.00     0.128 A 
HETATM    4  N4  UNL     1       1.573  -1.192  -0.135  1.00  0.00    -0.123 N 
HETATM    5  C5  UNL     1       2.571  -0.490  -0.744  1.00  0.00     0.154 C 
HETATM    6  N5  UNL     1       3.202  -1.115  -1.627  1.00  0.00    -0.383 N 
ATOM      7  H51 UNL     1       3.948  -0.590  -2.083  1.00  0.00     0.157 HD
ATOM      8  H52 UNL     1       2.983  -2.092  -1.819  1.00  0.00     0.157 HD
HETATM    9  C6  UNL     1       2.866   0.824  -0.486  1.00  0.00     0.133 A 
HETATM   10  C7  UNL     1       1.959   1.835  -0.155  1.00  0.00     0.106 A 
HETATM   11  N6  UNL     1       2.680   2.939  -0.011  1.00  0.00    -0.325 N 
ATOM     12  H6  UNL     1       2.299   3.854   0.232  1.00  0.00     0.168 HD
HETATM   13  C8  UNL     1       3.995   2.683  -0.232  1.00  0.00     0.245 A 
HETATM   14  N8  UNL     1       4.074   1.384  -0.518  1.00  0.00    -0.229 N 
HETATM   15  C9  UNL     1       0.586   1.735  -0.005  1.00  0.00     0.145 C 
HETATM   16  S2  UNL     1      -0.207   3.093   0.425  1.00  0.00    -0.057 SA
HETATM   17  N10 UNL     1      -0.120   0.584  -0.199  1.00  0.00    -0.177 N 
ATOM     18  H10 UNL     1      -1.071   0.690  -0.552  1.00  0.00     0.185 HD
HETATM   19  C10 UNL     1       0.306  -0.700   0.027  1.00  0.00     0.713 A 
HETATM   20  N11 UNL     1      -0.468  -1.670   0.503  1.00  0.00    -0.089 N 
ENDROOT
BRANCH  20  21
HETATM   21  N12 UNL     1      -1.834  -1.688   0.792  1.00  0.00    -0.269 N 
ATOM     22  H12 UNL     1      -2.205  -2.583   1.110  1.00  0.00     0.186 HD
BRANCH  21  23
HETATM   23  C11 UNL     1      -2.780  -0.628   0.703  1.00  0.00     0.340 C 
BRANCH  23  24
HETATM   24  O3  UNL     1      -2.417   0.400   1.558  1.00  0.00    -0.359 OA
ATOM     25  H3  UNL     1      -3.048   1.107   1.499  1.00  0.00     0.214 HD
ENDBRANCH  23  24
BRANCH  23  26
HETATM   26  N13 UNL     1      -2.998  -0.264  -0.653  1.00  0.00    -0.354 N 
ATOM     27  H13 UNL     1      -2.485  -0.695  -1.422  1.00  0.00     0.160 HD
BRANCH  26  28
HETATM   28  C12 UNL     1      -4.008   0.771  -0.872  1.00  0.00     0.216 C 
BRANCH  28  29
HETATM   29  O4  UNL     1      -3.595   1.902  -0.157  1.00  0.00    -0.377 OA
ATOM     30  H4  UNL     1      -4.251   2.574  -0.299  1.00  0.00     0.212 HD
ENDBRANCH  28  29
BRANCH  28  31
HETATM   31  C13 UNL     1      -5.351   0.301  -0.460  1.00  0.00     0.055 C 
BRANCH  31  32
HETATM   32  C14 UNL     1      -6.431   1.292  -0.718  1.00  0.00     0.031 C 
BRANCH  32  33
HETATM   33  C15 UNL     1      -6.277   2.571   0.033  1.00  0.00     0.230 C 
BRANCH  33  34
HETATM   34  N14 UNL     1      -6.236   2.292   1.440  1.00  0.00    -0.079 N 
ATOM     35 3H14 UNL     1      -7.046   1.756   1.752  1.00  0.00     0.274 HD
ATOM     36 2H14 UNL     1      -5.513   1.614   1.679  1.00  0.00     0.274 HD
ATOM     37 1H14 UNL     1      -6.131   3.167   1.954  1.00  0.00     0.274 HD
ENDBRANCH  33  34
ENDBRANCH  32  33
ENDBRANCH  31  32
ENDBRANCH  28  31
ENDBRANCH  26  28
ENDBRANCH  23  26
ENDBRANCH  21  23
ENDBRANCH  20  21
BRANCH   3  38
HETATM   38  C4  UNL     1       2.775  -3.369   0.172  1.00  0.00     0.143 C 
BRANCH  38  39
HETATM   39  N1  UNL     1       2.674  -4.630   0.194  1.00  0.00    -0.383 N 
ATOM     40  H12 UNL     1       1.702  -4.932   0.122  1.00  0.00     0.157 HD
ATOM     41  H11 UNL     1       3.474  -5.260   0.144  1.00  0.00     0.157 HD
ENDBRANCH  38  39
BRANCH  38  42
HETATM   42  N2  UNL     1       4.157  -2.939   0.274  1.00  0.00    -0.291 N 
ATOM     43  H2  UNL     1       4.381  -2.082   0.780  1.00  0.00     0.188 HD
BRANCH  42  44
HETATM   44  N3  UNL     1       5.182  -3.681  -0.310  1.00  0.00    -0.344 N 
ATOM     45  H32 UNL     1       4.940  -4.535  -0.812  1.00  0.00     0.176 HD
ATOM     46  H31 UNL     1       6.154  -3.379  -0.238  1.00  0.00     0.176 HD
ENDBRANCH  42  44
ENDBRANCH  38  42
ENDBRANCH   3  38
BRANCH  14  47
HETATM   47  N9  UNL     1       5.252   0.688  -0.806  1.00  0.00    -0.336 N 
ATOM     48  H92 UNL     1       5.312  -0.306  -1.025  1.00  0.00     0.177 HD
ATOM     49  H91 UNL     1       6.177   1.117  -0.831  1.00  0.00     0.177 HD
ENDBRANCH  14  47
BRANCH  13  50
HETATM   50  S1  UNL     1       5.243   3.887  -0.138  1.00  0.00     0.290 S 
HETATM   51  O1  UNL     1       6.297   3.535  -1.161  1.00  0.00    -0.198 OA
HETATM   52  O2  UNL     1       4.704   5.238  -0.534  1.00  0.00    -0.198 OA
BRANCH  50  53
HETATM   53  N7  UNL     1       5.914   4.038   1.429  1.00  0.00    -0.322 N 
ATOM     54  H72 UNL     1       5.602   3.471   2.217  1.00  0.00     0.169 HD
ATOM     55  H71 UNL     1       6.647   4.745   1.484  1.00  0.00     0.169 HD
ENDBRANCH  50  53
ENDBRANCH  13  50
TORSDOF 17
