REMARK  17 active torsions:
REMARK  status: ('A' for Active; 'I' for Inactive)
REMARK    1  A    between atoms: C2_2  and  C3_3 
REMARK    2  A    between atoms: C3_3  and  N1_4 
REMARK    3  A    between atoms: N1_4  and  C4_5 
REMARK    4  A    between atoms: N1_4  and  C6_7 
REMARK    5  A    between atoms: C6_7  and  O1_8 
REMARK    6  A    between atoms: C6_7  and  N2_10 
REMARK    7  A    between atoms: N3_13  and  C9_14 
REMARK    8  A    between atoms: C12_17  and  C13_18 
REMARK    9  A    between atoms: C14_21  and  N5_22 
REMARK   10  A    between atoms: C17_27  and  O2_28 
REMARK   11  A    between atoms: C19_30  and  O3_31 
REMARK   12  A    between atoms: C24_38  and  N7_39 
REMARK   13  A    between atoms: N7_39  and  C26_41 
REMARK   14  A    between atoms: C26_41  and  O4_42 
REMARK   15  A    between atoms: C27_44  and  N8_45 
REMARK   16  A    between atoms: N8_45  and  C28_46 
REMARK   17  A    between atoms: N8_45  and  C30_48 
ROOT
HETATM    1  C9  UNL     1       0.234  -0.058  -0.797  1.00  0.00     0.057 A 
HETATM    2  C10 UNL     1      -0.031  -1.452  -0.835  1.00  0.00     0.033 A 
HETATM    3  C11 UNL     1      -1.281  -1.921  -0.512  1.00  0.00     0.017 A 
HETATM    4  C12 UNL     1      -2.301  -1.085  -0.148  1.00  0.00     0.010 A 
HETATM    5  C23 UNL     1      -2.004   0.265  -0.123  1.00  0.00     0.047 A 
HETATM    6  C24 UNL     1      -0.771   0.796  -0.436  1.00  0.00     0.063 A 
ENDROOT
BRANCH   4   7
HETATM    7  C13 UNL     1      -3.651  -1.513   0.213  1.00  0.00     0.117 A 
HETATM    8  N4  UNL     1      -4.599  -0.599   0.525  1.00  0.00    -0.328 N 
HETATM    9  C14 UNL     1      -5.872  -0.940   0.862  1.00  0.00     0.113 A 
ATOM     10  H4  UNL     1      -4.348   0.389   0.507  1.00  0.00     0.169 HD
HETATM   11  C15 UNL     1      -6.234  -2.258   0.897  1.00  0.00     0.037 A 
HETATM   12  C16 UNL     1      -7.514  -2.675   1.235  1.00  0.00     0.057 A 
HETATM   13  C22 UNL     1      -5.291  -3.186   0.586  1.00  0.00     0.050 A 
HETATM   14  C17 UNL     1      -7.871  -4.025   1.267  1.00  0.00     0.102 A 
HETATM   15  C19 UNL     1      -6.889  -4.929   0.947  1.00  0.00     0.103 A 
HETATM   16  C21 UNL     1      -5.604  -4.531   0.606  1.00  0.00     0.070 A 
HETATM   17  N6  UNL     1      -4.019  -2.794   0.252  1.00  0.00    -0.341 N 
ATOM     18  H6  UNL     1      -3.329  -3.510   0.025  1.00  0.00     0.167 HD
BRANCH   9  19
HETATM   19  N5  UNL     1      -6.679  -0.012   1.133  1.00  0.00    -0.385 N 
ATOM     20  H52 UNL     1      -6.409   0.971   1.107  1.00  0.00     0.157 HD
ATOM     21  H51 UNL     1      -7.634  -0.268   1.386  1.00  0.00     0.157 HD
ENDBRANCH   9  19
BRANCH  14  22
HETATM   22  O2  UNL     1      -9.166  -4.424   1.607  1.00  0.00    -0.353 OA
HETATM   23  C18 UNL     1     -10.098  -3.408   1.916  1.00  0.00     0.210 C 
ENDBRANCH  14  22
BRANCH  15  24
HETATM   24  O3  UNL     1      -7.224  -6.293   0.972  1.00  0.00    -0.353 OA
HETATM   25  C20 UNL     1      -6.249  -7.285   0.653  1.00  0.00     0.210 C 
ENDBRANCH  15  24
ENDBRANCH   4   7
BRANCH   6  26
HETATM   26  N7  UNL     1      -0.632   2.223  -0.366  1.00  0.00    -0.329 N 
HETATM   27  C25 UNL     1      -0.648   2.771   0.975  1.00  0.00     0.158 C 
BRANCH  26  28
HETATM   28  C26 UNL     1      -0.570   3.044  -1.488  1.00  0.00     0.158 C 
HETATM   29  C27 UNL     1      -0.315   4.445  -1.698  1.00  0.00     0.146 C 
BRANCH  28  30
HETATM   30  O4  UNL     1      -0.799   2.397  -2.613  1.00  0.00    -0.345 OA
ATOM     31  H4  UNL     1      -0.757   2.957  -3.379  1.00  0.00     0.219 HD
ENDBRANCH  28  30
BRANCH  29  32
HETATM   32  N8  UNL     1       0.038   5.328  -0.688  1.00  0.00    -0.367 N 
BRANCH  32  33
HETATM   33  C28 UNL     1       1.324   5.324  -0.122  1.00  0.00     0.059 C 
HETATM   34  C29 UNL     1       1.481   6.331   1.019  1.00  0.00     0.055 C 
ENDBRANCH  32  33
BRANCH  32  35
HETATM   35  C30 UNL     1      -0.740   6.514  -0.549  1.00  0.00     0.123 C 
HETATM   36  C31 UNL     1      -0.482   7.395  -1.769  1.00  0.00     0.027 C 
ENDBRANCH  32  35
ENDBRANCH  29  32
ENDBRANCH  26  28
ENDBRANCH   6  26
BRANCH   1  37
HETATM   37  N3  UNL     1       1.533   0.361  -1.124  1.00  0.00    -0.376 N 
HETATM   38  C8  UNL     1       2.412   0.941  -0.150  1.00  0.00     0.143 C 
HETATM   39  C7  UNL     1       3.620  -0.029  -0.000  1.00  0.00     0.146 C 
HETATM   40  N2  UNL     1       4.156  -0.261  -1.313  1.00  0.00    -0.344 N 
HETATM   41  C33 UNL     1       3.553   0.495  -2.431  1.00  0.00     0.146 C 
HETATM   42  C32 UNL     1       2.062   0.204  -2.459  1.00  0.00     0.143 C 
BRANCH  40  43
HETATM   43  C6  UNL     1       5.220  -1.148  -1.595  1.00  0.00     0.217 C 
BRANCH  43  44
HETATM   44  N1  UNL     1       5.986  -1.911  -0.727  1.00  0.00    -0.348 N 
BRANCH  44  45
HETATM   45  C3  UNL     1       5.996  -2.006   0.693  1.00  0.00     0.126 C 
BRANCH  45  46
HETATM   46  C2  UNL     1       6.982  -1.026   1.324  1.00  0.00     0.015 C 
HETATM   47  C1  UNL     1       6.898  -1.229   2.825  1.00  0.00     0.006 C 
ENDBRANCH  45  46
ENDBRANCH  44  45
BRANCH  44  48
HETATM   48  C4  UNL     1       6.994  -2.816  -1.402  1.00  0.00     0.122 C 
HETATM   49  C5  UNL     1       8.299  -2.121  -1.579  1.00  0.00     0.026 C 
ENDBRANCH  44  48
ENDBRANCH  43  44
BRANCH  43  50
HETATM   50  O1  UNL     1       5.525  -1.266  -2.858  1.00  0.00    -0.333 OA
ATOM     51  H1  UNL     1       5.000  -0.743  -3.453  1.00  0.00     0.220 HD
ENDBRANCH  43  50
ENDBRANCH  40  43
ENDBRANCH   1  37
TORSDOF 17
