REMARK  12 active torsions:
REMARK  status: ('A' for Active; 'I' for Inactive)
REMARK    1  A    between atoms: C2_2  and  N1_3 
REMARK    2  A    between atoms: N3_9  and  C6_10 
REMARK    3  A    between atoms: C6_10  and  C7_11 
REMARK    4  A    between atoms: C7_11  and  C8_12 
REMARK    5  A    between atoms: C8_12  and  N4_13 
REMARK       I    between atoms: N5_20  and  C15_22 
REMARK    6  A    between atoms: C15_22  and  C16_24 
REMARK    7  A    between atoms: C18_26  and  N6_27 
REMARK       I    between atoms: N6_27  and  C19_29 
REMARK    8  A    between atoms: C19_29  and  C20_31 
REMARK    9  A    between atoms: C25_36  and  O3_37 
REMARK   10  A    between atoms: O3_37  and  C26_38 
REMARK   11  A    between atoms: C26_38  and  C27_39 
REMARK   12  A    between atoms: C27_39  and  N7_40 
ROOT
HETATM    1  N1  UNL     1      -2.740  -2.118  -3.803  1.00  0.00    -0.408 N 
HETATM    2  C3  UNL     1      -3.932  -2.836  -3.496  1.00  0.00     0.123 C 
HETATM    3  C4  UNL     1      -5.086  -1.960  -3.116  1.00  0.00     0.078 C 
HETATM    4  C5  UNL     1      -4.641  -0.949  -2.126  1.00  0.00     0.039 A 
HETATM    5  N2  UNL     1      -5.301  -0.190  -1.222  1.00  0.00    -0.300 N 
ATOM      6  H2  UNL     1      -6.311  -0.211  -1.081  1.00  0.00     0.187 HD
HETATM    7  N3  UNL     1      -4.472   0.581  -0.546  1.00  0.00    -0.276 N 
HETATM    8  C14 UNL     1      -3.201   0.346  -0.996  1.00  0.00     0.135 A 
HETATM    9  N5  UNL     1      -2.193   0.950  -0.515  1.00  0.00    -0.306 N 
ATOM     10  H5  UNL     1      -2.412   1.614   0.228  1.00  0.00     0.170 HD
HETATM   11  C15 UNL     1      -0.848   0.860  -0.828  1.00  0.00     0.274 C 
HETATM   12  O1  UNL     1      -0.426   1.629  -1.769  1.00  0.00    -0.266 OA
HETATM   13  C33 UNL     1      -3.308  -0.595  -1.968  1.00  0.00     0.029 A 
HETATM   14  C34 UNL     1      -2.257  -1.229  -2.800  1.00  0.00     0.161 C 
ENDROOT
BRANCH  11  15
HETATM   15  C16 UNL     1       0.147  -0.005  -0.212  1.00  0.00     0.105 A 
HETATM   16  C17 UNL     1       1.484  -0.053  -0.537  1.00  0.00     0.066 A 
HETATM   17  C18 UNL     1       2.122  -0.999   0.262  1.00  0.00     0.053 A 
HETATM   18  C31 UNL     1       1.137  -1.498   1.054  1.00  0.00     0.120 A 
HETATM   19  N8  UNL     1      -0.036  -0.903   0.768  1.00  0.00    -0.354 N 
HETATM   20  C32 UNL     1      -1.292  -1.199   1.439  1.00  0.00     0.156 C 
BRANCH  17  21
HETATM   21  N6  UNL     1       3.495  -1.262   0.179  1.00  0.00    -0.322 N 
HETATM   22  C19 UNL     1       4.203  -2.263   0.882  1.00  0.00     0.256 C 
HETATM   23  O2  UNL     1       3.522  -3.011   1.666  1.00  0.00    -0.267 OA
ATOM     24  H6  UNL     1       4.038  -0.672  -0.452  1.00  0.00     0.169 HD
BRANCH  22  25
HETATM   25  C20 UNL     1       5.631  -2.475   0.758  1.00  0.00     0.035 A 
HETATM   26  C21 UNL     1       6.185  -3.636   1.286  1.00  0.00     0.018 A 
HETATM   27  C22 UNL     1       7.545  -3.875   1.210  1.00  0.00     0.010 A 
HETATM   28  C23 UNL     1       8.415  -2.996   0.620  1.00  0.00    -0.029 A 
HETATM   29  C24 UNL     1       9.875  -3.268   0.550  1.00  0.00     0.051 C 
HETATM   30  C25 UNL     1       7.878  -1.819   0.081  1.00  0.00     0.075 A 
HETATM   31  C30 UNL     1       6.520  -1.604   0.169  1.00  0.00     0.054 A 
BRANCH  30  32
HETATM   32  O3  UNL     1       8.715  -0.949  -0.500  1.00  0.00    -0.349 OA
BRANCH  32  33
HETATM   33  C26 UNL     1       8.615   0.264  -1.112  1.00  0.00     0.206 C 
BRANCH  33  34
HETATM   34  C27 UNL     1       8.107   1.423  -0.334  1.00  0.00     0.297 C 
BRANCH  34  35
HETATM   35  N7  UNL     1       8.892   1.755   0.840  1.00  0.00     0.082 N 
HETATM   36  C28 UNL     1      10.203   2.272   0.501  1.00  0.00     0.309 C 
HETATM   37  C29 UNL     1       8.173   2.874   1.475  1.00  0.00     0.309 C 
ENDBRANCH  34  35
ENDBRANCH  33  34
ENDBRANCH  32  33
ENDBRANCH  30  32
ENDBRANCH  22  25
ENDBRANCH  17  21
ENDBRANCH  11  15
BRANCH   7  38
HETATM   38  C6  UNL     1      -4.904   1.500   0.483  1.00  0.00     0.156 C 
BRANCH  38  39
HETATM   39  C7  UNL     1      -4.958   0.876   1.860  1.00  0.00     0.067 C 
BRANCH  39  40
HETATM   40  C8  UNL     1      -5.402   1.864   2.904  1.00  0.00     0.069 C 
BRANCH  40  41
HETATM   41  N4  UNL     1      -6.671   2.439   2.731  1.00  0.00    -0.354 N 
HETATM   42  C9  UNL     1      -7.795   1.611   2.875  1.00  0.00     0.068 C 
HETATM   43  C10 UNL     1      -9.102   2.202   2.475  1.00  0.00     0.045 C 
HETATM   44  C11 UNL     1      -9.242   3.551   3.176  1.00  0.00     0.010 C 
HETATM   45  C12 UNL     1      -8.117   4.418   2.594  1.00  0.00     0.045 C 
HETATM   46  C13 UNL     1      -6.795   3.825   2.930  1.00  0.00     0.068 C 
ENDBRANCH  40  41
ENDBRANCH  39  40
ENDBRANCH  38  39
ENDBRANCH   7  38
BRANCH   1  47
HETATM   47  C2  UNL     1      -2.653  -1.625  -5.144  1.00  0.00     0.112 C 
HETATM   48  C1  UNL     1      -2.516  -2.767  -6.109  1.00  0.00     0.026 C 
ENDBRANCH   1  47
TORSDOF 12
