REMARK  12 active torsions:
REMARK  status: ('A' for Active; 'I' for Inactive)
REMARK    1  A    between atoms: C2_2  and  C3_3 
REMARK    2  A    between atoms: C3_3  and  N1_4 
REMARK    3  A    between atoms: N1_4  and  C4_5 
REMARK       I    between atoms: N1_4  and  C21_26 
REMARK    4  A    between atoms: C4_5  and  C5_6 
REMARK    5  A    between atoms: C5_6  and  C6_7 
REMARK    6  A    between atoms: C6_7  and  C7_8 
REMARK    7  A    between atoms: C7_8  and  C8_9 
REMARK    8  A    between atoms: C8_9  and  C9_10 
REMARK       I    between atoms: C9_10  and  N2_12 
REMARK    9  A    between atoms: C21_26  and  C22_28 
REMARK   10  A    between atoms: C23_29  and  N4_30 
REMARK   11  A    between atoms: N7_41  and  C29_42 
REMARK   12  A    between atoms: C29_42  and  C30_43 
ROOT
HETATM    1  N1  UNL     1       1.844  -0.585   0.340  1.00  0.00    -0.344 N 
HETATM    2  C21 UNL     1       2.536  -0.603  -0.878  1.00  0.00     0.263 C 
HETATM    3  O2  UNL     1       1.899  -0.911  -1.948  1.00  0.00    -0.267 OA
ENDROOT
BRANCH   1   4
HETATM    4  C3  UNL     1       2.536  -0.224   1.611  1.00  0.00     0.152 C 
BRANCH   4   5
HETATM    5  C2  UNL     1       3.045  -1.389   2.340  1.00  0.00    -0.017 C 
HETATM    6  C1  UNL     1       4.288  -1.624   2.693  1.00  0.00     0.008 C 
ENDBRANCH   4   5
ENDBRANCH   1   4
BRANCH   1   7
HETATM    7  C4  UNL     1       0.442  -0.913   0.502  1.00  0.00     0.126 C 
BRANCH   7   8
HETATM    8  C5  UNL     1      -0.537   0.169   0.528  1.00  0.00     0.020 C 
BRANCH   8   9
HETATM    9  C6  UNL     1      -0.824   1.036  -0.615  1.00  0.00     0.002 C 
BRANCH   9  10
HETATM   10  C7  UNL     1      -1.436   0.438  -1.827  1.00  0.00     0.009 C 
BRANCH  10  11
HETATM   11  C8  UNL     1      -2.759  -0.220  -1.658  1.00  0.00     0.103 C 
BRANCH  11  12
HETATM   12  C9  UNL     1      -3.844   0.667  -1.210  1.00  0.00     0.220 C 
HETATM   13  O1  UNL     1      -3.624   1.904  -1.146  1.00  0.00    -0.273 OA
HETATM   14  N2  UNL     1      -5.134   0.173  -0.849  1.00  0.00    -0.348 N 
HETATM   15  C10 UNL     1      -5.427  -1.233  -0.911  1.00  0.00     0.130 C 
HETATM   16  C20 UNL     1      -6.149   1.097  -0.425  1.00  0.00     0.165 C 
HETATM   17  C11 UNL     1      -5.910  -1.681   0.453  1.00  0.00     0.059 C 
HETATM   18  C12 UNL     1      -7.098  -0.874   0.801  1.00  0.00    -0.048 A 
HETATM   19  C13 UNL     1      -8.107  -1.435   1.547  1.00  0.00     0.010 A 
HETATM   20  C19 UNL     1      -7.213   0.432   0.389  1.00  0.00    -0.021 A 
HETATM   21  C14 UNL     1      -9.243  -0.704   1.892  1.00  0.00     0.031 A 
HETATM   22  C15 UNL     1      -9.371   0.605   1.485  1.00  0.00     0.043 A 
HETATM   23  N3  UNL     1     -10.335   1.548   1.660  1.00  0.00    -0.365 N 
HETATM   24  C18 UNL     1      -8.339   1.165   0.728  1.00  0.00     0.000 A 
HETATM   25  C16 UNL     1      -9.978   2.691   1.053  1.00  0.00     0.089 A 
ATOM     26  H3  UNL     1     -11.203   1.407   2.177  1.00  0.00     0.165 HD
HETATM   27  C17 UNL     1      -8.744   2.458   0.475  1.00  0.00     0.031 A 
ENDBRANCH  11  12
ENDBRANCH  10  11
ENDBRANCH   9  10
ENDBRANCH   8   9
ENDBRANCH   7   8
ENDBRANCH   1   7
BRANCH   2  28
HETATM   28  C22 UNL     1       3.933  -0.314  -1.111  1.00  0.00     0.144 A 
HETATM   29  C23 UNL     1       4.403   0.925  -1.386  1.00  0.00     0.138 A 
HETATM   30  N6  UNL     1       5.755   1.057  -1.605  1.00  0.00    -0.293 N 
HETATM   31  C28 UNL     1       6.593   0.007  -1.553  1.00  0.00     0.331 A 
ATOM     32  H6  UNL     1       6.134   1.981  -1.813  1.00  0.00     0.172 HD
HETATM   33  O3  UNL     1       7.837   0.179  -1.762  1.00  0.00    -0.246 OA
HETATM   34  N7  UNL     1       6.155  -1.243  -1.283  1.00  0.00    -0.259 N 
HETATM   35  C34 UNL     1       4.845  -1.394  -1.066  1.00  0.00     0.271 A 
HETATM   36  O5  UNL     1       4.443  -2.559  -0.815  1.00  0.00    -0.267 OA
BRANCH  29  37
HETATM   37  N4  UNL     1       3.552   2.048  -1.488  1.00  0.00    -0.295 N 
HETATM   38  C24 UNL     1       2.661   2.285  -2.495  1.00  0.00     0.190 A 
HETATM   39  N5  UNL     1       2.039   3.446  -2.291  1.00  0.00    -0.360 N 
HETATM   40  C25 UNL     1       2.491   4.007  -1.160  1.00  0.00     0.114 A 
ATOM     41  H5  UNL     1       1.327   3.847  -2.902  1.00  0.00     0.166 HD
HETATM   42  C26 UNL     1       3.437   3.123  -0.668  1.00  0.00     0.030 A 
HETATM   43  C27 UNL     1       4.218   3.347   0.582  1.00  0.00     0.070 C 
ENDBRANCH  29  37
BRANCH  34  44
HETATM   44  C29 UNL     1       7.103  -2.333  -1.257  1.00  0.00     0.202 C 
BRANCH  44  45
HETATM   45  C30 UNL     1       7.706  -2.582   0.066  1.00  0.00     0.071 A 
HETATM   46  C31 UNL     1       7.256  -3.466   1.018  1.00  0.00     0.036 A 
HETATM   47  C32 UNL     1       8.115  -3.380   2.102  1.00  0.00     0.027 A 
HETATM   48  C33 UNL     1       9.052  -2.436   1.742  1.00  0.00     0.142 A 
HETATM   49  O4  UNL     1       8.776  -1.992   0.540  1.00  0.00    -0.325 OA
ENDBRANCH  44  45
ENDBRANCH  34  44
ENDBRANCH   2  28
TORSDOF 12
