REMARK  13 active torsions:
REMARK  status: ('A' for Active; 'I' for Inactive)
REMARK    1  A    between atoms: C6_8  and  C7_9 
REMARK    2  A    between atoms: C7_9  and  C8_10 
REMARK    3  A    between atoms: C8_10  and  C9_11 
REMARK    4  A    between atoms: C9_11  and  C10_12 
REMARK    5  A    between atoms: C10_12  and  C11_13 
REMARK    6  A    between atoms: C11_13  and  N2_16 
REMARK       I    between atoms: N2_16  and  C14_18 
REMARK    7  A    between atoms: C14_18  and  C15_20 
REMARK    8  A    between atoms: C18_24  and  S1_25 
REMARK    9  A    between atoms: C22_33  and  N5_34 
REMARK       I    between atoms: N5_34  and  C23_35 
REMARK   10  A    between atoms: C23_35  and  C24_37 
REMARK   11  A    between atoms: C24_37  and  C25_38 
REMARK   12  A    between atoms: C25_38  and  C26_39 
REMARK   13  A    between atoms: C26_39  and  N6_40 
ROOT
HETATM    1  C1  UNL     1       0.444   4.661  -2.492  1.00  0.00     0.089 C 
HETATM    2  C2  UNL     1       0.445   3.754  -1.314  1.00  0.00     0.079 A 
HETATM    3  N1  UNL     1       1.423   3.913  -0.412  1.00  0.00    -0.345 N 
ATOM      4  H1  UNL     1       2.134   4.633  -0.543  1.00  0.00     0.167 HD
HETATM    5  C3  UNL     1       1.456   3.105   0.678  1.00  0.00     0.048 A 
HETATM    6  C4  UNL     1       2.463   3.257   1.630  1.00  0.00     0.031 A 
HETATM    7  C5  UNL     1       2.471   2.421   2.732  1.00  0.00     0.009 A 
HETATM    8  C6  UNL     1       1.535   1.434   2.956  1.00  0.00    -0.057 A 
HETATM    9  C20 UNL     1       0.541   1.299   1.997  1.00  0.00     0.026 A 
HETATM   10  C21 UNL     1       0.526   2.131   0.893  1.00  0.00     0.050 A 
HETATM   11  C22 UNL     1      -0.506   1.968  -0.066  1.00  0.00     0.196 A 
HETATM   12  N7  UNL     1      -0.478   2.803  -1.124  1.00  0.00    -0.320 N 
ATOM     13  H7  UNL     1      -1.210   2.703  -1.828  1.00  0.00     0.169 HD
ENDROOT
BRANCH   8  14
HETATM   14  C7  UNL     1       1.562   0.572   4.158  1.00  0.00     0.038 C 
BRANCH  14  15
HETATM   15  C8  UNL     1       2.443  -0.671   3.970  1.00  0.00     0.005 C 
BRANCH  15  16
HETATM   16  C9  UNL     1       1.995  -1.538   2.853  1.00  0.00     0.003 C 
BRANCH  16  17
HETATM   17  C10 UNL     1       2.712  -2.795   2.596  1.00  0.00     0.030 C 
BRANCH  17  18
HETATM   18  C11 UNL     1       4.148  -2.795   2.256  1.00  0.00     0.026 C 
HETATM   19  C12 UNL     1       4.618  -4.249   1.990  1.00  0.00     0.038 C 
HETATM   20  C13 UNL     1       4.978  -2.360   3.455  1.00  0.00     0.038 C 
BRANCH  18  21
HETATM   21  N2  UNL     1       4.477  -2.024   1.085  1.00  0.00    -0.347 N 
HETATM   22  C14 UNL     1       3.984  -2.221  -0.213  1.00  0.00     0.270 C 
HETATM   23  O1  UNL     1       3.171  -3.145  -0.437  1.00  0.00    -0.266 OA
ATOM     24  H2  UNL     1       5.136  -1.256   1.213  1.00  0.00     0.163 HD
BRANCH  22  25
HETATM   25  C15 UNL     1       4.427  -1.344  -1.291  1.00  0.00     0.118 A 
HETATM   26  C16 UNL     1       5.272  -0.246  -1.203  1.00  0.00     0.128 A 
HETATM   27  N3  UNL     1       5.445   0.289  -2.428  1.00  0.00    -0.336 N 
HETATM   28  C17 UNL     1       6.273   1.467  -2.723  1.00  0.00     0.158 C 
HETATM   29  C18 UNL     1       4.724  -0.451  -3.302  1.00  0.00     0.205 A 
HETATM   30  N4  UNL     1       4.120  -1.425  -2.602  1.00  0.00    -0.327 N 
ATOM     31  H4  UNL     1       3.509  -2.133  -3.009  1.00  0.00     0.168 HD
BRANCH  29  32
HETATM   32  S1  UNL     1       4.620  -0.179  -5.027  1.00  0.00     0.203 S 
HETATM   33  C19 UNL     1       5.910  -1.103  -5.833  1.00  0.00     0.170 C 
HETATM   34  O2  UNL     1       3.299  -0.645  -5.570  1.00  0.00    -0.220 OA
HETATM   35  O3  UNL     1       4.743   1.287  -5.338  1.00  0.00    -0.220 OA
ENDBRANCH  29  32
ENDBRANCH  22  25
ENDBRANCH  18  21
ENDBRANCH  17  18
ENDBRANCH  16  17
ENDBRANCH  15  16
ENDBRANCH  14  15
ENDBRANCH   8  14
BRANCH  11  36
HETATM   36  N5  UNL     1      -1.339   1.123   0.101  1.00  0.00    -0.351 NA
HETATM   37  C23 UNL     1      -2.383   0.325  -0.033  1.00  0.00     0.293 C 
HETATM   38  O4  UNL     1      -2.996  -0.075   1.041  1.00  0.00    -0.257 OA
BRANCH  37  39
HETATM   39  C24 UNL     1      -2.985  -0.212  -1.295  1.00  0.00     0.121 C 
BRANCH  39  40
HETATM   40  C25 UNL     1      -4.343  -0.763  -1.071  1.00  0.00     0.040 C 
BRANCH  40  41
HETATM   41  C26 UNL     1      -5.385   0.223  -0.616  1.00  0.00     0.274 C 
BRANCH  41  42
HETATM   42  N6  UNL     1      -6.618  -0.518  -0.437  1.00  0.00     0.097 N 
HETATM   43  C27 UNL     1      -7.180  -1.001  -1.660  1.00  0.00     0.273 C 
HETATM   44  C28 UNL     1      -8.686  -0.989  -1.470  1.00  0.00     0.033 C 
HETATM   45  C29 UNL     1      -8.907   0.156  -0.521  1.00  0.00     0.043 C 
HETATM   46  C30 UNL     1      -7.628   0.231   0.249  1.00  0.00     0.152 C 
HETATM   47  C31 UNL     1      -7.829  -0.389   1.620  1.00  0.00     0.049 C 
HETATM   48  C32 UNL     1      -7.222   1.672   0.482  1.00  0.00     0.049 C 
ENDBRANCH  41  42
ENDBRANCH  40  41
ENDBRANCH  39  40
ENDBRANCH  37  39
ENDBRANCH  11  36
TORSDOF 13
