REMARK  7 active torsions:
REMARK  status: ('A' for Active; 'I' for Inactive)
REMARK    1  A    between atoms: O1_1  and  C1_3 
REMARK    2  A    between atoms: C1_3  and  C2_4 
REMARK    3  A    between atoms: C2_4  and  O2_5 
REMARK    4  A    between atoms: C4_8  and  O3_9 
REMARK    5  A    between atoms: C5_11  and  C6_12 
REMARK    6  A    between atoms: C7_16  and  O4_17 
REMARK    7  A    between atoms: C8_19  and  O5_20 
ROOT
HETATM    1  C2  UNL     1      -1.374   0.118   0.602  1.00  0.00     0.109 C 
HETATM    2  C3  UNL     1      -0.706  -1.189   0.854  1.00  0.00     0.075 C 
HETATM    3  C4  UNL     1       0.215  -1.642  -0.225  1.00  0.00     0.132 C 
HETATM    4  C5  UNL     1       1.105  -0.583  -0.779  1.00  0.00     0.085 C 
HETATM    5  C7  UNL     1       0.419   0.720  -1.053  1.00  0.00     0.161 C 
HETATM    6  C8  UNL     1      -0.498   1.178   0.037  1.00  0.00     0.184 C 
ENDROOT
BRANCH   1   7
HETATM    7  C1  UNL     1      -2.614  -0.138  -0.241  1.00  0.00     0.204 C 
BRANCH   7   8
HETATM    8  O1  UNL     1      -3.321   1.053  -0.375  1.00  0.00    -0.398 OA
ATOM      9  H1  UNL     1      -4.095   0.893  -0.901  1.00  0.00     0.209 HD
ENDBRANCH   7   8
ENDBRANCH   1   7
BRANCH   1  10
HETATM   10  O2  UNL     1      -1.858   0.584   1.848  1.00  0.00    -0.385 OA
ATOM     11  H2  UNL     1      -1.084   0.744   2.374  1.00  0.00     0.210 HD
ENDBRANCH   1  10
BRANCH   6  12
HETATM   12  O5  UNL     1       0.245   1.828   1.043  1.00  0.00    -0.390 OA
ATOM     13  H5  UNL     1       0.805   2.505   0.682  1.00  0.00     0.210 HD
ENDBRANCH   6  12
BRANCH   3  14
HETATM   14  O3  UNL     1       1.049  -2.640   0.333  1.00  0.00    -0.395 OA
ATOM     15  H3  UNL     1       1.637  -2.929  -0.355  1.00  0.00     0.210 HD
ENDBRANCH   3  14
BRANCH   5  16
HETATM   16  O4  UNL     1      -0.266   0.680  -2.269  1.00  0.00    -0.392 OA
ATOM     17  H4  UNL     1      -0.701   1.506  -2.443  1.00  0.00     0.210 HD
ENDBRANCH   5  16
BRANCH   4  18
HETATM   18  C6  UNL     1       2.292  -0.405   0.090  1.00  0.00     0.079 C 
HETATM   19  N1  UNL     1       3.432  -0.032  -0.348  1.00  0.00    -0.334 N 
HETATM   20  S1  UNL     1       4.801   0.164   0.714  1.00  0.00     0.041 SA
ATOM     21  H1  UNL     1       3.545   0.156  -1.344  1.00  0.00     0.173 HD
ENDBRANCH   4  18
TORSDOF 7
