REMARK  7 active torsions:
REMARK  status: ('A' for Active; 'I' for Inactive)
REMARK       I    between atoms: C1_4  and  N3_6 
REMARK    1  A    between atoms: N3_6  and  C2_8 
REMARK    2  A    between atoms: C2_8  and  O2_13 
REMARK    3  A    between atoms: N4_9  and  O1_11 
REMARK    4  A    between atoms: O2_13  and  C3_14 
REMARK    5  A    between atoms: C6_17  and  O3_18 
REMARK    6  A    between atoms: C7_21  and  C8_22 
REMARK    7  A    between atoms: C8_22  and  O5_23 
ROOT
HETATM    1  C2  UNL     1       1.595  -0.136   0.232  1.00  0.00     0.246 C 
HETATM    2  N4  UNL     1       1.766  -0.242   1.478  1.00  0.00    -0.232 N 
ATOM      3  H4  UNL     1       2.696   0.059   1.770  1.00  0.00     0.198 HD
ENDROOT
BRANCH   1   4
HETATM    4  N3  UNL     1       2.682   0.374  -0.594  1.00  0.00    -0.295 N 
HETATM    5  C1  UNL     1       4.019   0.154  -0.200  1.00  0.00     0.189 C 
HETATM    6  N1  UNL     1       4.437   0.733   0.871  1.00  0.00    -0.373 N 
HETATM    7  N2  UNL     1       4.827  -0.691  -1.001  1.00  0.00    -0.064 NA
ATOM      8  H12 UNL     1       5.403   0.574   1.156  1.00  0.00     0.158 HD
ATOM      9  H11 UNL     1       3.855   1.341   1.447  1.00  0.00     0.158 HD
ATOM     10  H3  UNL     1       2.478   0.887  -1.452  1.00  0.00     0.172 HD
ENDBRANCH   1   4
BRANCH   1  11
HETATM   11  O2  UNL     1       0.405  -0.493  -0.341  1.00  0.00    -0.308 OA
BRANCH  11  12
HETATM   12  C3  UNL     1      -0.818  -0.341   0.323  1.00  0.00     0.186 C 
HETATM   13  C4  UNL     1      -0.969   1.125   0.654  1.00  0.00     0.009 C 
HETATM   14  C5  UNL     1      -2.204   1.481   1.034  1.00  0.00     0.031 C 
HETATM   15  C6  UNL     1      -3.181   0.330   1.047  1.00  0.00     0.281 C 
HETATM   16  O4  UNL     1      -3.179  -0.171  -0.234  1.00  0.00    -0.348 OA
HETATM   17  C7  UNL     1      -1.983  -0.736  -0.582  1.00  0.00     0.181 C 
BRANCH  15  18
HETATM   18  O3  UNL     1      -4.407   0.883   1.402  1.00  0.00    -0.368 OA
ATOM     19  H3  UNL     1      -5.022   0.159   1.410  1.00  0.00     0.213 HD
ENDBRANCH  15  18
BRANCH  17  20
HETATM   20  C8  UNL     1      -1.616  -0.477  -2.027  1.00  0.00     0.199 C 
BRANCH  20  21
HETATM   21  O5  UNL     1      -1.500   0.867  -2.322  1.00  0.00    -0.398 OA
ATOM     22  H5  UNL     1      -1.270   1.030  -3.229  1.00  0.00     0.209 HD
ENDBRANCH  20  21
ENDBRANCH  17  20
ENDBRANCH  11  12
ENDBRANCH   1  11
BRANCH   2  23
HETATM   23  O1  UNL     1       1.027  -0.650   2.492  1.00  0.00    -0.287 OA
ATOM     24  H1  UNL     1       1.156  -0.730   3.430  1.00  0.00     0.244 HD
ENDBRANCH   2  23
TORSDOF 7
