REMARK  8 active torsions:
REMARK  status: ('A' for Active; 'I' for Inactive)
REMARK    1  A    between atoms: C2_2  and  N2_7 
REMARK    2  A    between atoms: N1_3  and  O1_5 
REMARK    3  A    between atoms: N2_7  and  O2_9 
REMARK    4  A    between atoms: O2_9  and  C3_10 
REMARK    5  A    between atoms: C3_10  and  N4_14 
REMARK    6  A    between atoms: N4_14  and  C4_16 
REMARK    7  A    between atoms: C8_20  and  O3_21 
REMARK    8  A    between atoms: C9_23  and  O4_24 
ROOT
HETATM    1  C3  UNL     1       0.947  -0.725  -0.135  1.00  0.00     0.237 C 
HETATM    2  N3  UNL     1       1.262  -1.395  -1.177  1.00  0.00    -0.364 N 
ATOM      3  H31 UNL     1       0.700  -2.213  -1.413  1.00  0.00     0.159 HD
ATOM      4  H32 UNL     1       2.060  -1.093  -1.737  1.00  0.00     0.159 HD
ENDROOT
BRANCH   1   5
HETATM    5  O2  UNL     1       1.709   0.384   0.185  1.00  0.00    -0.200 OA
BRANCH   5   6
HETATM    6  N2  UNL     1       2.803   0.785  -0.534  1.00  0.00    -0.244 N 
ATOM      7  H2  UNL     1       2.698   1.172  -1.472  1.00  0.00     0.196 HD
BRANCH   6   8
HETATM    8  C2  UNL     1       4.086   0.650   0.055  1.00  0.00     0.118 C 
HETATM    9  C1  UNL     1       4.454  -0.581   0.795  1.00  0.00     0.093 C 
HETATM   10  N1  UNL     1       4.964   1.590  -0.036  1.00  0.00    -0.256 N 
ATOM     11  H1  UNL     1       5.883   1.480   0.392  1.00  0.00     0.195 HD
BRANCH  10  12
HETATM   12  O1  UNL     1       4.651   2.729  -0.709  1.00  0.00    -0.288 OA
ATOM     13  H1  UNL     1       5.298   3.422  -0.776  1.00  0.00     0.244 HD
ENDBRANCH  10  12
ENDBRANCH   6   8
ENDBRANCH   5   6
ENDBRANCH   1   5
BRANCH   1  14
HETATM   14  N4  UNL     1      -0.162  -1.145   0.643  1.00  0.00    -0.344 N 
ATOM     15  H4  UNL     1       0.019  -1.766   1.431  1.00  0.00     0.164 HD
BRANCH  14  16
HETATM   16  C4  UNL     1      -1.513  -0.759   0.400  1.00  0.00     0.058 C 
HETATM   17  C5  UNL     1      -2.425  -1.377   1.401  1.00  0.00     0.041 C 
HETATM   18  C6  UNL     1      -2.002  -1.117  -0.979  1.00  0.00     0.036 C 
HETATM   19  C7  UNL     1      -3.187  -0.190  -1.153  1.00  0.00     0.037 C 
HETATM   20  C8  UNL     1      -2.680   1.104  -0.578  1.00  0.00     0.149 C 
HETATM   21  C9  UNL     1      -1.577   0.751   0.388  1.00  0.00     0.174 C 
BRANCH  20  22
HETATM   22  O3  UNL     1      -3.707   1.812   0.075  1.00  0.00    -0.393 OA
ATOM     23  H3  UNL     1      -3.387   2.629   0.438  1.00  0.00     0.210 HD
ENDBRANCH  20  22
BRANCH  21  24
HETATM   24  O4  UNL     1      -1.783   1.261   1.656  1.00  0.00    -0.390 OA
ATOM     25  H4  UNL     1      -1.823   2.210   1.648  1.00  0.00     0.210 HD
ENDBRANCH  21  24
ENDBRANCH  14  16
ENDBRANCH   1  14
TORSDOF 8
