REMARK  6 active torsions:
REMARK  status: ('A' for Active; 'I' for Inactive)
REMARK    1  A    between atoms: O1_1  and  C1_3 
REMARK    2  A    between atoms: C2_5  and  N1_6 
REMARK    3  A    between atoms: N1_6  and  C3_8 
REMARK    4  A    between atoms: C9_14  and  O3_15 
REMARK    5  A    between atoms: C10_17  and  O4_18 
REMARK    6  A    between atoms: C11_20  and  O5_21 
ROOT
HETATM    1  C1  UNL     1      -2.477   1.291   0.730  1.00  0.00     0.290 C 
HETATM    2  O2  UNL     1      -1.326   0.866   1.349  1.00  0.00    -0.332 OA
HETATM    3  C2  UNL     1      -0.299   0.745   0.409  1.00  0.00     0.256 C 
HETATM    4  C9  UNL     1      -0.808   0.121  -0.870  1.00  0.00     0.198 C 
HETATM    5  C10 UNL     1      -2.076  -0.660  -0.676  1.00  0.00     0.184 C 
HETATM    6  C11 UNL     1      -3.128   0.082   0.096  1.00  0.00     0.204 C 
ENDROOT
BRANCH   3   7
HETATM    7  N1  UNL     1       0.757  -0.022   1.034  1.00  0.00    -0.361 N 
ATOM      8  H1  UNL     1       0.572  -0.396   1.965  1.00  0.00     0.162 HD
BRANCH   7   9
HETATM    9  C3  UNL     1       2.008  -0.295   0.474  1.00  0.00     0.029 A 
HETATM   10  C4  UNL     1       2.425   0.245  -0.724  1.00  0.00     0.029 A 
HETATM   11  C5  UNL     1       3.673  -0.036  -1.277  1.00  0.00     0.002 A 
HETATM   12  C6  UNL     1       4.533  -0.889  -0.603  1.00  0.00     0.000 A 
HETATM   13  C7  UNL     1       4.100  -1.414   0.584  1.00  0.00     0.002 A 
HETATM   14  C8  UNL     1       2.871  -1.140   1.133  1.00  0.00     0.029 A 
ENDBRANCH   7   9
ENDBRANCH   3   7
BRANCH   4  15
HETATM   15  O3  UNL     1      -1.019   1.053  -1.877  1.00  0.00    -0.389 OA
ATOM     16  H3  UNL     1      -1.339   0.661  -2.681  1.00  0.00     0.210 HD
ENDBRANCH   4  15
BRANCH   1  17
HETATM   17  O1  UNL     1      -3.297   1.879   1.696  1.00  0.00    -0.368 OA
ATOM     18  H1  UNL     1      -4.093   2.173   1.268  1.00  0.00     0.212 HD
ENDBRANCH   1  17
BRANCH   5  19
HETATM   19  O4  UNL     1      -1.797  -1.866  -0.049  1.00  0.00    -0.390 OA
ATOM     20  H4  UNL     1      -2.599  -2.360   0.074  1.00  0.00     0.210 HD
ENDBRANCH   5  19
BRANCH   6  21
HETATM   21  O5  UNL     1      -4.223   0.419  -0.663  1.00  0.00    -0.388 OA
ATOM     22  H5  UNL     1      -4.632  -0.340  -1.061  1.00  0.00     0.210 HD
ENDBRANCH   6  21
TORSDOF 6
