REMARK  7 active torsions:
REMARK  status: ('A' for Active; 'I' for Inactive)
REMARK    1  A    between atoms: C2_2  and  O1_3 
REMARK    2  A    between atoms: N1_5  and  N2_7 
REMARK    3  A    between atoms: N2_7  and  C3_9 
REMARK    4  A    between atoms: C4_11  and  O2_12 
REMARK    5  A    between atoms: C5_14  and  O3_15 
REMARK    6  A    between atoms: C6_17  and  O4_18 
REMARK    7  A    between atoms: C7_20  and  O5_21 
ROOT
HETATM    1  C3  UNL     1       0.223   0.148   0.877  1.00  0.00     0.194 C 
HETATM    2  S1  UNL     1      -0.791   1.617   1.030  1.00  0.00    -0.105 SA
HETATM    3  C4  UNL     1      -2.525   1.290   0.701  1.00  0.00     0.212 C 
HETATM    4  C5  UNL     1      -2.769   0.152  -0.221  1.00  0.00     0.188 C 
HETATM    5  C6  UNL     1      -1.534  -0.468  -0.798  1.00  0.00     0.181 C 
HETATM    6  C7  UNL     1      -0.557  -0.969   0.210  1.00  0.00     0.183 C 
ENDROOT
BRANCH   1   7
HETATM    7  N2  UNL     1       1.393   0.477   0.057  1.00  0.00    -0.318 N 
ATOM      8  H2  UNL     1       1.532   1.413  -0.325  1.00  0.00     0.181 HD
BRANCH   7   9
HETATM    9  N1  UNL     1       2.307  -0.551  -0.176  1.00  0.00    -0.287 N 
HETATM   10  C2  UNL     1       3.523  -0.392  -0.503  1.00  0.00     0.125 C 
HETATM   11  C1  UNL     1       4.141   0.938  -0.685  1.00  0.00     0.098 C 
ATOM     12  H1  UNL     1       1.970  -1.509  -0.075  1.00  0.00     0.188 HD
BRANCH  10  13
HETATM   13  O1  UNL     1       4.310  -1.507  -0.700  1.00  0.00    -0.349 OA
ATOM     14  H1  UNL     1       3.913  -2.362  -0.583  1.00  0.00     0.219 HD
ENDBRANCH  10  13
ENDBRANCH   7   9
ENDBRANCH   1   7
BRANCH   6  15
HETATM   15  O5  UNL     1      -1.122  -1.797   1.175  1.00  0.00    -0.390 OA
ATOM     16  H5  UNL     1      -1.610  -2.497   0.757  1.00  0.00     0.210 HD
ENDBRANCH   6  15
BRANCH   3  17
HETATM   17  O2  UNL     1      -3.165   1.050   1.921  1.00  0.00    -0.382 OA
ATOM     18  H2  UNL     1      -4.083   0.877   1.747  1.00  0.00     0.211 HD
ENDBRANCH   3  17
BRANCH   5  19
HETATM   19  O4  UNL     1      -0.887   0.412  -1.645  1.00  0.00    -0.390 OA
ATOM     20  H4  UNL     1      -0.104   0.019  -2.011  1.00  0.00     0.210 HD
ENDBRANCH   5  19
BRANCH   4  21
HETATM   21  O3  UNL     1      -3.543  -0.843   0.415  1.00  0.00    -0.389 OA
ATOM     22  H3  UNL     1      -3.699  -1.571  -0.175  1.00  0.00     0.210 HD
ENDBRANCH   4  21
TORSDOF 7
