REMARK  7 active torsions:
REMARK  status: ('A' for Active; 'I' for Inactive)
REMARK       I    between atoms: N2_9  and  C5_10 
REMARK    1  A    between atoms: C5_10  and  C6_12 
REMARK    2  A    between atoms: C6_12  and  C7_13 
REMARK    3  A    between atoms: C6_12  and  N3_19 
REMARK    4  A    between atoms: C7_13  and  S1_14 
REMARK    5  A    between atoms: S1_14  and  C8_15 
REMARK    6  A    between atoms: C8_15  and  C9_16 
REMARK    7  A    between atoms: N3_19  and  C10_21 
ROOT
HETATM    1  C6  UNL     1      -0.823   0.214  -0.151  1.00  0.00     0.180 C 
ENDROOT
BRANCH   1   2
HETATM    2  C5  UNL     1      -1.537  -0.759   0.710  1.00  0.00     0.248 C 
HETATM    3  N2  UNL     1      -2.869  -1.172   0.496  1.00  0.00    -0.302 N 
HETATM    4  C1  UNL     1      -3.471  -2.088   1.438  1.00  0.00     0.103 C 
HETATM    5  C4  UNL     1      -3.665  -0.781  -0.640  1.00  0.00     0.159 C 
HETATM    6  N1  UNL     1      -3.220  -2.106   2.657  1.00  0.00    -0.387 N 
HETATM    7  C2  UNL     1      -4.473  -3.102   0.925  1.00  0.00     0.243 C 
ATOM      8  H12 UNL     1      -3.645  -2.752   3.322  1.00  0.00     0.157 HD
ATOM      9  H11 UNL     1      -2.545  -1.423   3.002  1.00  0.00     0.157 HD
HETATM   10  O1  UNL     1      -4.430  -3.063  -0.456  1.00  0.00    -0.382 OA
HETATM   11  C3  UNL     1      -4.779  -1.806  -0.881  1.00  0.00     0.188 C 
HETATM   12  O2  UNL     1      -0.927  -1.265   1.687  1.00  0.00    -0.271 OA
ENDBRANCH   1   2
BRANCH   1  13
HETATM   13  C7  UNL     1      -0.753   1.568   0.633  1.00  0.00     0.108 C 
BRANCH  13  14
HETATM   14  S1  UNL     1      -2.359   2.279   0.957  1.00  0.00    -0.156 SA
BRANCH  14  15
HETATM   15  C8  UNL     1      -3.127   3.001  -0.540  1.00  0.00     0.186 C 
BRANCH  15  16
HETATM   16  C9  UNL     1      -2.292   4.160  -0.949  1.00  0.00     0.182 C 
HETATM   17  O3  UNL     1      -1.285   4.053  -1.663  1.00  0.00    -0.647 OA
HETATM   18  O4  UNL     1      -2.661   5.429  -0.505  1.00  0.00    -0.647 OA
ENDBRANCH  15  16
ENDBRANCH  14  15
ENDBRANCH  13  14
ENDBRANCH   1  13
BRANCH   1  19
HETATM   19  N3  UNL     1       0.424  -0.110  -0.641  1.00  0.00    -0.400 N 
ATOM     20  H3  UNL     1       0.388  -0.318  -1.639  1.00  0.00     0.154 HD
BRANCH  19  21
HETATM   21  C10 UNL     1       1.688  -0.228  -0.158  1.00  0.00     0.027 C 
HETATM   22  C11 UNL     1       2.293   1.143   0.200  1.00  0.00     0.035 C 
HETATM   23  C12 UNL     1       3.805   1.085   0.302  1.00  0.00    -0.012 C 
HETATM   24  C13 UNL     1       4.448   0.548  -0.931  1.00  0.00     0.009 C 
HETATM   25  C17 UNL     1       4.153   0.196   1.466  1.00  0.00     0.009 C 
HETATM   26  C14 UNL     1       3.949  -0.851  -1.139  1.00  0.00    -0.012 C 
HETATM   27  C15 UNL     1       4.232  -1.772   0.033  1.00  0.00     0.009 C 
HETATM   28  C19 UNL     1       2.496  -0.811  -1.342  1.00  0.00     0.035 C 
HETATM   29  C16 UNL     1       3.537  -1.159   1.215  1.00  0.00    -0.012 C 
HETATM   30  C18 UNL     1       2.025  -1.089   1.020  1.00  0.00     0.035 C 
ENDBRANCH  19  21
ENDBRANCH   1  19
TORSDOF 7
