REMARK  8 active torsions:
REMARK  status: ('A' for Active; 'I' for Inactive)
REMARK    1  A    between atoms: C2_2  and  C3_3 
REMARK       I    between atoms: C3_3  and  N1_5 
REMARK    2  A    between atoms: N1_5  and  N2_7 
REMARK    3  A    between atoms: C4_9  and  C5_10 
REMARK    4  A    between atoms: C8_13  and  C9_14 
REMARK    5  A    between atoms: C10_15  and  C11_16 
REMARK       I    between atoms: C11_16  and  N3_18 
REMARK    6  A    between atoms: N3_18  and  C12_20 
REMARK    7  A    between atoms: C15_23  and  S1_24 
REMARK    8  A    between atoms: S1_24  and  N4_25 
ROOT
HETATM    1  C9  UNL     1      -0.170   0.337   0.636  1.00  0.00     0.017 C 
HETATM    2  C10 UNL     1       0.172  -0.205  -0.490  1.00  0.00     0.075 C 
ENDROOT
BRANCH   2   3
HETATM    3  C11 UNL     1       1.574  -0.519  -0.814  1.00  0.00     0.245 C 
HETATM    4  O2  UNL     1       1.751  -1.052  -1.965  1.00  0.00    -0.268 OA
HETATM    5  N3  UNL     1       2.649  -0.271   0.040  1.00  0.00    -0.324 N 
ATOM      6  H3  UNL     1       2.427   0.149   0.943  1.00  0.00     0.169 HD
BRANCH   5   7
HETATM    7  C12 UNL     1       4.010  -0.540  -0.213  1.00  0.00     0.035 A 
HETATM    8  C13 UNL     1       4.557  -0.793  -1.440  1.00  0.00     0.031 A 
HETATM    9  C14 UNL     1       5.902  -1.076  -1.654  1.00  0.00     0.027 A 
HETATM   10  C15 UNL     1       6.751  -1.106  -0.571  1.00  0.00     0.079 A 
HETATM   11  C16 UNL     1       6.234  -0.857   0.674  1.00  0.00     0.027 A 
HETATM   12  C17 UNL     1       4.911  -0.580   0.872  1.00  0.00     0.031 A 
BRANCH  10  13
HETATM   13  S1  UNL     1       8.444  -1.458  -0.801  1.00  0.00     0.256 S 
HETATM   14  O3  UNL     1       8.609  -2.368  -1.992  1.00  0.00    -0.201 OA
HETATM   15  O4  UNL     1       9.008  -2.151   0.419  1.00  0.00    -0.201 OA
BRANCH  13  16
HETATM   16  N4  UNL     1       9.356  -0.008  -1.075  1.00  0.00    -0.324 N 
ATOM     17  H42 UNL     1       8.941   0.923  -1.096  1.00  0.00     0.169 HD
ATOM     18  H41 UNL     1      10.346  -0.214  -1.209  1.00  0.00     0.169 HD
ENDBRANCH  13  16
ENDBRANCH  10  13
ENDBRANCH   5   7
ENDBRANCH   2   3
BRANCH   1  19
HETATM   19  C8  UNL     1      -1.541   0.664   1.000  1.00  0.00    -0.036 A 
HETATM   20  C7  UNL     1      -1.841   1.240   2.213  1.00  0.00     0.012 A 
HETATM   21  C6  UNL     1      -3.120   1.559   2.583  1.00  0.00     0.013 A 
HETATM   22  C5  UNL     1      -4.212   1.314   1.732  1.00  0.00    -0.019 A 
HETATM   23  C19 UNL     1      -3.897   0.742   0.529  1.00  0.00     0.013 A 
HETATM   24  C18 UNL     1      -2.591   0.421   0.163  1.00  0.00     0.012 A 
BRANCH  22  25
HETATM   25  C4  UNL     1      -5.551   1.668   2.161  1.00  0.00     0.118 C 
HETATM   26  N2  UNL     1      -6.656   1.559   1.613  1.00  0.00    -0.308 N 
ATOM     27  H2  UNL     1      -7.435   1.903   2.174  1.00  0.00     0.186 HD
BRANCH  26  28
HETATM   28  N1  UNL     1      -7.019   1.069   0.411  1.00  0.00    -0.267 N 
HETATM   29  C3  UNL     1      -7.711  -0.160   0.285  1.00  0.00     0.258 C 
HETATM   30  O1  UNL     1      -7.982  -0.794   1.339  1.00  0.00    -0.267 OA
ATOM     31  H1  UNL     1      -6.789   1.598  -0.430  1.00  0.00     0.190 HD
BRANCH  29  32
HETATM   32  C2  UNL     1      -8.124  -0.726  -1.009  1.00  0.00     0.065 C 
HETATM   33  C1  UNL     1      -7.890  -0.146  -2.156  1.00  0.00     0.017 C 
ENDBRANCH  29  32
ENDBRANCH  26  28
ENDBRANCH  22  25
ENDBRANCH   1  19
TORSDOF 8
