REMARK  9 active torsions:
REMARK  status: ('A' for Active; 'I' for Inactive)
REMARK    1  A    between atoms: O1_2  and  C2_3 
REMARK       I    between atoms: C2_3  and  N1_5 
REMARK    2  A    between atoms: C3_7  and  N2_8 
REMARK    3  A    between atoms: C3_7  and  C15_27 
REMARK    4  A    between atoms: N2_8  and  C4_10 
REMARK    5  A    between atoms: C4_10  and  C5_11 
REMARK    6  A    between atoms: C4_10  and  C12_24 
REMARK       I    between atoms: C5_11  and  N3_13 
REMARK    7  A    between atoms: N3_13  and  C6_15 
REMARK    8  A    between atoms: C6_15  and  C7_16 
REMARK    9  A    between atoms: C6_15  and  C8_19 
ROOT
HETATM    1  C4  UNL     1      -0.316  -0.835  -0.351  1.00  0.00     0.178 C 
ENDROOT
BRANCH   1   2
HETATM    2  N2  UNL     1      -0.750   0.098   0.641  1.00  0.00    -0.362 N 
ATOM      3  H2  UNL     1      -0.056   0.575   1.217  1.00  0.00     0.162 HD
BRANCH   2   4
HETATM    4  C3  UNL     1      -2.156   0.379   0.844  1.00  0.00     0.116 C 
HETATM    5  N1  UNL     1      -2.761   1.385   0.748  1.00  0.00    -0.288 N 
HETATM    6  C2  UNL     1      -2.970   2.683   0.519  1.00  0.00     0.365 C 
ATOM      7  H1  UNL     1      -3.702   1.072   0.986  1.00  0.00     0.172 HD
HETATM    8  O2  UNL     1      -2.028   3.530   0.460  1.00  0.00    -0.238 OA
BRANCH   6   9
HETATM    9  O1  UNL     1      -4.252   3.231   0.323  1.00  0.00    -0.309 OA
HETATM   10  C1  UNL     1      -4.562   4.574   0.066  1.00  0.00     0.215 C 
ENDBRANCH   6   9
BRANCH   4  11
HETATM   11  C15 UNL     1      -2.983  -0.826   1.238  1.00  0.00     0.008 A 
HETATM   12  C16 UNL     1      -3.096  -1.154   2.562  1.00  0.00     0.015 A 
HETATM   13  C17 UNL     1      -3.884  -2.190   2.976  1.00  0.00     0.001 A 
HETATM   14  C18 UNL     1      -4.555  -2.882   2.005  1.00  0.00     0.000 A 
HETATM   15  C19 UNL     1      -4.459  -2.577   0.659  1.00  0.00     0.001 A 
HETATM   16  C20 UNL     1      -3.654  -1.532   0.286  1.00  0.00     0.015 A 
ENDBRANCH   4  11
ENDBRANCH   2   4
ENDBRANCH   1   2
BRANCH   1  17
HETATM   17  C5  UNL     1       1.115  -1.208  -0.087  1.00  0.00     0.241 C 
HETATM   18  O3  UNL     1       1.343  -2.316   0.488  1.00  0.00    -0.271 OA
HETATM   19  N3  UNL     1       2.219  -0.404  -0.418  1.00  0.00    -0.341 N 
ATOM     20  H3  UNL     1       2.018   0.505  -0.834  1.00  0.00     0.163 HD
BRANCH  19  21
HETATM   21  C6  UNL     1       3.606  -0.739  -0.227  1.00  0.00     0.231 C 
BRANCH  21  22
HETATM   22  C7  UNL     1       4.242  -0.828  -1.579  1.00  0.00     0.260 C 
HETATM   23  N4  UNL     1       5.518  -0.285  -1.906  1.00  0.00    -0.060 NA
HETATM   24  O4  UNL     1       3.627  -1.408  -2.499  1.00  0.00    -0.274 OA
ENDBRANCH  21  22
BRANCH  21  25
HETATM   25  C8  UNL     1       4.398   0.126   0.624  1.00  0.00     0.084 A 
HETATM   26  C9  UNL     1       4.126   0.551   1.896  1.00  0.00     0.037 A 
HETATM   27  C10 UNL     1       5.164   1.378   2.335  1.00  0.00     0.027 A 
HETATM   28  C11 UNL     1       6.031   1.411   1.270  1.00  0.00     0.142 A 
HETATM   29  O5  UNL     1       5.567   0.697   0.324  1.00  0.00    -0.324 OA
ENDBRANCH  21  25
ENDBRANCH  19  21
ENDBRANCH   1  17
BRANCH   1  30
HETATM   30  C12 UNL     1      -0.644  -0.585  -1.753  1.00  0.00     0.009 C 
HETATM   31  C13 UNL     1      -0.266  -1.799  -2.649  1.00  0.00     0.012 C 
HETATM   32  C14 UNL     1       0.117   0.546  -2.444  1.00  0.00     0.012 C 
ENDBRANCH   1  30
TORSDOF 9
