REMARK  9 active torsions:
REMARK  status: ('A' for Active; 'I' for Inactive)
REMARK    1  A    between atoms: C2_2  and  C3_3 
REMARK    2  A    between atoms: C3_3  and  C5_5 
REMARK    3  A    between atoms: C5_5  and  C6_6 
REMARK    4  A    between atoms: C5_5  and  C18_29 
REMARK       I    between atoms: C6_6  and  N1_8 
REMARK    5  A    between atoms: N1_8  and  C7_10 
REMARK    6  A    between atoms: C7_10  and  C9_12 
REMARK       I    between atoms: C9_12  and  N2_14 
REMARK    7  A    between atoms: C11_16  and  C12_17 
REMARK    8  A    between atoms: C14_21  and  C15_22 
REMARK    9  A    between atoms: N3_23  and  O5_25 
ROOT
HETATM    1  C9  UNL     1       1.218   0.464  -0.089  1.00  0.00     0.242 C 
HETATM    2  O2  UNL     1       0.894   1.613  -0.538  1.00  0.00    -0.271 OA
HETATM    3  N2  UNL     1       2.562   0.162   0.254  1.00  0.00    -0.344 N 
HETATM    4  C10 UNL     1       3.057  -1.048   0.874  1.00  0.00     0.147 C 
HETATM    5  C11 UNL     1       4.543  -0.783   1.077  1.00  0.00     0.067 C 
HETATM    6  C13 UNL     1       4.694   0.306   2.092  1.00  0.00     0.034 C 
HETATM    7  C14 UNL     1       4.171   1.530   1.359  1.00  0.00     0.050 C 
HETATM    8  C16 UNL     1       3.701   1.018   0.013  1.00  0.00     0.097 C 
HETATM    9  C17 UNL     1       4.803  -0.022  -0.229  1.00  0.00     0.048 C 
ENDROOT
BRANCH   1  10
HETATM   10  C7  UNL     1       0.175  -0.560   0.068  1.00  0.00     0.172 C 
HETATM   11  C8  UNL     1       0.291  -1.478  -1.204  1.00  0.00     0.042 C 
BRANCH  10  12
HETATM   12  N1  UNL     1      -1.165   0.026  -0.007  1.00  0.00    -0.348 N 
HETATM   13  C6  UNL     1      -2.293  -0.778   0.190  1.00  0.00     0.223 C 
HETATM   14  O1  UNL     1      -2.105  -2.000   0.400  1.00  0.00    -0.273 OA
ATOM     15  H1  UNL     1      -1.276   1.021  -0.203  1.00  0.00     0.163 HD
BRANCH  13  16
HETATM   16  C5  UNL     1      -3.638  -0.164   0.154  1.00  0.00     0.085 C 
BRANCH  16  17
HETATM   17  C3  UNL     1      -3.768   0.694  -1.037  1.00  0.00    -0.006 C 
HETATM   18  C4  UNL     1      -4.937   1.645  -1.078  1.00  0.00     0.011 C 
BRANCH  17  19
HETATM   19  C2  UNL     1      -3.595   0.008  -2.377  1.00  0.00     0.000 C 
HETATM   20  C1  UNL     1      -3.340   1.172  -3.358  1.00  0.00     0.005 C 
ENDBRANCH  17  19
ENDBRANCH  16  17
BRANCH  16  21
HETATM   21  C18 UNL     1      -4.664  -1.262   0.269  1.00  0.00    -0.009 C 
HETATM   22  C19 UNL     1      -4.372  -2.039   1.542  1.00  0.00     0.010 C 
HETATM   23  C20 UNL     1      -6.085  -0.724   0.427  1.00  0.00     0.010 C 
ENDBRANCH  16  21
ENDBRANCH  13  16
ENDBRANCH  10  12
ENDBRANCH   1  10
BRANCH   5  24
HETATM   24  C12 UNL     1       5.353  -1.951   1.280  1.00  0.00     0.183 C 
HETATM   25  O3  UNL     1       6.323  -2.283   0.520  1.00  0.00    -0.647 OA
HETATM   26  O4  UNL     1       5.092  -2.779   2.350  1.00  0.00    -0.647 OA
ENDBRANCH   5  24
BRANCH   7  27
HETATM   27  C15 UNL     1       5.172   2.610   1.227  1.00  0.00     0.093 C 
HETATM   28  N3  UNL     1       6.154   2.718   2.022  1.00  0.00    -0.284 N 
ATOM     29  H3  UNL     1       6.256   2.040   2.777  1.00  0.00     0.192 HD
BRANCH  28  30
HETATM   30  O5  UNL     1       7.088   3.724   1.896  1.00  0.00    -0.291 OA
ATOM     31  H5  UNL     1       7.824   3.805   2.492  1.00  0.00     0.244 HD
ENDBRANCH  28  30
ENDBRANCH   7  27
TORSDOF 9
