REMARK  8 active torsions:
REMARK  status: ('A' for Active; 'I' for Inactive)
REMARK       I    between atoms: C2_2  and  N1_4 
REMARK    1  A    between atoms: N1_4  and  C3_6 
REMARK    2  A    between atoms: C3_6  and  C4_7 
REMARK    3  A    between atoms: C4_7  and  C5_8 
REMARK    4  A    between atoms: C4_7  and  C7_13 
REMARK    5  A    between atoms: C5_8  and  C6_10 
REMARK    6  A    between atoms: C7_13  and  O5_14 
REMARK    7  A    between atoms: C7_13  and  C8_16 
REMARK    8  A    between atoms: C9_17  and  C10_18 
ROOT
HETATM    1  C8  UNL     1       0.628   1.172  -0.518  1.00  0.00     0.002 C 
HETATM    2  C9  UNL     1      -0.233   0.795   0.434  1.00  0.00    -0.022 C 
ENDROOT
BRANCH   1   3
HETATM    3  C7  UNL     1       2.009   1.445  -0.192  1.00  0.00     0.154 C 
BRANCH   3   4
HETATM    4  C4  UNL     1       3.074   0.566  -0.812  1.00  0.00     0.117 C 
BRANCH   4   5
HETATM    5  C3  UNL     1       4.397   1.063  -0.159  1.00  0.00     0.138 C 
BRANCH   5   6
HETATM    6  N1  UNL     1       5.483   0.291  -0.691  1.00  0.00    -0.361 N 
HETATM    7  C2  UNL     1       6.799   0.550  -0.263  1.00  0.00     0.213 C 
HETATM    8  C1  UNL     1       7.916  -0.267  -0.828  1.00  0.00     0.117 C 
HETATM    9  O1  UNL     1       7.014   1.459   0.584  1.00  0.00    -0.274 OA
ATOM     10  H1  UNL     1       5.302  -0.442  -1.376  1.00  0.00     0.162 HD
ENDBRANCH   5   6
ENDBRANCH   4   5
BRANCH   4  11
HETATM   11  C5  UNL     1       2.984  -0.850  -0.456  1.00  0.00     0.233 C 
HETATM   12  O2  UNL     1       3.710  -1.386   0.439  1.00  0.00    -0.285 OA
BRANCH  11  13
HETATM   13  C6  UNL     1       2.042  -1.727  -1.116  1.00  0.00     0.247 C 
HETATM   14  O3  UNL     1       1.330  -1.332  -2.049  1.00  0.00    -0.642 OA
HETATM   15  O4  UNL     1       1.880  -3.065  -0.740  1.00  0.00    -0.642 OA
ENDBRANCH  11  13
ENDBRANCH   4  11
ENDBRANCH   3   4
BRANCH   3  16
HETATM   16  O5  UNL     1       2.314   2.781  -0.529  1.00  0.00    -0.391 OA
ATOM     17  H5  UNL     1       1.646   3.333  -0.140  1.00  0.00     0.210 HD
ENDBRANCH   3  16
ENDBRANCH   1   3
BRANCH   2  18
HETATM   18  C10 UNL     1      -1.666   0.506   0.142  1.00  0.00     0.021 C 
HETATM   19  C11 UNL     1      -1.895  -0.921   0.160  1.00  0.00     0.010 C 
HETATM   20  C12 UNL     1      -1.802  -1.676   1.435  1.00  0.00     0.014 C 
HETATM   21  C15 UNL     1      -3.193  -1.414  -0.416  1.00  0.00     0.021 C 
HETATM   22  C13 UNL     1      -2.035  -3.107   0.913  1.00  0.00     0.079 C 
HETATM   23  C14 UNL     1      -3.206  -2.844   0.012  1.00  0.00     0.135 C 
HETATM   24  O6  UNL     1      -4.070  -3.624  -0.355  1.00  0.00    -0.297 OA
HETATM   25  C16 UNL     1      -3.124  -1.386  -1.905  1.00  0.00     0.024 C 
HETATM   26  C17 UNL     1      -4.395  -0.749   0.175  1.00  0.00     0.017 C 
HETATM   27  C18 UNL     1      -4.587   0.660  -0.210  1.00  0.00     0.002 C 
HETATM   28  C19 UNL     1      -3.875   1.681   0.590  1.00  0.00     0.009 C 
HETATM   29  C20 UNL     1      -2.473   1.430   0.962  1.00  0.00    -0.040 C 
HETATM   30  C21 UNL     1      -1.747   2.788   0.789  1.00  0.00     0.015 C 
HETATM   31  C22 UNL     1      -2.341   1.170   2.466  1.00  0.00     0.015 C 
ENDBRANCH   2  18
TORSDOF 8
