REMARK  1 active torsions:
REMARK  status: ('A' for Active; 'I' for Inactive)
REMARK    1  A    between atoms: N1_1  and  C1_5 
ROOT
HETATM    1  C1  UNL     1      -1.158   0.974  -0.039  1.00  0.00     0.189 C 
HETATM    2  C2  UNL     1       0.200   1.547  -0.036  1.00  0.00     0.040 C 
HETATM    3  C3  UNL     1       1.340   0.660  -0.341  1.00  0.00     0.015 C 
HETATM    4  C4  UNL     1       2.099   0.259   0.909  1.00  0.00     0.198 C 
HETATM    5  O1  UNL     1       1.888  -1.049   1.277  1.00  0.00    -0.303 OA
HETATM    6  N2  UNL     1       0.677  -1.515   0.997  1.00  0.00    -0.192 NA
HETATM    7  C5  UNL     1      -0.377  -0.749   1.566  1.00  0.00     0.128 C 
HETATM    8  C6  UNL     1      -1.330  -0.395   0.471  1.00  0.00     0.033 C 
HETATM    9  C7  UNL     1      -1.092  -1.486  -0.542  1.00  0.00     0.030 C 
HETATM   10  C8  UNL     1       0.430  -1.640  -0.428  1.00  0.00     0.087 C 
HETATM   11  C9  UNL     1       1.016  -0.519  -1.218  1.00  0.00     0.029 C 
ENDROOT
BRANCH   1  12
HETATM   12  N1  UNL     1      -1.777   1.132  -1.365  1.00  0.00    -0.075 N 
ATOM     13  H13 UNL     1      -1.774   2.105  -1.673  1.00  0.00     0.274 HD
ATOM     14  H12 UNL     1      -1.196   0.738  -2.105  1.00  0.00     0.274 HD
ATOM     15  H11 UNL     1      -2.717   0.735  -1.367  1.00  0.00     0.274 HD
ENDBRANCH   1  12
TORSDOF 1
