REMARK  0 active torsions:
REMARK  status: ('A' for Active; 'I' for Inactive)
ROOT
HETATM    1  C1  UNL     1       3.312  -0.240   0.139  1.00  0.00     0.044 C 
HETATM    2  C2  UNL     1       2.378   0.514  -0.751  1.00  0.00     0.165 A 
HETATM    3  O1  UNL     1       1.720  -0.369  -1.695  1.00  0.00    -0.358 OA
HETATM    4  C3  UNL     1       0.970   0.271  -0.721  1.00  0.00     0.137 A 
HETATM    5  C4  UNL     1       0.348  -0.488   0.392  1.00  0.00     0.068 C 
HETATM    6  C5  UNL     1      -0.911  -1.200   0.081  1.00  0.00     0.115 C 
HETATM    7  N1  UNL     1      -1.910  -0.588  -0.642  1.00  0.00    -0.219 NA
HETATM    8  N2  UNL     1      -3.053  -0.233   0.125  1.00  0.00    -0.162 NA
HETATM    9  C6  UNL     1      -2.672   1.179   0.025  1.00  0.00     0.160 C 
HETATM   10  C7  UNL     1      -1.852   0.687  -1.147  1.00  0.00     0.156 C 
HETATM   11  S1  UNL     1      -0.258   1.468  -1.318  1.00  0.00    -0.106 SA
ENDROOT
TORSDOF 0
