REMARK  3 active torsions:
REMARK  status: ('A' for Active; 'I' for Inactive)
REMARK    1  A    between atoms: O1_1  and  N1_3 
REMARK    2  A    between atoms: N1_3  and  N3_8 
REMARK    3  A    between atoms: N2_4  and  O2_6 
ROOT
HETATM    1  N1  UNL     1       1.774   0.324   0.749  1.00  0.00    -0.076 N 
HETATM    2  N2  UNL     1       2.672   0.024  -0.094  1.00  0.00    -0.168 N 
ATOM      3  H2  UNL     1       2.396  -0.167  -1.057  1.00  0.00     0.220 HD
ENDROOT
BRANCH   1   4
HETATM    4  O1  UNL     1       2.162   0.577   2.033  1.00  0.00    -0.252 OA
ATOM      5  H1  UNL     1       1.489   0.802   2.665  1.00  0.00     0.248 HD
ENDBRANCH   1   4
BRANCH   1   6
HETATM    6  N3  UNL     1       0.460   0.373   0.301  1.00  0.00    -0.276 N 
HETATM    7  C1  UNL     1      -0.126  -0.833  -0.222  1.00  0.00     0.148 C 
HETATM    8  C2  UNL     1      -1.532  -1.078   0.283  1.00  0.00     0.032 C 
HETATM    9  C3  UNL     1      -2.464  -0.204  -0.522  1.00  0.00     0.077 C 
HETATM   10  S1  UNL     1      -1.897   1.507  -0.394  1.00  0.00    -0.147 SA
HETATM   11  C4  UNL     1      -0.262   1.615   0.375  1.00  0.00     0.220 C 
ENDBRANCH   1   6
BRANCH   2  12
HETATM   12  O2  UNL     1       4.013  -0.054   0.243  1.00  0.00    -0.271 OA
ATOM     13  H2  UNL     1       4.686  -0.279  -0.389  1.00  0.00     0.246 HD
ENDBRANCH   2  12
TORSDOF 3
