REMARK  1 active torsions:
REMARK  status: ('A' for Active; 'I' for Inactive)
REMARK    1  A    between atoms: N1_1  and  N2_4 
ROOT
HETATM    1  N2  UNL     1       3.494   1.422  -0.649  1.00  0.00    -0.298 N 
ATOM      2  H2  UNL     1       3.423   2.390  -0.963  1.00  0.00     0.187 HD
HETATM    3  C1  UNL     1       2.455   0.854  -0.156  1.00  0.00     0.127 C 
HETATM    4  S1  UNL     1       0.835   1.599   0.049  1.00  0.00    -0.076 SA
HETATM    5  C2  UNL     1      -0.002  -0.015   0.328  1.00  0.00     0.086 C 
HETATM    6  C3  UNL     1      -0.864   0.098   1.517  1.00  0.00     0.043 C 
HETATM    7  C4  UNL     1      -2.265   0.548   1.275  1.00  0.00     0.003 C 
HETATM    8  C5  UNL     1      -3.046  -0.471   0.460  1.00  0.00     0.000 C 
HETATM    9  C6  UNL     1      -3.084  -0.019  -0.963  1.00  0.00     0.000 C 
HETATM   10  C7  UNL     1      -1.761   0.540  -1.380  1.00  0.00     0.003 C 
HETATM   11  C8  UNL     1      -0.680  -0.419  -0.941  1.00  0.00     0.043 C 
HETATM   12  N3  UNL     1       1.099  -0.859   0.575  1.00  0.00    -0.357 N 
ATOM     13  H3  UNL     1       0.934  -1.798   0.939  1.00  0.00     0.162 HD
HETATM   14  C9  UNL     1       2.263  -0.489   0.361  1.00  0.00     0.148 C 
HETATM   15  N4  UNL     1       3.390  -1.376   0.622  1.00  0.00    -0.080 NA
ENDROOT
BRANCH   1  16
HETATM   16  N1  UNL     1       4.698   0.773  -0.769  1.00  0.00    -0.344 N 
ATOM     17  H12 UNL     1       4.751  -0.194  -0.450  1.00  0.00     0.176 HD
ATOM     18  H11 UNL     1       5.524   1.225  -1.161  1.00  0.00     0.176 HD
ENDBRANCH   1  16
TORSDOF 1
