REMARK  3 active torsions:
REMARK  status: ('A' for Active; 'I' for Inactive)
REMARK    1  A    between atoms: O1_2  and  C2_3 
REMARK       I    between atoms: C2_3  and  N1_5 
REMARK    2  A    between atoms: C3_6  and  O3_7 
REMARK    3  A    between atoms: N2_12  and  O4_13 
ROOT
HETATM    1  C2  UNL     1       1.939   0.192   0.638  1.00  0.00     0.366 C 
HETATM    2  O2  UNL     1       2.385   1.175   1.282  1.00  0.00    -0.238 OA
HETATM    3  N1  UNL     1       0.533   0.043   0.463  1.00  0.00    -0.276 N 
HETATM    4  C3  UNL     1      -0.486   0.944   0.971  1.00  0.00     0.251 C 
HETATM    5  C4  UNL     1      -1.472   0.952  -0.171  1.00  0.00     0.078 C 
HETATM    6  C5  UNL     1      -1.047   2.067  -1.116  1.00  0.00     0.039 C 
HETATM    7  C6  UNL     1      -2.885   1.197   0.271  1.00  0.00     0.039 C 
HETATM    8  N2  UNL     1      -1.271  -0.286  -0.850  1.00  0.00    -0.158 NA
HETATM    9  C7  UNL     1      -0.197  -0.993  -0.231  1.00  0.00     0.112 C 
HETATM   10  C8  UNL     1      -0.669  -2.001   0.796  1.00  0.00     0.058 C 
HETATM   11  C9  UNL     1       0.610  -1.687  -1.280  1.00  0.00     0.058 C 
ENDROOT
BRANCH   1  12
HETATM   12  O1  UNL     1       2.855  -0.703   0.128  1.00  0.00    -0.309 OA
HETATM   13  C1  UNL     1       4.252  -0.573   0.291  1.00  0.00     0.215 C 
ENDBRANCH   1  12
BRANCH   4  14
HETATM   14  O3  UNL     1       0.025   2.211   1.245  1.00  0.00    -0.374 OA
ATOM     15  H3  UNL     1      -0.642   2.801   1.577  1.00  0.00     0.212 HD
ENDBRANCH   4  14
BRANCH   8  16
HETATM   16  O4  UNL     1      -2.393  -1.015  -0.995  1.00  0.00    -0.310 OA
ATOM     17  H4  UNL     1      -2.259  -1.840  -1.447  1.00  0.00     0.237 HD
ENDBRANCH   8  16
TORSDOF 3
