REMARK  1 active torsions:
REMARK  status: ('A' for Active; 'I' for Inactive)
REMARK    1  A    between atoms: O1_1  and  C1_3 
ROOT
HETATM    1  C1  UNL     1      -1.422   0.215   1.147  1.00  0.00     0.147 C 
HETATM    2  C2  UNL     1      -0.385  -0.832   1.526  1.00  0.00     0.202 C 
HETATM    3  O2  UNL     1       0.812  -0.390   1.009  1.00  0.00    -0.356 OA
HETATM    4  C3  UNL     1       1.210  -1.016  -0.131  1.00  0.00     0.321 C 
HETATM    5  C4  UNL     1       0.360  -0.837  -1.323  1.00  0.00     0.062 C 
HETATM    6  C5  UNL     1      -1.113  -0.885  -1.093  1.00  0.00     0.012 C 
HETATM    7  C6  UNL     1      -1.670   0.274  -0.331  1.00  0.00     0.027 C 
HETATM    8  C7  UNL     1      -1.275   1.594  -0.949  1.00  0.00     0.093 C 
HETATM    9  S1  UNL     1      -0.009   2.463  -0.027  1.00  0.00    -0.096 SA
HETATM   10  S2  UNL     1       1.941   2.124  -0.729  1.00  0.00    -0.070 SA
HETATM   11  C8  UNL     1       2.776   0.784   0.161  1.00  0.00     0.321 C 
HETATM   12  N1  UNL     1       2.552  -0.508  -0.461  1.00  0.00    -0.040 N 
ATOM     13  H11 UNL     1       2.707  -0.475  -1.469  1.00  0.00     0.281 HD
ATOM     14  H12 UNL     1       3.281  -1.178  -0.216  1.00  0.00     0.281 HD
ENDROOT
BRANCH   1  15
HETATM   15  O1  UNL     1      -2.598   0.004   1.886  1.00  0.00    -0.393 OA
ATOM     16  H1  UNL     1      -3.245   0.658   1.649  1.00  0.00     0.210 HD
ENDBRANCH   1  15
TORSDOF 1
