REMARK  3 active torsions:
REMARK  status: ('A' for Active; 'I' for Inactive)
REMARK    1  A    between atoms: C4_5  and  N2_6 
REMARK    2  A    between atoms: N2_6  and  C5_9 
REMARK    3  A    between atoms: C5_9  and  C6_10 
ROOT
HETATM    1  N2  UNL     1       0.534  -0.363   0.690  1.00  0.00    -0.069 N 
ATOM      2  H21 UNL     1       0.460  -1.104  -0.007  1.00  0.00     0.277 HD
ATOM      3  H22 UNL     1       0.668  -0.937   1.523  1.00  0.00     0.277 HD
ENDROOT
BRANCH   1   4
HETATM    4  C4  UNL     1      -0.688   0.400   0.773  1.00  0.00     0.215 C 
HETATM    5  C3  UNL     1      -0.908   1.066  -0.572  1.00  0.00     0.065 C 
HETATM    6  C2  UNL     1      -2.369   0.797  -0.843  1.00  0.00     0.274 C 
HETATM    7  N1  UNL     1      -2.923   0.157   0.330  1.00  0.00     0.086 N 
HETATM    8  C1  UNL     1      -3.980  -0.751  -0.128  1.00  0.00     0.310 C 
HETATM    9  C9  UNL     1      -1.828  -0.611   0.843  1.00  0.00     0.304 C 
ENDBRANCH   1   4
BRANCH   1  10
HETATM   10  C5  UNL     1       1.682   0.474   0.442  1.00  0.00     0.237 C 
BRANCH  10  11
HETATM   11  C6  UNL     1       2.895  -0.440   0.378  1.00  0.00     0.011 A 
HETATM   12  C7  UNL     1       4.202   0.218   0.127  1.00  0.00     0.007 A 
HETATM   13  C8  UNL     1       3.530  -0.587  -0.953  1.00  0.00     0.007 A 
ENDBRANCH  10  11
ENDBRANCH   1  10
TORSDOF 3
