REMARK  4 active torsions:
REMARK  status: ('A' for Active; 'I' for Inactive)
REMARK    1  A    between atoms: N1_2  and  C3_4 
REMARK    2  A    between atoms: C3_4  and  C4_5 
REMARK    3  A    between atoms: C6_7  and  C7_8 
REMARK    4  A    between atoms: C10_11  and  N2_12 
ROOT
HETATM    1  C4  UNL     1       0.384  -0.323  -1.111  1.00  0.00     0.045 C 
HETATM    2  C5  UNL     1      -0.452  -1.222  -0.270  1.00  0.00     0.015 C 
HETATM    3  C6  UNL     1      -1.642  -0.424  -0.858  1.00  0.00     0.021 C 
HETATM    4  C10 UNL     1      -0.661   0.758  -0.737  1.00  0.00     0.193 C 
ENDROOT
BRANCH   1   5
HETATM    5  C3  UNL     1       1.769   0.023  -0.820  1.00  0.00     0.278 C 
BRANCH   5   6
HETATM    6  N1  UNL     1       2.110   0.688   0.385  1.00  0.00     0.080 N 
HETATM    7  C1  UNL     1       3.534   1.084   0.242  1.00  0.00     0.309 C 
HETATM    8  C2  UNL     1       2.107  -0.323   1.470  1.00  0.00     0.309 C 
ENDBRANCH   5   6
ENDBRANCH   1   5
BRANCH   4   9
HETATM    9  N2  UNL     1      -0.838   1.774  -1.715  1.00  0.00    -0.074 N 
ATOM     10  H23 UNL     1       0.057   2.209  -1.940  1.00  0.00     0.274 HD
ATOM     11  H22 UNL     1      -1.065   1.360  -2.619  1.00  0.00     0.274 HD
ATOM     12  H21 UNL     1      -1.526   2.486  -1.469  1.00  0.00     0.274 HD
ENDBRANCH   4   9
BRANCH   3  13
HETATM   13  C7  UNL     1      -2.850  -0.335  -0.020  1.00  0.00    -0.008 A 
HETATM   14  C8  UNL     1      -2.845   0.244   1.342  1.00  0.00     0.005 A 
HETATM   15  C9  UNL     1      -3.039  -1.230   1.214  1.00  0.00     0.005 A 
ENDBRANCH   3  13
TORSDOF 4
