REMARK  4 active torsions:
REMARK  status: ('A' for Active; 'I' for Inactive)
REMARK    1  A    between atoms: C5_5  and  O1_6 
REMARK    2  A    between atoms: O1_6  and  C6_7 
REMARK    3  A    between atoms: C6_7  and  C7_8 
REMARK    4  A    between atoms: C7_8  and  N1_9 
ROOT
HETATM    1  C1  UNL     1      -2.920  -0.805   0.763  1.00  0.00     0.011 C 
HETATM    2  C2  UNL     1      -2.470  -0.027  -0.431  1.00  0.00    -0.008 C 
HETATM    3  C3  UNL     1      -1.789   1.295  -0.110  1.00  0.00    -0.007 C 
HETATM    4  C4  UNL     1      -0.792   0.894   0.922  1.00  0.00     0.037 C 
HETATM    5  C5  UNL     1      -0.165  -0.327   0.219  1.00  0.00     0.126 C 
HETATM    6  C8  UNL     1      -1.091  -0.399  -0.958  1.00  0.00     0.019 C 
HETATM    7  C9  UNL     1      -1.038   1.062  -1.428  1.00  0.00     0.012 C 
ENDROOT
BRANCH   5   8
HETATM    8  O1  UNL     1       1.104  -0.026  -0.250  1.00  0.00    -0.384 OA
BRANCH   8   9
HETATM    9  C6  UNL     1       2.064  -0.918   0.218  1.00  0.00     0.195 C 
BRANCH   9  10
HETATM   10  C7  UNL     1       3.444  -0.577  -0.302  1.00  0.00     0.255 C 
BRANCH  10  11
HETATM   11  N1  UNL     1       3.809   0.748   0.130  1.00  0.00    -0.077 N 
ATOM     12  H13 UNL     1       3.114   1.445  -0.137  1.00  0.00     0.274 HD
ATOM     13  H12 UNL     1       3.742   0.855   1.142  1.00  0.00     0.274 HD
ATOM     14  H11 UNL     1       4.739   0.978  -0.220  1.00  0.00     0.274 HD
ENDBRANCH  10  11
ENDBRANCH   9  10
ENDBRANCH   8   9
ENDBRANCH   5   8
TORSDOF 4
