REMARK  5 active torsions:
REMARK  status: ('A' for Active; 'I' for Inactive)
REMARK    1  A    between atoms: C2_2  and  C4_5 
REMARK    2  A    between atoms: C4_5  and  C5_6 
REMARK    3  A    between atoms: C6_7  and  C7_8 
REMARK    4  A    between atoms: C9_10  and  C10_11 
REMARK    5  A    between atoms: C10_11  and  O1_12 
ROOT
HETATM    1  C7  UNL     1      -0.754   0.462   1.132  1.00  0.00     0.075 C 
HETATM    2  C8  UNL     1      -1.760  -0.651   1.374  1.00  0.00     0.031 C 
HETATM    3  C9  UNL     1      -2.780  -0.485   0.269  1.00  0.00    -0.002 C 
HETATM    4  C11 UNL     1      -2.335  -1.344  -0.891  1.00  0.00     0.125 C 
HETATM    5  N1  UNL     1      -1.035  -1.009  -1.375  1.00  0.00    -0.420 N 
ATOM      6  H1  UNL     1      -0.378  -1.719  -1.699  1.00  0.00     0.153 HD
HETATM    7  C12 UNL     1      -0.713   0.372  -1.378  1.00  0.00     0.124 C 
HETATM    8  C13 UNL     1      -1.150   1.122  -0.159  1.00  0.00    -0.013 C 
HETATM    9  C14 UNL     1      -0.703   2.537  -0.190  1.00  0.00     0.018 C 
HETATM   10  C15 UNL     1      -2.679   0.987  -0.083  1.00  0.00     0.025 C 
ENDROOT
BRANCH   1  11
HETATM   11  C6  UNL     1       0.612  -0.009   1.152  1.00  0.00    -0.101 C 
HETATM   12  C5  UNL     1       1.755  -0.388   1.183  1.00  0.00    -0.103 C 
BRANCH  12  13
HETATM   13  C4  UNL     1       3.151  -0.831   1.240  1.00  0.00     0.136 C 
BRANCH  13  14
HETATM   14  C2  UNL     1       3.741  -0.637  -0.138  1.00  0.00     0.106 C 
HETATM   15  C1  UNL     1       3.652   0.831  -0.496  1.00  0.00     0.052 C 
HETATM   16  C3  UNL     1       5.223  -0.991  -0.094  1.00  0.00     0.052 C 
HETATM   17  F1  UNL     1       3.099  -1.399  -1.078  1.00  0.00    -0.243 F 
ENDBRANCH  13  14
ENDBRANCH  12  13
ENDBRANCH   1  11
BRANCH   3  18
HETATM   18  C10 UNL     1      -4.141  -0.888   0.729  1.00  0.00     0.175 C 
BRANCH  18  19
HETATM   19  O1  UNL     1      -5.068  -0.732  -0.292  1.00  0.00    -0.400 OA
ATOM     20  H1  UNL     1      -5.935  -0.989   0.001  1.00  0.00     0.209 HD
ENDBRANCH  18  19
ENDBRANCH   3  18
TORSDOF 5
