REMARK  3 active torsions:
REMARK  status: ('A' for Active; 'I' for Inactive)
REMARK    1  A    between atoms: C5_5  and  C6_6 
REMARK    2  A    between atoms: C10_10  and  O1_11 
REMARK    3  A    between atoms: C12_14  and  O2_15 
ROOT
HETATM    1  C1  UNL     1      -2.535  -1.368   1.264  1.00  0.00     0.021 C 
HETATM    2  C2  UNL     1      -2.587  -0.008   0.591  1.00  0.00    -0.005 C 
HETATM    3  C3  UNL     1      -3.473  -0.047  -0.644  1.00  0.00     0.021 C 
HETATM    4  C4  UNL     1      -1.235   0.512   0.269  1.00  0.00    -0.042 C 
HETATM    5  C5  UNL     1      -0.129  -0.177   0.160  1.00  0.00     0.006 C 
HETATM    6  C12 UNL     1      -1.380   1.966   0.093  1.00  0.00     0.149 C 
HETATM    7  C13 UNL     1      -2.593   2.337   0.895  1.00  0.00     0.057 C 
HETATM    8  C14 UNL     1      -3.126   1.053   1.501  1.00  0.00     0.097 C 
HETATM    9 CL1  UNL     1      -2.542   0.826   3.172  1.00  0.00    -0.124 Cl
ENDROOT
BRANCH   5  10
HETATM   10  C6  UNL     1       1.112   0.469  -0.160  1.00  0.00     0.003 C 
HETATM   11  C7  UNL     1       2.263  -0.169  -0.283  1.00  0.00    -0.077 C 
HETATM   12  C8  UNL     1       3.546   0.492  -0.613  1.00  0.00     0.037 C 
HETATM   13  C11 UNL     1       2.547  -1.618  -0.132  1.00  0.00     0.065 C 
HETATM   14  C9  UNL     1       4.198  -0.581  -1.496  1.00  0.00     0.036 C 
HETATM   15  C10 UNL     1       3.934  -1.817  -0.646  1.00  0.00     0.122 C 
BRANCH  15  16
HETATM   16  O1  UNL     1       3.990  -2.984  -1.401  1.00  0.00    -0.395 OA
ATOM     17  H1  UNL     1       3.825  -3.755  -0.871  1.00  0.00     0.210 HD
ENDBRANCH  15  16
ENDBRANCH   5  10
BRANCH   6  18
HETATM   18  O2  UNL     1      -1.554   2.264  -1.269  1.00  0.00    -0.391 OA
ATOM     19  H2  UNL     1      -1.648   3.203  -1.383  1.00  0.00     0.210 HD
ENDBRANCH   6  18
TORSDOF 3
