REMARK  2 active torsions:
REMARK  status: ('A' for Active; 'I' for Inactive)
REMARK    1  A    between atoms: C4_9  and  N3_10 
REMARK    2  A    between atoms: N3_10  and  C5_12 
ROOT
HETATM    1  N3  UNL     1       1.494  -0.447  -1.352  1.00  0.00    -0.373 N 
ATOM      2  H3  UNL     1       1.530  -0.939  -2.245  1.00  0.00     0.161 HD
ENDROOT
BRANCH   1   3
HETATM    3  C4  UNL     1       2.684   0.210  -0.866  1.00  0.00     0.104 A 
HETATM    4  C2  UNL     1       3.177   0.286   0.502  1.00  0.00     0.149 A 
HETATM    5  C1  UNL     1       3.478  -1.116   1.058  1.00  0.00     0.040 C 
HETATM    6  N1  UNL     1       4.390   1.053   0.422  1.00  0.00    -0.332 N 
HETATM    7  C3  UNL     1       4.591   1.406  -0.938  1.00  0.00     0.322 A 
ATOM      8  H1  UNL     1       4.998   1.300   1.203  1.00  0.00     0.165 HD
HETATM    9  O1  UNL     1       5.552   2.080  -1.391  1.00  0.00    -0.247 OA
HETATM   10  N2  UNL     1       3.494   0.842  -1.632  1.00  0.00    -0.297 N 
ATOM     11  H2  UNL     1       3.362   0.930  -2.640  1.00  0.00     0.172 HD
ENDBRANCH   1   3
BRANCH   1  12
HETATM   12  C5  UNL     1       0.258  -0.428  -0.614  1.00  0.00     0.082 C 
HETATM   13  C6  UNL     1      -0.191   1.019  -0.435  1.00  0.00     0.025 C 
HETATM   14  C7  UNL     1      -0.829   1.234   0.912  1.00  0.00     0.002 C 
HETATM   15  C8  UNL     1      -2.303   1.510   0.793  1.00  0.00     0.000 C 
HETATM   16  C9  UNL     1      -3.045   0.338   1.394  1.00  0.00     0.000 C 
HETATM   17  C10 UNL     1      -3.882  -0.373   0.371  1.00  0.00     0.000 C 
HETATM   18  C11 UNL     1      -3.114  -0.910  -0.787  1.00  0.00     0.000 C 
HETATM   19  C12 UNL     1      -1.902  -1.698  -0.427  1.00  0.00     0.002 C 
HETATM   20  C13 UNL     1      -0.771  -1.260  -1.314  1.00  0.00     0.025 C 
ENDBRANCH   1  12
TORSDOF 2
