REMARK  6 active torsions:
REMARK  status: ('A' for Active; 'I' for Inactive)
REMARK    1  A    between atoms: N3_11  and  C7_12 
REMARK    2  A    between atoms: C7_12  and  C8_13 
REMARK    3  A    between atoms: C8_13  and  C9_14 
REMARK    4  A    between atoms: C9_14  and  C10_15 
REMARK    5  A    between atoms: C10_15  and  C11_16 
REMARK    6  A    between atoms: C11_16  and  C12_17 
ROOT
HETATM    1  C7  UNL     1      -0.656   0.072   0.976  1.00  0.00     0.124 C 
ENDROOT
BRANCH   1   2
HETATM    2  N3  UNL     1      -1.711  -0.376   0.141  1.00  0.00    -0.366 N 
HETATM    3  C6  UNL     1      -3.111  -0.246   0.508  1.00  0.00     0.113 A 
HETATM    4  C5  UNL     1      -3.884  -0.157  -0.637  1.00  0.00     0.010 A 
HETATM    5  N2  UNL     1      -3.754  -0.200   1.690  1.00  0.00    -0.332 N 
HETATM    6  C3  UNL     1      -5.264  -0.027  -0.538  1.00  0.00     0.016 A 
HETATM    7  C17 UNL     1      -2.931  -0.227  -1.779  1.00  0.00     0.064 C 
HETATM    8  N1  UNL     1      -5.842   0.012   0.675  1.00  0.00    -0.349 N 
HETATM    9  C4  UNL     1      -6.093   0.069  -1.755  1.00  0.00     0.069 C 
HETATM   10  C2  UNL     1      -5.087  -0.074   1.776  1.00  0.00     0.078 A 
ATOM     11  H1  UNL     1      -6.854   0.107   0.756  1.00  0.00     0.167 HD
HETATM   12  C1  UNL     1      -5.715  -0.034   3.125  1.00  0.00     0.089 C 
HETATM   13  C16 UNL     1      -1.782  -1.008  -1.158  1.00  0.00     0.129 C 
ATOM     14  H2  UNL     1      -3.209  -0.263   2.550  1.00  0.00     0.168 HD
ENDBRANCH   1   2
BRANCH   1  15
HETATM   15  C8  UNL     1       0.112   1.263   0.543  1.00  0.00     0.020 C 
BRANCH  15  16
HETATM   16  C9  UNL     1       0.841   1.180  -0.745  1.00  0.00     0.002 C 
BRANCH  16  17
HETATM   17  C10 UNL     1       1.870   0.069  -0.776  1.00  0.00     0.001 C 
BRANCH  17  18
HETATM   18  C11 UNL     1       2.913   0.222   0.277  1.00  0.00     0.008 C 
BRANCH  18  19
HETATM   19  C12 UNL     1       3.913  -0.905   0.236  1.00  0.00     0.028 C 
HETATM   20  C13 UNL     1       4.667  -1.031  -1.049  1.00  0.00     0.130 C 
HETATM   21  N4  UNL     1       5.790  -0.119  -1.110  1.00  0.00    -0.356 N 
HETATM   22  C14 UNL     1       6.641  -0.059   0.020  1.00  0.00     0.212 C 
ATOM     23  H4  UNL     1       5.961   0.457  -1.934  1.00  0.00     0.163 HD
HETATM   24  N5  UNL     1       7.810   0.492  -0.022  1.00  0.00    -0.366 N 
HETATM   25  O1  UNL     1       6.147  -0.631   1.196  1.00  0.00    -0.322 OA
ATOM     26  H52 UNL     1       8.170   0.909  -0.880  1.00  0.00     0.159 HD
ATOM     27  H51 UNL     1       8.423   0.535   0.792  1.00  0.00     0.159 HD
HETATM   28  C15 UNL     1       4.808  -0.925   1.442  1.00  0.00     0.185 C 
ENDBRANCH  18  19
ENDBRANCH  17  18
ENDBRANCH  16  17
ENDBRANCH  15  16
ENDBRANCH   1  15
TORSDOF 6
