REMARK  6 active torsions:
REMARK  status: ('A' for Active; 'I' for Inactive)
REMARK    1  A    between atoms: C2_2  and  C4_4 
REMARK    2  A    between atoms: C5_9  and  S1_10 
REMARK    3  A    between atoms: S1_10  and  C6_11 
REMARK    4  A    between atoms: C6_11  and  C7_12 
REMARK       I    between atoms: C7_12  and  N3_14 
REMARK    5  A    between atoms: N3_14  and  C8_16 
REMARK    6  A    between atoms: N4_21  and  C13_22 
ROOT
HETATM    1  C4  UNL     1       2.498   0.704   0.274  1.00  0.00     0.104 A 
HETATM    2  N1  UNL     1       1.472   1.082   1.081  1.00  0.00    -0.286 N 
ATOM      3  H1  UNL     1       1.393   1.953   1.605  1.00  0.00     0.188 HD
HETATM    4  N2  UNL     1       0.605   0.101   1.049  1.00  0.00    -0.278 N 
ATOM      5  H2  UNL     1      -0.279   0.087   1.558  1.00  0.00     0.189 HD
HETATM    6  C5  UNL     1       1.042  -0.877   0.256  1.00  0.00     0.163 A 
HETATM    7  N4  UNL     1       2.241  -0.504  -0.240  1.00  0.00    -0.310 N 
ENDROOT
BRANCH   6   8
HETATM    8  S1  UNL     1       0.198  -2.400  -0.095  1.00  0.00    -0.083 SA
BRANCH   8   9
HETATM    9  C6  UNL     1      -0.859  -2.368  -1.522  1.00  0.00     0.185 C 
BRANCH   9  10
HETATM   10  C7  UNL     1      -2.087  -1.561  -1.404  1.00  0.00     0.227 C 
HETATM   11  O1  UNL     1      -2.824  -1.373  -2.448  1.00  0.00    -0.273 OA
HETATM   12  N3  UNL     1      -2.547  -0.956  -0.212  1.00  0.00    -0.356 N 
ATOM     13  H3  UNL     1      -2.022  -1.065   0.656  1.00  0.00     0.162 HD
BRANCH  12  14
HETATM   14  C8  UNL     1      -3.775  -0.177  -0.233  1.00  0.00     0.084 C 
HETATM   15  C9  UNL     1      -4.737  -0.593   0.852  1.00  0.00     0.025 C 
HETATM   16  C10 UNL     1      -5.703   0.592   0.869  1.00  0.00     0.002 C 
HETATM   17  C11 UNL     1      -4.802   1.795   0.676  1.00  0.00     0.002 C 
HETATM   18  C12 UNL     1      -3.478   1.270   0.194  1.00  0.00     0.025 C 
ENDBRANCH  12  14
ENDBRANCH   9  10
ENDBRANCH   8   9
ENDBRANCH   6   8
BRANCH   7  19
HETATM   19  C13 UNL     1       3.031  -1.276  -1.132  1.00  0.00     0.093 A 
HETATM   20  C14 UNL     1       4.358  -1.835  -0.810  1.00  0.00     0.028 A 
HETATM   21  C15 UNL     1       3.159  -2.773  -0.745  1.00  0.00     0.028 A 
ENDBRANCH   7  19
BRANCH   1  22
HETATM   22  C2  UNL     1       3.711   1.538   0.029  1.00  0.00     0.047 C 
HETATM   23  C1  UNL     1       3.309   2.939  -0.375  1.00  0.00     0.017 C 
HETATM   24  C3  UNL     1       4.440   1.645   1.375  1.00  0.00     0.017 C 
ENDBRANCH   1  22
TORSDOF 6
