REMARK  8 active torsions:
REMARK  status: ('A' for Active; 'I' for Inactive)
REMARK    1  A    between atoms: C4_6  and  N2_7 
REMARK    2  A    between atoms: N2_7  and  C5_9 
REMARK    3  A    between atoms: C5_9  and  C6_10 
REMARK    4  A    between atoms: C6_10  and  C7_11 
REMARK    5  A    between atoms: C7_11  and  C8_12 
REMARK    6  A    between atoms: C8_12  and  C9_13 
REMARK    7  A    between atoms: C9_13  and  N3_14 
REMARK    8  A    between atoms: N6_24  and  C12_25 
ROOT
HETATM    1  C1  UNL     1      -2.710  -1.065   2.804  1.00  0.00     0.089 C 
HETATM    2  C2  UNL     1      -1.810  -0.928   1.635  1.00  0.00     0.082 A 
HETATM    3  N1  UNL     1      -0.498  -1.260   1.628  1.00  0.00    -0.340 N 
ATOM      4  H1  UNL     1       0.025  -1.640   2.417  1.00  0.00     0.167 HD
HETATM    5  C3  UNL     1      -0.001  -1.005   0.407  1.00  0.00     0.122 A 
HETATM    6  C4  UNL     1       1.246  -1.140  -0.178  1.00  0.00     0.133 A 
HETATM    7  N4  UNL     1       1.395  -0.779  -1.453  1.00  0.00    -0.337 N 
ATOM      8  H4  UNL     1       2.315  -0.880  -1.883  1.00  0.00     0.168 HD
HETATM    9  C10 UNL     1       0.382  -0.285  -2.204  1.00  0.00     0.183 A 
HETATM   10  N5  UNL     1      -0.835  -0.160  -1.612  1.00  0.00    -0.336 N 
ATOM     11  H5  UNL     1      -1.612   0.209  -2.160  1.00  0.00     0.168 HD
HETATM   12  C11 UNL     1      -1.053  -0.506  -0.328  1.00  0.00     0.141 A 
HETATM   13  N6  UNL     1      -2.180  -0.456   0.431  1.00  0.00    -0.316 N 
ENDROOT
BRANCH   6  14
HETATM   14  N2  UNL     1       2.192  -1.598   0.514  1.00  0.00    -0.374 N 
ATOM     15  H2  UNL     1       1.943  -1.835   1.474  1.00  0.00     0.161 HD
BRANCH  14  16
HETATM   16  C5  UNL     1       3.549  -1.838   0.174  1.00  0.00     0.121 C 
BRANCH  16  17
HETATM   17  C6  UNL     1       4.515  -0.851   0.842  1.00  0.00     0.020 C 
BRANCH  17  18
HETATM   18  C7  UNL     1       4.135   0.514   0.385  1.00  0.00     0.003 C 
BRANCH  18  19
HETATM   19  C8  UNL     1       5.005   1.603   0.964  1.00  0.00     0.027 C 
BRANCH  19  20
HETATM   20  C9  UNL     1       6.444   1.455   0.612  1.00  0.00     0.229 C 
BRANCH  20  21
HETATM   21  N3  UNL     1       6.605   1.494  -0.836  1.00  0.00    -0.079 N 
ATOM     22  H33 UNL     1       6.022   0.801  -1.305  1.00  0.00     0.274 HD
ATOM     23  H32 UNL     1       6.195   2.334  -1.245  1.00  0.00     0.274 HD
ATOM     24  H31 UNL     1       7.591   1.393  -1.077  1.00  0.00     0.274 HD
ENDBRANCH  20  21
ENDBRANCH  19  20
ENDBRANCH  18  19
ENDBRANCH  17  18
ENDBRANCH  16  17
ENDBRANCH  14  16
ENDBRANCH   6  14
BRANCH  13  25
HETATM   25  C12 UNL     1      -3.448   0.008  -0.019  1.00  0.00     0.093 C 
HETATM   26  C13 UNL     1      -4.406  -1.079  -0.422  1.00  0.00     0.026 C 
HETATM   27  C14 UNL     1      -5.565  -0.429  -1.133  1.00  0.00     0.002 C 
HETATM   28  C15 UNL     1      -5.516   1.059  -1.138  1.00  0.00     0.000 C 
HETATM   29  C16 UNL     1      -5.198   1.680   0.185  1.00  0.00     0.002 C 
HETATM   30  C17 UNL     1      -4.172   0.892   0.974  1.00  0.00     0.026 C 
ENDBRANCH  13  25
TORSDOF 8
