REMARK  10 active torsions:
REMARK  status: ('A' for Active; 'I' for Inactive)
REMARK    1  A    between atoms: C2_2  and  C3_3 
REMARK    2  A    between atoms: C6_8  and  C7_9 
REMARK    3  A    between atoms: C7_9  and  N2_10 
REMARK    4  A    between atoms: C10_14  and  C11_15 
REMARK    5  A    between atoms: C11_15  and  C12_16 
REMARK    6  A    between atoms: C12_16  and  C14_18 
REMARK    7  A    between atoms: C16_23  and  O3_24 
REMARK    8  A    between atoms: C19_30  and  O4_31 
REMARK    9  A    between atoms: C21_34  and  O5_35 
REMARK   10  A    between atoms: C22_37  and  C24_39 
ROOT
HETATM    1  C14 UNL     1      -0.344  -0.449   0.010  1.00  0.00     0.157 C 
HETATM    2  O2  UNL     1      -0.038   0.261  -1.146  1.00  0.00    -0.356 OA
HETATM    3  C15 UNL     1      -1.218   0.997  -1.459  1.00  0.00     0.231 C 
HETATM    4  N3  UNL     1      -2.163   0.149  -2.054  1.00  0.00    -0.342 N 
ATOM      5  H3  UNL     1      -1.968  -0.842  -1.914  1.00  0.00     0.164 HD
HETATM    6  C16 UNL     1      -3.338   0.398  -2.813  1.00  0.00     0.160 C 
HETATM    7  C17 UNL     1      -4.602   1.031  -2.418  1.00  0.00     0.058 C 
HETATM    8  C18 UNL     1      -4.883   2.339  -3.177  1.00  0.00     0.072 C 
HETATM    9  N4  UNL     1      -5.472   0.672  -1.599  1.00  0.00    -0.341 N 
ATOM     10  H4  UNL     1      -6.188   1.398  -1.628  1.00  0.00     0.167 HD
HETATM   11  C19 UNL     1      -5.907  -0.223  -0.697  1.00  0.00     0.118 C 
HETATM   12  C20 UNL     1      -5.049  -1.033   0.196  1.00  0.00     0.116 C 
HETATM   13  C21 UNL     1      -4.959  -0.539   1.606  1.00  0.00     0.137 C 
HETATM   14  C22 UNL     1      -3.929  -1.371   2.344  1.00  0.00    -0.001 C 
HETATM   15  C23 UNL     1      -3.988  -1.151   3.830  1.00  0.00     0.022 C 
HETATM   16  C26 UNL     1      -2.523  -1.200   1.796  1.00  0.00     0.016 C 
HETATM   17  C27 UNL     1      -1.999   0.180   1.839  1.00  0.00     0.009 C 
HETATM   18  C28 UNL     1      -0.994   0.615   0.864  1.00  0.00     0.031 C 
HETATM   19  C29 UNL     1      -1.392   1.641  -0.155  1.00  0.00     0.003 C 
HETATM   20  C30 UNL     1      -0.257   2.721  -0.090  1.00  0.00     0.020 C 
HETATM   21  C31 UNL     1      -2.581   2.453   0.125  1.00  0.00     0.020 C 
ENDROOT
BRANCH   1  22
HETATM   22  C12 UNL     1       0.939  -0.944   0.607  1.00  0.00    -0.057 C 
HETATM   23  C13 UNL     1       0.942  -2.192   1.091  1.00  0.00     0.017 C 
BRANCH  22  24
HETATM   24  C11 UNL     1       2.145  -0.145   0.774  1.00  0.00     0.074 C 
BRANCH  24  25
HETATM   25  C10 UNL     1       3.019   0.058  -0.419  1.00  0.00     0.175 C 
HETATM   26  C4  UNL     1       3.565  -1.234  -0.949  1.00  0.00     0.034 C 
HETATM   27  C3  UNL     1       3.351  -1.801  -2.087  1.00  0.00     0.026 C 
HETATM   28  N1  UNL     1       4.449  -1.873   0.010  1.00  0.00    -0.389 N 
HETATM   29  C5  UNL     1       5.283  -1.030   0.860  1.00  0.00     0.153 C 
ATOM     30  H1  UNL     1       4.486  -2.889   0.088  1.00  0.00     0.159 HD
HETATM   31  C6  UNL     1       4.857   0.389   0.943  1.00  0.00     0.168 C 
HETATM   32  O1  UNL     1       4.111   0.890  -0.095  1.00  0.00    -0.371 OA
BRANCH  27  33
HETATM   33  C2  UNL     1       2.502  -1.293  -3.154  1.00  0.00    -0.008 C 
HETATM   34  C1  UNL     1       2.308  -1.903  -4.289  1.00  0.00     0.011 C 
ENDBRANCH  27  33
BRANCH  31  35
HETATM   35  C7  UNL     1       6.152   1.216   0.968  1.00  0.00     0.304 C 
BRANCH  35  36
HETATM   36  N2  UNL     1       6.885   1.098  -0.259  1.00  0.00     0.082 N 
HETATM   37  C8  UNL     1       6.260   1.700  -1.396  1.00  0.00     0.309 C 
HETATM   38  C9  UNL     1       8.261   1.521  -0.090  1.00  0.00     0.309 C 
ENDBRANCH  35  36
ENDBRANCH  31  35
ENDBRANCH  24  25
ENDBRANCH  22  24
ENDBRANCH   1  22
BRANCH   6  39
HETATM   39  O3  UNL     1      -3.367   0.030  -4.071  1.00  0.00    -0.345 OA
ATOM     40  H3  UNL     1      -4.153   0.196  -4.578  1.00  0.00     0.219 HD
ENDBRANCH   6  39
BRANCH  14  41
HETATM   41  C24 UNL     1      -4.382  -2.798   2.130  1.00  0.00    -0.025 C 
HETATM   42  C25 UNL     1      -3.580  -3.770   1.794  1.00  0.00     0.008 C 
ENDBRANCH  14  41
BRANCH  13  43
HETATM   43  O5  UNL     1      -6.179  -0.806   2.282  1.00  0.00    -0.394 OA
ATOM     44  H5  UNL     1      -6.122  -0.492   3.177  1.00  0.00     0.210 HD
ENDBRANCH  13  43
BRANCH  11  45
HETATM   45  O4  UNL     1      -7.154  -0.535  -0.455  1.00  0.00    -0.349 OA
ATOM     46  H4  UNL     1      -7.462  -1.168   0.183  1.00  0.00     0.219 HD
ENDBRANCH  11  45
TORSDOF 10
