REMARK  10 active torsions:
REMARK  status: ('A' for Active; 'I' for Inactive)
REMARK    1  A    between atoms: C3_3  and  C4_4 
REMARK    2  A    between atoms: C4_4  and  N1_5 
REMARK    3  A    between atoms: C12_13  and  O1_14 
REMARK    4  A    between atoms: C16_19  and  O2_20 
REMARK    5  A    between atoms: C22_28  and  C23_29 
REMARK    6  A    between atoms: C23_29  and  C25_31 
REMARK    7  A    between atoms: C25_31  and  N2_32 
REMARK    8  A    between atoms: N2_32  and  C26_34 
REMARK    9  A    between atoms: C26_34  and  C27_35 
REMARK   10  A    between atoms: C27_35  and  N3_36 
ROOT
HETATM    1  C1  UNL     1      -5.575   0.891  -2.755  1.00  0.00     0.044 C 
HETATM    2  C2  UNL     1      -4.362   0.458  -2.020  1.00  0.00    -0.076 C 
HETATM    3  C3  UNL     1      -4.369   0.308  -0.660  1.00  0.00    -0.034 C 
HETATM    4  C11 UNL     1      -3.143  -0.024   0.053  1.00  0.00     0.054 C 
HETATM    5  C12 UNL     1      -2.332   1.281   0.324  1.00  0.00     0.132 C 
HETATM    6  C13 UNL     1      -1.004   0.675   0.580  1.00  0.00     0.025 C 
HETATM    7  C14 UNL     1      -0.837  -0.216  -0.640  1.00  0.00    -0.000 C 
HETATM    8  C15 UNL     1       0.363  -1.033  -0.428  1.00  0.00     0.038 C 
HETATM    9  C16 UNL     1       1.283  -0.654   0.700  1.00  0.00     0.128 C 
HETATM   10  C17 UNL     1       1.357   0.735   1.132  1.00  0.00    -0.003 C 
HETATM   11  C18 UNL     1       1.151   0.805   2.653  1.00  0.00     0.019 C 
HETATM   12  C19 UNL     1       0.147   1.573   0.623  1.00  0.00     0.011 C 
HETATM   13  C20 UNL     1       0.700   2.079  -0.659  1.00  0.00     0.084 C 
HETATM   14  C21 UNL     1       2.001   2.651  -0.132  1.00  0.00     0.132 C 
HETATM   15  O3  UNL     1       2.389   3.738  -0.483  1.00  0.00    -0.298 OA
HETATM   16  C22 UNL     1       2.505   1.599   0.780  1.00  0.00     0.071 C 
HETATM   17  C32 UNL     1      -2.164  -0.911  -0.685  1.00  0.00     0.001 C 
HETATM   18  C33 UNL     1      -2.539  -1.101  -2.143  1.00  0.00     0.010 C 
HETATM   19  C34 UNL     1      -3.109   0.162  -2.736  1.00  0.00     0.034 C 
ENDROOT
BRANCH  16  20
HETATM   20  C23 UNL     1       3.777   0.987   0.362  1.00  0.00     0.011 C 
HETATM   21  C24 UNL     1       4.377   0.148   1.461  1.00  0.00     0.012 C 
BRANCH  20  22
HETATM   22  C25 UNL     1       4.838   2.009   0.001  1.00  0.00     0.118 C 
BRANCH  22  23
HETATM   23  N2  UNL     1       6.096   1.443  -0.376  1.00  0.00    -0.419 N 
ATOM     24  H2  UNL     1       6.927   1.557   0.204  1.00  0.00     0.153 HD
BRANCH  23  25
HETATM   25  C26 UNL     1       6.136   0.713  -1.597  1.00  0.00     0.144 C 
BRANCH  25  26
HETATM   26  C27 UNL     1       7.583   0.346  -1.850  1.00  0.00     0.291 C 
BRANCH  26  27
HETATM   27  N3  UNL     1       8.174  -0.446  -0.829  1.00  0.00     0.090 N 
HETATM   28  C28 UNL     1       7.688  -1.773  -0.715  1.00  0.00     0.272 C 
HETATM   29  C29 UNL     1       8.848  -2.667  -0.342  1.00  0.00     0.032 C 
HETATM   30  C30 UNL     1      10.071  -1.814  -0.435  1.00  0.00     0.032 C 
HETATM   31  C31 UNL     1       9.605  -0.440  -0.842  1.00  0.00     0.272 C 
ENDBRANCH  26  27
ENDBRANCH  25  26
ENDBRANCH  23  25
ENDBRANCH  22  23
ENDBRANCH  20  22
ENDBRANCH  16  20
BRANCH   9  32
HETATM   32  O2  UNL     1       0.886  -1.491   1.779  1.00  0.00    -0.395 OA
ATOM     33  H2  UNL     1       1.467  -1.252   2.491  1.00  0.00     0.210 HD
ENDBRANCH   9  32
BRANCH   5  34
HETATM   34  O1  UNL     1      -2.920   1.854   1.447  1.00  0.00    -0.394 OA
ATOM     35  H1  UNL     1      -2.426   2.649   1.612  1.00  0.00     0.210 HD
ENDBRANCH   5  34
BRANCH   3  36
HETATM   36  C4  UNL     1      -5.634   0.602  -0.013  1.00  0.00     0.093 C 
BRANCH  36  37
HETATM   37  N1  UNL     1      -6.422  -0.337   0.637  1.00  0.00    -0.389 N 
HETATM   38  C5  UNL     1      -6.117  -0.981   1.833  1.00  0.00     0.122 C 
HETATM   39  C6  UNL     1      -6.723  -2.396   1.795  1.00  0.00     0.020 C 
HETATM   40  C7  UNL     1      -8.207  -2.287   1.746  1.00  0.00     0.002 C 
HETATM   41  C8  UNL     1      -8.688  -1.130   2.552  1.00  0.00     0.002 C 
HETATM   42  C9  UNL     1      -8.468   0.199   1.907  1.00  0.00     0.020 C 
HETATM   43  C10 UNL     1      -7.813   0.124   0.571  1.00  0.00     0.122 C 
ENDBRANCH  36  37
ENDBRANCH   3  36
TORSDOF 10
