REMARK  11 active torsions:
REMARK  status: ('A' for Active; 'I' for Inactive)
REMARK    1  A    between atoms: C2_2  and  O1_5 
REMARK    2  A    between atoms: O1_5  and  C5_6 
REMARK       I    between atoms: C5_6  and  N1_8 
REMARK    3  A    between atoms: N1_8  and  C6_10 
REMARK    4  A    between atoms: C6_10  and  C7_11 
REMARK    5  A    between atoms: C6_10  and  C31_39 
REMARK    6  A    between atoms: C7_11  and  C8_12 
REMARK    7  A    between atoms: C8_12  and  O4_14 
REMARK    8  A    between atoms: O4_14  and  C9_15 
REMARK    9  A    between atoms: C9_15  and  C10_16 
REMARK   10  A    between atoms: C12_18  and  C13_19 
REMARK   11  A    between atoms: C28_34  and  C30_36 
ROOT
HETATM    1  C10 UNL     1      -0.048  -0.997   1.017  1.00  0.00    -0.042 C 
HETATM    2  C11 UNL     1      -1.136  -0.217   0.827  1.00  0.00    -0.015 C 
HETATM    3  C12 UNL     1      -2.338  -0.817   0.131  1.00  0.00     0.013 C 
HETATM    4  C26 UNL     1      -2.469  -2.151   0.831  1.00  0.00     0.010 C 
HETATM    5  C27 UNL     1      -1.371  -3.043   0.386  1.00  0.00     0.024 C 
HETATM    6  C28 UNL     1      -0.016  -2.413   0.596  1.00  0.00     0.060 C 
HETATM    7  C29 UNL     1       0.615  -3.231   1.749  1.00  0.00     0.030 C 
ENDROOT
BRANCH   1   8
HETATM    8  C9  UNL     1       1.147  -0.421   1.707  1.00  0.00     0.214 C 
BRANCH   8   9
HETATM    9  O4  UNL     1       2.328  -0.400   0.981  1.00  0.00    -0.317 OA
BRANCH   9  10
HETATM   10  C8  UNL     1       2.426   0.346  -0.177  1.00  0.00     0.261 C 
HETATM   11  O3  UNL     1       1.409   0.997  -0.544  1.00  0.00    -0.265 OA
BRANCH  10  12
HETATM   12  C7  UNL     1       3.685   0.347  -0.915  1.00  0.00     0.145 C 
BRANCH  12  13
HETATM   13  C6  UNL     1       4.723   1.174  -0.239  1.00  0.00     0.185 C 
BRANCH  13  14
HETATM   14  N1  UNL     1       5.962   1.125  -1.026  1.00  0.00    -0.324 N 
HETATM   15  C5  UNL     1       7.142   0.647  -0.428  1.00  0.00     0.362 C 
HETATM   16  O2  UNL     1       7.176   0.260   0.750  1.00  0.00    -0.238 OA
ATOM     17  H1  UNL     1       5.967   1.435  -1.998  1.00  0.00     0.165 HD
BRANCH  15  18
HETATM   18  O1  UNL     1       8.315   0.595  -1.156  1.00  0.00    -0.294 OA
BRANCH  18  19
HETATM   19  C2  UNL     1       9.548   0.140  -0.666  1.00  0.00     0.061 C 
HETATM   20  C1  UNL     1      10.024   0.958   0.520  1.00  0.00     0.046 C 
HETATM   21  C3  UNL     1      10.585   0.311  -1.755  1.00  0.00     0.046 C 
HETATM   22  C4  UNL     1       9.550  -1.315  -0.263  1.00  0.00     0.046 C 
ENDBRANCH  18  19
ENDBRANCH  15  18
ENDBRANCH  13  14
BRANCH  13  23
HETATM   23  C31 UNL     1       4.289   2.585  -0.155  1.00  0.00     0.254 C 
HETATM   24  N3  UNL     1       3.171   2.973   0.622  1.00  0.00    -0.060 NA
HETATM   25  O6  UNL     1       4.952   3.456  -0.801  1.00  0.00    -0.275 OA
ENDBRANCH  13  23
ENDBRANCH  12  13
ENDBRANCH  10  12
ENDBRANCH   9  10
ENDBRANCH   8   9
ENDBRANCH   1   8
BRANCH   6  26
HETATM   26  C30 UNL     1       0.852  -2.663  -0.602  1.00  0.00     0.243 C 
HETATM   27  N2  UNL     1       0.428  -2.242  -1.891  1.00  0.00    -0.061 NA
HETATM   28  O5  UNL     1       1.962  -3.243  -0.501  1.00  0.00    -0.276 OA
ENDBRANCH   6  26
BRANCH   3  29
HETATM   29  C13 UNL     1      -3.455   0.146   0.431  1.00  0.00     0.002 C 
HETATM   30  C14 UNL     1      -2.950   1.486  -0.132  1.00  0.00     0.006 C 
HETATM   31  C15 UNL     1      -4.132   2.174  -0.715  1.00  0.00     0.006 C 
HETATM   32  C16 UNL     1      -5.084   1.090  -1.094  1.00  0.00     0.003 C 
HETATM   33  C17 UNL     1      -6.508   1.452  -0.887  1.00  0.00    -0.043 C 
HETATM   34  C24 UNL     1      -4.770  -0.121  -0.199  1.00  0.00    -0.029 C 
HETATM   35  C18 UNL     1      -7.357   1.288  -2.147  1.00  0.00     0.015 C 
HETATM   36  C19 UNL     1      -6.696   2.902  -0.452  1.00  0.00     0.015 C 
HETATM   37  C20 UNL     1      -7.083   0.569   0.159  1.00  0.00     0.018 C 
HETATM   38  C21 UNL     1      -5.870  -0.113   0.803  1.00  0.00    -0.039 C 
HETATM   39  C22 UNL     1      -5.573   0.681   2.056  1.00  0.00     0.015 C 
HETATM   40  C23 UNL     1      -6.367  -1.456   1.246  1.00  0.00     0.015 C 
HETATM   41  C25 UNL     1      -4.843  -1.314  -1.097  1.00  0.00     0.016 C 
ENDBRANCH   3  29
TORSDOF 11
