REMARK  3 active torsions:
REMARK  status: ('A' for Active; 'I' for Inactive)
REMARK    1  A    between atoms: C1_4  and  N2_5 
REMARK    2  A    between atoms: C1_4  and  C8_15 
REMARK    3  A    between atoms: N2_5  and  N3_7 
ROOT
HETATM    1  N1  UNL     1       1.861  -1.031   2.499  1.00  0.00    -0.382 N 
ATOM      2  H11 UNL     1       2.672  -1.521   2.875  1.00  0.00     0.157 HD
ATOM      3  H12 UNL     1       0.933  -1.143   2.907  1.00  0.00     0.157 HD
HETATM    4  C1  UNL     1       1.959  -0.243   1.488  1.00  0.00     0.148 C 
ENDROOT
BRANCH   4   5
HETATM    5  N2  UNL     1       0.839   0.434   0.969  1.00  0.00    -0.284 N 
ATOM      6  H2  UNL     1       0.488   1.273   1.431  1.00  0.00     0.188 HD
BRANCH   5   7
HETATM    7  N3  UNL     1       0.219  -0.043  -0.167  1.00  0.00    -0.307 N 
HETATM    8  C2  UNL     1      -1.021  -0.266  -0.319  1.00  0.00     0.004 C 
HETATM    9  C3  UNL     1      -1.961  -0.019   0.773  1.00  0.00     0.054 C 
HETATM   10  C7  UNL     1      -1.510  -0.781  -1.614  1.00  0.00     0.054 C 
HETATM   11  C4  UNL     1      -3.305   0.460   0.345  1.00  0.00     0.006 C 
HETATM   12  C5  UNL     1      -3.721   0.041  -1.021  1.00  0.00     0.001 C 
HETATM   13  C6  UNL     1      -2.632   0.167  -2.058  1.00  0.00     0.006 C 
ATOM     14  H3  UNL     1       0.820  -0.237  -0.968  1.00  0.00     0.186 HD
ENDBRANCH   5   7
ENDBRANCH   4   5
BRANCH   4  15
HETATM   15  C8  UNL     1       3.307  -0.081   0.896  1.00  0.00     0.122 A 
HETATM   16  N4  UNL     1       4.443  -0.648   1.274  1.00  0.00    -0.354 N 
HETATM   17  C9  UNL     1       5.534  -0.390   0.636  1.00  0.00     0.139 A 
ATOM     18  H4  UNL     1       4.455  -1.288   2.068  1.00  0.00     0.166 HD
HETATM   19  C10 UNL     1       5.468   0.477  -0.425  1.00  0.00     0.174 A 
HETATM   20  F1  UNL     1       6.503   0.886  -1.235  1.00  0.00    -0.197 F 
HETATM   21  S1  UNL     1       3.805   0.873  -0.438  1.00  0.00    -0.037 SA
ENDBRANCH   4  15
TORSDOF 3
