REMARK  5 active torsions:
REMARK  status: ('A' for Active; 'I' for Inactive)
REMARK    1  A    between atoms: C2_2  and  C8_17 
REMARK    2  A    between atoms: N1_3  and  N2_5 
REMARK    3  A    between atoms: N2_5  and  C3_7 
REMARK    4  A    between atoms: C3_7  and  C4_12 
REMARK    5  A    between atoms: N3_8  and  O1_10 
ROOT
HETATM    1  N2  UNL     1       1.038   0.314  -0.320  1.00  0.00    -0.282 N 
ATOM      2  H2  UNL     1       1.307   1.237  -0.662  1.00  0.00     0.188 HD
ENDROOT
BRANCH   1   3
HETATM    3  N1  UNL     1      -0.229   0.096   0.167  1.00  0.00    -0.307 N 
HETATM    4  C2  UNL     1      -1.306   0.647  -0.264  1.00  0.00     0.007 C 
HETATM    5  C1  UNL     1      -1.191   1.604  -1.380  1.00  0.00     0.066 C 
ATOM      6  H1  UNL     1      -0.322  -0.563   0.940  1.00  0.00     0.186 HD
BRANCH   4   7
HETATM    7  C8  UNL     1      -2.572   0.275   0.397  1.00  0.00    -0.012 C 
HETATM    8  C9  UNL     1      -3.161   1.546   0.967  1.00  0.00     0.021 C 
HETATM    9  C10 UNL     1      -3.527  -0.445  -0.508  1.00  0.00     0.021 C 
HETATM   10  C11 UNL     1      -2.268  -0.644   1.555  1.00  0.00     0.021 C 
ENDBRANCH   4   7
ENDBRANCH   1   3
BRANCH   1  11
HETATM   11  C3  UNL     1       1.969  -0.759  -0.342  1.00  0.00     0.174 C 
HETATM   12  N3  UNL     1       1.572  -2.000  -0.480  1.00  0.00    -0.249 N 
ATOM     13  H3  UNL     1       2.267  -2.746  -0.493  1.00  0.00     0.196 HD
BRANCH  12  14
HETATM   14  O1  UNL     1       0.253  -2.318  -0.607  1.00  0.00    -0.288 OA
ATOM     15  H1  UNL     1      -0.035  -3.218  -0.707  1.00  0.00     0.244 HD
ENDBRANCH  12  14
BRANCH  11  16
HETATM   16  C4  UNL     1       3.388  -0.450  -0.208  1.00  0.00     0.121 A 
HETATM   17  C5  UNL     1       4.342  -1.282   0.363  1.00  0.00     0.043 A 
HETATM   18  C6  UNL     1       5.549  -0.591   0.280  1.00  0.00     0.027 A 
HETATM   19  C7  UNL     1       5.255   0.616  -0.335  1.00  0.00     0.142 A 
HETATM   20  O2  UNL     1       3.968   0.640  -0.597  1.00  0.00    -0.319 OA
ENDBRANCH  11  16
ENDBRANCH   1  11
TORSDOF 5
