REMARK  3 active torsions:
REMARK  status: ('A' for Active; 'I' for Inactive)
REMARK       I    between atoms: C1_2  and  N1_3 
REMARK    1  A    between atoms: C1_2  and  C8_13 
REMARK    2  A    between atoms: N1_3  and  N2_5 
REMARK    3  A    between atoms: C11_17  and  O3_18 
ROOT
HETATM    1  O1  UNL     1      -2.138  -1.887  -0.699  1.00  0.00    -0.264 OA
HETATM    2  C1  UNL     1      -2.069  -0.776  -0.156  1.00  0.00     0.296 C 
HETATM    3  N1  UNL     1      -0.839  -0.331   0.373  1.00  0.00    -0.264 N 
ATOM      4  H1  UNL     1      -0.776   0.583   0.821  1.00  0.00     0.190 HD
ENDROOT
BRANCH   3   5
HETATM    5  N2  UNL     1       0.292  -1.144   0.282  1.00  0.00    -0.306 N 
HETATM    6  C2  UNL     1       1.462  -0.657   0.426  1.00  0.00     0.004 C 
HETATM    7  C3  UNL     1       1.647   0.777   0.693  1.00  0.00     0.054 C 
HETATM    8  C7  UNL     1       2.636  -1.537   0.325  1.00  0.00     0.054 C 
HETATM    9  C4  UNL     1       3.141   1.113   0.603  1.00  0.00     0.006 C 
HETATM   10  C5  UNL     1       3.644   0.487  -0.665  1.00  0.00     0.001 C 
HETATM   11  C6  UNL     1       3.708  -1.023  -0.580  1.00  0.00     0.006 C 
ATOM     12  H2  UNL     1       0.181  -2.141   0.098  1.00  0.00     0.186 HD
ENDBRANCH   3   5
BRANCH   2  13
HETATM   13  C8  UNL     1      -3.240   0.087  -0.051  1.00  0.00     0.177 A 
HETATM   14  O2  UNL     1      -3.273   1.293   0.509  1.00  0.00    -0.314 OA
HETATM   15  C9  UNL     1      -4.463   1.818   0.449  1.00  0.00     0.145 A 
HETATM   16  C10 UNL     1      -5.310   0.948  -0.181  1.00  0.00     0.064 A 
HETATM   17  C11 UNL     1      -4.519  -0.158  -0.499  1.00  0.00     0.107 A 
BRANCH  17  18
HETATM   18  O3  UNL     1      -4.997  -1.283  -1.154  1.00  0.00    -0.358 OA
ATOM     19  H3  UNL     1      -5.879  -1.452  -1.463  1.00  0.00     0.217 HD
ENDBRANCH  17  18
ENDBRANCH   2  13
TORSDOF 3
