REMARK  4 active torsions:
REMARK  status: ('A' for Active; 'I' for Inactive)
REMARK    1  A    between atoms: C2_5  and  N2_6 
REMARK    2  A    between atoms: N2_6  and  C3_8 
REMARK    3  A    between atoms: C9_14  and  N3_15 
REMARK    4  A    between atoms: C11_19  and  N4_20 
ROOT
HETATM    1  O1  UNL     1       2.514   0.988  -2.347  1.00  0.00    -0.265 OA
HETATM    2  C1  UNL     1       2.412   0.328  -1.280  1.00  0.00     0.280 A 
HETATM    3  N1  UNL     1       1.243   0.150  -0.645  1.00  0.00    -0.306 N 
ATOM      4  H1  UNL     1       0.419   0.578  -1.068  1.00  0.00     0.170 HD
HETATM    5  C2  UNL     1       1.052  -0.538   0.494  1.00  0.00     0.138 A 
HETATM    6  C9  UNL     1       2.197  -1.109   1.039  1.00  0.00     0.149 A 
HETATM    7  C10 UNL     1       3.441  -0.941   0.398  1.00  0.00     0.082 A 
HETATM    8  C11 UNL     1       3.553  -0.221  -0.764  1.00  0.00     0.173 A 
ENDROOT
BRANCH   5   9
HETATM    9  N2  UNL     1      -0.193  -0.666   1.134  1.00  0.00    -0.370 N 
ATOM     10  H2  UNL     1      -0.176  -1.194   2.006  1.00  0.00     0.161 HD
BRANCH   9  11
HETATM   11  C3  UNL     1      -1.477  -0.172   0.754  1.00  0.00     0.083 C 
HETATM   12  C4  UNL     1      -1.636   1.314   0.720  1.00  0.00     0.025 C 
HETATM   13  C5  UNL     1      -3.125   1.620   0.493  1.00  0.00     0.002 C 
HETATM   14  C6  UNL     1      -3.639   1.048  -0.777  1.00  0.00     0.000 C 
HETATM   15  C7  UNL     1      -2.608   0.206  -1.442  1.00  0.00     0.002 C 
HETATM   16  C8  UNL     1      -1.938  -0.801  -0.549  1.00  0.00     0.025 C 
ENDBRANCH   9  11
ENDBRANCH   5   9
BRANCH   6  17
HETATM   17  N3  UNL     1       2.261  -1.871   2.218  1.00  0.00    -0.112 N 
HETATM   18  O2  UNL     1       3.343  -1.822   2.905  1.00  0.00    -0.532 OA
HETATM   19  O3  UNL     1       1.282  -2.660   2.718  1.00  0.00    -0.532 OA
ENDBRANCH   6  17
BRANCH   8  20
HETATM   20  N4  UNL     1       4.797  -0.036  -1.429  1.00  0.00    -0.110 N 
HETATM   21  O4  UNL     1       5.733  -0.861  -1.330  1.00  0.00    -0.532 OA
HETATM   22  O5  UNL     1       5.005   1.082  -2.213  1.00  0.00    -0.532 OA
ENDBRANCH   8  20
TORSDOF 4
