REMARK  15 active torsions:
REMARK  status: ('A' for Active; 'I' for Inactive)
REMARK       I    between atoms: C2_2  and  N1_4 
REMARK    1  A    between atoms: N1_4  and  C3_6 
REMARK    2  A    between atoms: C4_7  and  N2_8 
REMARK    3  A    between atoms: C5_13  and  C6_14 
REMARK    4  A    between atoms: C6_14  and  O3_15 
REMARK    5  A    between atoms: C7_17  and  N3_18 
REMARK    6  A    between atoms: C12_23  and  C13_24 
REMARK    7  A    between atoms: C14_25  and  C15_26 
REMARK    8  A    between atoms: C15_26  and  O4_27 
REMARK    9  A    between atoms: C15_26  and  C16_29 
REMARK   10  A    between atoms: C16_29  and  C19_32 
REMARK   11  A    between atoms: C19_32  and  C20_33 
REMARK   12  A    between atoms: C20_33  and  C21_34 
REMARK   13  A    between atoms: C20_33  and  C22_37 
REMARK   14  A    between atoms: C21_34  and  O5_35 
REMARK   15  A    between atoms: C22_37  and  O6_38 
ROOT
HETATM    1  C3  UNL     1      -2.096   1.455   1.065  1.00  0.00     0.150 C 
HETATM    2  C4  UNL     1      -3.526   1.466   1.562  1.00  0.00     0.342 C 
HETATM    3  O2  UNL     1      -4.239   0.340   1.337  1.00  0.00    -0.348 OA
HETATM    4  C5  UNL     1      -4.002  -0.384   0.227  1.00  0.00     0.171 C 
HETATM    5  C7  UNL     1      -2.550  -0.758  -0.034  1.00  0.00     0.124 C 
HETATM    6  C12 UNL     1      -1.659   0.021   0.869  1.00  0.00     0.060 C 
ENDROOT
BRANCH   6   7
HETATM    7  C13 UNL     1      -0.221   0.020   0.417  1.00  0.00    -0.019 C 
HETATM    8  C14 UNL     1       0.233  -0.567  -0.644  1.00  0.00     0.002 C 
BRANCH   8   9
HETATM    9  C15 UNL     1       1.595  -0.605  -1.125  1.00  0.00     0.148 C 
BRANCH   9  10
HETATM   10  O4  UNL     1       1.716  -0.106  -2.432  1.00  0.00    -0.391 OA
ATOM     11  H4  UNL     1       2.611  -0.131  -2.748  1.00  0.00     0.210 HD
ENDBRANCH   9  10
BRANCH   9  12
HETATM   12  C16 UNL     1       2.669   0.097  -0.318  1.00  0.00    -0.018 C 
HETATM   13  C17 UNL     1       2.456   1.560  -0.150  1.00  0.00     0.018 C 
HETATM   14  C18 UNL     1       2.765  -0.677   0.995  1.00  0.00     0.018 C 
BRANCH  12  15
HETATM   15  C19 UNL     1       3.941  -0.096  -1.093  1.00  0.00     0.020 C 
BRANCH  15  16
HETATM   16  C20 UNL     1       5.184   0.514  -0.627  1.00  0.00     0.034 C 
BRANCH  16  17
HETATM   17  C21 UNL     1       6.276   0.113  -1.666  1.00  0.00     0.170 C 
BRANCH  17  18
HETATM   18  O5  UNL     1       7.495   0.642  -1.321  1.00  0.00    -0.400 OA
ATOM     19  H5  UNL     1       8.160   0.398  -1.954  1.00  0.00     0.209 HD
ENDBRANCH  17  18
ENDBRANCH  16  17
BRANCH  16  20
HETATM   20  C22 UNL     1       5.702   0.135   0.706  1.00  0.00     0.170 C 
BRANCH  20  21
HETATM   21  O6  UNL     1       6.927   0.825   0.964  1.00  0.00    -0.400 OA
ATOM     22  H6  UNL     1       7.260   0.582   1.820  1.00  0.00     0.209 HD
ENDBRANCH  20  21
ENDBRANCH  16  20
ENDBRANCH  15  16
ENDBRANCH  12  15
ENDBRANCH   9  12
ENDBRANCH   8   9
ENDBRANCH   6   7
BRANCH   1  23
HETATM   23  N1  UNL     1      -1.890   2.311  -0.058  1.00  0.00    -0.352 N 
HETATM   24  C2  UNL     1      -1.089   3.511   0.025  1.00  0.00     0.214 C 
HETATM   25  C1  UNL     1      -0.872   4.405  -1.141  1.00  0.00     0.117 C 
HETATM   26  O1  UNL     1      -0.532   3.856   1.105  1.00  0.00    -0.274 OA
ATOM     27  H1  UNL     1      -2.323   2.068  -0.949  1.00  0.00     0.163 HD
ENDBRANCH   1  23
BRANCH   5  28
HETATM   28  N3  UNL     1      -2.310  -2.151   0.052  1.00  0.00    -0.385 N 
HETATM   29  C8  UNL     1      -2.937  -3.032  -0.824  1.00  0.00     0.058 C 
HETATM   30  C9  UNL     1      -3.649  -4.103  -0.022  1.00  0.00     0.046 C 
HETATM   31  C10 UNL     1      -2.846  -4.131   1.242  1.00  0.00     0.025 C 
HETATM   32  C11 UNL     1      -2.164  -2.758   1.290  1.00  0.00     0.123 C 
ENDBRANCH   5  28
BRANCH   2  33
HETATM   33  N2  UNL     1      -4.219   2.686   1.112  1.00  0.00    -0.051 N 
ATOM     34  H23 UNL     1      -3.716   3.530   1.385  1.00  0.00     0.277 HD
ATOM     35  H22 UNL     1      -4.168   2.799   0.100  1.00  0.00     0.277 HD
ATOM     36  H21 UNL     1      -5.182   2.693   1.447  1.00  0.00     0.277 HD
ENDBRANCH   2  33
BRANCH   4  37
HETATM   37  C6  UNL     1      -4.706   0.125  -1.016  1.00  0.00     0.198 C 
BRANCH  37  38
HETATM   38  O3  UNL     1      -6.104   0.109  -0.828  1.00  0.00    -0.398 OA
ATOM     39  H3  UNL     1      -6.545   0.428  -1.607  1.00  0.00     0.209 HD
ENDBRANCH  37  38
ENDBRANCH   4  37
TORSDOF 15
