REMARK  12 active torsions:
REMARK  status: ('A' for Active; 'I' for Inactive)
REMARK    1  A    between atoms: C1_2  and  C2_3 
REMARK       I    between atoms: C1_2  and  N3_34 
REMARK    2  A    between atoms: C2_3  and  N1_4 
REMARK    3  A    between atoms: N1_4  and  C3_7 
REMARK    4  A    between atoms: C3_7  and  C4_8 
REMARK    5  A    between atoms: C3_7  and  C12_25 
REMARK    6  A    between atoms: C6_13  and  S1_14 
REMARK    7  A    between atoms: S1_14  and  C7_15 
REMARK    8  A    between atoms: C9_17  and  O2_18 
REMARK    9  A    between atoms: C11_21  and  O3_22 
REMARK   10  A    between atoms: C12_25  and  O5_26 
REMARK   11  A    between atoms: C12_25  and  C13_28 
REMARK   12  A    between atoms: N3_34  and  C19_36 
ROOT
HETATM    1  C3  UNL     1      -1.363  -0.464   0.009  1.00  0.00     0.271 C 
ENDROOT
BRANCH   1   2
HETATM    2  N1  UNL     1      -2.095   0.820   0.143  1.00  0.00    -0.056 N 
ATOM      3  H12 UNL     1      -1.649   1.416   0.841  1.00  0.00     0.278 HD
ATOM      4  H11 UNL     1      -2.998   0.673   0.594  1.00  0.00     0.278 HD
BRANCH   2   5
HETATM    5  C2  UNL     1      -2.257   1.520  -1.080  1.00  0.00     0.335 C 
BRANCH   5   6
HETATM    6  C1  UNL     1      -3.003   2.777  -0.777  1.00  0.00     0.243 C 
HETATM    7  O1  UNL     1      -3.242   3.539  -1.726  1.00  0.00    -0.272 OA
HETATM    8  N3  UNL     1      -3.421   3.091   0.527  1.00  0.00    -0.355 N 
ATOM      9  H3  UNL     1      -3.201   2.421   1.264  1.00  0.00     0.162 HD
BRANCH   8  10
HETATM   10  C19 UNL     1      -4.131   4.275   0.905  1.00  0.00     0.084 A 
HETATM   11  C20 UNL     1      -4.175   5.516   0.099  1.00  0.00     0.027 A 
HETATM   12  C21 UNL     1      -5.370   4.577   0.107  1.00  0.00     0.027 A 
ENDBRANCH   8  10
ENDBRANCH   5   6
ENDBRANCH   2   5
ENDBRANCH   1   2
BRANCH   1  13
HETATM   13  C4  UNL     1       0.024  -0.162  -0.483  1.00  0.00     0.355 C 
HETATM   14  N2  UNL     1       0.914  -1.297  -0.453  1.00  0.00    -0.043 N 
HETATM   15  C5  UNL     1       2.083  -0.903   0.340  1.00  0.00     0.278 C 
ATOM     16  H22 UNL     1       0.467  -2.148  -0.113  1.00  0.00     0.280 HD
ATOM     17  H21 UNL     1       1.157  -1.641  -1.382  1.00  0.00     0.280 HD
HETATM   18  C6  UNL     1       2.028   0.584   0.171  1.00  0.00     0.211 C 
HETATM   19  O4  UNL     1       0.641   0.771   0.412  1.00  0.00    -0.340 OA
BRANCH  18  20
HETATM   20  S1  UNL     1       2.914   1.563   1.325  1.00  0.00    -0.128 SA
BRANCH  20  21
HETATM   21  C7  UNL     1       4.642   1.563   1.372  1.00  0.00     0.081 C 
HETATM   22  C8  UNL     1       5.391   2.138   0.186  1.00  0.00     0.049 C 
HETATM   23  C9  UNL     1       6.824   1.916   0.623  1.00  0.00     0.121 C 
HETATM   24  C10 UNL     1       6.804   0.956   1.796  1.00  0.00     0.064 C 
HETATM   25  C11 UNL     1       5.408   0.310   1.595  1.00  0.00     0.134 C 
BRANCH  23  26
HETATM   26  O2  UNL     1       7.412   3.088   1.085  1.00  0.00    -0.395 OA
ATOM     27  H2  UNL     1       8.311   2.949   1.359  1.00  0.00     0.210 HD
ENDBRANCH  23  26
BRANCH  25  28
HETATM   28  O3  UNL     1       5.599  -0.511   0.517  1.00  0.00    -0.394 OA
ATOM     29  H3  UNL     1       6.089  -1.312   0.660  1.00  0.00     0.210 HD
ENDBRANCH  25  28
ENDBRANCH  20  21
ENDBRANCH  18  20
ENDBRANCH   1  13
BRANCH   1  30
HETATM   30  C12 UNL     1      -2.131  -1.350  -0.919  1.00  0.00     0.157 C 
BRANCH  30  31
HETATM   31  O5  UNL     1      -3.463  -1.509  -0.426  1.00  0.00    -0.393 OA
ATOM     32  H5  UNL     1      -3.951  -2.072  -1.016  1.00  0.00     0.210 HD
ENDBRANCH  30  31
BRANCH  30  33
HETATM   33  C13 UNL     1      -1.618  -2.760  -0.983  1.00  0.00     0.016 C 
HETATM   34  C14 UNL     1      -2.498  -3.581  -1.950  1.00  0.00     0.007 C 
HETATM   35  C15 UNL     1      -3.498  -4.415  -1.202  1.00  0.00     0.000 C 
HETATM   36  C16 UNL     1      -2.826  -5.493  -0.371  1.00  0.00     0.000 C 
HETATM   37  C17 UNL     1      -1.459  -4.982   0.024  1.00  0.00     0.000 C 
HETATM   38  C18 UNL     1      -1.644  -3.487   0.318  1.00  0.00     0.007 C 
ENDBRANCH  30  33
ENDBRANCH   1  30
TORSDOF 12
