REMARK  14 active torsions:
REMARK  status: ('A' for Active; 'I' for Inactive)
REMARK    1  A    between atoms: C2_2  and  C3_3 
REMARK    2  A    between atoms: C3_3  and  O1_4 
REMARK    3  A    between atoms: C5_7  and  C6_8 
REMARK    4  A    between atoms: C6_8  and  C7_9 
REMARK    5  A    between atoms: C7_9  and  C8_10 
REMARK    6  A    between atoms: C8_10  and  C9_11 
REMARK    7  A    between atoms: C9_11  and  C10_12 
REMARK    8  A    between atoms: C10_12  and  O3_14 
REMARK    9  A    between atoms: O3_14  and  C11_15 
REMARK   10  A    between atoms: C12_17  and  C13_18 
REMARK   11  A    between atoms: C13_18  and  O5_19 
REMARK   12  A    between atoms: C14_21  and  O6_22 
REMARK   13  A    between atoms: C15_24  and  O7_25 
REMARK   14  A    between atoms: C16_27  and  O8_28 
ROOT
HETATM    1  C9  UNL     1       0.867  -0.476   1.539  1.00  0.00     0.111 C 
ENDROOT
BRANCH   1   2
HETATM    2  C8  UNL     1       0.311  -0.464   0.159  1.00  0.00     0.010 C 
BRANCH   2   3
HETATM    3  C7  UNL     1      -1.170  -0.700   0.173  1.00  0.00     0.001 C 
BRANCH   3   4
HETATM    4  C6  UNL     1      -1.860   0.362   0.940  1.00  0.00     0.005 C 
BRANCH   4   5
HETATM    5  C5  UNL     1      -3.363   0.237   1.004  1.00  0.00    -0.004 C 
HETATM    6  C4  UNL     1      -3.818  -1.048   1.644  1.00  0.00     0.021 C 
HETATM    7  C2  UNL     1      -4.989  -1.571   0.797  1.00  0.00     0.001 C 
HETATM    8  C1  UNL     1      -4.542  -2.625  -0.162  1.00  0.00     0.022 C 
HETATM    9  C18 UNL     1      -5.343  -0.345  -0.016  1.00  0.00    -0.068 C 
HETATM   10  C17 UNL     1      -3.984   0.212  -0.347  1.00  0.00     0.028 C 
HETATM   11  C19 UNL     1      -6.227   0.438  -0.566  1.00  0.00    -0.017 C 
HETATM   12  C22 UNL     1      -4.177   1.528  -1.014  1.00  0.00    -0.029 A 
HETATM   13  C20 UNL     1      -5.661   1.582  -1.282  1.00  0.00     0.018 A 
HETATM   14  C21 UNL     1      -4.711   1.456  -2.403  1.00  0.00     0.019 A 
HETATM   15  C23 UNL     1      -3.582   2.795  -0.485  1.00  0.00     0.016 C 
BRANCH   7  16
HETATM   16  C3  UNL     1      -6.139  -1.972   1.674  1.00  0.00     0.177 C 
BRANCH  16  17
HETATM   17  O1  UNL     1      -5.751  -3.074   2.414  1.00  0.00    -0.400 OA
ATOM     18  H1  UNL     1      -6.479  -3.328   2.969  1.00  0.00     0.209 HD
ENDBRANCH  16  17
ENDBRANCH   7  16
ENDBRANCH   4   5
ENDBRANCH   3   4
ENDBRANCH   2   3
ENDBRANCH   1   2
BRANCH   1  19
HETATM   19  C10 UNL     1       2.355  -0.266   1.469  1.00  0.00     0.261 C 
HETATM   20  O2  UNL     1       2.973  -0.248   2.561  1.00  0.00    -0.265 OA
BRANCH  19  21
HETATM   21  O3  UNL     1       3.027  -0.099   0.272  1.00  0.00    -0.287 OA
BRANCH  21  22
HETATM   22  C11 UNL     1       4.403   0.090   0.283  1.00  0.00     0.301 C 
HETATM   23  O4  UNL     1       5.091  -0.820  -0.514  1.00  0.00    -0.348 OA
HETATM   24  C12 UNL     1       6.432  -0.800  -0.144  1.00  0.00     0.179 C 
HETATM   25  C14 UNL     1       6.894   0.511   0.377  1.00  0.00     0.180 C 
HETATM   26  C15 UNL     1       6.164   1.697  -0.174  1.00  0.00     0.183 C 
HETATM   27  C16 UNL     1       4.676   1.468  -0.333  1.00  0.00     0.205 C 
BRANCH  24  28
HETATM   28  C13 UNL     1       7.244  -1.304  -1.316  1.00  0.00     0.198 C 
BRANCH  28  29
HETATM   29  O5  UNL     1       7.101  -0.550  -2.450  1.00  0.00    -0.398 OA
ATOM     30  H5  UNL     1       7.611  -0.867  -3.186  1.00  0.00     0.209 HD
ENDBRANCH  28  29
ENDBRANCH  24  28
BRANCH  25  31
HETATM   31  O6  UNL     1       8.256   0.694   0.102  1.00  0.00    -0.390 OA
ATOM     32  H6  UNL     1       8.552   1.533   0.435  1.00  0.00     0.210 HD
ENDBRANCH  25  31
BRANCH  26  33
HETATM   33  O7  UNL     1       6.741   2.187  -1.347  1.00  0.00    -0.390 OA
ATOM     34  H7  UNL     1       6.278   2.939  -1.697  1.00  0.00     0.210 HD
ENDBRANCH  26  33
BRANCH  27  35
HETATM   35  O8  UNL     1       4.409   1.382  -1.685  1.00  0.00    -0.388 OA
ATOM     36  H8  UNL     1       4.578   2.235  -2.067  1.00  0.00     0.210 HD
ENDBRANCH  27  35
ENDBRANCH  21  22
ENDBRANCH  19  21
ENDBRANCH   1  19
TORSDOF 14
