REMARK  14 active torsions:
REMARK  status: ('A' for Active; 'I' for Inactive)
REMARK    1  A    between atoms: C2_2  and  C3_3 
REMARK    2  A    between atoms: C3_3  and  C4_4 
REMARK    3  A    between atoms: C4_4  and  C5_5 
REMARK    4  A    between atoms: C5_5  and  C6_6 
REMARK    5  A    between atoms: C6_6  and  C15_26 
REMARK    6  A    between atoms: C7_7  and  C8_8 
REMARK    7  A    between atoms: C8_8  and  N1_9 
REMARK    8  A    between atoms: C10_11  and  N2_12 
REMARK    9  A    between atoms: C11_16  and  O1_17 
REMARK   10  A    between atoms: C12_19  and  O2_20 
REMARK   11  A    between atoms: C13_22  and  C14_23 
REMARK   12  A    between atoms: C20_31  and  O4_32 
REMARK   13  A    between atoms: C21_34  and  C22_35 
REMARK   14  A    between atoms: C22_35  and  O5_36 
ROOT
HETATM    1  C6  UNL     1      -0.887   0.357   0.098  1.00  0.00    -0.053 C 
HETATM    2  C7  UNL     1       0.134   0.049   0.773  1.00  0.00    -0.002 C 
ENDROOT
BRANCH   1   3
HETATM    3  C5  UNL     1      -1.351   1.663  -0.371  1.00  0.00     0.036 C 
BRANCH   3   4
HETATM    4  C4  UNL     1      -0.610   2.892  -0.072  1.00  0.00     0.004 C 
BRANCH   4   5
HETATM    5  C3  UNL     1      -1.436   4.028  -0.758  1.00  0.00    -0.000 C 
BRANCH   5   6
HETATM    6  C2  UNL     1      -0.776   5.347  -0.521  1.00  0.00    -0.005 C 
HETATM    7  C1  UNL     1      -1.643   6.396  -1.222  1.00  0.00     0.005 C 
ENDBRANCH   5   6
ENDBRANCH   4   5
ENDBRANCH   3   4
ENDBRANCH   1   3
BRANCH   1   8
HETATM    8  C15 UNL     1      -1.834  -0.777  -0.331  1.00  0.00     0.151 C 
HETATM    9  C16 UNL     1      -1.412  -2.103   0.137  1.00  0.00     0.048 C 
HETATM   10  C17 UNL     1      -2.430  -3.131  -0.344  1.00  0.00    -0.017 C 
HETATM   11  C18 UNL     1      -2.116  -4.414   0.432  1.00  0.00     0.018 C 
HETATM   12  C19 UNL     1      -2.317  -3.434  -1.801  1.00  0.00     0.018 C 
HETATM   13  C20 UNL     1      -3.846  -2.704  -0.040  1.00  0.00     0.157 C 
HETATM   14  C21 UNL     1      -4.024  -1.299  -0.577  1.00  0.00     0.175 C 
HETATM   15  O6  UNL     1      -3.105  -0.491   0.109  1.00  0.00    -0.371 OA
BRANCH  13  16
HETATM   16  O4  UNL     1      -4.068  -2.643   1.343  1.00  0.00    -0.392 OA
ATOM     17  H4  UNL     1      -4.959  -2.374   1.534  1.00  0.00     0.210 HD
ENDBRANCH  13  16
BRANCH  14  18
HETATM   18  C22 UNL     1      -5.399  -0.749  -0.281  1.00  0.00     0.198 C 
BRANCH  18  19
HETATM   19  O5  UNL     1      -6.332  -1.523  -0.941  1.00  0.00    -0.398 OA
ATOM     20  H5  UNL     1      -7.197  -1.177  -0.755  1.00  0.00     0.209 HD
ENDBRANCH  18  19
ENDBRANCH  14  18
ENDBRANCH   1   8
BRANCH   2  21
HETATM   21  C8  UNL     1       1.265   0.760   1.374  1.00  0.00     0.145 C 
BRANCH  21  22
HETATM   22  N1  UNL     1       2.513   0.301   0.834  1.00  0.00    -0.393 N 
HETATM   23  C9  UNL     1       2.804   0.583  -0.500  1.00  0.00     0.153 C 
HETATM   24  C10 UNL     1       4.310   0.842  -0.629  1.00  0.00     0.232 C 
HETATM   25  C11 UNL     1       4.936   0.949   0.738  1.00  0.00     0.181 C 
HETATM   26  C12 UNL     1       4.693  -0.266   1.593  1.00  0.00     0.180 C 
HETATM   27  C13 UNL     1       3.221  -0.676   1.526  1.00  0.00     0.201 C 
BRANCH  24  28
HETATM   28  N2  UNL     1       4.952  -0.116  -1.478  1.00  0.00    -0.071 N 
ATOM     29  H23 UNL     1       4.767  -1.069  -1.165  1.00  0.00     0.274 HD
ATOM     30  H22 UNL     1       4.505  -0.156  -2.394  1.00  0.00     0.274 HD
ATOM     31  H21 UNL     1       5.954   0.056  -1.564  1.00  0.00     0.274 HD
ENDBRANCH  24  28
BRANCH  25  32
HETATM   32  O1  UNL     1       6.281   1.183   0.591  1.00  0.00    -0.391 OA
ATOM     33  H1  UNL     1       6.676   1.250   1.453  1.00  0.00     0.210 HD
ENDBRANCH  25  32
BRANCH  26  34
HETATM   34  O2  UNL     1       4.958   0.096   2.915  1.00  0.00    -0.390 OA
ATOM     35  H2  UNL     1       4.805  -0.671   3.455  1.00  0.00     0.210 HD
ENDBRANCH  26  34
BRANCH  27  36
HETATM   36  C14 UNL     1       3.189  -2.046   0.958  1.00  0.00     0.256 C 
HETATM   37  N3  UNL     1       3.912  -3.047   1.667  1.00  0.00    -0.060 NA
HETATM   38  O3  UNL     1       2.590  -2.386  -0.070  1.00  0.00    -0.274 OA
ENDBRANCH  27  36
ENDBRANCH  21  22
ENDBRANCH   2  21
TORSDOF 14
