REMARK  15 active torsions:
REMARK  status: ('A' for Active; 'I' for Inactive)
REMARK    1  A    between atoms: C2_2  and  C3_3 
REMARK    2  A    between atoms: C3_3  and  N1_4 
REMARK    3  A    between atoms: C3_3  and  C11_23 
REMARK    4  A    between atoms: N1_4  and  C4_6 
REMARK    5  A    between atoms: C4_6  and  O1_7 
REMARK    6  A    between atoms: C4_6  and  C5_9 
REMARK    7  A    between atoms: C7_11  and  O2_12 
REMARK    8  A    between atoms: C8_14  and  O3_15 
REMARK    9  A    between atoms: C9_17  and  O4_18 
REMARK   10  A    between atoms: C10_20  and  O5_21 
REMARK   11  A    between atoms: C11_23  and  C14_26 
REMARK   12  A    between atoms: C14_26  and  O6_27 
REMARK   13  A    between atoms: O6_27  and  C15_28 
REMARK   14  A    between atoms: C15_28  and  C16_30 
REMARK   15  A    between atoms: N2_34  and  C20_35 
ROOT
HETATM    1  N1  UNL     1       1.880  -0.455   0.713  1.00  0.00    -0.366 N 
ATOM      2  H1  UNL     1       1.841  -0.967   1.594  1.00  0.00     0.162 HD
ENDROOT
BRANCH   1   3
HETATM    3  C3  UNL     1       1.037  -0.947  -0.285  1.00  0.00     0.016 C 
BRANCH   3   4
HETATM    4  C2  UNL     1       1.516  -1.411  -1.555  1.00  0.00     0.015 C 
HETATM    5  C1  UNL     1       1.627  -0.773  -2.704  1.00  0.00     0.013 C 
ENDBRANCH   3   4
BRANCH   3   6
HETATM    6  C11 UNL     1      -0.323  -0.304  -0.196  1.00  0.00     0.017 C 
HETATM    7  C12 UNL     1      -0.463   0.075   1.326  1.00  0.00     0.024 C 
HETATM    8  C13 UNL     1      -0.641   0.909  -0.906  1.00  0.00     0.024 C 
BRANCH   6   9
HETATM    9  C14 UNL     1      -1.407  -1.355  -0.333  1.00  0.00     0.194 C 
BRANCH   9  10
HETATM   10  O6  UNL     1      -2.708  -0.998  -0.310  1.00  0.00    -0.319 OA
BRANCH  10  11
HETATM   11  C15 UNL     1      -3.580  -0.449  -1.182  1.00  0.00     0.292 C 
HETATM   12  O7  UNL     1      -3.230  -0.184  -2.344  1.00  0.00    -0.263 OA
BRANCH  11  13
HETATM   13  C16 UNL     1      -5.012  -0.123  -0.829  1.00  0.00     0.322 C 
HETATM   14  C17 UNL     1      -5.773  -1.411  -1.112  1.00  0.00     0.048 C 
HETATM   15  C18 UNL     1      -5.479  -2.233   0.125  1.00  0.00     0.033 C 
HETATM   16  C19 UNL     1      -5.147  -1.240   1.220  1.00  0.00     0.274 C 
HETATM   17  N2  UNL     1      -5.043   0.042   0.601  1.00  0.00     0.106 N 
BRANCH  17  18
HETATM   18  C20 UNL     1      -6.003   0.990   1.065  1.00  0.00     0.216 C 
HETATM   19  C21 UNL     1      -7.436   0.606   0.772  1.00  0.00     0.042 C 
HETATM   20  C22 UNL     1      -5.702   2.366   0.477  1.00  0.00     0.042 C 
ENDBRANCH  17  18
ENDBRANCH  11  13
ENDBRANCH  10  11
ENDBRANCH   9  10
ENDBRANCH   6   9
ENDBRANCH   3   6
ENDBRANCH   1   3
BRANCH   1  21
HETATM   21  C4  UNL     1       2.746   0.597   0.703  1.00  0.00     0.224 C 
BRANCH  21  22
HETATM   22  O1  UNL     1       2.717   1.445  -0.408  1.00  0.00    -0.376 OA
ATOM     23  H1  UNL     1       3.321   2.178  -0.415  1.00  0.00     0.212 HD
ENDBRANCH  21  22
BRANCH  21  24
HETATM   24  C5  UNL     1       4.212   0.299   0.889  1.00  0.00     0.068 C 
HETATM   25  C6  UNL     1       4.909   1.645   0.877  1.00  0.00     0.046 C 
HETATM   26  C7  UNL     1       6.385   1.542   1.075  1.00  0.00     0.150 C 
HETATM   27  C8  UNL     1       6.897   0.126   0.948  1.00  0.00     0.178 C 
HETATM   28  C9  UNL     1       6.275  -0.519  -0.241  1.00  0.00     0.178 C 
HETATM   29  C10 UNL     1       4.754  -0.639  -0.114  1.00  0.00     0.158 C 
BRANCH  26  30
HETATM   30  O2  UNL     1       6.774   2.000   2.342  1.00  0.00    -0.393 OA
ATOM     31  H2  UNL     1       7.713   1.934   2.468  1.00  0.00     0.210 HD
ENDBRANCH  26  30
BRANCH  27  32
HETATM   32  O3  UNL     1       8.280   0.182   0.711  1.00  0.00    -0.390 OA
ATOM     33  H3  UNL     1       8.602  -0.708   0.631  1.00  0.00     0.210 HD
ENDBRANCH  27  32
BRANCH  28  34
HETATM   34  O4  UNL     1       6.604   0.179  -1.411  1.00  0.00    -0.390 OA
ATOM     35  H4  UNL     1       6.207  -0.233  -2.170  1.00  0.00     0.210 HD
ENDBRANCH  28  34
BRANCH  29  36
HETATM   36  O5  UNL     1       4.515  -1.939   0.333  1.00  0.00    -0.392 OA
ATOM     37  H5  UNL     1       4.864  -2.543  -0.312  1.00  0.00     0.210 HD
ENDBRANCH  29  36
ENDBRANCH  21  24
ENDBRANCH   1  21
TORSDOF 15
