REMARK  13 active torsions:
REMARK  status: ('A' for Active; 'I' for Inactive)
REMARK    1  A    between atoms: O1_2  and  C2_3 
REMARK    2  A    between atoms: C4_5  and  C5_6 
REMARK    3  A    between atoms: C6_7  and  C7_8 
REMARK    4  A    between atoms: C7_8  and  O2_12 
REMARK    5  A    between atoms: O2_12  and  C8_13 
REMARK    6  A    between atoms: C8_13  and  C10_15 
REMARK    7  A    between atoms: C10_15  and  C11_16 
REMARK    8  A    between atoms: C14_19  and  O3_20 
REMARK    9  A    between atoms: O3_20  and  C15_21 
REMARK   10  A    between atoms: C17_24  and  O5_25 
REMARK   11  A    between atoms: C18_27  and  O6_28 
REMARK   12  A    between atoms: C19_30  and  O7_31 
REMARK   13  A    between atoms: C21_34  and  O8_35 
ROOT
HETATM    1  C11 UNL     1      -0.313  -1.710  -0.903  1.00  0.00     0.017 C 
HETATM    2  C12 UNL     1      -1.444  -1.809   0.064  1.00  0.00     0.010 C 
HETATM    3  C13 UNL     1      -1.836  -0.436   0.521  1.00  0.00     0.032 C 
HETATM    4  C14 UNL     1      -2.571   0.262  -0.580  1.00  0.00     0.127 C 
HETATM    5  C20 UNL     1      -2.217  -0.390  -1.895  1.00  0.00     0.064 C 
HETATM    6  C21 UNL     1      -0.751  -0.745  -2.004  1.00  0.00     0.124 C 
ENDROOT
BRANCH   1   7
HETATM    7  C10 UNL     1       0.999  -1.287  -0.309  1.00  0.00     0.039 C 
BRANCH   7   8
HETATM    8  C8  UNL     1       1.420  -2.282   0.745  1.00  0.00     0.127 C 
HETATM    9  C9  UNL     1       1.376  -3.690   0.208  1.00  0.00     0.040 C 
BRANCH   8  10
HETATM   10  O2  UNL     1       2.648  -1.938   1.343  1.00  0.00    -0.331 OA
BRANCH  10  11
HETATM   11  C7  UNL     1       3.807  -1.969   0.595  1.00  0.00     0.135 C 
HETATM   12  N1  UNL     1       3.868  -2.765  -0.393  1.00  0.00    -0.380 N 
ATOM     13  H12 UNL     1       4.725  -2.788  -0.946  1.00  0.00     0.158 HD
ATOM     14  H11 UNL     1       3.089  -3.374  -0.642  1.00  0.00     0.158 HD
BRANCH  11  15
HETATM   15  C6  UNL     1       4.929  -1.092   0.954  1.00  0.00     0.056 C 
HETATM   16  C5  UNL     1       6.051  -1.074   0.284  1.00  0.00     0.017 C 
BRANCH  16  17
HETATM   17  C4  UNL     1       7.139  -0.186   0.676  1.00  0.00    -0.009 A 
HETATM   18  C3  UNL     1       7.132   0.697   1.742  1.00  0.00     0.077 A 
HETATM   19  C2  UNL     1       8.349   1.348   1.768  1.00  0.00     0.185 A 
HETATM   20  O9  UNL     1       9.045   0.882   0.776  1.00  0.00    -0.299 OA
HETATM   21  C22 UNL     1       8.378  -0.029   0.095  1.00  0.00     0.156 A 
BRANCH  19  22
HETATM   22  O1  UNL     1       8.728   2.325   2.707  1.00  0.00    -0.335 OA
HETATM   23  C1  UNL     1       7.822   2.703   3.724  1.00  0.00     0.212 C 
ENDBRANCH  19  22
ENDBRANCH  16  17
ENDBRANCH  11  15
ENDBRANCH  10  11
ENDBRANCH   8  10
ENDBRANCH   7   8
ENDBRANCH   1   7
BRANCH   6  24
HETATM   24  O8  UNL     1      -0.552  -1.336  -3.231  1.00  0.00    -0.395 OA
ATOM     25  H8  UNL     1      -0.824  -0.736  -3.915  1.00  0.00     0.210 HD
ENDBRANCH   6  24
BRANCH   4  26
HETATM   26  O3  UNL     1      -3.940   0.217  -0.364  1.00  0.00    -0.353 OA
BRANCH  26  27
HETATM   27  C15 UNL     1      -4.515   1.475  -0.321  1.00  0.00     0.291 C 
HETATM   28  O4  UNL     1      -5.001   1.780   0.959  1.00  0.00    -0.356 OA
HETATM   29  C16 UNL     1      -6.293   1.268   1.090  1.00  0.00     0.205 C 
HETATM   30  C17 UNL     1      -7.288   2.130   0.312  1.00  0.00     0.173 C 
HETATM   31  C18 UNL     1      -6.523   2.764  -0.822  1.00  0.00     0.182 C 
HETATM   32  C19 UNL     1      -5.541   1.732  -1.375  1.00  0.00     0.204 C 
BRANCH  30  33
HETATM   33  O5  UNL     1      -8.278   1.333  -0.233  1.00  0.00    -0.391 OA
ATOM     34  H5  UNL     1      -8.896   1.869  -0.716  1.00  0.00     0.210 HD
ENDBRANCH  30  33
BRANCH  31  35
HETATM   35  O6  UNL     1      -7.451   3.016  -1.843  1.00  0.00    -0.390 OA
ATOM     36  H6  UNL     1      -6.969   3.415  -2.558  1.00  0.00     0.210 HD
ENDBRANCH  31  35
BRANCH  32  37
HETATM   37  O7  UNL     1      -4.939   2.368  -2.487  1.00  0.00    -0.388 OA
ATOM     38  H7  UNL     1      -5.592   2.532  -3.158  1.00  0.00     0.210 HD
ENDBRANCH  32  37
ENDBRANCH  26  27
ENDBRANCH   4  26
TORSDOF 13
