REMARK  15 active torsions:
REMARK  status: ('A' for Active; 'I' for Inactive)
REMARK    1  A    between atoms: C2_2  and  C3_3 
REMARK    2  A    between atoms: C5_6  and  C6_7 
REMARK    3  A    between atoms: C7_8  and  C8_9 
REMARK    4  A    between atoms: C10_11  and  C11_12 
REMARK    5  A    between atoms: C11_12  and  C12_13 
REMARK    6  A    between atoms: C12_13  and  C21_31 
REMARK    7  A    between atoms: C13_14  and  C14_15 
REMARK    8  A    between atoms: C14_15  and  O2_16 
REMARK    9  A    between atoms: O2_16  and  C15_17 
REMARK   10  A    between atoms: C17_20  and  O4_22 
REMARK   11  A    between atoms: O4_22  and  O5_23 
REMARK   12  A    between atoms: C19_25  and  O6_26 
REMARK   13  A    between atoms: C20_28  and  O7_29 
REMARK   14  A    between atoms: C21_31  and  O8_32 
REMARK   15  A    between atoms: C23_35  and  O9_36 
ROOT
HETATM    1  C12 UNL     1       1.037   0.422   2.467  1.00  0.00    -0.055 C 
HETATM    2  C13 UNL     1       1.856  -0.223   1.703  1.00  0.00     0.004 C 
ENDROOT
BRANCH   1   3
HETATM    3  C11 UNL     1      -0.003   1.362   1.922  1.00  0.00     0.063 C 
BRANCH   3   4
HETATM    4  C10 UNL     1      -1.346   0.942   2.286  1.00  0.00    -0.016 C 
HETATM    5  C8  UNL     1      -2.355   0.617   1.481  1.00  0.00    -0.065 C 
HETATM    6  C9  UNL     1      -3.625   0.221   2.197  1.00  0.00     0.048 C 
BRANCH   5   7
HETATM    7  C7  UNL     1      -2.214   0.650   0.074  1.00  0.00     0.009 C 
HETATM    8  C6  UNL     1      -2.937   0.414  -0.960  1.00  0.00     0.037 C 
BRANCH   8   9
HETATM    9  C5  UNL     1      -4.286  -0.011  -1.191  1.00  0.00     0.068 C 
HETATM   10  O1  UNL     1      -5.261  -0.309  -0.269  1.00  0.00    -0.338 OA
HETATM   11  C3  UNL     1      -6.531  -0.464  -0.809  1.00  0.00     0.093 C 
HETATM   12  C4  UNL     1      -7.184  -1.706  -0.259  1.00  0.00     0.049 C 
HETATM   13  C23 UNL     1      -6.205  -0.622  -2.285  1.00  0.00     0.178 C 
HETATM   14  C22 UNL     1      -4.800  -0.183  -2.418  1.00  0.00     0.044 C 
BRANCH  11  15
HETATM   15  C2  UNL     1      -7.421   0.747  -0.647  1.00  0.00     0.037 C 
HETATM   16  C1  UNL     1      -6.720   1.961  -1.214  1.00  0.00     0.008 C 
ENDBRANCH  11  15
BRANCH  13  17
HETATM   17  O9  UNL     1      -6.252  -1.969  -2.661  1.00  0.00    -0.389 OA
ATOM     18  H9  UNL     1      -6.048  -2.068  -3.584  1.00  0.00     0.210 HD
ENDBRANCH  13  17
ENDBRANCH   8   9
ENDBRANCH   5   7
ENDBRANCH   3   4
ENDBRANCH   1   3
BRANCH   1  19
HETATM   19  C21 UNL     1       1.080   0.265   3.983  1.00  0.00     0.198 C 
BRANCH  19  20
HETATM   20  O8  UNL     1       1.340   1.547   4.474  1.00  0.00    -0.397 OA
ATOM     21  H8  UNL     1       1.367   1.449   5.419  1.00  0.00     0.209 HD
ENDBRANCH  19  20
ENDBRANCH   1  19
BRANCH   2  22
HETATM   22  C14 UNL     1       1.918  -0.162   0.244  1.00  0.00     0.198 C 
BRANCH  22  23
HETATM   23  O2  UNL     1       3.162   0.288  -0.225  1.00  0.00    -0.355 OA
BRANCH  23  24
HETATM   24  C15 UNL     1       4.216  -0.536   0.152  1.00  0.00     0.291 C 
HETATM   25  O3  UNL     1       5.098   0.248   0.885  1.00  0.00    -0.355 OA
HETATM   26  C16 UNL     1       6.384  -0.277   0.941  1.00  0.00     0.214 C 
HETATM   27  C17 UNL     1       7.078  -0.215  -0.405  1.00  0.00     0.142 C 
HETATM   28  C18 UNL     1       7.757  -1.551  -0.627  1.00  0.00     0.054 C 
HETATM   29  C19 UNL     1       5.985  -0.110  -1.478  1.00  0.00     0.191 C 
HETATM   30  C20 UNL     1       4.915  -1.103  -1.063  1.00  0.00     0.205 C 
BRANCH  27  31
HETATM   31  O4  UNL     1       7.942   0.855  -0.504  1.00  0.00    -0.227 OA
BRANCH  31  32
HETATM   32  O5  UNL     1       8.486   0.814  -1.701  1.00  0.00    -0.250 OA
ATOM     33  H5  UNL     1       9.081   1.551  -1.769  1.00  0.00     0.253 HD
ENDBRANCH  31  32
ENDBRANCH  27  31
BRANCH  29  34
HETATM   34  O6  UNL     1       5.489   1.192  -1.467  1.00  0.00    -0.390 OA
ATOM     35  H6  UNL     1       4.813   1.257  -2.131  1.00  0.00     0.210 HD
ENDBRANCH  29  34
BRANCH  30  36
HETATM   36  O7  UNL     1       4.022  -1.356  -2.097  1.00  0.00    -0.388 OA
ATOM     37  H7  UNL     1       4.461  -1.712  -2.860  1.00  0.00     0.210 HD
ENDBRANCH  30  36
ENDBRANCH  23  24
ENDBRANCH  22  23
ENDBRANCH   2  22
TORSDOF 15
