REMARK  12 active torsions:
REMARK  status: ('A' for Active; 'I' for Inactive)
REMARK    1  A    between atoms: C2_2  and  C3_3 
REMARK    2  A    between atoms: C3_3  and  C4_4 
REMARK    3  A    between atoms: C6_6  and  O1_7 
REMARK    4  A    between atoms: C8_9  and  O2_10 
REMARK    5  A    between atoms: O2_10  and  C9_11 
REMARK    6  A    between atoms: C10_15  and  O3_16 
REMARK    7  A    between atoms: O3_16  and  C11_17 
REMARK    8  A    between atoms: C14_20  and  O4_21 
REMARK    9  A    between atoms: C17_28  and  O5_29 
REMARK   10  A    between atoms: C18_31  and  C19_32 
REMARK   11  A    between atoms: C19_32  and  O6_33 
REMARK   12  A    between atoms: C21_37  and  O8_38 
ROOT
HETATM    1  C9  UNL     1       0.256  -1.208   0.493  1.00  0.00     0.478 C 
HETATM    2  N1  UNL     1      -0.530  -1.110  -0.722  1.00  0.00     0.004 N 
ATOM      3  H11 UNL     1      -0.217  -1.799  -1.406  1.00  0.00     0.286 HD
ATOM      4  H12 UNL     1      -0.304  -0.252  -1.225  1.00  0.00     0.286 HD
HETATM    5  C10 UNL     1      -1.943  -1.213  -0.517  1.00  0.00     0.360 C 
HETATM    6  C17 UNL     1      -2.319  -2.250   0.517  1.00  0.00     0.206 C 
HETATM    7  C18 UNL     1      -1.430  -2.171   1.739  1.00  0.00     0.183 C 
HETATM    8  O7  UNL     1      -0.549  -1.099   1.629  1.00  0.00    -0.328 OA
ENDROOT
BRANCH   1   9
HETATM    9  O2  UNL     1       1.139  -0.124   0.517  1.00  0.00    -0.294 OA
BRANCH   9  10
HETATM   10  C8  UNL     1       2.504  -0.130   0.494  1.00  0.00     0.110 A 
HETATM   11  C6  UNL     1       3.155   1.100   0.527  1.00  0.00     0.102 A 
HETATM   12  C5  UNL     1       4.518   1.105   0.505  1.00  0.00     0.049 A 
HETATM   13  C4  UNL     1       5.287  -0.039   0.452  1.00  0.00    -0.019 A 
HETATM   14  C21 UNL     1       4.649  -1.261   0.419  1.00  0.00     0.077 A 
HETATM   15  C20 UNL     1       3.249  -1.287   0.441  1.00  0.00     0.077 A 
BRANCH  11  16
HETATM   16  O1  UNL     1       2.386   2.264   0.581  1.00  0.00    -0.353 OA
HETATM   17  C7  UNL     1       3.035   3.513   0.615  1.00  0.00     0.210 C 
ENDBRANCH  11  16
BRANCH  13  18
HETATM   18  C3  UNL     1       6.775   0.007   0.430  1.00  0.00     0.068 C 
BRANCH  18  19
HETATM   19  C2  UNL     1       7.326  -0.262  -0.925  1.00  0.00    -0.032 C 
HETATM   20  C1  UNL     1       8.071   0.638  -1.545  1.00  0.00     0.007 C 
ENDBRANCH  18  19
ENDBRANCH  13  18
BRANCH  14  21
HETATM   21  O8  UNL     1       5.352  -2.464   0.365  1.00  0.00    -0.355 OA
HETATM   22  C22 UNL     1       4.647  -3.686   0.334  1.00  0.00     0.210 C 
ENDBRANCH  14  21
ENDBRANCH   9  10
ENDBRANCH   1   9
BRANCH   5  23
HETATM   23  O3  UNL     1      -2.454  -0.003  -0.093  1.00  0.00    -0.323 OA
BRANCH  23  24
HETATM   24  C11 UNL     1      -3.406   0.501  -0.989  1.00  0.00     0.323 C 
HETATM   25  C12 UNL     1      -3.006   1.815  -1.556  1.00  0.00     0.064 C 
HETATM   26  C13 UNL     1      -3.919   2.952  -1.237  1.00  0.00     0.038 C 
HETATM   27  C14 UNL     1      -5.374   2.596  -1.204  1.00  0.00     0.148 C 
HETATM   28  C15 UNL     1      -5.634   1.116  -1.179  1.00  0.00     0.213 C 
HETATM   29  C16 UNL     1      -7.053   0.868  -0.672  1.00  0.00     0.043 C 
HETATM   30  N2  UNL     1      -4.669   0.516  -0.278  1.00  0.00    -0.043 N 
ATOM     31  H22 UNL     1      -4.952  -0.402   0.066  1.00  0.00     0.280 HD
ATOM     32  H21 UNL     1      -4.618   0.980   0.629  1.00  0.00     0.280 HD
BRANCH  27  33
HETATM   33  O4  UNL     1      -6.084   3.147  -2.272  1.00  0.00    -0.393 OA
ATOM     34  H4  UNL     1      -7.007   2.921  -2.251  1.00  0.00     0.210 HD
ENDBRANCH  27  33
ENDBRANCH  23  24
ENDBRANCH   5  23
BRANCH   7  35
HETATM   35  C19 UNL     1      -2.235  -1.975   3.005  1.00  0.00     0.199 C 
BRANCH  35  36
HETATM   36  O6  UNL     1      -2.957  -0.784   2.970  1.00  0.00    -0.398 OA
ATOM     37  H6  UNL     1      -3.462  -0.661   3.765  1.00  0.00     0.209 HD
ENDBRANCH  35  36
ENDBRANCH   7  35
BRANCH   6  38
HETATM   38  O5  UNL     1      -2.366  -3.538  -0.012  1.00  0.00    -0.389 OA
ATOM     39  H5  UNL     1      -2.602  -4.190   0.638  1.00  0.00     0.210 HD
ENDBRANCH   6  38
TORSDOF 12
