REMARK  14 active torsions:
REMARK  status: ('A' for Active; 'I' for Inactive)
REMARK    1  A    between atoms: C2_2  and  C3_3 
REMARK    2  A    between atoms: C3_3  and  C4_4 
REMARK    3  A    between atoms: C4_4  and  C5_5 
REMARK    4  A    between atoms: C5_5  and  C6_6 
REMARK    5  A    between atoms: C6_6  and  C7_7 
REMARK    6  A    between atoms: C7_7  and  C8_8 
REMARK    7  A    between atoms: C8_8  and  C9_9 
REMARK    8  A    between atoms: C10_10  and  O1_11 
REMARK    9  A    between atoms: O1_11  and  C11_12 
REMARK   10  A    between atoms: C14_16  and  O3_17 
REMARK   11  A    between atoms: C15_19  and  O4_20 
REMARK   12  A    between atoms: C16_22  and  O5_23 
REMARK   13  A    between atoms: C17_25  and  O6_26 
REMARK   14  A    between atoms: C22_36  and  O9_37 
ROOT
HETATM    1  C9  UNL     1       0.429   0.831  -0.305  1.00  0.00     0.040 C 
HETATM    2  C10 UNL     1      -0.903   0.726  -0.471  1.00  0.00     0.113 C 
HETATM    3  C17 UNL     1      -1.491   1.968   0.006  1.00  0.00     0.179 C 
HETATM    4  C18 UNL     1      -0.362   2.954  -0.203  1.00  0.00     0.274 C 
HETATM    5  N1  UNL     1       0.742   2.113   0.221  1.00  0.00    -0.362 N 
ATOM      6  H1  UNL     1       1.558   2.381   0.772  1.00  0.00     0.162 HD
HETATM    7  O7  UNL     1      -0.632   4.024   0.695  1.00  0.00    -0.291 OA
HETATM    8  C19 UNL     1      -1.994   4.405   0.663  1.00  0.00     0.267 C 
HETATM    9  O8  UNL     1      -2.538   5.034   1.598  1.00  0.00    -0.265 OA
HETATM   10  C20 UNL     1      -2.706   3.988  -0.580  1.00  0.00     0.114 C 
HETATM   11  C21 UNL     1      -4.101   4.525  -0.523  1.00  0.00     0.023 C 
HETATM   12  C22 UNL     1      -2.672   2.474  -0.777  1.00  0.00     0.177 C 
ENDROOT
BRANCH   2  13
HETATM   13  O1  UNL     1      -1.528  -0.404  -1.009  1.00  0.00    -0.317 OA
BRANCH  13  14
HETATM   14  C11 UNL     1      -1.835  -1.557  -0.257  1.00  0.00     0.297 C 
HETATM   15  O2  UNL     1      -2.680  -1.315   0.795  1.00  0.00    -0.351 OA
HETATM   16  C12 UNL     1      -3.972  -1.779   0.599  1.00  0.00     0.152 C 
HETATM   17  C13 UNL     1      -4.834  -1.448   1.795  1.00  0.00     0.042 C 
HETATM   18  C14 UNL     1      -4.022  -3.279   0.418  1.00  0.00     0.178 C 
HETATM   19  C15 UNL     1      -2.951  -3.773  -0.508  1.00  0.00     0.183 C 
HETATM   20  C16 UNL     1      -2.341  -2.598  -1.233  1.00  0.00     0.205 C 
BRANCH  18  21
HETATM   21  O3  UNL     1      -3.943  -3.957   1.629  1.00  0.00    -0.390 OA
ATOM     22  H3  UNL     1      -3.974  -4.900   1.515  1.00  0.00     0.210 HD
ENDBRANCH  18  21
BRANCH  19  23
HETATM   23  O4  UNL     1      -3.435  -4.681  -1.440  1.00  0.00    -0.390 OA
ATOM     24  H4  UNL     1      -2.756  -4.994  -2.027  1.00  0.00     0.210 HD
ENDBRANCH  19  23
BRANCH  20  25
HETATM   25  O5  UNL     1      -3.148  -2.078  -2.219  1.00  0.00    -0.388 OA
ATOM     26  H5  UNL     1      -3.465  -2.731  -2.831  1.00  0.00     0.210 HD
ENDBRANCH  20  25
ENDBRANCH  13  14
ENDBRANCH   2  13
BRANCH   1  27
HETATM   27  C8  UNL     1       1.427  -0.207  -0.652  1.00  0.00     0.059 C 
BRANCH  27  28
HETATM   28  C7  UNL     1       2.190  -0.800   0.461  1.00  0.00     0.006 C 
BRANCH  28  29
HETATM   29  C6  UNL     1       3.044   0.057   1.301  1.00  0.00     0.000 C 
BRANCH  29  30
HETATM   30  C5  UNL     1       4.133   0.790   0.606  1.00  0.00     0.000 C 
BRANCH  30  31
HETATM   31  C4  UNL     1       5.140  -0.045  -0.116  1.00  0.00     0.000 C 
BRANCH  31  32
HETATM   32  C3  UNL     1       5.837  -0.966   0.833  1.00  0.00    -0.000 C 
BRANCH  32  33
HETATM   33  C2  UNL     1       6.873  -1.804   0.103  1.00  0.00    -0.005 C 
HETATM   34  C1  UNL     1       7.894  -0.887  -0.535  1.00  0.00     0.005 C 
ENDBRANCH  32  33
ENDBRANCH  31  32
ENDBRANCH  30  31
ENDBRANCH  29  30
ENDBRANCH  28  29
ENDBRANCH  27  28
ENDBRANCH   1  27
BRANCH   3  35
HETATM   35  O6  UNL     1      -1.759   1.958   1.377  1.00  0.00    -0.376 OA
ATOM     36  H6  UNL     1      -2.143   2.769   1.689  1.00  0.00     0.211 HD
ENDBRANCH   3  35
BRANCH  12  37
HETATM   37  O9  UNL     1      -3.819   1.973  -0.162  1.00  0.00    -0.391 OA
ATOM     38  H9  UNL     1      -4.565   2.292  -0.656  1.00  0.00     0.210 HD
ENDBRANCH  12  37
TORSDOF 14
