REMARK  15 active torsions:
REMARK  status: ('A' for Active; 'I' for Inactive)
REMARK    1  A    between atoms: O1_2  and  C2_3 
REMARK    2  A    between atoms: C4_5  and  O2_6 
REMARK    3  A    between atoms: C4_5  and  O3_8 
REMARK    4  A    between atoms: O3_8  and  C6_9 
REMARK    5  A    between atoms: C6_9  and  C7_10 
REMARK    6  A    between atoms: C7_10  and  C8_11 
REMARK    7  A    between atoms: C9_12  and  C10_13 
REMARK    8  A    between atoms: C10_13  and  C11_14 
REMARK    9  A    between atoms: C11_14  and  C12_15 
REMARK   10  A    between atoms: C14_17  and  O4_18 
REMARK   11  A    between atoms: C16_21  and  O5_22 
REMARK   12  A    between atoms: C17_24  and  O6_25 
REMARK   13  A    between atoms: C19_29  and  O8_30 
REMARK   14  A    between atoms: C20_32  and  O9_33 
REMARK   15  A    between atoms: C21_35  and  O10_36 
ROOT
HETATM    1  C6  UNL     1      -2.126   1.033   0.309  1.00  0.00     0.203 C 
HETATM    2  O7  UNL     1      -2.887   1.704   1.276  1.00  0.00    -0.349 OA
HETATM    3  C18 UNL     1      -2.986   3.044   0.986  1.00  0.00     0.206 C 
HETATM    4  C19 UNL     1      -3.999   3.165  -0.142  1.00  0.00     0.173 C 
HETATM    5  C20 UNL     1      -3.684   2.229  -1.258  1.00  0.00     0.183 C 
HETATM    6  C21 UNL     1      -2.415   1.451  -1.069  1.00  0.00     0.212 C 
ENDROOT
BRANCH   1   7
HETATM    7  O3  UNL     1      -2.406  -0.351   0.557  1.00  0.00    -0.287 OA
BRANCH   7   8
HETATM    8  C4  UNL     1      -3.679  -0.799   0.249  1.00  0.00     0.212 C 
HETATM    9  C2  UNL     1      -3.851  -1.799  -0.604  1.00  0.00     0.100 C 
HETATM   10  C3  UNL     1      -5.208  -2.306  -0.957  1.00  0.00     0.081 C 
BRANCH   9  11
HETATM   11  O1  UNL     1      -2.733  -2.369  -1.165  1.00  0.00    -0.356 OA
HETATM   12  C1  UNL     1      -2.465  -3.754  -1.152  1.00  0.00     0.209 C 
ENDBRANCH   9  11
BRANCH   8  13
HETATM   13  O2  UNL     1      -4.797  -0.236   0.805  1.00  0.00    -0.334 OA
HETATM   14  C5  UNL     1      -5.389  -0.628   2.026  1.00  0.00     0.212 C 
ENDBRANCH   8  13
ENDBRANCH   7   8
ENDBRANCH   1   7
BRANCH   1  15
HETATM   15  C7  UNL     1      -0.688   1.213   0.736  1.00  0.00     0.098 C 
BRANCH  15  16
HETATM   16  C8  UNL     1       0.267   0.360   0.004  1.00  0.00    -0.025 C 
HETATM   17  C9  UNL     1       1.256   0.903  -0.686  1.00  0.00    -0.030 C 
BRANCH  17  18
HETATM   18  C10 UNL     1       2.264   0.134  -1.453  1.00  0.00     0.027 C 
BRANCH  18  19
HETATM   19  C11 UNL     1       3.672   0.391  -0.963  1.00  0.00     0.011 C 
BRANCH  19  20
HETATM   20  C12 UNL     1       3.879   0.015   0.483  1.00  0.00     0.019 C 
HETATM   21  C13 UNL     1       3.602  -1.446   0.643  1.00  0.00     0.039 C 
HETATM   22  C14 UNL     1       4.746  -2.169   1.335  1.00  0.00     0.121 C 
HETATM   23  C15 UNL     1       5.951  -1.989   0.428  1.00  0.00     0.066 C 
HETATM   24  C16 UNL     1       6.330  -0.548   0.437  1.00  0.00     0.149 C 
HETATM   25  C17 UNL     1       5.278   0.410   0.860  1.00  0.00     0.151 C 
BRANCH  22  26
HETATM   26  O4  UNL     1       4.410  -3.489   1.525  1.00  0.00    -0.395 OA
ATOM     27  H4  UNL     1       5.125  -3.941   1.958  1.00  0.00     0.210 HD
ENDBRANCH  22  26
BRANCH  24  28
HETATM   28  O5  UNL     1       6.691  -0.226  -0.891  1.00  0.00    -0.393 OA
ATOM     29  H5  UNL     1       6.933   0.693  -0.885  1.00  0.00     0.210 HD
ENDBRANCH  24  28
BRANCH  25  30
HETATM   30  O6  UNL     1       5.576   1.699   0.428  1.00  0.00    -0.393 OA
ATOM     31  H6  UNL     1       6.461   1.949   0.666  1.00  0.00     0.210 HD
ENDBRANCH  25  30
ENDBRANCH  19  20
ENDBRANCH  18  19
ENDBRANCH  17  18
ENDBRANCH  15  16
ENDBRANCH   1  15
BRANCH   6  32
HETATM   32  O10 UNL     1      -1.353   2.167  -1.612  1.00  0.00    -0.387 OA
ATOM     33  H10 UNL     1      -1.540   2.437  -2.503  1.00  0.00     0.210 HD
ENDBRANCH   6  32
BRANCH   5  34
HETATM   34  O9  UNL     1      -3.530   3.001  -2.428  1.00  0.00    -0.390 OA
ATOM     35  H9  UNL     1      -3.329   2.404  -3.139  1.00  0.00     0.210 HD
ENDBRANCH   5  34
BRANCH   4  36
HETATM   36  O8  UNL     1      -4.039   4.495  -0.524  1.00  0.00    -0.391 OA
ATOM     37  H8  UNL     1      -4.672   4.571  -1.229  1.00  0.00     0.210 HD
ENDBRANCH   4  36
TORSDOF 15
