REMARK  13 active torsions:
REMARK  status: ('A' for Active; 'I' for Inactive)
REMARK    1  A    between atoms: N1_1  and  C1_4 
REMARK    2  A    between atoms: C2_7  and  N3_8 
REMARK    3  A    between atoms: N3_8  and  C3_10 
REMARK    4  A    between atoms: C5_14  and  O1_15 
REMARK    5  A    between atoms: N7_20  and  C7_21 
REMARK    6  A    between atoms: C7_21  and  C8_22 
REMARK    7  A    between atoms: C8_22  and  C9_23 
REMARK    8  A    between atoms: C9_23  and  C10_24 
REMARK    9  A    between atoms: C10_24  and  C11_25 
REMARK   10  A    between atoms: C11_25  and  C12_26 
REMARK   11  A    between atoms: C12_26  and  C13_27 
REMARK   12  A    between atoms: C13_27  and  S1_28 
REMARK   13  A    between atoms: S1_28  and  C14_29 
ROOT
HETATM    1  C1  UNL     1       3.598  -0.194   1.453  1.00  0.00     0.693 A 
HETATM    2  N2  UNL     1       4.714   0.008   0.674  1.00  0.00    -0.022 N 
ATOM      3  H2  UNL     1       5.238  -0.812   0.369  1.00  0.00     0.203 HD
HETATM    4  C2  UNL     1       5.152   1.201   0.295  1.00  0.00     0.695 A 
HETATM    5  N6  UNL     1       4.462   2.286   0.698  1.00  0.00    -0.187 N 
ATOM      6  H6  UNL     1       4.769   3.221   0.428  1.00  0.00     0.185 HD
HETATM    7  C6  UNL     1       3.376   2.127   1.452  1.00  0.00     0.218 A 
HETATM    8  N7  UNL     1       2.923   0.888   1.843  1.00  0.00    -0.179 N 
ENDROOT
BRANCH   8   9
HETATM    9  C7  UNL     1       1.719   0.789   2.615  1.00  0.00     0.148 C 
BRANCH   9  10
HETATM   10  C8  UNL     1       0.448   0.843   1.819  1.00  0.00     0.021 C 
BRANCH  10  11
HETATM   11  C9  UNL     1       0.334  -0.252   0.808  1.00  0.00     0.002 C 
BRANCH  11  12
HETATM   12  C10 UNL     1      -0.986  -0.053   0.076  1.00  0.00     0.000 C 
BRANCH  12  13
HETATM   13  C11 UNL     1      -1.203  -1.121  -0.984  1.00  0.00     0.001 C 
BRANCH  13  14
HETATM   14  C12 UNL     1      -1.241  -2.483  -0.429  1.00  0.00     0.010 C 
BRANCH  14  15
HETATM   15  C13 UNL     1      -2.318  -2.880   0.507  1.00  0.00     0.082 C 
BRANCH  15  16
HETATM   16  S1  UNL     1      -3.962  -2.991  -0.018  1.00  0.00    -0.095 SA
BRANCH  16  17
HETATM   17  C14 UNL     1      -4.943  -1.601  -0.388  1.00  0.00     0.136 C 
HETATM   18  N8  UNL     1      -6.175  -1.809  -0.878  1.00  0.00    -0.364 N 
HETATM   19  C15 UNL     1      -6.818  -0.576  -1.116  1.00  0.00     0.106 C 
ATOM     20  H8  UNL     1      -6.587  -2.726  -1.053  1.00  0.00     0.162 HD
HETATM   21  C16 UNL     1      -8.279  -0.545  -0.787  1.00  0.00     0.027 C 
HETATM   22  C20 UNL     1      -6.117   0.322  -0.083  1.00  0.00     0.106 C 
HETATM   23  C17 UNL     1      -8.592   0.810  -0.178  1.00  0.00     0.002 C 
HETATM   24  C18 UNL     1      -7.783   1.913  -0.838  1.00  0.00     0.002 C 
HETATM   25  C19 UNL     1      -6.291   1.728  -0.537  1.00  0.00     0.027 C 
HETATM   26  N9  UNL     1      -4.764  -0.194  -0.299  1.00  0.00    -0.364 N 
ATOM     27  H9  UNL     1      -3.894   0.334  -0.369  1.00  0.00     0.162 HD
ENDBRANCH  16  17
ENDBRANCH  15  16
ENDBRANCH  14  15
ENDBRANCH  13  14
ENDBRANCH  12  13
ENDBRANCH  11  12
ENDBRANCH  10  11
ENDBRANCH   9  10
ENDBRANCH   8   9
BRANCH   1  28
HETATM   28  N1  UNL     1       3.311  -1.404   1.767  1.00  0.00    -0.234 N 
ATOM     29  H12 UNL     1       3.827  -2.232   1.469  1.00  0.00     0.174 HD
ATOM     30  H11 UNL     1       2.484  -1.554   2.344  1.00  0.00     0.174 HD
ENDBRANCH   1  28
BRANCH   4  31
HETATM   31  N3  UNL     1       6.205   1.366  -0.436  1.00  0.00    -0.203 N 
ATOM     32  H3  UNL     1       6.488   2.312  -0.692  1.00  0.00     0.179 HD
BRANCH  31  33
HETATM   33  C3  UNL     1       6.985   0.258  -0.896  1.00  0.00     0.239 C 
HETATM   34  N4  UNL     1       7.765  -0.249   0.195  1.00  0.00    -0.120 NA
HETATM   35  N5  UNL     1       9.095   0.015  -0.021  1.00  0.00    -0.144 NA
HETATM   36  C4  UNL     1       9.212   0.958  -1.102  1.00  0.00     0.165 C 
HETATM   37  C5  UNL     1       7.990   0.680  -1.953  1.00  0.00     0.174 C 
BRANCH  37  38
HETATM   38  O1  UNL     1       8.267  -0.316  -2.862  1.00  0.00    -0.391 OA
ATOM     39  H1  UNL     1       8.896  -0.052  -3.523  1.00  0.00     0.210 HD
ENDBRANCH  37  38
ENDBRANCH  31  33
ENDBRANCH   4  31
TORSDOF 13
