REMARK  14 active torsions:
REMARK  status: ('A' for Active; 'I' for Inactive)
REMARK    1  A    between atoms: C2_2  and  C3_3 
REMARK    2  A    between atoms: C3_3  and  C4_4 
REMARK    3  A    between atoms: C4_4  and  C5_5 
REMARK    4  A    between atoms: C5_5  and  C6_6 
REMARK    5  A    between atoms: C7_7  and  C8_8 
REMARK    6  A    between atoms: C8_8  and  C9_9 
REMARK    7  A    between atoms: C10_11  and  O2_12 
REMARK    8  A    between atoms: O2_12  and  C11_13 
REMARK    9  A    between atoms: C14_18  and  C15_19 
REMARK   10  A    between atoms: C15_19  and  O5_20 
REMARK   11  A    between atoms: C17_23  and  O6_24 
REMARK   12  A    between atoms: C18_26  and  O7_27 
REMARK   13  A    between atoms: C19_29  and  O8_30 
REMARK   14  A    between atoms: N1_34  and  O9_36 
ROOT
HETATM    1  C9  UNL     1       1.118  -2.363   0.165  1.00  0.00     0.175 C 
HETATM    2  O1  UNL     1       0.496  -1.471   0.973  1.00  0.00    -0.347 OA
HETATM    3  C10 UNL     1      -0.770  -1.803   1.437  1.00  0.00     0.292 C 
HETATM    4  C19 UNL     1      -1.004  -3.256   1.262  1.00  0.00     0.178 C 
HETATM    5  C20 UNL     1      -1.022  -3.654  -0.201  1.00  0.00     0.093 C 
HETATM    6  C21 UNL     1       0.251  -3.130  -0.731  1.00  0.00     0.041 C 
HETATM    7  N1  UNL     1       0.579  -3.344  -1.935  1.00  0.00    -0.275 N 
ATOM      8  H1  UNL     1       1.465  -2.970  -2.276  1.00  0.00     0.193 HD
ENDROOT
BRANCH   3   9
HETATM    9  O2  UNL     1      -1.654  -0.963   0.829  1.00  0.00    -0.326 OA
BRANCH   9  10
HETATM   10  C11 UNL     1      -2.315  -0.068   1.638  1.00  0.00     0.294 C 
HETATM   11  O3  UNL     1      -3.641  -0.452   1.612  1.00  0.00    -0.350 OA
HETATM   12  C12 UNL     1      -4.374  -0.149   0.530  1.00  0.00     0.157 C 
HETATM   13  C13 UNL     1      -5.836   0.099   0.784  1.00  0.00     0.200 C 
HETATM   14  C16 UNL     1      -3.957   1.052  -0.278  1.00  0.00     0.079 C 
HETATM   15  O4  UNL     1      -6.119   1.382   0.268  1.00  0.00    -0.381 OA
HETATM   16  C14 UNL     1      -5.263   1.525  -0.823  1.00  0.00     0.154 C 
HETATM   17  C17 UNL     1      -3.236   2.021   0.596  1.00  0.00     0.161 C 
HETATM   18  C18 UNL     1      -2.073   1.370   1.311  1.00  0.00     0.202 C 
BRANCH  16  19
HETATM   19  C15 UNL     1      -5.291   2.909  -1.360  1.00  0.00     0.196 C 
BRANCH  19  20
HETATM   20  O5  UNL     1      -4.465   3.107  -2.448  1.00  0.00    -0.398 OA
ATOM     21  H5  UNL     1      -4.483   3.993  -2.792  1.00  0.00     0.209 HD
ENDBRANCH  19  20
ENDBRANCH  16  19
BRANCH  17  22
HETATM   22  O6  UNL     1      -2.836   3.173  -0.079  1.00  0.00    -0.392 OA
ATOM     23  H6  UNL     1      -2.377   3.790   0.478  1.00  0.00     0.210 HD
ENDBRANCH  17  22
BRANCH  18  24
HETATM   24  O7  UNL     1      -0.956   1.535   0.464  1.00  0.00    -0.388 OA
ATOM     25  H7  UNL     1      -0.802   2.449   0.256  1.00  0.00     0.210 HD
ENDBRANCH  18  24
ENDBRANCH   9  10
ENDBRANCH   3   9
BRANCH   4  26
HETATM   26  O8  UNL     1      -2.104  -3.746   1.952  1.00  0.00    -0.390 OA
ATOM     27  H8  UNL     1      -2.254  -4.677   1.840  1.00  0.00     0.210 HD
ENDBRANCH   4  26
BRANCH   1  28
HETATM   28  C8  UNL     1       2.139  -1.611  -0.695  1.00  0.00     0.065 C 
BRANCH  28  29
HETATM   29  C7  UNL     1       3.146  -0.935   0.149  1.00  0.00    -0.028 C 
HETATM   30  C6  UNL     1       4.433  -1.232   0.042  1.00  0.00    -0.031 C 
BRANCH  30  31
HETATM   31  C5  UNL     1       5.478  -0.585   0.863  1.00  0.00     0.027 C 
BRANCH  31  32
HETATM   32  C4  UNL     1       6.511   0.143   0.050  1.00  0.00     0.004 C 
BRANCH  32  33
HETATM   33  C3  UNL     1       5.963   1.246  -0.803  1.00  0.00    -0.000 C 
BRANCH  33  34
HETATM   34  C2  UNL     1       5.275   2.308   0.046  1.00  0.00    -0.005 C 
HETATM   35  C1  UNL     1       4.729   3.410  -0.810  1.00  0.00     0.005 C 
ENDBRANCH  33  34
ENDBRANCH  32  33
ENDBRANCH  31  32
ENDBRANCH  30  31
ENDBRANCH  28  29
ENDBRANCH   1  28
BRANCH   7  36
HETATM   36  O9  UNL     1      -0.222  -4.069  -2.810  1.00  0.00    -0.290 OA
ATOM     37  H9  UNL     1       0.024  -4.230  -3.713  1.00  0.00     0.244 HD
ENDBRANCH   7  36
TORSDOF 14
