REMARK  15 active torsions:
REMARK  status: ('A' for Active; 'I' for Inactive)
REMARK    1  A    between atoms: C2_2  and  C4_4 
REMARK    2  A    between atoms: C4_4  and  C5_5 
REMARK    3  A    between atoms: C5_5  and  C6_6 
REMARK    4  A    between atoms: C6_6  and  C8_8 
REMARK    5  A    between atoms: C8_8  and  O1_9 
REMARK    6  A    between atoms: C8_8  and  C9_11 
REMARK    7  A    between atoms: C9_11  and  C10_12 
REMARK    8  A    between atoms: C13_17  and  O3_18 
REMARK    9  A    between atoms: O3_18  and  C14_19 
REMARK   10  A    between atoms: C15_21  and  C16_22 
REMARK   11  A    between atoms: C16_22  and  O5_23 
REMARK   12  A    between atoms: C17_25  and  O6_26 
REMARK   13  A    between atoms: C18_28  and  O7_29 
REMARK   14  A    between atoms: C19_31  and  O8_32 
REMARK   15  A    between atoms: C20_34  and  O9_35 
ROOT
HETATM    1  C10 UNL     1       1.321  -0.804   0.371  1.00  0.00    -0.007 C 
HETATM    2  C11 UNL     1       0.064  -1.137   0.626  1.00  0.00     0.014 C 
HETATM    3  S1  UNL     1      -0.508  -2.835   0.663  1.00  0.00    -0.052 SA
HETATM    4  C12 UNL     1      -2.071  -2.440   1.481  1.00  0.00     0.222 C 
HETATM    5  O2  UNL     1      -2.671  -3.241   2.158  1.00  0.00    -0.282 OA
HETATM    6  C13 UNL     1      -2.320  -1.046   1.106  1.00  0.00     0.239 C 
HETATM    7  C20 UNL     1      -1.090  -0.291   0.920  1.00  0.00     0.195 C 
ENDROOT
BRANCH   6   8
HETATM    8  O3  UNL     1      -3.207  -0.847   0.087  1.00  0.00    -0.342 OA
BRANCH   8   9
HETATM    9  C14 UNL     1      -4.386  -0.284   0.283  1.00  0.00     0.292 C 
HETATM   10  O4  UNL     1      -5.515  -1.038   0.012  1.00  0.00    -0.348 OA
HETATM   11  C15 UNL     1      -6.671  -0.286  -0.017  1.00  0.00     0.179 C 
HETATM   12  C17 UNL     1      -6.746   0.675  -1.168  1.00  0.00     0.180 C 
HETATM   13  C18 UNL     1      -5.340   0.932  -1.649  1.00  0.00     0.183 C 
HETATM   14  C19 UNL     1      -4.449   1.075  -0.409  1.00  0.00     0.204 C 
BRANCH  11  15
HETATM   15  C16 UNL     1      -7.838  -1.257  -0.155  1.00  0.00     0.198 C 
BRANCH  15  16
HETATM   16  O5  UNL     1      -9.049  -0.593  -0.194  1.00  0.00    -0.398 OA
ATOM     17  H5  UNL     1      -9.776  -1.198  -0.280  1.00  0.00     0.209 HD
ENDBRANCH  15  16
ENDBRANCH  11  15
BRANCH  12  18
HETATM   18  O6  UNL     1      -7.423   1.846  -0.845  1.00  0.00    -0.390 OA
ATOM     19  H6  UNL     1      -7.470   2.454  -1.573  1.00  0.00     0.210 HD
ENDBRANCH  12  18
BRANCH  13  20
HETATM   20  O7  UNL     1      -5.263   2.067  -2.429  1.00  0.00    -0.390 OA
ATOM     21  H7  UNL     1      -4.377   2.229  -2.732  1.00  0.00     0.210 HD
ENDBRANCH  13  20
BRANCH  14  22
HETATM   22  O8  UNL     1      -5.067   2.034   0.391  1.00  0.00    -0.388 OA
ATOM     23  H8  UNL     1      -5.106   2.880  -0.040  1.00  0.00     0.210 HD
ENDBRANCH  14  22
ENDBRANCH   8   9
ENDBRANCH   6   8
BRANCH   7  24
HETATM   24  O9  UNL     1      -0.842   0.590   1.999  1.00  0.00    -0.387 OA
ATOM     25  H9  UNL     1      -1.592   1.140   2.190  1.00  0.00     0.210 HD
ENDBRANCH   7  24
BRANCH   1  26
HETATM   26  C9  UNL     1       1.824   0.584   0.333  1.00  0.00     0.060 C 
BRANCH  26  27
HETATM   27  C8  UNL     1       2.859   0.925   1.366  1.00  0.00     0.125 C 
BRANCH  27  28
HETATM   28  C6  UNL     1       4.119   0.115   1.309  1.00  0.00     0.011 C 
HETATM   29  C7  UNL     1       4.029  -1.277   1.814  1.00  0.00     0.012 C 
BRANCH  28  30
HETATM   30  C5  UNL     1       4.798   0.247  -0.050  1.00  0.00     0.007 C 
BRANCH  30  31
HETATM   31  C4  UNL     1       6.198  -0.300   0.121  1.00  0.00     0.004 C 
BRANCH  31  32
HETATM   32  C2  UNL     1       6.984  -0.225  -1.169  1.00  0.00    -0.023 C 
HETATM   33  C1  UNL     1       7.122   1.178  -1.667  1.00  0.00     0.009 C 
HETATM   34  C3  UNL     1       8.391  -0.756  -0.871  1.00  0.00     0.009 C 
ENDBRANCH  31  32
ENDBRANCH  30  31
ENDBRANCH  28  30
ENDBRANCH  27  28
BRANCH  27  35
HETATM   35  O1  UNL     1       3.301   2.268   1.154  1.00  0.00    -0.395 OA
ATOM     36  H1  UNL     1       2.502   2.781   1.190  1.00  0.00     0.210 HD
ENDBRANCH  27  35
ENDBRANCH  26  27
ENDBRANCH   1  26
TORSDOF 15
