REMARK  4 active torsions:
REMARK  status: ('A' for Active; 'I' for Inactive)
REMARK    1  A    between atoms: C4_5  and  O1_6 
REMARK    2  A    between atoms: O1_6  and  C5_7 
REMARK    3  A    between atoms: C5_7  and  C6_8 
REMARK    4  A    between atoms: C8_10  and  N1_11 
ROOT
HETATM    1  N1  UNL     1      -1.755  -0.569   0.599  1.00  0.00    -0.341 N 
HETATM    2  C9  UNL     1      -2.830   0.233   1.024  1.00  0.00     0.140 C 
HETATM    3  C10 UNL     1      -2.835   1.647   0.755  1.00  0.00     0.118 A 
HETATM    4  C11 UNL     1      -3.123   2.240  -0.448  1.00  0.00     0.043 A 
HETATM    5  C12 UNL     1      -3.014   3.627  -0.282  1.00  0.00     0.027 A 
HETATM    6  C13 UNL     1      -2.656   3.770   1.057  1.00  0.00     0.142 A 
HETATM    7  O2  UNL     1      -2.564   2.587   1.619  1.00  0.00    -0.319 OA
HETATM    8  N2  UNL     1      -3.804  -0.343   1.684  1.00  0.00    -0.341 N 
ATOM      9  H2  UNL     1      -4.605   0.196   2.013  1.00  0.00     0.167 HD
HETATM   10  C14 UNL     1      -3.712  -1.752   1.931  1.00  0.00     0.156 C 
HETATM   11  N3  UNL     1      -3.055  -2.541   0.958  1.00  0.00    -0.231 NA
HETATM   12  C15 UNL     1      -3.946  -3.256   0.090  1.00  0.00     0.331 C 
HETATM   13  N4  UNL     1      -4.093  -2.365  -1.041  1.00  0.00    -0.060 N 
ATOM     14  H41 UNL     1      -4.799  -1.638  -0.925  1.00  0.00     0.278 HD
ATOM     15  H42 UNL     1      -4.519  -2.787  -1.866  1.00  0.00     0.278 HD
HETATM   16  C16 UNL     1      -2.722  -1.870  -1.237  1.00  0.00     0.275 C 
HETATM   17  C17 UNL     1      -2.102  -1.922   0.122  1.00  0.00     0.194 C 
ENDROOT
BRANCH   1  18
HETATM   18  C8  UNL     1      -0.421  -0.095   0.633  1.00  0.00     0.088 C 
HETATM   19  C7  UNL     1      -0.035   1.067  -0.246  1.00  0.00     0.032 C 
HETATM   20  C6  UNL     1       1.372   0.428  -0.260  1.00  0.00     0.014 C 
HETATM   21  C18 UNL     1       0.588  -0.907  -0.196  1.00  0.00     0.032 C 
BRANCH  20  22
HETATM   22  C5  UNL     1       2.103   0.620  -1.542  1.00  0.00     0.180 C 
BRANCH  22  23
HETATM   23  O1  UNL     1       3.342   0.058  -1.535  1.00  0.00    -0.351 OA
BRANCH  23  24
HETATM   24  C4  UNL     1       4.479   0.245  -0.841  1.00  0.00     0.069 A 
HETATM   25  C3  UNL     1       4.618   1.206   0.124  1.00  0.00     0.040 A 
HETATM   26  C2  UNL     1       5.790   1.391   0.836  1.00  0.00     0.045 A 
HETATM   27  C1  UNL     1       6.854   0.568   0.552  1.00  0.00     0.116 A 
HETATM   28  F1  UNL     1       8.004   0.749   1.249  1.00  0.00    -0.206 F 
HETATM   29  C20 UNL     1       6.781  -0.416  -0.406  1.00  0.00     0.045 A 
HETATM   30  C19 UNL     1       5.600  -0.564  -1.087  1.00  0.00     0.040 A 
ENDBRANCH  23  24
ENDBRANCH  22  23
ENDBRANCH  20  22
ENDBRANCH   1  18
TORSDOF 4
