REMARK  7 active torsions:
REMARK  status: ('A' for Active; 'I' for Inactive)
REMARK    1  A    between atoms: C2_2  and  C3_3 
REMARK    2  A    between atoms: C2_2  and  C16_21 
REMARK    3  A    between atoms: C3_3  and  C4_4 
REMARK    4  A    between atoms: C7_8  and  N1_9 
REMARK    5  A    between atoms: C16_21  and  O3_22 
REMARK    6  A    between atoms: C16_21  and  O4_24 
REMARK    7  A    between atoms: O4_24  and  C17_25 
ROOT
HETATM    1  C4  UNL     1       0.841  -0.334   0.420  1.00  0.00    -0.014 C 
HETATM    2  C5  UNL     1       1.510  -0.847   1.493  1.00  0.00     0.025 C 
HETATM    3  C6  UNL     1       2.943  -0.560   1.609  1.00  0.00     0.242 C 
HETATM    4  F1  UNL     1       3.492  -1.433   2.526  1.00  0.00    -0.241 F 
HETATM    5  C7  UNL     1       3.594  -0.657   0.252  1.00  0.00     0.270 C 
HETATM    6  O2  UNL     1       2.973   0.024  -0.707  1.00  0.00    -0.333 OA
HETATM    7  C13 UNL     1       1.644   0.397  -0.531  1.00  0.00     0.175 C 
HETATM    8  C14 UNL     1       1.047   0.380  -1.913  1.00  0.00     0.068 C 
HETATM    9  C15 UNL     1       1.736   1.812  -0.106  1.00  0.00     0.102 C 
HETATM   10  N2  UNL     1       1.788   2.934   0.232  1.00  0.00    -0.194 NA
ENDROOT
BRANCH   1  11
HETATM   11  C3  UNL     1      -0.576  -0.641   0.333  1.00  0.00    -0.007 C 
BRANCH  11  12
HETATM   12  C2  UNL     1      -1.671   0.329   0.417  1.00  0.00     0.060 C 
HETATM   13  C1  UNL     1      -1.836   1.424  -0.560  1.00  0.00     0.019 C 
BRANCH  12  14
HETATM   14  C16 UNL     1      -3.023  -0.425   0.448  1.00  0.00     0.265 C 
BRANCH  14  15
HETATM   15  O3  UNL     1      -2.790  -1.447   1.438  1.00  0.00    -0.371 OA
ATOM     16  H3  UNL     1      -3.620  -1.910   1.457  1.00  0.00     0.212 HD
ENDBRANCH  14  15
BRANCH  14  17
HETATM   17  O4  UNL     1      -4.025   0.385   0.837  1.00  0.00    -0.351 OA
BRANCH  17  18
HETATM   18  C17 UNL     1      -5.218   0.296   0.142  1.00  0.00     0.053 C 
HETATM   19  C18 UNL     1      -5.826  -1.100   0.283  1.00  0.00     0.045 C 
HETATM   20  C19 UNL     1      -6.194   1.267   0.772  1.00  0.00     0.045 C 
HETATM   21  C20 UNL     1      -5.160   0.575  -1.319  1.00  0.00     0.045 C 
ENDBRANCH  17  18
ENDBRANCH  14  17
ENDBRANCH  12  14
ENDBRANCH  11  12
ENDBRANCH   1  11
BRANCH   5  22
HETATM   22  N1  UNL     1       5.005  -0.472   0.256  1.00  0.00    -0.294 N 
HETATM   23  C8  UNL     1       5.851  -1.411  -0.276  1.00  0.00     0.097 A 
HETATM   24  C9  UNL     1       7.201  -1.312  -0.313  1.00  0.00     0.018 A 
HETATM   25  C10 UNL     1       7.828  -0.216   0.203  1.00  0.00     0.007 A 
HETATM   26  C11 UNL     1       7.026   0.756   0.749  1.00  0.00     0.074 A 
HETATM   27  C12 UNL     1       5.636   0.601   0.760  1.00  0.00     0.249 A 
HETATM   28  O1  UNL     1       5.020   1.553   1.284  1.00  0.00    -0.268 OA
ENDBRANCH   5  22
TORSDOF 7
