REMARK  6 active torsions:
REMARK  status: ('A' for Active; 'I' for Inactive)
REMARK    1  A    between atoms: C2_2  and  N1_3 
REMARK    2  A    between atoms: N2_6  and  C5_7 
REMARK    3  A    between atoms: C5_7  and  C6_8 
REMARK    4  A    between atoms: C6_8  and  O1_9 
REMARK    5  A    between atoms: C6_8  and  C7_11 
REMARK    6  A    between atoms: C12_16  and  N3_17 
ROOT
HETATM    1  C7  UNL     1      -2.190  -0.019   0.564  1.00  0.00     0.011 A 
HETATM    2  C8  UNL     1      -3.025   0.960   1.023  1.00  0.00     0.050 A 
HETATM    3  C9  UNL     1      -4.380   1.045   0.697  1.00  0.00     0.078 A 
HETATM    4  C10 UNL     1      -4.877   0.055  -0.146  1.00  0.00     0.013 A 
HETATM    5  C11 UNL     1      -4.051  -0.935  -0.624  1.00  0.00     0.049 A 
HETATM    6  C12 UNL     1      -2.704  -1.012  -0.297  1.00  0.00     0.112 A 
HETATM    7  C13 UNL     1      -6.319   0.298  -0.416  1.00  0.00     0.230 C 
HETATM    8  F1  UNL     1      -7.028  -0.871  -0.101  1.00  0.00    -0.242 F 
HETATM    9  C14 UNL     1      -6.628   1.352   0.616  1.00  0.00     0.218 C 
HETATM   10  O4  UNL     1      -5.407   1.904   1.006  1.00  0.00    -0.347 OA
ENDROOT
BRANCH   1  11
HETATM   11  C6  UNL     1      -0.815  -0.189   0.982  1.00  0.00     0.192 C 
BRANCH  11  12
HETATM   12  C5  UNL     1       0.213   0.231  -0.047  1.00  0.00     0.099 C 
BRANCH  12  13
HETATM   13  N2  UNL     1       1.457  -0.348   0.234  1.00  0.00    -0.368 N 
HETATM   14  C4  UNL     1       2.073  -0.916  -0.963  1.00  0.00     0.157 C 
HETATM   15  C3  UNL     1       3.222  -0.214  -1.506  1.00  0.00     0.293 C 
HETATM   16  N1  UNL     1       4.147   0.388  -0.586  1.00  0.00     0.094 N 
HETATM   17  C16 UNL     1       3.521   0.922   0.590  1.00  0.00     0.317 C 
HETATM   18  C15 UNL     1       2.379   0.109   1.161  1.00  0.00     0.093 C 
BRANCH  16  19
HETATM   19  C2  UNL     1       5.250  -0.523  -0.284  1.00  0.00     0.268 C 
HETATM   20  C1  UNL     1       6.434   0.286   0.201  1.00  0.00     0.037 C 
ENDBRANCH  16  19
ENDBRANCH  12  13
ENDBRANCH  11  12
BRANCH  11  21
HETATM   21  O1  UNL     1      -0.507   0.491   2.170  1.00  0.00    -0.386 OA
ATOM     22  H1  UNL     1      -1.152   0.227   2.816  1.00  0.00     0.210 HD
ENDBRANCH  11  21
ENDBRANCH   1  11
BRANCH   6  23
HETATM   23  N3  UNL     1      -1.897  -1.990  -0.922  1.00  0.00    -0.115 N 
HETATM   24  O2  UNL     1      -1.020  -2.650  -0.451  1.00  0.00    -0.532 OA
HETATM   25  O3  UNL     1      -2.208  -2.225  -2.278  1.00  0.00    -0.532 OA
ENDBRANCH   6  23
TORSDOF 6
