REMARK  6 active torsions:
REMARK  status: ('A' for Active; 'I' for Inactive)
REMARK    1  A    between atoms: N2_8  and  C6_9 
REMARK    2  A    between atoms: C8_11  and  N3_12 
REMARK    3  A    between atoms: C15_21  and  C16_22 
REMARK    4  A    between atoms: C16_22  and  C17_23 
REMARK    5  A    between atoms: C17_23  and  C18_24 
REMARK    6  A    between atoms: C18_24  and  O1_25 
ROOT
HETATM    1  N1  UNL     1      -1.534  -4.005   1.508  1.00  0.00    -0.195 NA
HETATM    2  C1  UNL     1      -1.817  -3.487   0.526  1.00  0.00     0.085 C 
HETATM    3  C2  UNL     1      -2.187  -2.835  -0.738  1.00  0.00     0.196 C 
HETATM    4  C3  UNL     1      -3.491  -3.363  -1.240  1.00  0.00     0.079 C 
HETATM    5  C4  UNL     1      -4.484  -2.398  -0.615  1.00  0.00     0.191 C 
HETATM    6  F1  UNL     1      -4.763  -2.770   0.685  1.00  0.00    -0.248 F 
HETATM    7  C5  UNL     1      -3.736  -1.063  -0.641  1.00  0.00     0.163 C 
HETATM    8  N2  UNL     1      -2.356  -1.432  -0.583  1.00  0.00    -0.347 N 
ENDROOT
BRANCH   8   9
HETATM    9  C6  UNL     1      -1.293  -0.477  -0.383  1.00  0.00     0.109 A 
HETATM   10  C7  UNL     1       0.011  -0.918  -0.318  1.00  0.00     0.096 A 
HETATM   11  C8  UNL     1       1.052  -0.006  -0.119  1.00  0.00     0.108 A 
HETATM   12  N4  UNL     1       0.706   1.267  -0.002  1.00  0.00    -0.332 N 
HETATM   13  C15 UNL     1      -0.555   1.739  -0.059  1.00  0.00     0.084 A 
ATOM     14  H4  UNL     1       1.454   1.945   0.143  1.00  0.00     0.168 HD
HETATM   15  N5  UNL     1      -1.530   0.838  -0.251  1.00  0.00    -0.332 N 
ATOM     16  H5  UNL     1      -2.494   1.166  -0.299  1.00  0.00     0.168 HD
BRANCH  11  17
HETATM   17  N3  UNL     1       2.400  -0.415  -0.046  1.00  0.00    -0.362 N 
HETATM   18  C9  UNL     1       2.901  -1.766  -0.199  1.00  0.00     0.129 C 
HETATM   19  C10 UNL     1       4.398  -1.603  -0.034  1.00  0.00     0.006 C 
HETATM   20  C11 UNL     1       4.671  -1.252   1.393  1.00  0.00     0.008 C 
HETATM   21  C14 UNL     1       4.569  -0.221  -0.693  1.00  0.00     0.031 C 
HETATM   22  C12 UNL     1       4.092   0.161   1.562  1.00  0.00     0.026 C 
HETATM   23  C13 UNL     1       3.518   0.465   0.201  1.00  0.00     0.086 C 
ENDBRANCH  11  17
BRANCH  13  24
HETATM   24  C16 UNL     1      -0.763   3.182   0.091  1.00  0.00     0.078 C 
BRANCH  24  25
HETATM   25  C17 UNL     1      -2.200   3.584   0.011  1.00  0.00     0.033 C 
BRANCH  25  26
HETATM   26  C18 UNL     1      -2.259   5.108   0.187  1.00  0.00     0.164 C 
BRANCH  26  27
HETATM   27  O1  UNL     1      -1.715   5.445   1.442  1.00  0.00    -0.401 OA
ATOM     28  H1  UNL     1      -1.752   6.388   1.551  1.00  0.00     0.209 HD
ENDBRANCH  26  27
ENDBRANCH  25  26
ENDBRANCH  24  25
ENDBRANCH  13  24
ENDBRANCH   8   9
TORSDOF 6
