REMARK  7 active torsions:
REMARK  status: ('A' for Active; 'I' for Inactive)
REMARK    1  A    between atoms: O1_2  and  C2_3 
REMARK    2  A    between atoms: C5_7  and  N1_8 
REMARK    3  A    between atoms: N2_10  and  C6_12 
REMARK    4  A    between atoms: C6_12  and  C7_13 
REMARK    5  A    between atoms: C7_13  and  O2_14 
REMARK    6  A    between atoms: C7_13  and  N3_16 
REMARK    7  A    between atoms: C16_27  and  N5_28 
ROOT
HETATM    1  C2  UNL     1      -2.270   3.216   0.823  1.00  0.00     0.134 A 
HETATM    2  C3  UNL     1      -0.999   3.705   0.623  1.00  0.00     0.154 A 
HETATM    3  F1  UNL     1      -0.689   5.018   0.805  1.00  0.00    -0.203 F 
HETATM    4  C4  UNL     1      -0.026   2.813   0.226  1.00  0.00     0.076 A 
HETATM    5  C5  UNL     1      -0.304   1.464   0.030  1.00  0.00     0.059 A 
HETATM    6  C12 UNL     1      -1.583   0.965   0.230  1.00  0.00     0.002 A 
HETATM    7  C13 UNL     1      -2.538   1.868   0.625  1.00  0.00     0.077 A 
HETATM    8  N4  UNL     1      -3.916   1.555   0.885  1.00  0.00    -0.367 N 
ATOM      9  H4  UNL     1      -4.570   2.337   0.841  1.00  0.00     0.165 HD
HETATM   10  C14 UNL     1      -4.426   0.405   1.167  1.00  0.00     0.063 C 
HETATM   11  C15 UNL     1      -3.668  -0.883   1.286  1.00  0.00     0.069 C 
HETATM   12  C16 UNL     1      -2.911  -1.146   0.009  1.00  0.00     0.087 C 
HETATM   13  C19 UNL     1      -1.577  -0.488  -0.053  1.00  0.00     0.068 C 
ENDROOT
BRANCH   5  14
HETATM   14  N1  UNL     1       0.736   0.568  -0.384  1.00  0.00    -0.304 N 
HETATM   15  N2  UNL     1       1.509   0.955  -1.305  1.00  0.00    -0.332 N 
ATOM     16  H2  UNL     1       1.350   1.882  -1.701  1.00  0.00     0.180 HD
ATOM     17  H1  UNL     1       0.848  -0.349   0.049  1.00  0.00     0.186 HD
BRANCH  15  18
HETATM   18  C6  UNL     1       2.590   0.185  -1.830  1.00  0.00     0.203 C 
BRANCH  18  19
HETATM   19  C7  UNL     1       3.026  -0.880  -0.870  1.00  0.00     0.375 C 
BRANCH  19  20
HETATM   20  O2  UNL     1       2.031  -1.776  -0.556  1.00  0.00    -0.366 OA
ATOM     21  H2  UNL     1       2.307  -2.451   0.053  1.00  0.00     0.212 HD
ENDBRANCH  19  20
BRANCH  19  22
HETATM   22  N3  UNL     1       3.713  -0.326   0.277  1.00  0.00     0.118 N 
HETATM   23  C8  UNL     1       4.919   0.342  -0.105  1.00  0.00     0.276 C 
HETATM   24  C9  UNL     1       6.050  -0.269   0.693  1.00  0.00     0.032 C 
HETATM   25  C10 UNL     1       5.472  -1.647   0.991  1.00  0.00     0.032 C 
HETATM   26  C11 UNL     1       4.026  -1.288   1.289  1.00  0.00     0.276 C 
ENDBRANCH  19  22
ENDBRANCH  18  19
ENDBRANCH  15  18
ENDBRANCH   5  14
BRANCH   1  27
HETATM   27  O1  UNL     1      -3.277   4.081   1.223  1.00  0.00    -0.351 OA
HETATM   28  C1  UNL     1      -4.058   4.747   0.220  1.00  0.00     0.210 C 
ENDBRANCH   1  27
BRANCH  12  29
HETATM   29  N5  UNL     1      -2.743  -2.535  -0.272  1.00  0.00    -0.416 N 
HETATM   30  C17 UNL     1      -3.949  -3.264  -0.477  1.00  0.00     0.143 C 
HETATM   31  C18 UNL     1      -1.666  -2.857  -1.150  1.00  0.00     0.143 C 
ENDBRANCH  12  29
TORSDOF 7
