REMARK  5 active torsions:
REMARK  status: ('A' for Active; 'I' for Inactive)
REMARK    1  A    between atoms: C2_3  and  C3_4 
REMARK       I    between atoms: C3_4  and  N2_6 
REMARK    2  A    between atoms: N2_6  and  C4_8 
REMARK    3  A    between atoms: C4_8  and  C5_9 
REMARK    4  A    between atoms: N3_11  and  C7_12 
REMARK    5  A    between atoms: C10_16  and  C11_17 
ROOT
HETATM    1  N1  UNL     1       8.179   2.039   0.933  1.00  0.00    -0.197 NA
HETATM    2  C1  UNL     1       7.031   1.817   0.856  1.00  0.00     0.068 C 
HETATM    3  C2  UNL     1       5.606   1.528   0.771  1.00  0.00     0.226 C 
ENDROOT
BRANCH   3   4
HETATM    4  C3  UNL     1       5.354   0.069   0.629  1.00  0.00     0.230 C 
HETATM    5  O1  UNL     1       6.336  -0.693   0.515  1.00  0.00    -0.273 OA
HETATM    6  N2  UNL     1       4.049  -0.477   0.619  1.00  0.00    -0.358 N 
ATOM      7  H2  UNL     1       3.258   0.160   0.713  1.00  0.00     0.162 HD
BRANCH   6   8
HETATM    8  C4  UNL     1       3.778  -1.881   0.483  1.00  0.00     0.156 C 
BRANCH   8   9
HETATM    9  C5  UNL     1       2.303  -2.159   0.522  1.00  0.00     0.170 C 
HETATM   10  C6  UNL     1       1.500  -1.421  -0.500  1.00  0.00     0.169 C 
HETATM   11  N3  UNL     1       0.506  -0.701   0.258  1.00  0.00    -0.284 N 
HETATM   12  C17 UNL     1       0.936  -0.661   1.599  1.00  0.00     0.368 C 
HETATM   13  O2  UNL     1       0.611   0.169   2.516  1.00  0.00    -0.238 OA
HETATM   14  O3  UNL     1       1.808  -1.710   1.779  1.00  0.00    -0.295 OA
BRANCH  11  15
HETATM   15  C7  UNL     1      -0.706  -0.112  -0.217  1.00  0.00     0.089 A 
HETATM   16  S1  UNL     1      -0.880   1.224  -1.305  1.00  0.00    -0.073 SA
HETATM   17  C8  UNL     1      -2.572   1.307  -1.368  1.00  0.00     0.025 A 
HETATM   18  C9  UNL     1      -2.965   0.292  -0.540  1.00  0.00    -0.032 A 
HETATM   19  C16 UNL     1      -3.503   2.200  -2.094  1.00  0.00     0.210 C 
HETATM   20  C10 UNL     1      -2.011  -0.436   0.051  1.00  0.00    -0.004 A 
HETATM   21  C13 UNL     1      -4.480   0.186  -0.451  1.00  0.00     0.040 C 
HETATM   22  C14 UNL     1      -4.931   1.602  -0.107  1.00  0.00     0.008 C 
HETATM   23  C15 UNL     1      -4.794   2.421  -1.356  1.00  0.00     0.043 C 
HETATM   24  F1  UNL     1      -3.769   1.610  -3.328  1.00  0.00    -0.244 F 
BRANCH  20  25
HETATM   25  C11 UNL     1      -2.305  -1.592   0.986  1.00  0.00     0.165 C 
HETATM   26  C12 UNL     1      -2.072  -2.849   0.288  1.00  0.00     0.063 C 
HETATM   27  N4  UNL     1      -1.911  -3.828  -0.261  1.00  0.00    -0.197 NA
ENDBRANCH  20  25
ENDBRANCH  11  15
ENDBRANCH   8   9
ENDBRANCH   6   8
ENDBRANCH   3   4
TORSDOF 5
