REMARK  6 active torsions:
REMARK  status: ('A' for Active; 'I' for Inactive)
REMARK    1  A    between atoms: O1_2  and  C2_3 
REMARK    2  A    between atoms: C2_3  and  C3_4 
REMARK    3  A    between atoms: C3_4  and  N1_5 
REMARK    4  A    between atoms: C9_12  and  O3_13 
REMARK    5  A    between atoms: N2_16  and  C11_17 
REMARK    6  A    between atoms: C11_17  and  C12_18 
ROOT
HETATM    1  C3  UNL     1      -0.386   0.871  -0.034  1.00  0.00     0.265 C 
HETATM    2  C9  UNL     1       0.108   1.816  -1.085  1.00  0.00     0.192 C 
HETATM    3  C10 UNL     1       0.629   0.768  -2.092  1.00  0.00     0.311 C 
HETATM    4  N2  UNL     1       1.359  -0.166  -1.219  1.00  0.00     0.132 N 
HETATM    5  C16 UNL     1       0.945   0.094   0.128  1.00  0.00     0.448 C 
HETATM    6  F1  UNL     1       1.849   1.044   0.624  1.00  0.00    -0.213 F 
ENDROOT
BRANCH   1   7
HETATM    7  C2  UNL     1      -0.706   1.402   1.294  1.00  0.00     0.216 C 
BRANCH   7   8
HETATM    8  O1  UNL     1       0.236   2.290   1.767  1.00  0.00    -0.393 OA
HETATM    9  C1  UNL     1      -0.055   2.797   3.015  1.00  0.00     0.201 C 
ENDBRANCH   7   8
ENDBRANCH   1   7
BRANCH   1  10
HETATM   10  N1  UNL     1      -1.329  -0.048  -0.596  1.00  0.00     0.110 N 
HETATM   11  C4  UNL     1      -1.422  -1.300   0.117  1.00  0.00     0.276 C 
HETATM   12  C5  UNL     1      -2.396  -2.187  -0.629  1.00  0.00     0.056 C 
HETATM   13  C6  UNL     1      -3.742  -2.212   0.017  1.00  0.00     0.169 C 
HETATM   14  O2  UNL     1      -4.418  -1.073  -0.481  1.00  0.00    -0.389 OA
HETATM   15  C7  UNL     1      -3.721   0.010   0.072  1.00  0.00     0.198 C 
HETATM   16  C8  UNL     1      -2.629   0.535  -0.825  1.00  0.00     0.300 C 
ENDBRANCH   1  10
BRANCH   2  17
HETATM   17  O3  UNL     1      -0.798   2.590  -1.729  1.00  0.00    -0.391 OA
ATOM     18  H3  UNL     1      -0.485   3.190  -2.396  1.00  0.00     0.210 HD
ENDBRANCH   2  17
BRANCH   4  19
HETATM   19  C11 UNL     1       2.761   0.154  -1.437  1.00  0.00     0.322 C 
BRANCH  19  20
HETATM   20  C12 UNL     1       3.668  -0.718  -0.621  1.00  0.00     0.011 A 
HETATM   21  C13 UNL     1       3.524  -2.032  -0.266  1.00  0.00     0.017 A 
HETATM   22  C14 UNL     1       4.506  -2.573   0.490  1.00  0.00     0.008 A 
HETATM   23  C15 UNL     1       5.552  -1.760   0.830  1.00  0.00     0.050 A 
HETATM   24  S1  UNL     1       5.144  -0.278   0.096  1.00  0.00    -0.105 SA
ENDBRANCH  19  20
ENDBRANCH   4  19
TORSDOF 6
