REMARK  5 active torsions:
REMARK  status: ('A' for Active; 'I' for Inactive)
REMARK    1  A    between atoms: O1_2  and  C2_3 
REMARK    2  A    between atoms: C6_9  and  C7_10 
REMARK       I    between atoms: C7_10  and  N2_12 
REMARK    3  A    between atoms: N2_12  and  C8_14 
REMARK    4  A    between atoms: C13_20  and  O4_21 
REMARK    5  A    between atoms: C15_23  and  O5_24 
ROOT
HETATM    1  C2  UNL     1      -3.245   0.856  -0.981  1.00  0.00     0.128 A 
HETATM    2  C3  UNL     1      -2.161   1.633  -1.273  1.00  0.00     0.120 A 
HETATM    3  C4  UNL     1      -2.329   2.881  -1.979  1.00  0.00     0.105 C 
HETATM    4  N1  UNL     1      -2.451   3.891  -2.553  1.00  0.00    -0.191 NA
HETATM    5  C5  UNL     1      -0.870   1.229  -0.892  1.00  0.00     0.158 A 
HETATM    6  F1  UNL     1       0.152   2.074  -1.213  1.00  0.00    -0.203 F 
HETATM    7  C6  UNL     1      -0.645   0.058  -0.221  1.00  0.00     0.108 A 
HETATM    8  C13 UNL     1      -1.755  -0.725   0.070  1.00  0.00     0.123 A 
HETATM    9  C15 UNL     1      -3.034  -0.321  -0.309  1.00  0.00     0.138 A 
ENDROOT
BRANCH   1  10
HETATM   10  O1  UNL     1      -4.510   1.253  -1.354  1.00  0.00    -0.351 OA
HETATM   11  C1  UNL     1      -5.379   2.035  -0.578  1.00  0.00     0.210 C 
ENDBRANCH   1  10
BRANCH   9  12
HETATM   12  O5  UNL     1      -4.132  -1.098  -0.017  1.00  0.00    -0.351 OA
HETATM   13  C16 UNL     1      -4.815  -0.902   1.204  1.00  0.00     0.210 C 
ENDBRANCH   9  12
BRANCH   7  14
HETATM   14  C7  UNL     1       0.680  -0.367   0.170  1.00  0.00     0.258 C 
HETATM   15  O2  UNL     1       0.742  -1.354   0.996  1.00  0.00    -0.267 OA
HETATM   16  N2  UNL     1       1.923   0.150  -0.231  1.00  0.00    -0.350 N 
ATOM     17  H2  UNL     1       1.958   0.930  -0.887  1.00  0.00     0.163 HD
BRANCH  16  18
HETATM   18  C8  UNL     1       3.187  -0.430   0.292  1.00  0.00     0.108 C 
HETATM   19  C9  UNL     1       3.905   0.709   0.964  1.00  0.00     0.029 C 
HETATM   20  C10 UNL     1       5.243   0.932   0.300  1.00  0.00     0.028 C 
HETATM   21  C11 UNL     1       5.909  -0.406   0.149  1.00  0.00     0.167 C 
HETATM   22  O3  UNL     1       5.235  -1.272  -0.671  1.00  0.00    -0.389 OA
HETATM   23  C12 UNL     1       3.919  -0.971  -0.894  1.00  0.00     0.192 C 
ENDBRANCH  16  18
ENDBRANCH   7  14
BRANCH   8  24
HETATM   24  O4  UNL     1      -1.596  -1.915   0.736  1.00  0.00    -0.352 OA
HETATM   25  C14 UNL     1      -1.435  -3.152   0.047  1.00  0.00     0.210 C 
ENDBRANCH   8  24
TORSDOF 5
