REMARK  5 active torsions:
REMARK  status: ('A' for Active; 'I' for Inactive)
REMARK    1  A    between atoms: N1_2  and  C3_4 
REMARK    2  A    between atoms: C3_4  and  C4_5 
REMARK    3  A    between atoms: C4_5  and  C7_8 
REMARK    4  A    between atoms: C7_8  and  N2_9 
REMARK    5  A    between atoms: N2_9  and  C8_11 
ROOT
HETATM    1  C8  UNL     1       1.056   0.088  -0.361  1.00  0.00     0.078 C 
HETATM    2  C9  UNL     1       1.644   1.140   0.522  1.00  0.00     0.029 C 
HETATM    3  C10 UNL     1       3.139   1.018   0.499  1.00  0.00     0.067 C 
HETATM    4  C11 UNL     1       3.701  -0.261   0.086  1.00  0.00     0.173 C 
HETATM    5  O1  UNL     1       4.369  -0.127  -1.148  1.00  0.00    -0.351 OA
HETATM    6  C12 UNL     1       5.572   0.510  -0.859  1.00  0.00     0.231 C 
HETATM    7  C13 UNL     1       5.990  -0.180   0.382  1.00  0.00     0.074 A 
HETATM    8  C14 UNL     1       7.043  -0.544   1.192  1.00  0.00     0.137 A 
HETATM    9  N3  UNL     1       6.492  -1.214   2.218  1.00  0.00    -0.295 N 
ATOM     10  H3  UNL     1       7.001  -1.622   3.002  1.00  0.00     0.187 HD
HETATM   11  N4  UNL     1       5.200  -1.257   2.048  1.00  0.00    -0.238 N 
ATOM     12  H4  UNL     1       4.547  -1.710   2.687  1.00  0.00     0.208 HD
HETATM   13  N5  UNL     1       4.850  -0.632   0.931  1.00  0.00    -0.242 N 
HETATM   14  C15 UNL     1       2.841  -1.463   0.008  1.00  0.00     0.141 C 
HETATM   15 CL1  UNL     1       2.877  -2.152  -1.657  1.00  0.00    -0.120 Cl
HETATM   16  C16 UNL     1       1.373  -1.235   0.298  1.00  0.00     0.050 C 
ENDROOT
BRANCH   1  17
HETATM   17  N2  UNL     1      -0.297   0.179  -0.686  1.00  0.00    -0.416 N 
ATOM     18  H2  UNL     1      -0.577   0.286  -1.661  1.00  0.00     0.153 HD
BRANCH  17  19
HETATM   19  C7  UNL     1      -1.261   0.126   0.301  1.00  0.00     0.124 C 
BRANCH  19  20
HETATM   20  C4  UNL     1      -2.675   0.234  -0.285  1.00  0.00    -0.006 C 
HETATM   21  C5  UNL     1      -2.918  -0.779  -1.360  1.00  0.00     0.018 C 
HETATM   22  C6  UNL     1      -2.701   1.606  -0.984  1.00  0.00     0.018 C 
BRANCH  20  23
HETATM   23  C3  UNL     1      -3.680   0.194   0.824  1.00  0.00     0.281 C 
BRANCH  23  24
HETATM   24  N1  UNL     1      -5.049   0.444   0.476  1.00  0.00     0.080 N 
HETATM   25  C1  UNL     1      -5.833   0.695   1.725  1.00  0.00     0.309 C 
HETATM   26  C2  UNL     1      -5.661  -0.811  -0.013  1.00  0.00     0.309 C 
ENDBRANCH  23  24
ENDBRANCH  20  23
ENDBRANCH  19  20
ENDBRANCH  17  19
ENDBRANCH   1  17
TORSDOF 5
