REMARK  5 active torsions:
REMARK  status: ('A' for Active; 'I' for Inactive)
REMARK    1  A    between atoms: N1_2  and  C3_4 
REMARK    2  A    between atoms: C3_4  and  C4_5 
REMARK    3  A    between atoms: C4_5  and  C5_6 
REMARK    4  A    between atoms: C5_6  and  N2_7 
REMARK    5  A    between atoms: N2_7  and  C6_9 
ROOT
HETATM    1  C6  UNL     1       0.361  -0.706  -1.626  1.00  0.00     0.122 A 
HETATM    2  C7  UNL     1       1.685  -0.379  -1.234  1.00  0.00     0.066 A 
HETATM    3  C8  UNL     1       2.740  -0.750  -2.043  1.00  0.00     0.162 A 
HETATM    4  N3  UNL     1       2.498  -1.422  -3.182  1.00  0.00    -0.288 N 
ATOM      5  H3  UNL     1       3.282  -1.695  -3.775  1.00  0.00     0.172 HD
HETATM    6  C9  UNL     1       1.266  -1.738  -3.553  1.00  0.00     0.329 A 
HETATM    7  O1  UNL     1       1.033  -2.377  -4.630  1.00  0.00    -0.246 OA
HETATM    8  N4  UNL     1       0.182  -1.385  -2.781  1.00  0.00    -0.289 N 
HETATM    9  C10 UNL     1      -1.106  -1.759  -3.251  1.00  0.00     0.163 C 
HETATM   10  O2  UNL     1       4.041  -0.443  -1.712  1.00  0.00    -0.320 OA
HETATM   11  C11 UNL     1       4.391   0.003  -0.454  1.00  0.00     0.086 C 
HETATM   12  C12 UNL     1       5.147  -1.081   0.325  1.00  0.00     0.051 C 
HETATM   13  C13 UNL     1       5.305   1.211  -0.607  1.00  0.00     0.051 C 
HETATM   14  C14 UNL     1       3.254   0.388   0.394  1.00  0.00    -0.036 C 
HETATM   15  C15 UNL     1       1.969   0.228   0.074  1.00  0.00    -0.032 C 
HETATM   16  C16 UNL     1       1.143   0.657   1.214  1.00  0.00     0.077 C 
HETATM   17  C17 UNL     1       2.130   0.468   2.397  1.00  0.00     0.178 C 
HETATM   18  F1  UNL     1       1.718   1.126   3.505  1.00  0.00    -0.249 F 
HETATM   19  C18 UNL     1       3.372   1.026   1.754  1.00  0.00     0.075 C 
ENDROOT
BRANCH   1  20
HETATM   20  N2  UNL     1      -0.686  -0.150  -0.917  1.00  0.00    -0.375 N 
ATOM     21  H2  UNL     1      -0.435   0.663  -0.354  1.00  0.00     0.161 HD
BRANCH  20  22
HETATM   22  C5  UNL     1      -2.057  -0.524  -0.842  1.00  0.00     0.123 C 
BRANCH  22  23
HETATM   23  C4  UNL     1      -2.790   0.328   0.232  1.00  0.00     0.050 C 
BRANCH  23  24
HETATM   24  C3  UNL     1      -4.217  -0.175   0.224  1.00  0.00     0.273 C 
BRANCH  24  25
HETATM   25  N1  UNL     1      -4.942   0.628   1.206  1.00  0.00     0.080 N 
HETATM   26  C1  UNL     1      -6.316   0.128   1.302  1.00  0.00     0.309 C 
HETATM   27  C2  UNL     1      -4.962   2.007   0.705  1.00  0.00     0.309 C 
ENDBRANCH  24  25
ENDBRANCH  23  24
ENDBRANCH  22  23
ENDBRANCH  20  22
ENDBRANCH   1  20
TORSDOF 5
