REMARK  13 active torsions:
REMARK  status: ('A' for Active; 'I' for Inactive)
REMARK       I    between atoms: C2_2  and  N1_4 
REMARK    1  A    between atoms: C3_7  and  N3_8 
REMARK    2  A    between atoms: N3_8  and  C4_10 
REMARK    3  A    between atoms: C4_10  and  C5_11 
REMARK    4  A    between atoms: C5_11  and  C6_12 
REMARK    5  A    between atoms: C6_12  and  N4_14 
REMARK    6  A    between atoms: N4_14  and  C8_16 
REMARK    7  A    between atoms: C9_17  and  C10_18 
REMARK    8  A    between atoms: C10_18  and  O2_19 
REMARK    9  A    between atoms: C10_18  and  O3_21 
REMARK   10  A    between atoms: C13_26  and  N5_27 
REMARK   11  A    between atoms: C15_34  and  C16_35 
REMARK   12  A    between atoms: N9_40  and  N10_41 
REMARK   13  A    between atoms: C17_44  and  O5_45 
ROOT
HETATM    1  C8  UNL     1      -0.877   0.492  -0.714  1.00  0.00     0.090 A 
HETATM    2  C9  UNL     1      -1.646   1.630  -0.721  1.00  0.00     0.138 A 
HETATM    3  O4  UNL     1      -2.977   1.520  -0.674  1.00  0.00    -0.290 OA
HETATM    4  C11 UNL     1      -3.579   0.381  -0.623  1.00  0.00     0.156 A 
HETATM    5  C12 UNL     1      -2.898  -0.806  -0.615  1.00  0.00     0.047 A 
HETATM    6  C13 UNL     1      -1.528  -0.750  -0.661  1.00  0.00     0.067 A 
HETATM    7  C14 UNL     1      -3.518  -2.140  -0.561  1.00  0.00     0.280 C 
HETATM    8  N6  UNL     1      -4.946  -2.121  -0.570  1.00  0.00    -0.044 N 
ATOM      9  H61 UNL     1      -5.314  -2.943  -0.091  1.00  0.00     0.280 HD
ATOM     10  H62 UNL     1      -5.296  -2.295  -1.512  1.00  0.00     0.280 HD
HETATM   11  C15 UNL     1      -5.535  -0.923  -0.031  1.00  0.00     0.342 C 
HETATM   12  N11 UNL     1      -5.027   0.276  -0.571  1.00  0.00    -0.337 N 
ATOM     13  H11 UNL     1      -5.637   1.022  -0.904  1.00  0.00     0.164 HD
ENDROOT
BRANCH   1  14
HETATM   14  N4  UNL     1       0.543   0.547  -0.690  1.00  0.00    -0.382 N 
ATOM     15  H4  UNL     1       1.054   0.798  -1.536  1.00  0.00     0.160 HD
BRANCH  14  16
HETATM   16  C6  UNL     1       1.265   0.251   0.521  1.00  0.00     0.079 C 
HETATM   17  C7  UNL     1       0.777   0.911   1.764  1.00  0.00     0.032 C 
BRANCH  16  18
HETATM   18  C5  UNL     1       2.745   0.546   0.320  1.00  0.00     0.044 C 
BRANCH  18  19
HETATM   19  C4  UNL     1       3.472  -0.007   1.539  1.00  0.00     0.123 C 
BRANCH  19  20
HETATM   20  N3  UNL     1       4.869   0.242   1.382  1.00  0.00    -0.375 N 
ATOM     21  H3  UNL     1       5.289   0.959   1.974  1.00  0.00     0.161 HD
BRANCH  20  22
HETATM   22  C3  UNL     1       5.711  -0.425   0.474  1.00  0.00     0.116 A 
HETATM   23  N2  UNL     1       6.995  -0.036   0.385  1.00  0.00    -0.273 N 
HETATM   24  N1  UNL     1       7.898  -0.574  -0.399  1.00  0.00    -0.186 N 
ATOM     25  H2  UNL     1       7.291   0.741   0.976  1.00  0.00     0.189 HD
HETATM   26  C2  UNL     1       9.239  -0.128  -0.457  1.00  0.00     0.241 C 
HETATM   27  C20 UNL     1       7.503  -1.608  -1.185  1.00  0.00     0.269 A 
HETATM   28  C1  UNL     1       9.663   0.999   0.402  1.00  0.00     0.119 C 
HETATM   29  O1  UNL     1      10.051  -0.678  -1.221  1.00  0.00    -0.272 OA
HETATM   30  C19 UNL     1       6.211  -2.067  -1.154  1.00  0.00     0.080 A 
HETATM   31  O6  UNL     1       8.320  -2.161  -1.953  1.00  0.00    -0.266 OA
HETATM   32  C18 UNL     1       5.274  -1.475  -0.311  1.00  0.00     0.055 A 
ENDBRANCH  20  22
ENDBRANCH  19  20
ENDBRANCH  18  19
ENDBRANCH  16  18
ENDBRANCH  14  16
ENDBRANCH   1  14
BRANCH   2  33
HETATM   33  C10 UNL     1      -1.139   3.012  -0.787  1.00  0.00     0.315 C 
BRANCH  33  34
HETATM   34  O2  UNL     1      -1.756   3.835   0.176  1.00  0.00    -0.365 OA
ATOM     35  H2  UNL     1      -1.429   4.726   0.133  1.00  0.00     0.213 HD
ENDBRANCH  33  34
BRANCH  33  36
HETATM   36  O3  UNL     1       0.212   3.168  -0.853  1.00  0.00    -0.365 OA
ATOM     37  H3  UNL     1       0.539   4.059  -0.896  1.00  0.00     0.213 HD
ENDBRANCH  33  36
ENDBRANCH   2  33
BRANCH   6  38
HETATM   38  N5  UNL     1      -0.783  -1.781  -0.658  1.00  0.00    -0.397 N 
ATOM     39  H52 UNL     1       0.236  -1.739  -0.692  1.00  0.00     0.156 HD
ATOM     40  H51 UNL     1      -1.256  -2.684  -0.619  1.00  0.00     0.156 HD
ENDBRANCH   6  38
BRANCH  11  41
HETATM   41  C16 UNL     1      -7.000  -1.102  -0.102  1.00  0.00     0.131 A 
HETATM   42  N7  UNL     1      -7.659  -2.260   0.258  1.00  0.00    -0.281 N 
HETATM   43  N8  UNL     1      -8.938  -2.094   0.074  1.00  0.00    -0.219 N 
ATOM     44  H7  UNL     1      -7.216  -3.108   0.611  1.00  0.00     0.188 HD
HETATM   45  N9  UNL     1      -9.217  -0.902  -0.389  1.00  0.00    -0.163 N 
ATOM     46  H8  UNL     1      -9.639  -2.809   0.268  1.00  0.00     0.210 HD
HETATM   47  C17 UNL     1      -8.008  -0.270  -0.503  1.00  0.00     0.208 A 
BRANCH  45  48
HETATM   48  N10 UNL     1     -10.451  -0.332  -0.715  1.00  0.00    -0.321 N 
ATOM     49 2H10 UNL     1     -11.352  -0.803  -0.630  1.00  0.00     0.179 HD
ATOM     50 1H10 UNL     1     -10.668   0.597  -1.076  1.00  0.00     0.179 HD
ENDBRANCH  45  48
BRANCH  47  51
HETATM   51  O5  UNL     1      -7.880   1.032  -0.966  1.00  0.00    -0.342 OA
ATOM     52  H5  UNL     1      -8.580   1.610  -1.245  1.00  0.00     0.219 HD
ENDBRANCH  47  51
ENDBRANCH  11  41
TORSDOF 13
