REMARK  18 active torsions:
REMARK  status: ('A' for Active; 'I' for Inactive)
REMARK    1  A    between atoms: N1_1  and  C1_4 
REMARK    2  A    between atoms: C2_7  and  O1_8 
REMARK    3  A    between atoms: C3_10  and  C4_11 
REMARK    4  A    between atoms: C4_11  and  O2_12 
REMARK    5  A    between atoms: C4_11  and  C5_14 
REMARK    6  A    between atoms: C5_14  and  N3_15 
REMARK    7  A    between atoms: C7_17  and  C8_18 
REMARK    8  A    between atoms: N6_22  and  C9_23 
REMARK    9  A    between atoms: C9_23  and  C10_24 
REMARK   10  A    between atoms: C11_25  and  O3_26 
REMARK   11  A    between atoms: C12_28  and  O4_29 
REMARK   12  A    between atoms: C13_31  and  O5_32 
REMARK   13  A    between atoms: C14_34  and  C15_35 
REMARK   14  A    between atoms: C15_35  and  C16_36 
REMARK   15  A    between atoms: C16_36  and  O6_37 
REMARK   16  A    between atoms: C16_36  and  N7_39 
REMARK   17  A    between atoms: N7_39  and  O7_41 
REMARK   18  A    between atoms: C17_43  and  O8_44 
ROOT
HETATM    1  C8  UNL     1      -0.134   1.019  -0.699  1.00  0.00     0.164 A 
HETATM    2  N4  UNL     1       0.477   2.212  -0.704  1.00  0.00    -0.265 N 
ATOM      3  H4  UNL     1       0.098   3.081  -0.328  1.00  0.00     0.186 HD
HETATM    4  N5  UNL     1       1.670   2.062  -1.288  1.00  0.00    -0.002 NA
HETATM    5  N6  UNL     1       1.820   0.792  -1.651  1.00  0.00    -0.212 N 
HETATM    6  N8  UNL     1       0.716   0.185  -1.282  1.00  0.00    -0.267 N 
ATOM      7  H8  UNL     1       0.534  -0.808  -1.426  1.00  0.00     0.190 HD
ENDROOT
BRANCH   1   8
HETATM    8  C7  UNL     1      -1.453   0.751  -0.158  1.00  0.00     0.113 A 
HETATM    9  C6  UNL     1      -2.152  -0.436  -0.112  1.00  0.00     0.146 A 
HETATM   10  N3  UNL     1      -3.364  -0.239   0.486  1.00  0.00    -0.281 N 
HETATM   11  N10 UNL     1      -3.391   1.036   0.790  1.00  0.00    -0.240 N 
HETATM   12  N9  UNL     1      -2.288   1.660   0.430  1.00  0.00    -0.281 N 
ATOM     13  H10 UNL     1      -4.177   1.493   1.253  1.00  0.00     0.208 HD
ATOM     14  H9  UNL     1      -2.091   2.651   0.567  1.00  0.00     0.188 HD
BRANCH  10  15
HETATM   15  C5  UNL     1      -4.370  -1.296   0.708  1.00  0.00     0.215 C 
BRANCH  15  16
HETATM   16  C4  UNL     1      -5.271  -1.412  -0.420  1.00  0.00     0.083 C 
BRANCH  16  17
HETATM   17  C3  UNL     1      -6.592  -0.867  -0.521  1.00  0.00     0.114 A 
HETATM   18  C2  UNL     1      -7.177  -0.154   0.487  1.00  0.00     0.173 A 
HETATM   19  N2  UNL     1      -8.435   0.341   0.311  1.00  0.00    -0.170 N 
HETATM   20  C1  UNL     1      -9.137   0.162  -0.813  1.00  0.00     0.680 A 
ATOM     21  H2  UNL     1      -8.860   0.872   1.071  1.00  0.00     0.186 HD
HETATM   22  N11 UNL     1      -8.555  -0.542  -1.802  1.00  0.00    -0.155 N 
HETATM   23  C18 UNL     1      -7.329  -1.058  -1.708  1.00  0.00     0.276 A 
ATOM     24  H11 UNL     1      -9.078  -0.688  -2.666  1.00  0.00     0.187 HD
HETATM   25  O9  UNL     1      -6.823  -1.708  -2.653  1.00  0.00    -0.267 OA
BRANCH  18  26
HETATM   26  O1  UNL     1      -6.588   0.114   1.701  1.00  0.00    -0.345 OA
ATOM     27  H1  UNL     1      -5.711  -0.231   1.824  1.00  0.00     0.219 HD
ENDBRANCH  18  26
BRANCH  20  28
HETATM   28  N1  UNL     1     -10.327   0.628  -0.982  1.00  0.00    -0.234 N 
ATOM     29  H12 UNL     1     -10.768   1.161  -0.233  1.00  0.00     0.174 HD
ATOM     30  H11 UNL     1     -10.862   0.491  -1.839  1.00  0.00     0.174 HD
ENDBRANCH  20  28
ENDBRANCH  16  17
BRANCH  16  31
HETATM   31  O2  UNL     1      -4.848  -2.081  -1.462  1.00  0.00    -0.362 OA
ATOM     32  H2  UNL     1      -3.972  -2.442  -1.395  1.00  0.00     0.217 HD
ENDBRANCH  16  31
ENDBRANCH  15  16
ENDBRANCH  10  15
ENDBRANCH   1   8
BRANCH   5  33
HETATM   33  C9  UNL     1       2.977   0.246  -2.326  1.00  0.00     0.211 C 
BRANCH  33  34
HETATM   34  C10 UNL     1       3.944  -0.200  -1.289  1.00  0.00     0.033 A 
HETATM   35  C11 UNL     1       3.863  -1.428  -0.674  1.00  0.00     0.112 A 
HETATM   36  C12 UNL     1       4.751  -1.800   0.338  1.00  0.00     0.133 A 
HETATM   37  C13 UNL     1       5.729  -0.930   0.732  1.00  0.00     0.111 A 
HETATM   38  C14 UNL     1       5.839   0.308   0.136  1.00  0.00     0.019 A 
HETATM   39  C17 UNL     1       4.937   0.666  -0.879  1.00  0.00     0.086 A 
BRANCH  35  40
HETATM   40  O3  UNL     1       2.900  -2.346  -1.041  1.00  0.00    -0.357 OA
ATOM     41  H3  UNL     1       2.844  -3.194  -0.616  1.00  0.00     0.217 HD
ENDBRANCH  35  40
BRANCH  36  42
HETATM   42  O4  UNL     1       4.646  -3.035   0.937  1.00  0.00    -0.356 OA
ATOM     43  H4  UNL     1       5.250  -3.288   1.625  1.00  0.00     0.218 HD
ENDBRANCH  36  42
BRANCH  37  44
HETATM   44  O5  UNL     1       6.647  -1.237   1.734  1.00  0.00    -0.357 OA
ATOM     45  H5  UNL     1       7.327  -0.632   2.008  1.00  0.00     0.217 HD
ENDBRANCH  37  44
BRANCH  38  46
HETATM   46  C15 UNL     1       6.878   1.307   0.513  1.00  0.00     0.130 C 
BRANCH  46  47
HETATM   47  C16 UNL     1       6.603   2.002   1.767  1.00  0.00     0.139 C 
BRANCH  47  48
HETATM   48  O6  UNL     1       5.427   2.705   1.934  1.00  0.00    -0.348 OA
ATOM     49  H6  UNL     1       5.248   3.157   2.750  1.00  0.00     0.219 HD
ENDBRANCH  47  48
BRANCH  47  50
HETATM   50  N7  UNL     1       7.448   1.973   2.729  1.00  0.00    -0.251 N 
ATOM     51  H7  UNL     1       7.207   2.476   3.583  1.00  0.00     0.196 HD
BRANCH  50  52
HETATM   52  O7  UNL     1       8.650   1.319   2.699  1.00  0.00    -0.288 OA
ATOM     53  H7  UNL     1       9.277   1.297   3.413  1.00  0.00     0.244 HD
ENDBRANCH  50  52
ENDBRANCH  47  50
ENDBRANCH  46  47
ENDBRANCH  38  46
BRANCH  39  54
HETATM   54  O8  UNL     1       5.062   1.895  -1.456  1.00  0.00    -0.359 OA
ATOM     55  H8  UNL     1       5.746   2.491  -1.174  1.00  0.00     0.217 HD
ENDBRANCH  39  54
ENDBRANCH  33  34
ENDBRANCH   5  33
TORSDOF 18
