REMARK  14 active torsions:
REMARK  status: ('A' for Active; 'I' for Inactive)
REMARK    1  A    between atoms: C2_2  and  N1_4 
REMARK    2  A    between atoms: N1_4  and  C4_6 
REMARK    3  A    between atoms: C5_7  and  C6_8 
REMARK    4  A    between atoms: C8_10  and  O1_11 
REMARK    5  A    between atoms: C9_13  and  N2_14 
REMARK    6  A    between atoms: N2_14  and  C10_16 
REMARK    7  A    between atoms: C12_23  and  C13_24 
REMARK    8  A    between atoms: C16_38  and  O3_39 
REMARK    9  A    between atoms: C17_44  and  C18_45 
REMARK   10  A    between atoms: C18_45  and  O5_46 
REMARK   11  A    between atoms: C18_45  and  C19_48 
REMARK   12  A    between atoms: C19_48  and  O6_49 
REMARK   13  A    between atoms: C19_48  and  C20_51 
REMARK   14  A    between atoms: C20_51  and  O7_52 
ROOT
HETATM    1  C6  UNL     1       0.012  -0.025   0.346  1.00  0.00     0.032 A 
HETATM    2  C7  UNL     1       0.470  -1.304   0.603  1.00  0.00     0.055 A 
HETATM    3  C8  UNL     1       1.741  -1.725   0.230  1.00  0.00     0.094 A 
HETATM    4  C9  UNL     1       2.578  -0.841  -0.419  1.00  0.00     0.084 A 
HETATM    5  C12 UNL     1       2.161   0.441  -0.691  1.00  0.00     0.058 A 
HETATM    6  C16 UNL     1       0.878   0.848  -0.311  1.00  0.00     0.093 A 
ENDROOT
BRANCH   1   7
HETATM    7  C5  UNL     1      -1.346   0.394   0.746  1.00  0.00     0.097 A 
HETATM    8  C4  UNL     1      -2.550  -0.130   0.283  1.00  0.00     0.093 A 
HETATM    9  C17 UNL     1      -3.575   0.610   0.880  1.00  0.00     0.136 A 
HETATM   10  O4  UNL     1      -2.984   1.496   1.636  1.00  0.00    -0.237 OA
HETATM   11  N12 UNL     1      -1.691   1.392   1.575  1.00  0.00    -0.258 N 
ATOM     12  H12 UNL     1      -1.033   1.983   2.083  1.00  0.00     0.195 HD
BRANCH   8  13
HETATM   13  N1  UNL     1      -2.667  -1.225  -0.596  1.00  0.00    -0.382 N 
ATOM     14  H1  UNL     1      -2.237  -1.143  -1.517  1.00  0.00     0.160 HD
BRANCH  13  15
HETATM   15  C2  UNL     1      -3.352  -2.452  -0.283  1.00  0.00     0.073 C 
HETATM   16  C1  UNL     1      -2.985  -3.092   1.017  1.00  0.00     0.031 C 
HETATM   17  C3  UNL     1      -3.001  -3.474  -1.385  1.00  0.00     0.031 C 
ENDBRANCH  13  15
ENDBRANCH   8  13
BRANCH   9  18
HETATM   18  C18 UNL     1      -5.012   0.351   0.632  1.00  0.00     0.210 C 
BRANCH  18  19
HETATM   19  O5  UNL     1      -5.299   0.367  -0.736  1.00  0.00    -0.386 OA
ATOM     20  H5  UNL     1      -6.221   0.201  -0.895  1.00  0.00     0.210 HD
ENDBRANCH  18  19
BRANCH  18  21
HETATM   21  C19 UNL     1      -5.867   1.419   1.278  1.00  0.00     0.177 C 
BRANCH  21  22
HETATM   22  O6  UNL     1      -7.228   1.114   1.054  1.00  0.00    -0.390 OA
ATOM     23  H6  UNL     1      -7.765   1.785   1.460  1.00  0.00     0.210 HD
ENDBRANCH  21  22
BRANCH  21  24
HETATM   24  C20 UNL     1      -5.598   2.780   0.636  1.00  0.00     0.198 C 
BRANCH  24  25
HETATM   25  O7  UNL     1      -6.439   3.722   1.243  1.00  0.00    -0.398 OA
ATOM     26  H7  UNL     1      -6.272   4.568   0.844  1.00  0.00     0.209 HD
ENDBRANCH  24  25
ENDBRANCH  21  24
ENDBRANCH  18  21
ENDBRANCH   9  18
ENDBRANCH   1   7
BRANCH   6  27
HETATM   27  O3  UNL     1       0.446   2.126  -0.581  1.00  0.00    -0.359 OA
ATOM     28  H3  UNL     1       1.036   2.721  -1.029  1.00  0.00     0.217 HD
ENDBRANCH   6  27
BRANCH   3  29
HETATM   29  O1  UNL     1       2.093  -3.025   0.535  1.00  0.00    -0.358 OA
ATOM     30  H1  UNL     1       2.962  -3.313   0.280  1.00  0.00     0.217 HD
ENDBRANCH   3  29
BRANCH   5  31
HETATM   31  C13 UNL     1       3.031   1.382  -1.356  1.00  0.00     0.097 A 
HETATM   32  N6  UNL     1       3.260   1.623  -2.666  1.00  0.00    -0.279 N 
HETATM   33  N7  UNL     1       4.159   2.596  -2.791  1.00  0.00     0.003 NA
ATOM     34  H6  UNL     1       2.812   1.134  -3.441  1.00  0.00     0.184 HD
HETATM   35  N8  UNL     1       4.538   3.014  -1.579  1.00  0.00    -0.157 N 
HETATM   36  N9  UNL     1       5.386   3.939  -1.154  1.00  0.00    -0.208 N 
HETATM   37  C15 UNL     1       3.851   2.273  -0.686  1.00  0.00     0.172 A 
HETATM   38  N10 UNL     1       5.574   4.155   0.139  1.00  0.00    -0.224 N 
ATOM     39  H9  UNL     1       5.903   4.495  -1.835  1.00  0.00     0.211 HD
HETATM   40  N11 UNL     1       4.941   3.476   1.065  1.00  0.00    -0.249 N 
ATOM     41  H10 UNL     1       6.236   4.876   0.425  1.00  0.00     0.210 HD
HETATM   42  C14 UNL     1       4.075   2.530   0.654  1.00  0.00     0.293 A 
ATOM     43  H11 UNL     1       5.098   3.657   2.056  1.00  0.00     0.192 HD
HETATM   44  O2  UNL     1       3.431   1.835   1.473  1.00  0.00    -0.264 OA
ENDBRANCH   5  31
BRANCH   4  45
HETATM   45  N2  UNL     1       3.848  -1.317  -0.810  1.00  0.00    -0.324 N 
ATOM     46  H2  UNL     1       3.932  -1.725  -1.741  1.00  0.00     0.169 HD
BRANCH  45  47
HETATM   47  C10 UNL     1       5.022  -1.271  -0.002  1.00  0.00     0.193 C 
HETATM   48  N3  UNL     1       5.136  -1.422   1.243  1.00  0.00    -0.346 N 
HETATM   49  C11 UNL     1       6.504  -1.302   1.660  1.00  0.00     0.259 C 
ATOM     50  H3  UNL     1       4.356  -1.606   1.874  1.00  0.00     0.163 HD
HETATM   51  N4  UNL     1       7.247  -1.402   0.426  1.00  0.00    -0.119 NA
HETATM   52  N5  UNL     1       6.315  -1.044  -0.543  1.00  0.00    -0.274 N 
ATOM     53  H5  UNL     1       6.523  -0.683  -1.474  1.00  0.00     0.185 HD
ENDBRANCH  45  47
ENDBRANCH   4  45
TORSDOF 14
