REMARK  13 active torsions:
REMARK  status: ('A' for Active; 'I' for Inactive)
REMARK    1  A    between atoms: C3_5  and  N2_6 
REMARK    2  A    between atoms: C4_9  and  N3_10 
REMARK    3  A    between atoms: N3_10  and  N4_12 
REMARK       I    between atoms: N7_17  and  C6_18 
REMARK    4  A    between atoms: C6_18  and  C7_20 
REMARK    5  A    between atoms: C8_26  and  N10_27 
REMARK    6  A    between atoms: N10_27  and  C9_29 
REMARK    7  A    between atoms: C11_34  and  N12_35 
REMARK    8  A    between atoms: N12_35  and  C12_37 
REMARK    9  A    between atoms: C12_37  and  C13_41 
REMARK   10  A    between atoms: C13_41  and  C15_43 
REMARK   11  A    between atoms: C15_43  and  O2_44 
REMARK   12  A    between atoms: C15_43  and  O3_46 
REMARK   13  A    between atoms: C17_50  and  O5_51 
ROOT
HETATM    1  C7  UNL     1      -0.166  -2.284   0.216  1.00  0.00     0.155 A 
HETATM    2  N8  UNL     1      -0.480  -3.588   0.103  1.00  0.00    -0.305 N 
ATOM      3  H8  UNL     1      -1.410  -4.004   0.052  1.00  0.00     0.176 HD
HETATM    4  S1  UNL     1       0.987  -4.369   0.066  1.00  0.00     0.069 SA
HETATM    5  N9  UNL     1       1.991  -3.046   0.194  1.00  0.00    -0.297 N 
ATOM      6  H9  UNL     1       3.011  -3.037   0.214  1.00  0.00     0.177 HD
HETATM    7  C8  UNL     1       1.159  -1.992   0.265  1.00  0.00     0.142 A 
ENDROOT
BRANCH   1   8
HETATM    8  C6  UNL     1      -1.264  -1.275   0.278  1.00  0.00     0.301 C 
HETATM    9  N7  UNL     1      -2.636  -1.713   0.217  1.00  0.00    -0.162 N 
HETATM   10  N6  UNL     1      -3.003  -2.977   0.106  1.00  0.00    -0.258 N 
HETATM   11  C16 UNL     1      -3.742  -1.000   0.254  1.00  0.00     0.372 A 
HETATM   12  C5  UNL     1      -4.337  -3.082   0.072  1.00  0.00     0.233 A 
ATOM     13  H6  UNL     1      -2.358  -3.765   0.053  1.00  0.00     0.190 HD
HETATM   14  N4  UNL     1      -4.820  -1.813   0.167  1.00  0.00    -0.172 N 
HETATM   15  N5  UNL     1      -5.053  -4.292  -0.041  1.00  0.00    -0.060 NA
HETATM   16  O4  UNL     1      -3.779   0.255   0.357  1.00  0.00    -0.242 OA
HETATM   17  O1  UNL     1      -1.082  -0.063   0.381  1.00  0.00    -0.263 OA
BRANCH  14  18
HETATM   18  N3  UNL     1      -6.172  -1.447   0.172  1.00  0.00    -0.280 N 
ATOM     19  H3  UNL     1      -6.900  -2.158   0.100  1.00  0.00     0.188 HD
BRANCH  18  20
HETATM   20  C4  UNL     1      -6.514  -0.082   0.278  1.00  0.00     0.143 A 
HETATM   21  C3  UNL     1      -6.705   0.496   1.511  1.00  0.00     0.133 A 
HETATM   22  N1  UNL     1      -7.030   1.799   1.555  1.00  0.00    -0.331 N 
HETATM   23  C2  UNL     1      -7.170   2.544   0.439  1.00  0.00     0.080 A 
ATOM     24  H1  UNL     1      -7.176   2.240   2.463  1.00  0.00     0.168 HD
HETATM   25  C1  UNL     1      -7.530   3.974   0.576  1.00  0.00     0.089 C 
HETATM   26  N14 UNL     1      -6.989   2.004  -0.776  1.00  0.00    -0.325 N 
HETATM   27  C17 UNL     1      -6.664   0.703  -0.841  1.00  0.00     0.174 A 
ATOM     28  H14 UNL     1      -7.095   2.563  -1.622  1.00  0.00     0.169 HD
BRANCH  21  29
HETATM   29  N2  UNL     1      -6.579  -0.186   2.603  1.00  0.00    -0.383 N 
ATOM     30  H22 UNL     1      -6.721   0.243   3.518  1.00  0.00     0.157 HD
ATOM     31  H21 UNL     1      -6.332  -1.175   2.570  1.00  0.00     0.157 HD
ENDBRANCH  21  29
BRANCH  27  32
HETATM   32  O5  UNL     1      -6.468   0.107  -2.072  1.00  0.00    -0.344 OA
ATOM     33  H5  UNL     1      -6.572   0.649  -2.845  1.00  0.00     0.219 HD
ENDBRANCH  27  32
ENDBRANCH  18  20
ENDBRANCH  14  18
ENDBRANCH   1   8
BRANCH   7  34
HETATM   34  N10 UNL     1       1.736  -0.669   0.384  1.00  0.00    -0.364 N 
ATOM     35  H10 UNL     1       1.125   0.146   0.440  1.00  0.00     0.161 HD
BRANCH  34  36
HETATM   36  C9  UNL     1       3.185  -0.492   0.424  1.00  0.00     0.159 C 
HETATM   37  C10 UNL     1       3.920  -0.992  -0.767  1.00  0.00     0.263 C 
HETATM   38  N11 UNL     1       4.038   0.364  -1.253  1.00  0.00    -0.050 N 
HETATM   39  C11 UNL     1       3.654   0.873   0.044  1.00  0.00     0.309 C 
ATOM     40 2H11 UNL     1       4.909   0.675  -1.682  1.00  0.00     0.279 HD
ATOM     41 1H11 UNL     1       3.522   0.652  -2.084  1.00  0.00     0.279 HD
BRANCH  39  42
HETATM   42  N12 UNL     1       4.715   1.330   0.902  1.00  0.00    -0.350 N 
ATOM     43  H12 UNL     1       4.582   2.173   1.461  1.00  0.00     0.163 HD
BRANCH  42  44
HETATM   44  C12 UNL     1       5.937   0.628   0.981  1.00  0.00     0.080 C 
HETATM   45  N13 UNL     1       6.161  -0.211   1.952  1.00  0.00    -0.389 N 
ATOM     46 2H13 UNL     1       5.452  -0.380   2.665  1.00  0.00     0.157 HD
ATOM     47 1H13 UNL     1       7.044  -0.718   2.009  1.00  0.00     0.157 HD
BRANCH  44  48
HETATM   48  C13 UNL     1       6.969   0.874  -0.057  1.00  0.00     0.103 C 
HETATM   49  C14 UNL     1       8.210   0.056   0.176  1.00  0.00     0.023 C 
BRANCH  48  50
HETATM   50  C15 UNL     1       7.264   2.359  -0.045  1.00  0.00     0.264 C 
BRANCH  50  51
HETATM   51  O2  UNL     1       7.739   2.796   1.189  1.00  0.00    -0.371 OA
ATOM     52  H2  UNL     1       7.924   3.728   1.197  1.00  0.00     0.212 HD
ENDBRANCH  50  51
BRANCH  50  53
HETATM   53  O3  UNL     1       8.264   2.617  -0.980  1.00  0.00    -0.371 OA
ATOM     54  H3  UNL     1       8.449   3.549  -0.972  1.00  0.00     0.212 HD
ENDBRANCH  50  53
ENDBRANCH  48  50
ENDBRANCH  44  48
ENDBRANCH  42  44
ENDBRANCH  39  42
ENDBRANCH  34  36
ENDBRANCH   7  34
TORSDOF 13
