REMARK  9 active torsions:
REMARK  status: ('A' for Active; 'I' for Inactive)
REMARK    1  A    between atoms: C2_2  and  N1_3 
REMARK    2  A    between atoms: N1_3  and  C3_5 
REMARK    3  A    between atoms: C9_11  and  C10_12 
REMARK    4  A    between atoms: C14_18  and  N2_19 
REMARK    5  A    between atoms: C17_22  and  O3_23 
REMARK    6  A    between atoms: O3_23  and  C18_24 
REMARK    7  A    between atoms: C18_24  and  C19_25 
REMARK    8  A    between atoms: C19_25  and  O4_26 
REMARK    9  A    between atoms: C19_25  and  C20_28 
ROOT
HETATM    1  C3  UNL     1       0.182  -0.527   1.007  1.00  0.00     0.112 C 
HETATM    2  C4  UNL     1       1.609  -0.458   1.223  1.00  0.00     0.016 C 
HETATM    3  C5  UNL     1       2.202  -0.572  -0.163  1.00  0.00     0.050 C 
HETATM    4  C6  UNL     1       1.631   0.631  -0.775  1.00  0.00     0.119 C 
HETATM    5  C7  UNL     1       2.797   1.330  -1.338  1.00  0.00     0.051 C 
HETATM    6  C8  UNL     1       3.129   2.299  -0.289  1.00  0.00     0.034 A 
HETATM    7  C9  UNL     1       3.870   2.468   0.866  1.00  0.00     0.030 A 
HETATM    8  C12 UNL     1       2.592   1.911   1.004  1.00  0.00     0.105 A 
HETATM    9  C13 UNL     1       2.367   0.720   1.703  1.00  0.00     0.049 C 
HETATM   10  O1  UNL     1       1.291   2.327   0.818  1.00  0.00    -0.228 OA
HETATM   11  O2  UNL     1       0.927   1.576  -0.093  1.00  0.00    -0.227 OA
HETATM   12  C14 UNL     1       0.486   0.119  -1.528  1.00  0.00     0.147 C 
HETATM   13  C17 UNL     1      -0.407  -0.525  -0.400  1.00  0.00     0.169 C 
ENDROOT
BRANCH  13  14
HETATM   14  O3  UNL     1      -1.610  -0.138  -0.458  1.00  0.00    -0.379 OA
BRANCH  14  15
HETATM   15  C18 UNL     1      -2.784   0.214  -0.522  1.00  0.00     0.204 C 
BRANCH  15  16
HETATM   16  C19 UNL     1      -3.683  -0.631   0.424  1.00  0.00     0.198 C 
BRANCH  16  17
HETATM   17  O4  UNL     1      -3.651  -1.954   0.083  1.00  0.00    -0.389 OA
ATOM     18  H4  UNL     1      -4.200  -2.470   0.661  1.00  0.00     0.210 HD
ENDBRANCH  16  17
BRANCH  16  19
HETATM   19  C20 UNL     1      -5.060  -0.016   0.492  1.00  0.00     0.352 C 
HETATM   20  N3  UNL     1      -5.754  -0.085  -0.758  1.00  0.00    -0.044 N 
HETATM   21  C21 UNL     1      -6.044   1.285  -1.149  1.00  0.00     0.261 C 
ATOM     22  H32 UNL     1      -5.248  -0.609  -1.472  1.00  0.00     0.280 HD
ATOM     23  H31 UNL     1      -6.582  -0.679  -0.727  1.00  0.00     0.280 HD
HETATM   24  C22 UNL     1      -5.863   2.044   0.150  1.00  0.00     0.198 C 
HETATM   25  O5  UNL     1      -4.913   1.312   0.856  1.00  0.00    -0.355 OA
ENDBRANCH  16  19
ENDBRANCH  15  16
ENDBRANCH  14  15
ENDBRANCH  13  14
BRANCH   1  26
HETATM   26  N1  UNL     1      -0.331  -1.722   1.650  1.00  0.00    -0.414 N 
ATOM     27  H1  UNL     1      -1.000  -1.629   2.415  1.00  0.00     0.153 HD
BRANCH  26  28
HETATM   28  C2  UNL     1       0.066  -2.980   1.250  1.00  0.00     0.110 C 
HETATM   29  C1  UNL     1      -0.583  -3.992   2.227  1.00  0.00     0.026 C 
ENDBRANCH  26  28
ENDBRANCH   1  26
BRANCH  12  30
HETATM   30  N2  UNL     1       0.617  -0.605  -2.674  1.00  0.00    -0.411 N 
HETATM   31  C15 UNL     1       1.160  -1.843  -2.928  1.00  0.00     0.143 C 
HETATM   32  C16 UNL     1       0.104  -0.028  -3.904  1.00  0.00     0.143 C 
ENDBRANCH  12  30
BRANCH   7  33
HETATM   33  C10 UNL     1       5.118   1.685   1.153  1.00  0.00     0.004 C 
HETATM   34  C11 UNL     1       5.722   2.086   2.500  1.00  0.00     0.005 C 
ENDBRANCH   7  33
TORSDOF 9
