REMARK  9 active torsions:
REMARK  status: ('A' for Active; 'I' for Inactive)
REMARK    1  A    between atoms: N2_5  and  C4_6 
REMARK    2  A    between atoms: C6_10  and  N4_11 
REMARK    3  A    between atoms: N4_11  and  C7_13 
REMARK    4  A    between atoms: C10_18  and  N6_19 
REMARK    5  A    between atoms: N6_19  and  C11_21 
REMARK    6  A    between atoms: C11_21  and  C12_22 
REMARK    7  A    between atoms: C12_22  and  C13_23 
REMARK    8  A    between atoms: C13_23  and  N7_24 
REMARK    9  A    between atoms: N7_24  and  C15_26 
ROOT
HETATM    1  C7  UNL     1      -0.139   0.062   0.305  1.00  0.00     0.684 A 
HETATM    2  N5  UNL     1      -0.858  -1.050   0.544  1.00  0.00    -0.202 N 
ATOM      3  H5  UNL     1      -1.876  -0.988   0.516  1.00  0.00     0.183 HD
HETATM    4  C8  UNL     1      -0.296  -2.237   0.817  1.00  0.00     0.110 A 
HETATM    5  C9  UNL     1       1.096  -2.308   0.851  1.00  0.00     0.066 A 
HETATM    6  C10 UNL     1       1.859  -1.185   0.610  1.00  0.00     0.118 A 
HETATM    7  N10 UNL     1       1.214  -0.033   0.344  1.00  0.00    -0.177 N 
ATOM      8  H10 UNL     1       1.767   0.805   0.164  1.00  0.00     0.186 HD
ENDROOT
BRANCH   1   9
HETATM    9  N4  UNL     1      -0.721   1.185   0.044  1.00  0.00    -0.189 N 
ATOM     10  H4  UNL     1      -0.174   2.027  -0.137  1.00  0.00     0.184 HD
BRANCH   9  11
HETATM   11  C6  UNL     1      -2.138   1.219   0.015  1.00  0.00     0.081 A 
HETATM   12  C5  UNL     1      -2.906   1.588   1.091  1.00  0.00     0.137 A 
HETATM   13  N3  UNL     1      -4.246   1.604   1.007  1.00  0.00    -0.200 N 
HETATM   14  C4  UNL     1      -4.903   1.261  -0.131  1.00  0.00     0.680 A 
ATOM     15  H3  UNL     1      -4.788   1.883   1.825  1.00  0.00     0.183 HD
HETATM   16  N11 UNL     1      -4.125   0.902  -1.176  1.00  0.00    -0.200 N 
HETATM   17  C19 UNL     1      -2.786   0.868  -1.148  1.00  0.00     0.137 A 
ATOM     18  H11 UNL     1      -4.589   0.639  -2.045  1.00  0.00     0.183 HD
BRANCH  14  19
HETATM   19  N2  UNL     1      -6.312   1.284  -0.203  1.00  0.00    -0.215 N 
HETATM   20  C3  UNL     1      -7.108   1.703   0.920  1.00  0.00     0.160 C 
HETATM   21  C2  UNL     1      -8.560   1.870   0.540  1.00  0.00     0.136 C 
HETATM   22  N1  UNL     1      -9.103   0.751  -0.171  1.00  0.00    -0.414 N 
HETATM   23  C1  UNL     1      -9.930  -0.105   0.625  1.00  0.00     0.143 C 
HETATM   24  C21 UNL     1      -8.202   0.077  -1.040  1.00  0.00     0.136 C 
HETATM   25  C20 UNL     1      -6.986   0.886  -1.412  1.00  0.00     0.160 C 
ENDBRANCH  14  19
ENDBRANCH   9  11
ENDBRANCH   1   9
BRANCH   6  26
HETATM   26  N6  UNL     1       3.150  -1.193   0.628  1.00  0.00    -0.376 N 
ATOM     27  H6  UNL     1       3.617  -0.307   0.436  1.00  0.00     0.161 HD
BRANCH  26  28
HETATM   28  C11 UNL     1       3.987  -2.317   0.889  1.00  0.00     0.123 C 
BRANCH  28  29
HETATM   29  C12 UNL     1       4.493  -2.927  -0.420  1.00  0.00     0.040 C 
BRANCH  29  30
HETATM   30  C13 UNL     1       5.296  -1.911  -1.219  1.00  0.00     0.142 C 
BRANCH  30  31
HETATM   31  N7  UNL     1       6.446  -1.449  -0.484  1.00  0.00    -0.223 N 
HETATM   32  C14 UNL     1       7.561  -2.337  -0.193  1.00  0.00     0.168 C 
BRANCH  31  33
HETATM   33  C15 UNL     1       6.537  -0.110  -0.016  1.00  0.00     0.671 C 
HETATM   34  N8  UNL     1       7.110   0.097   1.137  1.00  0.00    -0.226 N 
HETATM   35  C16 UNL     1       7.231   1.444   1.663  1.00  0.00     0.139 C 
ATOM     36  H8  UNL     1       7.475  -0.691   1.672  1.00  0.00     0.177 HD
HETATM   37  C17 UNL     1       7.595   2.391   0.540  1.00  0.00     0.040 C 
HETATM   38  C18 UNL     1       6.520   2.358  -0.529  1.00  0.00     0.139 C 
HETATM   39  N9  UNL     1       6.047   1.005  -0.728  1.00  0.00    -0.226 N 
ATOM     40  H9  UNL     1       5.317   0.848  -1.423  1.00  0.00     0.177 HD
ENDBRANCH  31  33
ENDBRANCH  30  31
ENDBRANCH  29  30
ENDBRANCH  28  29
ENDBRANCH  26  28
ENDBRANCH   6  26
TORSDOF 9
