REMARK  11 active torsions:
REMARK  status: ('A' for Active; 'I' for Inactive)
REMARK    1  A    between atoms: C2_2  and  O1_3 
REMARK    2  A    between atoms: O1_3  and  C3_4 
REMARK    3  A    between atoms: C3_4  and  C4_5 
REMARK    4  A    between atoms: C4_5  and  N1_6 
REMARK    5  A    between atoms: N2_9  and  C7_10 
REMARK    6  A    between atoms: C7_10  and  C8_11 
REMARK    7  A    between atoms: C8_11  and  N3_12 
REMARK    8  A    between atoms: C12_23  and  C13_24 
REMARK    9  A    between atoms: C13_24  and  C14_25 
REMARK   10  A    between atoms: C14_25  and  C15_26 
REMARK   11  A    between atoms: C15_26  and  O2_27 
ROOT
HETATM    1  N3  UNL     1      -0.195   0.929   1.669  1.00  0.00    -0.326 N 
HETATM    2  C9  UNL     1       0.445   0.526   2.764  1.00  0.00     0.185 A 
HETATM    3  N4  UNL     1      -0.409  -0.129   3.578  1.00  0.00    -0.346 N 
ATOM      4  H4  UNL     1      -0.176  -0.540   4.482  1.00  0.00     0.167 HD
HETATM    5  C10 UNL     1      -1.617  -0.146   2.994  1.00  0.00     0.122 A 
HETATM    6  C11 UNL     1      -2.862  -0.669   3.355  1.00  0.00     0.132 A 
HETATM    7  N5  UNL     1      -2.953  -1.283   4.478  1.00  0.00    -0.383 N 
ATOM      8  H51 UNL     1      -3.861  -1.665   4.741  1.00  0.00     0.157 HD
ATOM      9  H52 UNL     1      -2.179  -1.416   5.129  1.00  0.00     0.157 HD
HETATM   10  N6  UNL     1      -3.877  -0.494   2.501  1.00  0.00    -0.320 N 
ATOM     11  H6  UNL     1      -4.790  -0.872   2.754  1.00  0.00     0.169 HD
HETATM   12  C12 UNL     1      -3.762   0.146   1.340  1.00  0.00     0.164 A 
HETATM   13  N7  UNL     1      -2.547   0.653   0.994  1.00  0.00    -0.319 N 
ATOM     14  H7  UNL     1      -2.443   1.146   0.107  1.00  0.00     0.169 HD
HETATM   15  C20 UNL     1      -1.490   0.516   1.796  1.00  0.00     0.141 A 
ENDROOT
BRANCH   1  16
HETATM   16  C8  UNL     1       0.324   1.667   0.540  1.00  0.00     0.161 C 
BRANCH  16  17
HETATM   17  C7  UNL     1       0.832   0.834  -0.576  1.00  0.00     0.292 C 
BRANCH  17  18
HETATM   18  N2  UNL     1       1.908  -0.053  -0.299  1.00  0.00     0.093 N 
HETATM   19  C6  UNL     1       2.245  -0.849  -1.467  1.00  0.00     0.302 C 
HETATM   20  C5  UNL     1       3.584  -1.524  -1.164  1.00  0.00     0.302 C 
HETATM   21  N1  UNL     1       4.576  -0.506  -1.316  1.00  0.00     0.093 N 
HETATM   22  C22 UNL     1       4.248   0.674  -0.582  1.00  0.00     0.302 C 
HETATM   23  C21 UNL     1       3.060   0.528   0.324  1.00  0.00     0.302 C 
BRANCH  21  24
HETATM   24  C4  UNL     1       5.929  -0.958  -1.132  1.00  0.00     0.298 C 
BRANCH  24  25
HETATM   25  C3  UNL     1       6.244  -1.356   0.271  1.00  0.00     0.198 C 
BRANCH  25  26
HETATM   26  O1  UNL     1       7.555  -1.774   0.349  1.00  0.00    -0.390 OA
BRANCH  26  27
HETATM   27  C2  UNL     1       8.489  -0.827  -0.012  1.00  0.00     0.163 C 
HETATM   28  C1  UNL     1       8.403   0.406   0.870  1.00  0.00     0.033 C 
ENDBRANCH  26  27
ENDBRANCH  25  26
ENDBRANCH  24  25
ENDBRANCH  21  24
ENDBRANCH  17  18
ENDBRANCH  16  17
ENDBRANCH   1  16
BRANCH  12  29
HETATM   29  C13 UNL     1      -4.876   0.310   0.459  1.00  0.00    -0.027 C 
BRANCH  29  30
HETATM   30  C14 UNL     1      -5.802   0.461  -0.296  1.00  0.00    -0.060 C 
BRANCH  30  31
HETATM   31  C15 UNL     1      -6.902   0.664  -1.213  1.00  0.00     0.121 C 
HETATM   32  C16 UNL     1      -8.155   0.900  -0.432  1.00  0.00     0.051 C 
HETATM   33  C17 UNL     1      -9.035  -0.274  -0.713  1.00  0.00     0.004 C 
HETATM   34  C18 UNL     1      -8.633  -0.698  -2.115  1.00  0.00     0.004 C 
HETATM   35  C19 UNL     1      -7.121  -0.602  -2.023  1.00  0.00     0.051 C 
BRANCH  31  36
HETATM   36  O2  UNL     1      -6.676   1.754  -2.052  1.00  0.00    -0.378 OA
ATOM     37  H2  UNL     1      -7.398   1.887  -2.654  1.00  0.00     0.211 HD
ENDBRANCH  31  36
ENDBRANCH  30  31
ENDBRANCH  29  30
ENDBRANCH  12  29
TORSDOF 11
