REMARK  6 active torsions:
REMARK  status: ('A' for Active; 'I' for Inactive)
REMARK    1  A    between atoms: O1_1  and  C1_3 
REMARK    2  A    between atoms: C2_5  and  C3_6 
REMARK    3  A    between atoms: C4_10  and  C5_11 
REMARK    4  A    between atoms: C5_11  and  C6_12 
REMARK    5  A    between atoms: C6_12  and  C7_13 
REMARK    6  A    between atoms: C7_13  and  N2_14 
ROOT
HETATM    1  C5  UNL     1       1.569  -0.340   0.581  1.00  0.00     0.067 C 
ENDROOT
BRANCH   1   2
HETATM    2  C4  UNL     1       2.986  -0.192   0.092  1.00  0.00     0.070 A 
HETATM    3  C1  UNL     1       3.349  -0.192  -1.229  1.00  0.00     0.208 A 
HETATM    4  O2  UNL     1       4.650  -0.044  -1.298  1.00  0.00    -0.272 OA
HETATM    5  C2  UNL     1       5.135   0.051  -0.071  1.00  0.00     0.137 A 
HETATM    6  N1  UNL     1       4.105  -0.040   0.805  1.00  0.00    -0.339 N 
ATOM      7  H1  UNL     1       4.172   0.000   1.822  1.00  0.00     0.167 HD
BRANCH   3   8
HETATM    8  O1  UNL     1       2.505  -0.325  -2.331  1.00  0.00    -0.339 OA
ATOM      9  H1  UNL     1       1.562  -0.432  -2.281  1.00  0.00     0.220 HD
ENDBRANCH   3   8
BRANCH   5  10
HETATM   10  C3  UNL     1       6.585   0.229   0.215  1.00  0.00     0.169 C 
HETATM   11 BR1  UNL     1       7.042   2.096   0.289  1.00  0.00    -0.088 Br
ENDBRANCH   5  10
ENDBRANCH   1   2
BRANCH   1  12
HETATM   12  C6  UNL     1       0.812   0.950   0.384  1.00  0.00     0.050 C 
BRANCH  12  13
HETATM   13  C7  UNL     1      -0.597   0.932   0.842  1.00  0.00     0.059 C 
BRANCH  13  14
HETATM   14  N2  UNL     1      -1.499   0.033   0.272  1.00  0.00    -0.382 N 
HETATM   15  C8  UNL     1      -1.390  -1.349   0.505  1.00  0.00     0.149 C 
HETATM   16  C9  UNL     1      -2.780  -1.882   0.865  1.00  0.00     0.191 C 
HETATM   17  O3  UNL     1      -3.752  -1.471  -0.005  1.00  0.00    -0.358 OA
HETATM   18  C10 UNL     1      -3.324  -0.717  -1.069  1.00  0.00     0.282 C 
HETATM   19  O4  UNL     1      -4.432  -0.052  -1.605  1.00  0.00    -0.359 OA
HETATM   20  C13 UNL     1      -2.482   0.494  -0.627  1.00  0.00     0.140 C 
HETATM   21  C11 UNL     1      -4.801   0.896  -0.652  1.00  0.00     0.173 C 
HETATM   22  C12 UNL     1      -3.558   1.261   0.131  1.00  0.00     0.056 C 
ENDBRANCH  13  14
ENDBRANCH  12  13
ENDBRANCH   1  12
TORSDOF 6
