REMARK  6 active torsions:
REMARK  status: ('A' for Active; 'I' for Inactive)
REMARK    1  A    between atoms: N3_8  and  C5_10 
REMARK    2  A    between atoms: C5_10  and  C6_11 
REMARK    3  A    between atoms: C6_11  and  O1_12 
REMARK    4  A    between atoms: O1_12  and  C7_13 
REMARK    5  A    between atoms: C10_19  and  C11_20 
REMARK    6  A    between atoms: C11_20  and  N5_21 
ROOT
HETATM    1  C1  UNL     1      -3.858  -0.070   2.816  1.00  0.00     0.229 C 
HETATM    2  N1  UNL     1      -2.860   0.280   2.301  1.00  0.00    -0.426 NA
HETATM    3  C2  UNL     1      -1.660   0.667   1.724  1.00  0.00     0.149 A 
HETATM    4  C3  UNL     1      -0.791   1.491   2.368  1.00  0.00     0.153 A 
HETATM    5  N2  UNL     1       0.330   1.935   1.779  1.00  0.00    -0.198 N 
ATOM      6  H2  UNL     1       0.944   2.564   2.296  1.00  0.00     0.183 HD
HETATM    7  C4  UNL     1       0.676   1.567   0.498  1.00  0.00     0.682 A 
HETATM    8  N3  UNL     1       1.769   1.914   0.055  1.00  0.00    -0.203 N 
ATOM      9  H3  UNL     1       2.256   2.449   0.774  1.00  0.00     0.183 HD
HETATM   10  N4  UNL     1      -0.201   0.738  -0.140  1.00  0.00    -0.187 N 
ATOM     11  H4  UNL     1       0.017   0.447  -1.093  1.00  0.00     0.184 HD
HETATM   12  C10 UNL     1      -1.328   0.288   0.416  1.00  0.00     0.101 A 
ENDROOT
BRANCH  12  13
HETATM   13  C11 UNL     1      -2.177  -0.758  -0.166  1.00  0.00     0.093 C 
BRANCH  13  14
HETATM   14  N5  UNL     1      -3.520  -0.542  -0.367  1.00  0.00    -0.286 NA
HETATM   15  C12 UNL     1      -4.084  -1.839  -0.787  1.00  0.00     0.121 C 
HETATM   16  C13 UNL     1      -5.539  -1.787  -0.462  1.00  0.00     0.182 C 
HETATM   17  O2  UNL     1      -6.182  -0.789  -1.210  1.00  0.00    -0.389 OA
HETATM   18  C14 UNL     1      -5.598   0.421  -0.919  1.00  0.00     0.182 C 
HETATM   19  C15 UNL     1      -4.065   0.420  -1.229  1.00  0.00     0.121 C 
ENDBRANCH  13  14
ENDBRANCH  12  13
BRANCH   8  20
HETATM   20  C5  UNL     1       2.581   1.841  -1.071  1.00  0.00     0.105 C 
BRANCH  20  21
HETATM   21  C6  UNL     1       3.462   0.589  -1.160  1.00  0.00     0.215 C 
BRANCH  21  22
HETATM   22  O1  UNL     1       4.373   0.573  -0.116  1.00  0.00    -0.361 OA
BRANCH  22  23
HETATM   23  C7  UNL     1       5.106  -0.537   0.099  1.00  0.00     0.130 C 
HETATM   24  C8  UNL     1       6.210  -0.174   1.103  1.00  0.00     0.064 C 
HETATM   25  C9  UNL     1       5.731  -1.245  -1.051  1.00  0.00     0.064 C 
HETATM   26 CL1  UNL     1       4.146  -1.786   0.994  1.00  0.00    -0.089 Cl
ENDBRANCH  22  23
ENDBRANCH  21  22
ENDBRANCH  20  21
ENDBRANCH   8  20
TORSDOF 6
