REMARK  6 active torsions:
REMARK  status: ('A' for Active; 'I' for Inactive)
REMARK    1  A    between atoms: C4_5  and  O1_6 
REMARK    2  A    between atoms: O1_6  and  C5_7 
REMARK    3  A    between atoms: N2_10  and  C8_11 
REMARK    4  A    between atoms: C8_11  and  C9_12 
REMARK    5  A    between atoms: C13_19  and  C14_20 
REMARK    6  A    between atoms: C14_20  and  O2_23 
ROOT
HETATM    1  C5  UNL     1       0.797   0.322  -1.320  1.00  0.00     0.152 C 
HETATM    2  C6  UNL     1       2.033   1.161  -1.387  1.00  0.00     0.064 C 
HETATM    3  C7  UNL     1       3.141   0.258  -0.897  1.00  0.00     0.275 C 
HETATM    4  N2  UNL     1       2.646  -1.070  -0.798  1.00  0.00     0.097 N 
HETATM    5  C12 UNL     1       1.278  -1.097  -1.263  1.00  0.00     0.304 C 
ENDROOT
BRANCH   1   6
HETATM    6  O1  UNL     1      -0.122   0.684  -0.386  1.00  0.00    -0.376 OA
BRANCH   6   7
HETATM    7  C4  UNL     1      -1.335   1.079  -0.739  1.00  0.00     0.160 C 
HETATM    8  C3  UNL     1      -1.766   2.459  -0.299  1.00  0.00     0.064 C 
HETATM    9  C2  UNL     1      -3.263   2.358  -0.495  1.00  0.00     0.275 C 
HETATM   10  N1  UNL     1      -3.631   0.990  -0.200  1.00  0.00     0.094 N 
HETATM   11  C1  UNL     1      -4.549   0.438  -1.149  1.00  0.00     0.310 C 
HETATM   12  C13 UNL     1      -2.409   0.215  -0.139  1.00  0.00     0.284 C 
BRANCH  12  13
HETATM   13  C14 UNL     1      -2.221  -0.250   1.246  1.00  0.00     0.084 C 
HETATM   14  C15 UNL     1      -3.396  -1.212   1.523  1.00  0.00     0.047 C 
HETATM   15  C16 UNL     1      -2.358   0.816   2.312  1.00  0.00     0.047 C 
BRANCH  13  16
HETATM   16  O2  UNL     1      -1.095  -1.007   1.495  1.00  0.00    -0.388 OA
ATOM     17  H2  UNL     1      -0.974  -1.307   2.388  1.00  0.00     0.210 HD
ENDBRANCH  13  16
ENDBRANCH  12  13
ENDBRANCH   6   7
ENDBRANCH   1   6
BRANCH   4  18
HETATM   18  C8  UNL     1       2.779  -1.677   0.495  1.00  0.00     0.337 C 
BRANCH  18  19
HETATM   19  C9  UNL     1       4.246  -1.714   0.835  1.00  0.00     0.079 A 
HETATM   20  N3  UNL     1       5.278  -1.293   0.139  1.00  0.00    -0.362 N 
HETATM   21  C10 UNL     1       6.484  -1.420   0.620  1.00  0.00     0.096 A 
ATOM     22  H3  UNL     1       5.136  -0.867  -0.777  1.00  0.00     0.165 HD
HETATM   23  C11 UNL     1       6.615  -1.997   1.853  1.00  0.00     0.068 A 
HETATM   24  S1  UNL     1       4.982  -2.326   2.252  1.00  0.00    -0.086 SA
ENDBRANCH  18  19
ENDBRANCH   4  18
TORSDOF 6
