REMARK  5 active torsions:
REMARK  status: ('A' for Active; 'I' for Inactive)
REMARK    1  A    between atoms: N1_2  and  C2_5 
REMARK    2  A    between atoms: C2_5  and  C3_6 
REMARK    3  A    between atoms: N5_12  and  C4_13 
REMARK       I    between atoms: N6_16  and  C7_17 
REMARK    4  A    between atoms: C7_17  and  C8_19 
REMARK    5  A    between atoms: C8_19  and  C9_20 
ROOT
HETATM    1  C4  UNL     1       2.948  -0.729  -0.127  1.00  0.00     0.111 C 
HETATM    2  C5  UNL     1       2.470   0.665   0.032  1.00  0.00     0.047 C 
HETATM    3  C6  UNL     1       1.131   0.881  -0.624  1.00  0.00     0.128 C 
HETATM    4  N6  UNL     1       0.141  -0.146  -0.420  1.00  0.00    -0.352 N 
HETATM    5  C7  UNL     1      -1.146   0.152   0.072  1.00  0.00     0.220 C 
HETATM    6  O1  UNL     1      -1.272   1.346   0.556  1.00  0.00    -0.273 OA
HETATM    7  C16 UNL     1       0.617  -1.484  -0.721  1.00  0.00     0.128 C 
HETATM    8  C17 UNL     1       1.809  -1.673   0.186  1.00  0.00     0.047 C 
ENDROOT
BRANCH   1   9
HETATM    9  N5  UNL     1       4.088  -1.093   0.587  1.00  0.00    -0.255 N 
HETATM   10  C3  UNL     1       5.170  -0.390   0.901  1.00  0.00     0.138 A 
HETATM   11  N2  UNL     1       5.970  -1.292   1.587  1.00  0.00    -0.274 N 
HETATM   12  N3  UNL     1       5.401  -2.447   1.675  1.00  0.00    -0.225 N 
ATOM     13  H2  UNL     1       6.888  -1.071   1.972  1.00  0.00     0.189 HD
HETATM   14  N4  UNL     1       4.241  -2.318   1.057  1.00  0.00    -0.003 NA
ATOM     15  H3  UNL     1       5.770  -3.284   2.127  1.00  0.00     0.205 HD
BRANCH  10  16
HETATM   16  C2  UNL     1       5.576   0.973   0.670  1.00  0.00     0.310 C 
BRANCH  16  17
HETATM   17  N1  UNL     1       6.145   1.157  -0.664  1.00  0.00    -0.072 N 
HETATM   18  C1  UNL     1       7.506   1.582  -0.581  1.00  0.00     0.267 C 
ATOM     19  H12 UNL     1       5.584   1.795  -1.229  1.00  0.00     0.277 HD
ATOM     20  H11 UNL     1       6.046   0.318  -1.236  1.00  0.00     0.277 HD
ENDBRANCH  16  17
ENDBRANCH  10  16
ENDBRANCH   1   9
BRANCH   5  21
HETATM   21  C8  UNL     1      -2.312  -0.720   0.073  1.00  0.00     0.108 C 
BRANCH  21  22
HETATM   22  C9  UNL     1      -3.576   0.054   0.370  1.00  0.00    -0.002 C 
HETATM   23  C10 UNL     1      -3.720   1.188  -0.668  1.00  0.00     0.005 C 
HETATM   24  C11 UNL     1      -4.873   2.051  -0.118  1.00  0.00     0.000 C 
HETATM   25  C12 UNL     1      -6.163   1.268  -0.245  1.00  0.00     0.000 C 
HETATM   26  C13 UNL     1      -6.053  -0.088   0.436  1.00  0.00     0.004 C 
HETATM   27  C14 UNL     1      -4.798  -0.792   0.061  1.00  0.00    -0.014 C 
HETATM   28  C15 UNL     1      -4.767  -2.179   0.577  1.00  0.00     0.010 C 
ENDBRANCH  21  22
ENDBRANCH   5  21
TORSDOF 5
