REMARK  5 active torsions:
REMARK  status: ('A' for Active; 'I' for Inactive)
REMARK    1  A    between atoms: C5_7  and  C6_8 
REMARK    2  A    between atoms: C6_8  and  N1_9 
REMARK    3  A    between atoms: N1_9  and  C7_12 
REMARK    4  A    between atoms: C7_12  and  C8_13 
REMARK    5  A    between atoms: C9_17  and  C10_18 
ROOT
HETATM    1  N1  UNL     1       0.829  -2.212  -0.175  1.00  0.00    -0.068 N 
ATOM      2  H11 UNL     1       0.346  -3.098  -0.324  1.00  0.00     0.277 HD
ATOM      3  H12 UNL     1       0.966  -2.275   0.834  1.00  0.00     0.277 HD
ENDROOT
BRANCH   1   4
HETATM    4  C6  UNL     1      -0.012  -1.079  -0.529  1.00  0.00     0.242 C 
BRANCH   4   5
HETATM    5  C5  UNL     1      -1.124  -1.119   0.515  1.00  0.00     0.067 C 
HETATM    6  C4  UNL     1      -2.079   0.003   0.491  1.00  0.00     0.229 C 
HETATM    7  O1  UNL     1      -2.025   0.909  -0.531  1.00  0.00    -0.363 OA
HETATM    8  N4  UNL     1      -3.422  -0.537   0.547  1.00  0.00    -0.345 N 
HETATM    9  C3  UNL     1      -2.656   2.065   0.014  1.00  0.00     0.215 C 
HETATM   10  C2  UNL     1      -4.115   1.818   0.244  1.00  0.00     0.137 C 
HETATM   11  C1  UNL     1      -4.900   2.507  -0.891  1.00  0.00     0.055 C 
HETATM   12  F1  UNL     1      -4.473   2.484   1.402  1.00  0.00    -0.239 F 
HETATM   13  C15 UNL     1      -4.521   0.382   0.372  1.00  0.00     0.171 C 
HETATM   14  C14 UNL     1      -3.302  -1.909   0.787  1.00  0.00     0.078 C 
HETATM   15  C13 UNL     1      -2.009  -2.343   0.178  1.00  0.00     0.080 C 
HETATM   16  S1  UNL     1      -4.361  -2.861   1.595  1.00  0.00    -0.065 SA
ENDBRANCH   4   5
ENDBRANCH   1   4
BRANCH   1  17
HETATM   17  C7  UNL     1       2.102  -2.171  -0.887  1.00  0.00     0.310 C 
BRANCH  17  18
HETATM   18  C8  UNL     1       3.132  -1.555  -0.023  1.00  0.00     0.129 A 
HETATM   19  N2  UNL     1       3.247  -1.726   1.298  1.00  0.00    -0.245 N 
HETATM   20  O2  UNL     1       4.218  -0.960   1.743  1.00  0.00    -0.222 OA
ATOM     21  H2  UNL     1       2.675  -2.349   1.868  1.00  0.00     0.196 HD
HETATM   22  C9  UNL     1       4.726  -0.303   0.711  1.00  0.00     0.152 A 
HETATM   23  N3  UNL     1       4.055  -0.668  -0.402  1.00  0.00    -0.325 N 
ATOM     24  H3  UNL     1       4.221  -0.331  -1.350  1.00  0.00     0.169 HD
BRANCH  22  25
HETATM   25  C10 UNL     1       5.839   0.661   0.802  1.00  0.00     0.063 A 
HETATM   26  C11 UNL     1       6.510   1.139  -0.439  1.00  0.00     0.013 A 
HETATM   27  C12 UNL     1       5.551   2.044   0.241  1.00  0.00     0.013 A 
ENDBRANCH  22  25
ENDBRANCH  17  18
ENDBRANCH   1  17
TORSDOF 5
