REMARK  5 active torsions:
REMARK  status: ('A' for Active; 'I' for Inactive)
REMARK    1  A    between atoms: C3_5  and  C4_6 
REMARK    2  A    between atoms: N2_7  and  C5_9 
REMARK    3  A    between atoms: C5_9  and  C6_10 
REMARK    4  A    between atoms: C12_18  and  C13_19 
REMARK    5  A    between atoms: C16_23  and  O2_24 
ROOT
HETATM    1  C1  UNL     1       1.055  -4.597   0.290  1.00  0.00     0.098 C 
HETATM    2  C2  UNL     1       1.240  -3.145  -0.130  1.00  0.00     0.121 A 
HETATM    3  N1  UNL     1       0.216  -2.306  -0.273  1.00  0.00    -0.337 N 
ATOM      4  H1  UNL     1      -0.762  -2.548  -0.111  1.00  0.00     0.168 HD
HETATM    5  C3  UNL     1       0.639  -1.131  -0.649  1.00  0.00     0.084 A 
HETATM    6  C12 UNL     1       2.078  -1.277  -0.738  1.00  0.00     0.120 A 
HETATM    7  O3  UNL     1       2.318  -2.492  -0.417  1.00  0.00    -0.294 OA
ENDROOT
BRANCH   5   8
HETATM    8  C4  UNL     1       0.134   0.251  -0.658  1.00  0.00     0.116 C 
HETATM    9  N2  UNL     1      -0.844   0.697  -0.033  1.00  0.00    -0.391 N 
ATOM     10  H2  UNL     1      -1.053   1.685  -0.174  1.00  0.00     0.159 HD
BRANCH   9  11
HETATM   11  C5  UNL     1      -1.686   0.011   0.834  1.00  0.00     0.193 C 
BRANCH  11  12
HETATM   12  C6  UNL     1      -3.073  -0.134   0.196  1.00  0.00     0.221 C 
HETATM   13  F1  UNL     1      -2.926  -0.867  -0.954  1.00  0.00    -0.210 F 
HETATM   14  C7  UNL     1      -3.609   1.219  -0.202  1.00  0.00     0.079 C 
HETATM   15  C8  UNL     1      -4.928   1.545   0.393  1.00  0.00    -0.011 C 
HETATM   16  C9  UNL     1      -5.707   2.323  -0.679  1.00  0.00     0.010 C 
HETATM   17  C10 UNL     1      -5.771   0.373   0.788  1.00  0.00     0.031 C 
HETATM   18  C11 UNL     1      -5.133  -0.972   0.543  1.00  0.00     0.172 C 
HETATM   19  O1  UNL     1      -3.840  -0.833   1.085  1.00  0.00    -0.350 OA
ENDBRANCH  11  12
ENDBRANCH   9  11
ENDBRANCH   5   8
BRANCH   6  20
HETATM   20  C13 UNL     1       2.883  -0.134  -1.148  1.00  0.00     0.125 C 
HETATM   21  N3  UNL     1       3.837   0.270  -0.271  1.00  0.00    -0.385 N 
HETATM   22  C14 UNL     1       4.879  -0.430   0.276  1.00  0.00     0.125 C 
HETATM   23  C17 UNL     1       4.173   1.685  -0.359  1.00  0.00     0.153 C 
HETATM   24  C15 UNL     1       6.131   0.443   0.142  1.00  0.00     0.053 C 
HETATM   25  C16 UNL     1       5.665   1.702  -0.582  1.00  0.00     0.137 C 
BRANCH  25  26
HETATM   26  O2  UNL     1       6.210   2.797   0.050  1.00  0.00    -0.394 OA
ATOM     27  H2  UNL     1       5.920   3.581  -0.401  1.00  0.00     0.210 HD
ENDBRANCH  25  26
ENDBRANCH   6  20
TORSDOF 5
