REMARK  7 active torsions:
REMARK  status: ('A' for Active; 'I' for Inactive)
REMARK    1  A    between atoms: C2_2  and  N1_5 
REMARK    2  A    between atoms: N1_5  and  C5_7 
REMARK    3  A    between atoms: C6_10  and  C7_11 
REMARK    4  A    between atoms: C7_11  and  O1_12 
REMARK    5  A    between atoms: O1_12  and  C8_13 
REMARK    6  A    between atoms: C8_13  and  C9_14 
REMARK    7  A    between atoms: C15_22  and  N4_23 
ROOT
HETATM    1  C5  UNL     1      -2.711  -0.877   0.290  1.00  0.00     0.694 A 
HETATM    2  N2  UNL     1      -1.831   0.121   0.424  1.00  0.00    -0.177 N 
ATOM      3  H2  UNL     1      -2.147   1.084   0.313  1.00  0.00     0.185 HD
HETATM    4  C6  UNL     1      -0.513  -0.124   0.708  1.00  0.00     0.137 A 
HETATM    5  N3  UNL     1      -0.108  -1.372   0.852  1.00  0.00    -0.178 N 
ATOM      6  H3  UNL     1       0.872  -1.560   1.064  1.00  0.00     0.185 HD
HETATM    7  C15 UNL     1      -0.961  -2.396   0.725  1.00  0.00     0.691 A 
HETATM    8  N5  UNL     1      -2.268  -2.138   0.442  1.00  0.00    -0.023 N 
ATOM      9  H5  UNL     1      -2.922  -2.914   0.344  1.00  0.00     0.203 HD
ENDROOT
BRANCH   4  10
HETATM   10  C7  UNL     1       0.446   0.999   0.857  1.00  0.00     0.245 C 
BRANCH  10  11
HETATM   11  O1  UNL     1       0.981   1.424  -0.340  1.00  0.00    -0.383 OA
BRANCH  11  12
HETATM   12  C8  UNL     1       1.724   0.496  -1.026  1.00  0.00     0.172 C 
BRANCH  12  13
HETATM   13  C9  UNL     1       2.962   0.021  -0.310  1.00  0.00     0.009 C 
HETATM   14  C10 UNL     1       3.891   1.189  -0.038  1.00  0.00     0.007 C 
HETATM   15  C11 UNL     1       5.023   0.708   0.845  1.00  0.00     0.000 C 
HETATM   16  C12 UNL     1       5.436  -0.699   0.474  1.00  0.00     0.000 C 
HETATM   17  C13 UNL     1       5.169  -0.867  -1.004  1.00  0.00     0.000 C 
HETATM   18  C14 UNL     1       3.673  -1.002  -1.180  1.00  0.00     0.007 C 
ENDBRANCH  12  13
ENDBRANCH  11  12
ENDBRANCH  10  11
ENDBRANCH   4  10
BRANCH   1  19
HETATM   19  N1  UNL     1      -3.912  -0.670   0.032  1.00  0.00    -0.217 N 
ATOM     20  H1  UNL     1      -4.469  -1.521  -0.042  1.00  0.00     0.178 HD
BRANCH  19  21
HETATM   21  C2  UNL     1      -4.656   0.522  -0.179  1.00  0.00     0.036 C 
HETATM   22  C1  UNL     1      -6.132   0.242  -0.426  1.00  0.00     0.038 C 
HETATM   23  C3  UNL     1      -4.159   1.373  -1.301  1.00  0.00     0.038 C 
HETATM   24  C4  UNL     1      -4.605   1.334   1.101  1.00  0.00     0.038 C 
ENDBRANCH  19  21
ENDBRANCH   1  19
BRANCH   7  25
HETATM   25  N4  UNL     1      -0.515  -3.595   0.875  1.00  0.00    -0.234 N 
ATOM     26  H42 UNL     1       0.464  -3.788   1.087  1.00  0.00     0.174 HD
ATOM     27  H41 UNL     1      -1.165  -4.375   0.778  1.00  0.00     0.174 HD
ENDBRANCH   7  25
TORSDOF 7
