REMARK  5 active torsions:
REMARK  status: ('A' for Active; 'I' for Inactive)
REMARK    1  A    between atoms: O1_2  and  C2_3 
REMARK    2  A    between atoms: C3_4  and  C4_5 
REMARK    3  A    between atoms: C4_5  and  C5_6 
REMARK    4  A    between atoms: N1_12  and  C10_13 
REMARK    5  A    between atoms: C10_13  and  C11_14 
ROOT
HETATM    1  C2  UNL     1      -0.829  -1.262   0.168  1.00  0.00     0.156 C 
HETATM    2  C3  UNL     1      -0.436   0.157  -0.094  1.00  0.00     0.119 C 
HETATM    3  N1  UNL     1      -1.610   0.886   0.232  1.00  0.00    -0.358 N 
HETATM    4  C12 UNL     1      -2.289   0.268   1.288  1.00  0.00     0.075 C 
HETATM    5  C13 UNL     1      -2.083  -1.211   1.020  1.00  0.00     0.013 C 
HETATM    6  C14 UNL     1      -1.919  -1.996   2.298  1.00  0.00     0.023 C 
HETATM    7  C15 UNL     1      -3.302  -1.709   0.259  1.00  0.00     0.023 C 
ENDROOT
BRANCH   3   8
HETATM    8  C10 UNL     1      -2.298   1.531  -0.779  1.00  0.00     0.141 C 
BRANCH   8   9
HETATM    9  C11 UNL     1      -1.616   2.556  -1.549  1.00  0.00     0.152 A 
HETATM   10  N2  UNL     1      -1.503   3.893  -1.396  1.00  0.00    -0.268 N 
HETATM   11  N3  UNL     1      -0.778   4.397  -2.354  1.00  0.00    -0.227 N 
ATOM     12  H2  UNL     1      -1.925   4.431  -0.639  1.00  0.00     0.190 HD
HETATM   13  N4  UNL     1      -0.415   3.407  -3.132  1.00  0.00    -0.227 N 
ATOM     14  H3  UNL     1      -0.537   5.381  -2.476  1.00  0.00     0.210 HD
HETATM   15  N5  UNL     1      -0.908   2.297  -2.666  1.00  0.00    -0.268 N 
ATOM     16  H4  UNL     1       0.162   3.493  -3.969  1.00  0.00     0.210 HD
ATOM     17  H5  UNL     1      -0.779   1.374  -3.081  1.00  0.00     0.190 HD
ENDBRANCH   8   9
ENDBRANCH   3   8
BRANCH   2  18
HETATM   18  C4  UNL     1       0.692   0.641   0.785  1.00  0.00     0.033 C 
BRANCH  18  19
HETATM   19  C5  UNL     1       1.955  -0.162   0.616  1.00  0.00    -0.009 C 
HETATM   20  C6  UNL     1       2.985   0.453   1.566  1.00  0.00     0.031 C 
HETATM   21  C7  UNL     1       3.664   1.596   0.815  1.00  0.00     0.168 C 
HETATM   22  O2  UNL     1       4.483   1.119  -0.190  1.00  0.00    -0.391 OA
HETATM   23  C8  UNL     1       4.024  -0.076  -0.741  1.00  0.00     0.168 C 
HETATM   24  C9  UNL     1       2.522  -0.010  -0.780  1.00  0.00     0.031 C 
ENDBRANCH  18  19
ENDBRANCH   2  18
BRANCH   1  25
HETATM   25  O1  UNL     1      -1.145  -1.975  -0.974  1.00  0.00    -0.388 OA
HETATM   26  C1  UNL     1      -0.467  -3.175  -1.089  1.00  0.00     0.202 C 
ENDBRANCH   1  25
TORSDOF 5
