REMARK  9 active torsions:
REMARK  status: ('A' for Active; 'I' for Inactive)
REMARK    1  A    between atoms: C2_2  and  O1_3 
REMARK    2  A    between atoms: O1_3  and  C3_4 
REMARK    3  A    between atoms: C3_4  and  C4_5 
REMARK    4  A    between atoms: C4_5  and  N1_6 
REMARK    5  A    between atoms: C7_9  and  C8_10 
REMARK    6  A    between atoms: C8_10  and  O2_11 
REMARK    7  A    between atoms: C8_10  and  N2_13 
REMARK       I    between atoms: N2_13  and  C9_15 
REMARK    8  A    between atoms: C9_15  and  O4_17 
REMARK    9  A    between atoms: O4_17  and  C10_18 
ROOT
HETATM    1  C8  UNL     1      -0.403  -1.986   0.656  1.00  0.00     0.150 C 
ENDROOT
BRANCH   1   2
HETATM    2  C7  UNL     1       0.515  -0.844   0.609  1.00  0.00     0.203 C 
HETATM    3  C6  UNL     1       1.551  -1.087  -0.510  1.00  0.00     0.085 C 
HETATM    4  C5  UNL     1       1.851   0.255  -1.180  1.00  0.00     0.063 C 
HETATM    5  N1  UNL     1       1.937   1.316  -0.267  1.00  0.00    -0.370 N 
HETATM    6  C14 UNL     1       0.735   1.433   0.560  1.00  0.00     0.293 C 
HETATM    7  O5  UNL     1      -0.105   0.336   0.358  1.00  0.00    -0.358 OA
BRANCH   5   8
HETATM    8  C4  UNL     1       3.104   1.532   0.495  1.00  0.00     0.150 C 
BRANCH   8   9
HETATM    9  C3  UNL     1       4.327   1.983  -0.232  1.00  0.00     0.187 C 
BRANCH   9  10
HETATM   10  O1  UNL     1       4.880   1.133  -1.140  1.00  0.00    -0.390 OA
BRANCH  10  11
HETATM   11  C2  UNL     1       5.434  -0.020  -0.539  1.00  0.00     0.163 C 
HETATM   12  C1  UNL     1       6.534   0.389   0.430  1.00  0.00     0.033 C 
ENDBRANCH  10  11
ENDBRANCH   9  10
ENDBRANCH   8   9
ENDBRANCH   5   8
ENDBRANCH   1   2
BRANCH   1  13
HETATM   13  O2  UNL     1       0.189  -3.157   0.893  1.00  0.00    -0.347 OA
ATOM     14  H2  UNL     1      -0.406  -3.897   0.923  1.00  0.00     0.219 HD
ENDBRANCH   1  13
BRANCH   1  15
HETATM   15  N2  UNL     1      -1.762  -2.032   0.494  1.00  0.00    -0.284 N 
HETATM   16  C9  UNL     1      -2.738  -1.074   0.242  1.00  0.00     0.367 C 
HETATM   17  O3  UNL     1      -2.641   0.153   0.089  1.00  0.00    -0.238 OA
ATOM     18  H2  UNL     1      -2.141  -2.975   0.576  1.00  0.00     0.173 HD
BRANCH  16  19
HETATM   19  O4  UNL     1      -4.117  -1.480   0.122  1.00  0.00    -0.294 OA
BRANCH  19  20
HETATM   20  C10 UNL     1      -5.113  -0.550  -0.128  1.00  0.00     0.061 C 
HETATM   21  C11 UNL     1      -6.427  -1.338  -0.193  1.00  0.00     0.046 C 
HETATM   22  C12 UNL     1      -5.291   0.444   1.023  1.00  0.00     0.046 C 
HETATM   23  C13 UNL     1      -4.976   0.223  -1.388  1.00  0.00     0.046 C 
ENDBRANCH  19  20
ENDBRANCH  16  19
ENDBRANCH   1  15
TORSDOF 9
