REMARK  7 active torsions:
REMARK  status: ('A' for Active; 'I' for Inactive)
REMARK    1  A    between atoms: C2_2  and  O1_3 
REMARK    2  A    between atoms: O1_3  and  C3_4 
REMARK    3  A    between atoms: C3_4  and  C4_6 
REMARK    4  A    between atoms: C4_6  and  C6_9 
REMARK    5  A    between atoms: C6_9  and  N2_10 
REMARK    6  A    between atoms: C11_15  and  C12_16 
REMARK    7  A    between atoms: C12_16  and  O4_18 
ROOT
HETATM    1  C4  UNL     1       2.330  -0.797  -1.789  1.00  0.00     0.230 C 
HETATM    2  C5  UNL     1       2.761  -1.989  -2.569  1.00  0.00     0.079 C 
HETATM    3  N1  UNL     1       3.083  -2.911  -3.188  1.00  0.00    -0.196 NA
ENDROOT
BRANCH   1   4
HETATM    4  C3  UNL     1       3.474  -0.433  -0.952  1.00  0.00     0.281 C 
HETATM    5  O2  UNL     1       3.912   0.734  -0.958  1.00  0.00    -0.263 OA
BRANCH   4   6
HETATM    6  O1  UNL     1       4.107  -1.349  -0.134  1.00  0.00    -0.321 OA
BRANCH   6   7
HETATM    7  C2  UNL     1       5.204  -1.054   0.691  1.00  0.00     0.174 C 
HETATM    8  C1  UNL     1       4.922  -0.009   1.722  1.00  0.00     0.034 C 
ENDBRANCH   6   7
ENDBRANCH   4   6
ENDBRANCH   1   4
BRANCH   1   9
HETATM    9  C6  UNL     1       1.052  -1.119  -1.109  1.00  0.00     0.093 C 
BRANCH   9  10
HETATM   10  N2  UNL     1       0.429  -0.148  -0.322  1.00  0.00    -0.367 N 
HETATM   11  C7  UNL     1       1.033   0.213   0.879  1.00  0.00     0.063 C 
HETATM   12  C8  UNL     1       0.090   0.428   2.040  1.00  0.00     0.045 C 
HETATM   13  C9  UNL     1      -1.177  -0.328   1.959  1.00  0.00     0.013 C 
HETATM   14  C10 UNL     1      -1.834  -0.339   0.618  1.00  0.00     0.023 C 
HETATM   15  C11 UNL     1      -3.012   0.583   0.584  1.00  0.00     0.091 C 
HETATM   16  C16 UNL     1      -0.948   0.086  -0.507  1.00  0.00     0.093 C 
HETATM   17  C14 UNL     1      -2.413   1.893   0.157  1.00  0.00     0.017 C 
HETATM   18  C15 UNL     1      -1.232   1.554  -0.722  1.00  0.00     0.027 C 
BRANCH  15  19
HETATM   19  C12 UNL     1      -4.031   0.150  -0.418  1.00  0.00     0.263 C 
HETATM   20  O3  UNL     1      -3.810  -0.878  -1.079  1.00  0.00    -0.265 OA
BRANCH  19  21
HETATM   21  O4  UNL     1      -5.198   0.845  -0.633  1.00  0.00    -0.326 OA
HETATM   22  C13 UNL     1      -6.172   0.448  -1.577  1.00  0.00     0.213 C 
ENDBRANCH  19  21
ENDBRANCH  15  19
ENDBRANCH   9  10
ENDBRANCH   1   9
TORSDOF 7
