REMARK  6 active torsions:
REMARK  status: ('A' for Active; 'I' for Inactive)
REMARK    1  A    between atoms: O1_2  and  C2_3 
REMARK    2  A    between atoms: C2_3  and  C3_4 
REMARK    3  A    between atoms: C3_4  and  N1_5 
REMARK       I    between atoms: N1_5  and  C4_7 
REMARK    4  A    between atoms: C4_7  and  C5_9 
REMARK    5  A    between atoms: N2_14  and  C10_15 
REMARK    6  A    between atoms: C10_15  and  C11_16 
ROOT
HETATM    1  C5  UNL     1       2.112  -0.450   2.034  1.00  0.00     0.255 C 
HETATM    2  C6  UNL     1       1.158  -1.213   1.156  1.00  0.00     0.086 C 
HETATM    3  C7  UNL     1      -0.017  -0.282   1.122  1.00  0.00     0.105 C 
HETATM    4  C8  UNL     1      -1.350  -0.994   1.302  1.00  0.00     0.062 C 
HETATM    5  C9  UNL     1      -2.393   0.141   1.351  1.00  0.00     0.130 C 
HETATM    6  N2  UNL     1      -2.513   0.669   0.088  1.00  0.00    -0.373 N 
HETATM    7  C15 UNL     1      -1.425   0.603  -0.775  1.00  0.00     0.066 C 
HETATM    8  C16 UNL     1      -0.058   0.556  -0.121  1.00  0.00     0.086 C 
HETATM    9  O3  UNL     1       0.166   0.480   2.254  1.00  0.00    -0.228 OA
HETATM   10  O4  UNL     1       1.382   0.526   2.618  1.00  0.00    -0.225 OA
ENDROOT
BRANCH   1  11
HETATM   11  C4  UNL     1       3.178   0.218   1.222  1.00  0.00     0.249 C 
HETATM   12  N1  UNL     1       4.118  -0.583   0.549  1.00  0.00    -0.357 N 
ATOM     13  H1  UNL     1       4.066  -1.599   0.619  1.00  0.00     0.162 HD
HETATM   14  O2  UNL     1       3.260   1.471   1.129  1.00  0.00    -0.271 OA
BRANCH  12  15
HETATM   15  C3  UNL     1       5.158   0.036  -0.242  1.00  0.00     0.148 C 
BRANCH  15  16
HETATM   16  C2  UNL     1       6.021  -1.060  -0.823  1.00  0.00     0.186 C 
BRANCH  16  17
HETATM   17  O1  UNL     1       7.058  -0.590  -1.602  1.00  0.00    -0.394 OA
HETATM   18  C1  UNL     1       7.923   0.238  -0.889  1.00  0.00     0.201 C 
ENDBRANCH  16  17
ENDBRANCH  15  16
ENDBRANCH  12  15
ENDBRANCH   1  11
BRANCH   6  19
HETATM   19  C10 UNL     1      -3.711   1.102  -0.442  1.00  0.00     0.071 C 
BRANCH  19  20
HETATM   20  C11 UNL     1      -4.772   0.091  -0.772  1.00  0.00    -0.019 C 
HETATM   21  C12 UNL     1      -4.306  -0.922  -1.778  1.00  0.00     0.020 C 
HETATM   22  C13 UNL     1      -5.887   0.900  -1.472  1.00  0.00     0.020 C 
HETATM   23  C14 UNL     1      -5.408  -0.597   0.382  1.00  0.00     0.020 C 
ENDBRANCH  19  20
ENDBRANCH   6  19
TORSDOF 6
