REMARK  6 active torsions:
REMARK  status: ('A' for Active; 'I' for Inactive)
REMARK    1  A    between atoms: N1_2  and  C3_4 
REMARK    2  A    between atoms: C3_4  and  C4_5 
REMARK    3  A    between atoms: C4_5  and  C5_6 
REMARK    4  A    between atoms: C5_6  and  C6_7 
REMARK    5  A    between atoms: C6_7  and  C7_8 
REMARK    6  A    between atoms: C12_13  and  C13_14 
ROOT
HETATM    1  C7  UNL     1       1.264  -1.245  -1.105  1.00  0.00    -0.048 A 
HETATM    2  C8  UNL     1       1.373  -2.072  -2.228  1.00  0.00     0.008 A 
HETATM    3  C9  UNL     1       2.261  -3.119  -2.266  1.00  0.00     0.001 A 
HETATM    4  C10 UNL     1       3.067  -3.367  -1.177  1.00  0.00     0.001 A 
HETATM    5  C11 UNL     1       2.989  -2.576  -0.058  1.00  0.00     0.012 A 
HETATM    6  C12 UNL     1       2.081  -1.515  -0.037  1.00  0.00    -0.028 A 
ENDROOT
BRANCH   6   7
HETATM    7  C13 UNL     1       2.108  -0.682   1.186  1.00  0.00     0.047 C 
HETATM    8  C14 UNL     1       2.793   0.460   1.217  1.00  0.00     0.104 A 
HETATM    9  N2  UNL     1       2.909   1.366   2.321  1.00  0.00    -0.324 N 
HETATM   10  C16 UNL     1       3.598   1.030   0.147  1.00  0.00     0.275 A 
HETATM   11  C15 UNL     1       3.738   2.455   1.984  1.00  0.00     0.180 A 
ATOM     12  H2  UNL     1       2.455   1.240   3.225  1.00  0.00     0.169 HD
HETATM   13  N3  UNL     1       4.006   3.415   2.805  1.00  0.00    -0.371 N 
HETATM   14  N4  UNL     1       4.149   2.239   0.663  1.00  0.00    -0.293 N 
ATOM     15  H32 UNL     1       3.707   3.572   3.767  1.00  0.00     0.159 HD
ATOM     16  H31 UNL     1       4.606   4.203   2.561  1.00  0.00     0.159 HD
ATOM     17  H4  UNL     1       4.762   2.864   0.139  1.00  0.00     0.172 HD
HETATM   18  O1  UNL     1       3.803   0.596  -1.009  1.00  0.00    -0.266 OA
ENDBRANCH   6   7
BRANCH   1  19
HETATM   19  C6  UNL     1       0.259  -0.169  -1.090  1.00  0.00     0.039 C 
BRANCH  19  20
HETATM   20  C5  UNL     1      -0.992  -0.573  -0.325  1.00  0.00     0.006 C 
BRANCH  20  21
HETATM   21  C4  UNL     1      -1.983   0.574  -0.371  1.00  0.00     0.030 C 
BRANCH  21  22
HETATM   22  C3  UNL     1      -3.214   0.114   0.383  1.00  0.00     0.271 C 
BRANCH  22  23
HETATM   23  N1  UNL     1      -4.264   1.123   0.403  1.00  0.00     0.080 N 
HETATM   24  C1  UNL     1      -4.805   1.308  -0.941  1.00  0.00     0.309 C 
HETATM   25  C2  UNL     1      -5.320   0.622   1.287  1.00  0.00     0.309 C 
ENDBRANCH  22  23
ENDBRANCH  21  22
ENDBRANCH  20  21
ENDBRANCH  19  20
ENDBRANCH   1  19
TORSDOF 6
