REMARK  8 active torsions:
REMARK  status: ('A' for Active; 'I' for Inactive)
REMARK    1  A    between atoms: N2_7  and  C6_8 
REMARK    2  A    between atoms: C6_8  and  C7_9 
REMARK    3  A    between atoms: C7_9  and  C8_10 
REMARK    4  A    between atoms: C8_10  and  C9_11 
REMARK    5  A    between atoms: C12_14  and  C13_15 
REMARK    6  A    between atoms: C13_15  and  C14_16 
REMARK    7  A    between atoms: C14_16  and  N3_17 
REMARK    8  A    between atoms: N4_23  and  N5_24 
ROOT
HETATM    1  C7  UNL     1      -0.352   0.956  -1.266  1.00  0.00     0.026 C 
ENDROOT
BRANCH   1   2
HETATM    2  C6  UNL     1      -1.740   1.146  -1.741  1.00  0.00     0.150 C 
BRANCH   2   3
HETATM    3  N2  UNL     1      -2.732   0.371  -1.022  1.00  0.00    -0.283 N 
HETATM    4  C5  UNL     1      -3.089  -0.864  -1.403  1.00  0.00     0.114 A 
HETATM    5  C4  UNL     1      -4.034  -1.541  -0.673  1.00  0.00     0.047 A 
HETATM    6  C3  UNL     1      -4.616  -0.970   0.438  1.00  0.00     0.073 A 
HETATM    7  C2  UNL     1      -4.220   0.300   0.795  1.00  0.00     0.072 A 
HETATM    8  N1  UNL     1      -5.604  -1.690   1.192  1.00  0.00    -0.100 NA
HETATM    9  C1  UNL     1      -4.836   0.936   1.993  1.00  0.00     0.074 C 
HETATM   10  N4  UNL     1      -3.285   0.925   0.042  1.00  0.00    -0.204 N 
BRANCH  10  11
HETATM   11  N5  UNL     1      -2.929   2.208   0.458  1.00  0.00    -0.324 N 
ATOM     12  H52 UNL     1      -3.356   2.636   1.280  1.00  0.00     0.178 HD
ATOM     13  H51 UNL     1      -2.224   2.679  -0.109  1.00  0.00     0.178 HD
ENDBRANCH  10  11
ENDBRANCH   2   3
ENDBRANCH   1   2
BRANCH   1  14
HETATM   14  C8  UNL     1       0.124  -0.461  -1.372  1.00  0.00     0.040 C 
BRANCH  14  15
HETATM   15  C9  UNL     1       1.515  -0.605  -0.888  1.00  0.00    -0.058 A 
HETATM   16  C10 UNL     1       2.550  -0.450  -1.775  1.00  0.00     0.007 A 
HETATM   17  C11 UNL     1       3.876  -0.581  -1.345  1.00  0.00     0.007 A 
HETATM   18  C12 UNL     1       4.167  -0.866  -0.033  1.00  0.00    -0.057 A 
HETATM   19  C15 UNL     1       3.112  -1.015   0.829  1.00  0.00     0.007 A 
HETATM   20  C16 UNL     1       1.804  -0.890   0.423  1.00  0.00     0.007 A 
BRANCH  18  21
HETATM   21  C13 UNL     1       5.542  -1.014   0.475  1.00  0.00     0.065 C 
BRANCH  21  22
HETATM   22  C14 UNL     1       6.034   0.351   0.938  1.00  0.00     0.234 C 
BRANCH  22  23
HETATM   23  N3  UNL     1       5.195   0.860   1.977  1.00  0.00    -0.079 N 
ATOM     24  H33 UNL     1       4.215   0.886   1.695  1.00  0.00     0.274 HD
ATOM     25  H32 UNL     1       5.112   0.204   2.753  1.00  0.00     0.274 HD
ATOM     26  H31 UNL     1       5.524   1.774   2.287  1.00  0.00     0.274 HD
ENDBRANCH  22  23
ENDBRANCH  21  22
ENDBRANCH  18  21
ENDBRANCH  14  15
ENDBRANCH   1  14
TORSDOF 8
