REMARK  8 active torsions:
REMARK  status: ('A' for Active; 'I' for Inactive)
REMARK    1  A    between atoms: C2_2  and  C3_3 
REMARK    2  A    between atoms: C3_3  and  N1_4 
REMARK    3  A    between atoms: N1_4  and  C4_6 
REMARK    4  A    between atoms: C5_9  and  N3_10 
REMARK    5  A    between atoms: C7_15  and  N5_16 
REMARK    6  A    between atoms: N5_16  and  C8_18 
REMARK    7  A    between atoms: C8_18  and  C9_19 
REMARK    8  A    between atoms: C9_19  and  C10_20 
ROOT
HETATM    1  C4  UNL     1       2.187  -0.470  -0.215  1.00  0.00     0.707 A 
HETATM    2  N2  UNL     1       2.797   0.607   0.301  1.00  0.00    -0.022 N 
ATOM      3  H2  UNL     1       3.803   0.597   0.467  1.00  0.00     0.203 HD
HETATM    4  C5  UNL     1       2.065   1.713   0.602  1.00  0.00     0.706 A 
HETATM    5  N4  UNL     1       0.740   1.750   0.393  1.00  0.00    -0.022 N 
ATOM      6  H4  UNL     1       0.202   2.585   0.623  1.00  0.00     0.203 HD
HETATM    7  C7  UNL     1       0.134   0.668  -0.125  1.00  0.00     0.707 A 
HETATM    8  N6  UNL     1       0.862  -0.439  -0.427  1.00  0.00    -0.022 N 
ATOM      9  H6  UNL     1       0.396  -1.257  -0.820  1.00  0.00     0.203 HD
ENDROOT
BRANCH   7  10
HETATM   10  N5  UNL     1      -1.131   0.605  -0.362  1.00  0.00    -0.225 N 
ATOM     11  H5  UNL     1      -1.492  -0.264  -0.756  1.00  0.00     0.177 HD
BRANCH  10  12
HETATM   12  C8  UNL     1      -2.069   1.658  -0.116  1.00  0.00     0.142 C 
BRANCH  12  13
HETATM   13  C9  UNL     1      -3.201   1.508  -1.115  1.00  0.00     0.058 C 
BRANCH  13  14
HETATM   14  C10 UNL     1      -3.803   0.170  -0.881  1.00  0.00    -0.057 A 
HETATM   15  C11 UNL     1      -3.338  -0.952  -1.551  1.00  0.00     0.007 A 
HETATM   16  C12 UNL     1      -3.895  -2.195  -1.336  1.00  0.00     0.001 A 
HETATM   17  C13 UNL     1      -4.935  -2.378  -0.448  1.00  0.00     0.000 A 
HETATM   18  C14 UNL     1      -5.397  -1.261   0.218  1.00  0.00     0.001 A 
HETATM   19  C15 UNL     1      -4.843  -0.017   0.006  1.00  0.00     0.007 A 
ENDBRANCH  13  14
ENDBRANCH  12  13
ENDBRANCH  10  12
ENDBRANCH   7  10
BRANCH   4  20
HETATM   20  N3  UNL     1       2.710   2.722   1.098  1.00  0.00    -0.229 N 
HETATM   21  C6  UNL     1       1.953   3.916   1.429  1.00  0.00     0.165 C 
ATOM     22  H3  UNL     1       3.718   2.679   1.251  1.00  0.00     0.177 HD
ENDBRANCH   4  20
BRANCH   1  23
HETATM   23  N1  UNL     1       2.870  -1.517  -0.503  1.00  0.00    -0.222 N 
ATOM     24  H1  UNL     1       2.411  -2.338  -0.897  1.00  0.00     0.178 HD
BRANCH  23  25
HETATM   25  C3  UNL     1       4.296  -1.522  -0.264  1.00  0.00     0.164 C 
BRANCH  25  26
HETATM   26  C2  UNL     1       4.895  -2.828  -0.617  1.00  0.00    -0.017 C 
HETATM   27  C1  UNL     1       5.533  -3.562   0.298  1.00  0.00     0.008 C 
ENDBRANCH  25  26
ENDBRANCH  23  25
ENDBRANCH   1  23
TORSDOF 8
