REMARK  8 active torsions:
REMARK  status: ('A' for Active; 'I' for Inactive)
REMARK    1  A    between atoms: C3_3  and  C4_4 
REMARK    2  A    between atoms: C4_4  and  N1_5 
REMARK    3  A    between atoms: N1_5  and  C5_7 
REMARK    4  A    between atoms: C8_12  and  N3_13 
REMARK    5  A    between atoms: N3_13  and  C9_15 
REMARK    6  A    between atoms: C9_15  and  C10_16 
REMARK    7  A    between atoms: C10_16  and  C11_17 
REMARK    8  A    between atoms: C11_17  and  N4_18 
ROOT
HETATM    1  C1  UNL     1       8.246   0.403  -1.929  1.00  0.00     0.012 C 
HETATM    2  C2  UNL     1       7.211   0.500  -1.319  1.00  0.00    -0.116 C 
HETATM    3  C3  UNL     1       5.934   0.608  -0.593  1.00  0.00     0.113 C 
ENDROOT
BRANCH   3   4
HETATM    4  C4  UNL     1       5.305  -0.777  -0.521  1.00  0.00     0.150 C 
BRANCH   4   5
HETATM    5  N1  UNL     1       4.057  -0.670   0.190  1.00  0.00    -0.225 N 
ATOM      6  H1  UNL     1       4.051  -0.849   1.194  1.00  0.00     0.177 HD
BRANCH   5   7
HETATM    7  C5  UNL     1       2.944  -0.357  -0.390  1.00  0.00     0.679 A 
HETATM    8  N2  UNL     1       2.844  -0.103  -1.709  1.00  0.00    -0.202 N 
HETATM    9  C6  UNL     1       1.655   0.220  -2.263  1.00  0.00     0.110 A 
ATOM     10  H2  UNL     1       3.676  -0.155  -2.297  1.00  0.00     0.183 HD
HETATM   11  C7  UNL     1       0.506   0.299  -1.503  1.00  0.00     0.066 A 
HETATM   12  C8  UNL     1       0.618   0.038  -0.161  1.00  0.00     0.118 A 
HETATM   13  N6  UNL     1       1.822  -0.277   0.335  1.00  0.00    -0.177 N 
ATOM     14  H6  UNL     1       1.888  -0.469   1.335  1.00  0.00     0.185 HD
BRANCH  12  15
HETATM   15  N3  UNL     1      -0.446   0.106   0.575  1.00  0.00    -0.376 N 
ATOM     16  H3  UNL     1      -1.351   0.348   0.171  1.00  0.00     0.161 HD
BRANCH  15  17
HETATM   17  C9  UNL     1      -0.309  -0.172   1.984  1.00  0.00     0.123 C 
BRANCH  17  18
HETATM   18  C10 UNL     1      -1.668  -0.120   2.627  1.00  0.00     0.039 C 
BRANCH  18  19
HETATM   19  C11 UNL     1      -2.561  -1.146   2.021  1.00  0.00     0.122 C 
BRANCH  19  20
HETATM   20  N4  UNL     1      -2.745  -0.926   0.607  1.00  0.00    -0.380 N 
HETATM   21  C12 UNL     1      -3.890  -0.496   0.205  1.00  0.00     0.072 C 
HETATM   22  C13 UNL     1      -5.084  -0.187   1.030  1.00  0.00     0.077 C 
HETATM   23  N5  UNL     1      -4.241  -0.226  -1.164  1.00  0.00    -0.380 N 
HETATM   24  C14 UNL     1      -5.836   0.784   0.143  1.00  0.00     0.027 C 
HETATM   25  C15 UNL     1      -5.654   0.122  -1.224  1.00  0.00     0.121 C 
ATOM     26  H5  UNL     1      -3.605  -0.271  -1.961  1.00  0.00     0.160 HD
ATOM     27  H4  UNL     1      -1.990  -1.106  -0.055  1.00  0.00     0.160 HD
ENDBRANCH  19  20
ENDBRANCH  18  19
ENDBRANCH  17  18
ENDBRANCH  15  17
ENDBRANCH  12  15
ENDBRANCH   5   7
ENDBRANCH   4   5
ENDBRANCH   3   4
TORSDOF 8
