REMARK  10 active torsions:
REMARK  status: ('A' for Active; 'I' for Inactive)
REMARK    1  A    between atoms: N1_1  and  N2_4 
REMARK    2  A    between atoms: N2_4  and  C1_5 
REMARK    3  A    between atoms: C1_5  and  C2_6 
REMARK    4  A    between atoms: C2_6  and  N3_7 
REMARK    5  A    between atoms: C3_9  and  C4_10 
REMARK    6  A    between atoms: C8_16  and  C9_17 
REMARK    7  A    between atoms: C9_17  and  C10_18 
REMARK    8  A    between atoms: C10_18  and  C11_19 
REMARK    9  A    between atoms: N5_25  and  C17_26 
REMARK   10  A    between atoms: C17_26  and  C18_27 
ROOT
HETATM    1  C4  UNL     1       2.942  -0.391  -0.178  1.00  0.00     0.049 A 
HETATM    2  C5  UNL     1       2.962  -1.011  -1.393  1.00  0.00     0.033 A 
HETATM    3  C6  UNL     1       1.778  -1.449  -1.949  1.00  0.00     0.036 A 
HETATM    4  C7  UNL     1       0.604  -1.244  -1.257  1.00  0.00     0.078 A 
HETATM    5  N4  UNL     1      -0.685  -1.536  -1.491  1.00  0.00    -0.343 N 
ATOM      6  H4  UNL     1      -1.035  -2.010  -2.324  1.00  0.00     0.167 HD
HETATM    7  C8  UNL     1      -1.462  -1.104  -0.447  1.00  0.00     0.086 A 
HETATM    8  N5  UNL     1      -0.655  -0.537   0.449  1.00  0.00    -0.315 N 
HETATM    9  C23 UNL     1       0.635  -0.613  -0.034  1.00  0.00     0.137 A 
HETATM   10  N7  UNL     1       1.779  -0.187   0.510  1.00  0.00    -0.339 N 
ATOM     11  H7  UNL     1       1.784   0.279   1.417  1.00  0.00     0.167 HD
ENDROOT
BRANCH   1  12
HETATM   12  C3  UNL     1       4.147   0.094   0.465  1.00  0.00     0.112 C 
HETATM   13  N3  UNL     1       5.303   0.037   0.065  1.00  0.00    -0.396 N 
ATOM     14  H3  UNL     1       5.896   0.475   0.770  1.00  0.00     0.159 HD
BRANCH  13  15
HETATM   15  C2  UNL     1       6.112  -0.383  -0.956  1.00  0.00     0.137 C 
BRANCH  15  16
HETATM   16  C1  UNL     1       7.576   0.002  -0.616  1.00  0.00     0.153 C 
BRANCH  16  17
HETATM   17  N2  UNL     1       7.887  -0.676   0.625  1.00  0.00    -0.147 NA
BRANCH  17  18
HETATM   18  N1  UNL     1       9.208  -0.352   0.969  1.00  0.00    -0.348 N 
ATOM     19  H12 UNL     1       9.826   0.255   0.431  1.00  0.00     0.172 HD
ATOM     20  H11 UNL     1       9.427  -0.830   1.843  1.00  0.00     0.172 HD
ENDBRANCH  17  18
ENDBRANCH  16  17
ENDBRANCH  15  16
ENDBRANCH  13  15
ENDBRANCH   1  12
BRANCH   8  21
HETATM   21  C17 UNL     1      -1.000   0.028   1.720  1.00  0.00     0.189 C 
BRANCH  21  22
HETATM   22  C18 UNL     1      -1.317   1.465   1.726  1.00  0.00     0.027 A 
HETATM   23  C19 UNL     1      -0.342   2.457   1.826  1.00  0.00     0.027 A 
HETATM   24  C20 UNL     1      -0.636   3.806   1.855  1.00  0.00     0.003 A 
HETATM   25  C21 UNL     1      -1.943   4.200   1.782  1.00  0.00     0.017 A 
HETATM   26  C22 UNL     1      -2.911   3.229   1.684  1.00  0.00     0.088 A 
HETATM   27  N6  UNL     1      -2.579   1.934   1.659  1.00  0.00    -0.368 N 
ATOM     28  H6  UNL     1      -3.334   1.253   1.584  1.00  0.00     0.165 HD
ENDBRANCH  21  22
ENDBRANCH   8  21
BRANCH   7  29
HETATM   29  C9  UNL     1      -2.914  -1.318  -0.373  1.00  0.00     0.081 C 
BRANCH  29  30
HETATM   30  C10 UNL     1      -3.750  -0.323  -1.119  1.00  0.00     0.046 C 
BRANCH  30  31
HETATM   31  C11 UNL     1      -5.165  -0.726  -0.899  1.00  0.00    -0.058 A 
HETATM   32  C12 UNL     1      -5.827  -1.594  -1.729  1.00  0.00     0.007 A 
HETATM   33  C13 UNL     1      -7.143  -1.971  -1.528  1.00  0.00     0.001 A 
HETATM   34  C14 UNL     1      -7.785  -1.425  -0.426  1.00  0.00     0.000 A 
HETATM   35  C15 UNL     1      -7.168  -0.551   0.438  1.00  0.00     0.001 A 
HETATM   36  C16 UNL     1      -5.849  -0.213   0.181  1.00  0.00     0.007 A 
ENDBRANCH  30  31
ENDBRANCH  29  30
ENDBRANCH   7  29
TORSDOF 10
