REMARK  11 active torsions:
REMARK  status: ('A' for Active; 'I' for Inactive)
REMARK    1  A    between atoms: O1_2  and  C2_3 
REMARK    2  A    between atoms: C2_3  and  C3_4 
REMARK    3  A    between atoms: C3_4  and  O2_5 
REMARK    4  A    between atoms: O2_5  and  C4_6 
REMARK    5  A    between atoms: C4_6  and  C5_7 
REMARK    6  A    between atoms: C7_9  and  O3_10 
REMARK    7  A    between atoms: C9_12  and  O4_13 
REMARK    8  A    between atoms: O4_13  and  C10_14 
REMARK    9  A    between atoms: C10_14  and  C11_15 
REMARK   10  A    between atoms: C19_23  and  N1_24 
REMARK   11  A    between atoms: C20_29  and  N3_30 
ROOT
HETATM    1  C5  UNL     1       1.693  -0.701   0.044  1.00  0.00    -0.004 C 
HETATM    2  C6  UNL     1       0.879   0.298   0.720  1.00  0.00     0.051 C 
HETATM    3  C7  UNL     1      -0.422   0.454   0.562  1.00  0.00     0.102 C 
HETATM    4  C9  UNL     1      -1.204   0.358  -0.679  1.00  0.00     0.103 C 
HETATM    5  C17 UNL     1      -0.976  -0.570  -1.678  1.00  0.00     0.057 C 
HETATM    6  C18 UNL     1      -0.046  -1.644  -1.509  1.00  0.00     0.039 A 
HETATM    7  C19 UNL     1      -0.489  -2.818  -2.103  1.00  0.00     0.127 A 
HETATM    8  N2  UNL     1       0.147  -3.905  -1.818  1.00  0.00    -0.176 N 
ATOM      9  H2  UNL     1      -0.193  -4.758  -2.263  1.00  0.00     0.186 HD
HETATM   10  C20 UNL     1       1.230  -4.042  -0.983  1.00  0.00     0.677 A 
HETATM   11  N4  UNL     1       1.710  -2.965  -0.399  1.00  0.00    -0.191 N 
ATOM     12  H4  UNL     1       2.521  -3.033   0.215  1.00  0.00     0.184 HD
HETATM   13  C21 UNL     1       1.106  -1.737  -0.624  1.00  0.00     0.071 A 
ENDROOT
BRANCH   4  14
HETATM   14  O4  UNL     1      -2.098   1.282  -0.608  1.00  0.00    -0.344 OA
BRANCH  14  15
HETATM   15  C10 UNL     1      -3.018   2.222  -0.549  1.00  0.00     0.214 C 
BRANCH  15  16
HETATM   16  C11 UNL     1      -4.417   1.789  -0.488  1.00  0.00    -0.034 A 
HETATM   17  C12 UNL     1      -5.362   2.483  -1.239  1.00  0.00     0.009 A 
HETATM   18  C13 UNL     1      -6.683   2.170  -1.314  1.00  0.00     0.001 A 
HETATM   19  C14 UNL     1      -7.154   1.041  -0.571  1.00  0.00     0.000 A 
HETATM   20  C15 UNL     1      -6.239   0.364   0.175  1.00  0.00     0.001 A 
HETATM   21  C16 UNL     1      -4.911   0.705   0.240  1.00  0.00     0.009 A 
ENDBRANCH  15  16
ENDBRANCH  14  15
ENDBRANCH   4  14
BRANCH   3  22
HETATM   22  O3  UNL     1      -1.449   0.660   1.509  1.00  0.00    -0.353 OA
HETATM   23  C8  UNL     1      -1.223   0.084   2.740  1.00  0.00     0.210 C 
ENDBRANCH   3  22
BRANCH   1  24
HETATM   24  C4  UNL     1       3.117  -0.778   0.361  1.00  0.00     0.208 C 
BRANCH  24  25
HETATM   25  O2  UNL     1       3.898   0.082  -0.339  1.00  0.00    -0.385 OA
BRANCH  25  26
HETATM   26  C3  UNL     1       5.176   0.395  -0.009  1.00  0.00     0.194 C 
BRANCH  26  27
HETATM   27  C2  UNL     1       5.152   1.679   0.805  1.00  0.00     0.193 C 
BRANCH  27  28
HETATM   28  O1  UNL     1       6.366   2.168   1.158  1.00  0.00    -0.394 OA
HETATM   29  C1  UNL     1       7.085   2.431  -0.056  1.00  0.00     0.201 C 
ENDBRANCH  27  28
ENDBRANCH  26  27
ENDBRANCH  25  26
ENDBRANCH  24  25
ENDBRANCH   1  24
BRANCH   7  30
HETATM   30  N1  UNL     1      -1.602  -2.771  -2.789  1.00  0.00    -0.384 N 
ATOM     31  H12 UNL     1      -2.104  -1.912  -3.014  1.00  0.00     0.157 HD
ATOM     32  H11 UNL     1      -1.927  -3.634  -3.225  1.00  0.00     0.157 HD
ENDBRANCH   7  30
BRANCH  10  33
HETATM   33  N3  UNL     1       1.648  -5.300  -0.957  1.00  0.00    -0.234 N 
ATOM     34  H32 UNL     1       1.276  -6.135  -1.410  1.00  0.00     0.174 HD
ATOM     35  H31 UNL     1       2.452  -5.402  -0.337  1.00  0.00     0.174 HD
ENDBRANCH  10  33
TORSDOF 11
