REMARK  11 active torsions:
REMARK  status: ('A' for Active; 'I' for Inactive)
REMARK    1  A    between atoms: C5_5  and  O1_6 
REMARK    2  A    between atoms: O1_6  and  C6_7 
REMARK    3  A    between atoms: C6_7  and  C7_8 
REMARK    4  A    between atoms: C7_8  and  N1_9 
REMARK    5  A    between atoms: N1_9  and  C8_10 
REMARK    6  A    between atoms: N1_9  and  C12_20 
REMARK    7  A    between atoms: C8_10  and  C9_11 
REMARK    8  A    between atoms: C9_11  and  C10_12 
REMARK    9  A    between atoms: N2_13  and  N3_15 
REMARK   10  A    between atoms: C16_24  and  O2_25 
REMARK   11  A    between atoms: C17_27  and  N6_28 
ROOT
HETATM    1  N1  UNL     1       0.557  -0.857   0.984  1.00  0.00    -0.376 N 
ENDROOT
BRANCH   1   2
HETATM    2  C7  UNL     1      -0.283  -0.508   2.102  1.00  0.00     0.149 C 
BRANCH   2   3
HETATM    3  C6  UNL     1      -0.961   0.787   2.121  1.00  0.00     0.195 C 
BRANCH   3   4
HETATM    4  O1  UNL     1      -1.851   1.307   1.320  1.00  0.00    -0.350 OA
BRANCH   4   5
HETATM    5  C5  UNL     1      -3.068   1.320   0.807  1.00  0.00     0.068 A 
HETATM    6  C4  UNL     1      -3.337   2.306  -0.166  1.00  0.00     0.037 A 
HETATM    7  C3  UNL     1      -4.560   2.410  -0.755  1.00  0.00     0.009 A 
HETATM    8  C2  UNL     1      -5.590   1.559  -0.429  1.00  0.00    -0.062 A 
HETATM    9  C1  UNL     1      -6.892   1.735  -1.099  1.00  0.00     0.048 C 
HETATM   10  C19 UNL     1      -5.336   0.599   0.515  1.00  0.00     0.009 A 
HETATM   11  C18 UNL     1      -4.116   0.470   1.124  1.00  0.00     0.037 A 
ENDBRANCH   4   5
ENDBRANCH   3   4
ENDBRANCH   2   3
ENDBRANCH   1   2
BRANCH   1  12
HETATM   12  C8  UNL     1       1.685   0.032   0.660  1.00  0.00     0.128 C 
BRANCH  12  13
HETATM   13  C9  UNL     1       2.509  -0.513  -0.435  1.00  0.00     0.066 C 
BRANCH  13  14
HETATM   14  C10 UNL     1       3.625   0.446  -0.787  1.00  0.00     0.081 C 
HETATM   15  N2  UNL     1       3.758   1.544  -0.186  1.00  0.00    -0.314 N 
ATOM     16  H2  UNL     1       3.067   1.723   0.542  1.00  0.00     0.185 HD
BRANCH  15  17
HETATM   17  N3  UNL     1       4.657   2.505  -0.352  1.00  0.00    -0.277 N 
HETATM   18  C11 UNL     1       5.887   2.670  -0.166  1.00  0.00     0.215 C 
HETATM   19  N4  UNL     1       6.542   3.925  -0.486  1.00  0.00    -0.065 NA
HETATM   20  N5  UNL     1       6.736   1.662   0.362  1.00  0.00    -0.065 NA
ATOM     21  H3  UNL     1       4.228   3.346  -0.739  1.00  0.00     0.189 HD
ENDBRANCH  15  17
ENDBRANCH  13  14
ENDBRANCH  12  13
ENDBRANCH   1  12
BRANCH   1  22
HETATM   22  C12 UNL     1       0.449  -2.072   0.309  1.00  0.00     0.066 A 
HETATM   23  C13 UNL     1       1.255  -3.115   0.877  1.00  0.00     0.032 A 
HETATM   24  C14 UNL     1       1.287  -4.383   0.381  1.00  0.00     0.005 A 
HETATM   25  C15 UNL     1       0.515  -4.698  -0.716  1.00  0.00     0.039 A 
HETATM   26  C16 UNL     1      -0.272  -3.743  -1.297  1.00  0.00     0.101 A 
HETATM   27  C17 UNL     1      -0.273  -2.453  -0.755  1.00  0.00     0.162 A 
BRANCH  26  28
HETATM   28  O2  UNL     1      -1.033  -4.091  -2.394  1.00  0.00    -0.358 OA
ATOM     29  H2  UNL     1      -1.580  -3.427  -2.798  1.00  0.00     0.217 HD
ENDBRANCH  26  28
BRANCH  27  30
HETATM   30  N6  UNL     1      -1.088  -1.556  -1.473  1.00  0.00    -0.110 N 
HETATM   31  O3  UNL     1      -2.269  -1.409  -1.164  1.00  0.00    -0.532 OA
HETATM   32  O4  UNL     1      -0.626  -0.885  -2.570  1.00  0.00    -0.532 OA
ENDBRANCH  27  30
ENDBRANCH   1  22
TORSDOF 11
