REMARK  2 active torsions:
REMARK  status: ('A' for Active; 'I' for Inactive)
REMARK    1  A    between atoms: N1_2  and  C3_4 
REMARK    2  A    between atoms: N2_8  and  C7_9 
ROOT
HETATM    1  C3  UNL     1      -2.359   0.132   0.558  1.00  0.00     0.223 C 
HETATM    2  C4  UNL     1      -2.092  -1.217   1.164  1.00  0.00     0.037 C 
HETATM    3  C5  UNL     1      -1.189  -2.075   0.319  1.00  0.00     0.032 C 
HETATM    4  C6  UNL     1       0.228  -1.639   0.322  1.00  0.00     0.273 C 
HETATM    5  N2  UNL     1       0.421  -0.203   0.349  1.00  0.00     0.093 N 
HETATM    6  C14 UNL     1      -0.227   0.489  -0.719  1.00  0.00     0.275 C 
HETATM    7  C15 UNL     1      -1.703   0.361  -0.759  1.00  0.00     0.066 C 
ENDROOT
BRANCH   5   8
HETATM    8  C7  UNL     1       1.837   0.005   0.364  1.00  0.00     0.227 C 
HETATM    9  C8  UNL     1       2.281   1.384   0.741  1.00  0.00     0.041 C 
HETATM   10  C9  UNL     1       3.516   1.553  -0.145  1.00  0.00    -0.012 C 
HETATM   11  C10 UNL     1       4.504   0.453   0.133  1.00  0.00     0.005 C 
HETATM   12  C13 UNL     1       2.924   1.042  -1.470  1.00  0.00     0.011 C 
HETATM   13  C11 UNL     1       3.950  -0.812  -0.529  1.00  0.00     0.007 C 
HETATM   14  C12 UNL     1       2.541  -0.339  -0.912  1.00  0.00     0.019 C 
ENDBRANCH   5   8
BRANCH   1  15
HETATM   15  N1  UNL     1      -3.786   0.292   0.481  1.00  0.00     0.084 N 
HETATM   16  C1  UNL     1      -4.427  -0.663  -0.380  1.00  0.00     0.309 C 
HETATM   17  C2  UNL     1      -4.214   1.647   0.260  1.00  0.00     0.309 C 
ENDBRANCH   1  15
TORSDOF 2
