REMARK  4 active torsions:
REMARK  status: ('A' for Active; 'I' for Inactive)
REMARK    1  A    between atoms: O1_1  and  C1_3 
REMARK    2  A    between atoms: C8_11  and  C9_12 
REMARK    3  A    between atoms: C10_13  and  C11_14 
REMARK    4  A    between atoms: C11_14  and  C12_15 
ROOT
HETATM    1  C1  UNL     1      -0.192   0.654   0.020  1.00  0.00     0.150 C 
HETATM    2  C2  UNL     1      -1.540   1.194  -0.248  1.00  0.00     0.042 C 
HETATM    3  C3  UNL     1      -2.528   0.308  -0.886  1.00  0.00     0.018 C 
HETATM    4  C4  UNL     1      -3.778   0.134  -0.013  1.00  0.00     0.036 C 
HETATM    5  C5  UNL     1      -3.286  -0.941   0.930  1.00  0.00     0.273 C 
HETATM    6  N1  UNL     1      -2.312  -1.724   0.233  1.00  0.00     0.092 N 
HETATM    7  C6  UNL     1      -1.075  -1.703   0.975  1.00  0.00     0.310 C 
HETATM    8  C7  UNL     1      -0.088  -0.736   0.445  1.00  0.00    -0.015 C 
HETATM    9  C8  UNL     1       1.125  -1.251   0.343  1.00  0.00     0.071 C 
HETATM   10  C13 UNL     1      -2.086  -1.125  -1.048  1.00  0.00     0.277 C 
ENDROOT
BRANCH   1  11
HETATM   11  O1  UNL     1       0.345   1.437   1.076  1.00  0.00    -0.391 OA
ATOM     12  H1  UNL     1       1.212   1.090   1.248  1.00  0.00     0.210 HD
ENDBRANCH   1  11
BRANCH   9  13
HETATM   13  C9  UNL     1       2.237  -0.469  -0.154  1.00  0.00    -0.078 C 
HETATM   14  C10 UNL     1       3.173   0.185  -0.551  1.00  0.00    -0.101 C 
BRANCH  14  15
HETATM   15  C11 UNL     1       4.307   0.961  -1.015  1.00  0.00     0.109 C 
BRANCH  15  16
HETATM   16  C12 UNL     1       5.476   0.880  -0.052  1.00  0.00     0.126 C 
HETATM   17 CL1  UNL     1       6.787   1.884  -0.764  1.00  0.00    -0.130 Cl
ENDBRANCH  15  16
ENDBRANCH  14  15
ENDBRANCH   9  13
TORSDOF 4
