REMARK  2 active torsions:
REMARK  status: ('A' for Active; 'I' for Inactive)
REMARK    1  A    between atoms: N1_5  and  C5_6 
REMARK    2  A    between atoms: C5_6  and  N2_8 
ROOT
HETATM    1  N2  UNL     1       3.219  -0.809  -0.126  1.00  0.00    -0.270 N 
ATOM      2  H2  UNL     1       2.875  -1.765  -0.039  1.00  0.00     0.180 HD
HETATM    3  C6  UNL     1       4.583  -0.604  -0.224  1.00  0.00     0.184 C 
HETATM    4  N3  UNL     1       5.744  -0.429  -0.302  1.00  0.00    -0.172 NA
ENDROOT
BRANCH   1   5
HETATM    5  C5  UNL     1       2.277   0.251  -0.141  1.00  0.00     0.184 C 
HETATM    6  S1  UNL     1       2.895   1.778  -0.284  1.00  0.00    -0.040 SA
BRANCH   5   7
HETATM    7  N1  UNL     1       0.874   0.015  -0.038  1.00  0.00    -0.335 N 
HETATM    8  C4  UNL     1       0.440  -1.338   0.083  1.00  0.00     0.127 C 
HETATM    9  C3  UNL     1      -0.999  -1.545   0.337  1.00  0.00     0.024 C 
HETATM   10  C2  UNL     1      -1.725  -0.322   0.845  1.00  0.00    -0.014 C 
HETATM   11  C1  UNL     1      -3.231  -0.578   0.756  1.00  0.00     0.010 C 
HETATM   12  C9  UNL     1      -1.436   0.899   0.040  1.00  0.00     0.052 C 
HETATM   13  C7  UNL     1       0.020   1.186  -0.069  1.00  0.00     0.108 C 
HETATM   14  C8  UNL     1       0.235   1.983  -1.354  1.00  0.00     0.057 C 
HETATM   15 CL1  UNL     1       0.514   2.191   1.342  1.00  0.00    -0.096 Cl
ENDBRANCH   5   7
ENDBRANCH   1   5
TORSDOF 2
