REMARK  1 active torsions:
REMARK  status: ('A' for Active; 'I' for Inactive)
REMARK    1  A    between atoms: C9_10  and  O1_11 
ROOT
HETATM    1  C1  UNL     1       3.565   1.193  -0.564  1.00  0.00     0.310 C 
HETATM    2  N1  UNL     1       2.688   0.053  -0.614  1.00  0.00     0.091 N 
HETATM    3  C2  UNL     1       2.781  -0.699   0.641  1.00  0.00     0.279 C 
HETATM    4  C3  UNL     1       1.437  -0.137   1.020  1.00  0.00     0.049 C 
HETATM    5  C4  UNL     1       0.400  -1.121   1.454  1.00  0.00     0.013 C 
HETATM    6  C5  UNL     1      -0.926  -0.700   0.896  1.00  0.00    -0.006 C 
HETATM    7  C6  UNL     1      -1.305   0.654   1.365  1.00  0.00     0.005 C 
HETATM    8  C7  UNL     1      -2.473   1.257   0.669  1.00  0.00     0.003 C 
HETATM    9  C8  UNL     1      -3.076   0.376  -0.385  1.00  0.00     0.032 C 
HETATM   10  C9  UNL     1      -2.092  -0.270  -1.289  1.00  0.00     0.124 C 
HETATM   11  C10 UNL     1      -0.908  -0.881  -0.587  1.00  0.00     0.039 C 
HETATM   12  C11 UNL     1       0.380  -0.467  -1.235  1.00  0.00     0.123 C 
HETATM   13 CL1  UNL     1       1.305  -1.863  -1.860  1.00  0.00    -0.122 Cl
HETATM   14  C12 UNL     1       1.281   0.338  -0.380  1.00  0.00     0.247 C 
ENDROOT
BRANCH  10  15
HETATM   15  O1  UNL     1      -2.773  -1.189  -2.092  1.00  0.00    -0.395 OA
ATOM     16  H1  UNL     1      -2.143  -1.602  -2.671  1.00  0.00     0.210 HD
ENDBRANCH  10  15
TORSDOF 1
