REMARK  3 active torsions:
REMARK  status: ('A' for Active; 'I' for Inactive)
REMARK    1  A    between atoms: O1_1  and  C1_3 
REMARK    2  A    between atoms: N1_9  and  C7_10 
REMARK    3  A    between atoms: C7_10  and  C8_12 
ROOT
HETATM    1  C1  UNL     1      -2.107  -0.429  -1.129  1.00  0.00     0.143 C 
HETATM    2  C2  UNL     1      -1.746  -1.318   0.069  1.00  0.00     0.059 C 
HETATM    3  C3  UNL     1      -0.607  -0.609   0.778  1.00  0.00     0.088 C 
HETATM    4  C4  UNL     1      -1.143   0.562   1.553  1.00  0.00     0.027 C 
HETATM    5  C5  UNL     1      -1.739   1.406   0.422  1.00  0.00     0.030 C 
HETATM    6  C6  UNL     1      -1.245   0.777  -0.857  1.00  0.00     0.114 C 
HETATM    7  N1  UNL     1      -0.028   0.111  -0.369  1.00  0.00    -0.362 N 
ENDROOT
BRANCH   7   8
HETATM    8  C7  UNL     1       1.275   0.140  -0.835  1.00  0.00     0.100 C 
HETATM    9  S1  UNL     1       1.677   1.019  -2.136  1.00  0.00    -0.063 SA
BRANCH   8  10
HETATM   10  C8  UNL     1       2.330  -0.633  -0.152  1.00  0.00     0.090 A 
HETATM   11 CL1  UNL     1       2.101  -2.413  -0.067  1.00  0.00    -0.111 Cl
HETATM   12  C9  UNL     1       3.110  -0.003   0.951  1.00  0.00     0.035 A 
HETATM   13  C10 UNL     1       3.763  -0.148  -0.380  1.00  0.00     0.035 A 
ENDBRANCH   8  10
ENDBRANCH   7   8
BRANCH   1  14
HETATM   14  O1  UNL     1      -3.450  -0.128  -1.096  1.00  0.00    -0.393 OA
ATOM     15  H1  UNL     1      -3.673   0.422  -1.837  1.00  0.00     0.210 HD
ENDBRANCH   1  14
TORSDOF 3
