REMARK  13 active torsions:
REMARK  status: ('A' for Active; 'I' for Inactive)
REMARK    1  A    between atoms: O1_2  and  C2_3 
REMARK    2  A    between atoms: C2_3  and  C3_5 
REMARK    3  A    between atoms: C3_5  and  N1_6 
REMARK    4  A    between atoms: C3_5  and  C4_10 
REMARK    5  A    between atoms: C4_10  and  O3_11 
REMARK    6  A    between atoms: C4_10  and  C5_13 
REMARK    7  A    between atoms: C5_13  and  O4_14 
REMARK    8  A    between atoms: C5_13  and  C6_16 
REMARK    9  A    between atoms: C7_17  and  C8_18 
REMARK   10  A    between atoms: C10_22  and  O7_23 
REMARK   11  A    between atoms: C17_31  and  N2_32 
REMARK   12  A    between atoms: N2_32  and  N3_34 
REMARK   13  A    between atoms: N3_34  and  N4_35 
ROOT
HETATM    1  C6  UNL     1       0.326  -1.035  -0.357  1.00  0.00     0.041 C 
HETATM    2  C7  UNL     1      -0.023  -2.259  -1.132  1.00  0.00     0.097 C 
HETATM    3  C9  UNL     1      -1.339  -1.850  -1.897  1.00  0.00     0.054 C 
HETATM    4  C10 UNL     1      -2.032  -1.146  -0.848  1.00  0.00     0.066 C 
HETATM    5  C11 UNL     1      -2.697   0.161  -1.173  1.00  0.00     0.045 C 
HETATM    6  C12 UNL     1      -2.915   0.585   0.277  1.00  0.00     0.020 C 
HETATM    7  C13 UNL     1      -3.672   1.785   0.479  1.00  0.00     0.007 C 
HETATM    8  C14 UNL     1      -2.931   3.092   0.450  1.00  0.00     0.001 C 
HETATM    9  C15 UNL     1      -1.735   2.879   1.353  1.00  0.00     0.002 C 
HETATM   10  C16 UNL     1      -0.865   1.843   0.611  1.00  0.00     0.034 C 
HETATM   11  C17 UNL     1      -1.462   0.525   0.772  1.00  0.00     0.070 C 
HETATM   12  C18 UNL     1      -1.003  -0.695   0.193  1.00  0.00     0.058 C 
ENDROOT
BRANCH   1  13
HETATM   13  C5  UNL     1       1.227  -0.097  -0.921  1.00  0.00     0.155 C 
BRANCH  13  14
HETATM   14  C4  UNL     1       2.641  -0.484  -1.213  1.00  0.00     0.187 C 
BRANCH  14  15
HETATM   15  C3  UNL     1       3.514  -0.768   0.007  1.00  0.00     0.313 C 
BRANCH  15  16
HETATM   16  C2  UNL     1       3.673   0.439   0.856  1.00  0.00     0.291 C 
HETATM   17  O2  UNL     1       3.979   1.517   0.320  1.00  0.00    -0.263 OA
BRANCH  16  18
HETATM   18  O1  UNL     1       3.490   0.376   2.202  1.00  0.00    -0.325 OA
HETATM   19  C1  UNL     1       3.615   1.457   3.101  1.00  0.00     0.213 C 
ENDBRANCH  16  18
ENDBRANCH  15  16
BRANCH  15  20
HETATM   20  N1  UNL     1       3.183  -1.930   0.732  1.00  0.00    -0.063 N 
ATOM     21  H13 UNL     1       3.863  -2.098   1.473  1.00  0.00     0.275 HD
ATOM     22  H12 UNL     1       2.349  -1.776   1.298  1.00  0.00     0.275 HD
ATOM     23  H11 UNL     1       3.074  -2.759   0.149  1.00  0.00     0.275 HD
ENDBRANCH  15  20
ENDBRANCH  14  15
BRANCH  14  24
HETATM   24  O3  UNL     1       3.278   0.703  -1.780  1.00  0.00    -0.390 OA
ATOM     25  H3  UNL     1       2.735   0.880  -2.539  1.00  0.00     0.210 HD
ENDBRANCH  14  24
ENDBRANCH  13  14
BRANCH  13  26
HETATM   26  O4  UNL     1       0.756   0.358  -2.232  1.00  0.00    -0.393 OA
ATOM     27  H4  UNL     1      -0.143   0.604  -2.046  1.00  0.00     0.210 HD
ENDBRANCH  13  26
ENDBRANCH   1  13
BRANCH   2  28
HETATM   28  C8  UNL     1       0.829  -2.913  -2.058  1.00  0.00     0.177 C 
HETATM   29  O5  UNL     1       1.543  -3.882  -1.732  1.00  0.00    -0.648 OA
HETATM   30  O6  UNL     1       0.933  -2.529  -3.384  1.00  0.00    -0.648 OA
ENDBRANCH   2  28
BRANCH   4  31
HETATM   31  O7  UNL     1      -3.036  -1.954  -0.315  1.00  0.00    -0.389 OA
ATOM     32  H7  UNL     1      -3.493  -1.490   0.377  1.00  0.00     0.210 HD
ENDBRANCH   4  31
BRANCH  11  33
HETATM   33  N2  UNL     1      -1.651   0.406   2.245  1.00  0.00    -0.242 N 
ATOM     34  H2  UNL     1      -1.408   1.182   2.861  1.00  0.00     0.198 HD
BRANCH  33  35
HETATM   35  N3  UNL     1      -2.097  -0.625   2.704  1.00  0.00    -0.248 NA
BRANCH  35  36
HETATM   36  N4  UNL     1      -2.614  -1.524   3.342  1.00  0.00    -0.261 N 
ATOM     37  H42 UNL     1      -2.874  -0.853   4.065  1.00  0.00     0.193 HD
ATOM     38  H41 UNL     1      -2.989  -2.391   3.728  1.00  0.00     0.193 HD
ENDBRANCH  35  36
ENDBRANCH  33  35
ENDBRANCH  11  33
TORSDOF 13
