REMARK  8 active torsions:
REMARK  status: ('A' for Active; 'I' for Inactive)
REMARK       I    between atoms: C1_4  and  N3_6 
REMARK    1  A    between atoms: C3_8  and  C4_9 
REMARK    2  A    between atoms: C5_12  and  S1_13 
REMARK    3  A    between atoms: S1_13  and  C6_14 
REMARK    4  A    between atoms: C6_14  and  C7_15 
REMARK    5  A    between atoms: C7_15  and  C8_16 
REMARK    6  A    between atoms: C8_16  and  N4_17 
REMARK    7  A    between atoms: C11_20  and  O3_21 
REMARK    8  A    between atoms: N5_29  and  O4_30 
ROOT
HETATM    1  N1  UNL     1      -6.468   1.056   1.763  1.00  0.00    -0.373 N 
ATOM      2  H11 UNL     1      -6.312   2.052   1.915  1.00  0.00     0.158 HD
ATOM      3  H12 UNL     1      -7.233   0.574   2.234  1.00  0.00     0.158 HD
HETATM    4  C1  UNL     1      -5.661   0.421   0.983  1.00  0.00     0.201 C 
HETATM    5  N2  UNL     1      -5.877  -0.960   0.772  1.00  0.00    -0.062 NA
HETATM    6  N3  UNL     1      -4.623   1.075   0.344  1.00  0.00    -0.250 N 
HETATM    7  C2  UNL     1      -3.246   0.827   0.010  1.00  0.00     0.164 C 
HETATM    8  C3  UNL     1      -2.526  -0.261   0.540  1.00  0.00     0.057 C 
HETATM    9  C5  UNL     1      -1.787  -1.129  -0.125  1.00  0.00     0.003 C 
HETATM   10  C14 UNL     1      -1.546  -1.144  -1.597  1.00  0.00     0.121 C 
HETATM   11  S2  UNL     1      -1.961   0.517  -2.279  1.00  0.00    -0.155 SA
HETATM   12  C15 UNL     1      -3.532   0.827  -1.505  1.00  0.00     0.094 C 
HETATM   13  C16 UNL     1      -4.106   2.197  -1.586  1.00  0.00     0.164 C 
HETATM   14  N5  UNL     1      -4.803   2.366  -0.278  1.00  0.00    -0.101 NA
ENDROOT
BRANCH   9  15
HETATM   15  S1  UNL     1      -0.915  -2.483   0.713  1.00  0.00    -0.133 SA
BRANCH  15  16
HETATM   16  C6  UNL     1       0.722  -1.926   1.188  1.00  0.00     0.081 C 
BRANCH  16  17
HETATM   17  C7  UNL     1       1.660  -1.650   0.045  1.00  0.00     0.041 C 
BRANCH  17  18
HETATM   18  C8  UNL     1       2.985  -1.247   0.683  1.00  0.00     0.273 C 
BRANCH  18  19
HETATM   19  N4  UNL     1       4.015  -0.956  -0.282  1.00  0.00     0.088 N 
HETATM   20  C9  UNL     1       3.785   0.215  -1.041  1.00  0.00     0.275 C 
HETATM   21  C10 UNL     1       4.464   1.447  -0.492  1.00  0.00     0.062 C 
HETATM   22  C11 UNL     1       5.945   1.236  -0.589  1.00  0.00     0.121 C 
HETATM   23  C12 UNL     1       6.335  -0.133  -0.177  1.00  0.00     0.062 C 
HETATM   24  C13 UNL     1       5.277  -0.994   0.405  1.00  0.00     0.275 C 
BRANCH  22  25
HETATM   25  O3  UNL     1       6.572   2.200   0.216  1.00  0.00    -0.395 OA
ATOM     26  H3  UNL     1       7.511   2.066   0.155  1.00  0.00     0.210 HD
ENDBRANCH  22  25
ENDBRANCH  18  19
ENDBRANCH  17  18
ENDBRANCH  16  17
ENDBRANCH  15  16
ENDBRANCH   9  15
BRANCH   8  27
HETATM   27  C4  UNL     1      -2.581  -0.510   2.013  1.00  0.00     0.208 C 
HETATM   28  O1  UNL     1      -3.237   0.295   2.718  1.00  0.00    -0.644 OA
HETATM   29  O2  UNL     1      -1.932  -1.594   2.569  1.00  0.00    -0.644 OA
ENDBRANCH   8  27
BRANCH  14  30
HETATM   30  O4  UNL     1      -6.085   2.666  -0.436  1.00  0.00    -0.293 OA
ATOM     31  H4  UNL     1      -6.203   3.515  -0.845  1.00  0.00     0.239 HD
ENDBRANCH  14  30
TORSDOF 8
