REMARK  9 active torsions:
REMARK  status: ('A' for Active; 'I' for Inactive)
REMARK       I    between atoms: C1_2  and  N1_3 
REMARK    1  A    between atoms: C1_2  and  C8_19 
REMARK    2  A    between atoms: N1_3  and  S1_5 
REMARK    3  A    between atoms: S1_5  and  C2_8 
REMARK    4  A    between atoms: C2_8  and  C3_9 
REMARK    5  A    between atoms: C3_9  and  C4_10 
REMARK    6  A    between atoms: C4_10  and  O4_11 
REMARK    7  A    between atoms: C8_19  and  O5_20 
REMARK    8  A    between atoms: C8_19  and  N3_22 
REMARK    9  A    between atoms: N3_22  and  C9_24 
ROOT
HETATM    1  O1  UNL     1       0.449   0.102   0.581  1.00  0.00    -0.268 OA
HETATM    2  C1  UNL     1       0.764  -1.006   0.029  1.00  0.00     0.279 C 
HETATM    3  N1  UNL     1      -0.100  -1.564  -0.965  1.00  0.00    -0.251 N 
ATOM      4  H1  UNL     1       0.126  -2.441  -1.434  1.00  0.00     0.181 HD
ENDROOT
BRANCH   2   5
HETATM    5  C8  UNL     1       2.011  -1.656   0.448  1.00  0.00     0.313 C 
BRANCH   5   6
HETATM    6  O5  UNL     1       1.690  -2.909   0.968  1.00  0.00    -0.368 OA
ATOM      7  H5  UNL     1       2.497  -3.330   1.239  1.00  0.00     0.212 HD
ENDBRANCH   5   6
BRANCH   5   8
HETATM    8  N3  UNL     1       2.909  -0.908   1.248  1.00  0.00    -0.356 N 
ATOM      9  H3  UNL     1       2.881  -1.054   2.257  1.00  0.00     0.162 HD
BRANCH   8  10
HETATM   10  C9  UNL     1       3.860   0.045   0.734  1.00  0.00     0.031 A 
HETATM   11  C10 UNL     1       3.565   1.336   0.499  1.00  0.00     0.030 A 
HETATM   12  C11 UNL     1       4.548   2.180  -0.010  1.00  0.00     0.015 A 
HETATM   13  C12 UNL     1       5.846   1.734  -0.289  1.00  0.00    -0.019 A 
HETATM   14  C13 UNL     1       6.837   2.543  -0.787  1.00  0.00     0.061 A 
HETATM   15  C15 UNL     1       6.145   0.457  -0.057  1.00  0.00    -0.017 A 
HETATM   16  S2  UNL     1       8.167   1.475  -0.913  1.00  0.00    -0.112 SA
HETATM   17  C14 UNL     1       7.432   0.056  -0.339  1.00  0.00     0.061 A 
HETATM   18  C16 UNL     1       5.160  -0.396   0.453  1.00  0.00     0.042 A 
ENDBRANCH   8  10
ENDBRANCH   5   8
ENDBRANCH   2   5
BRANCH   3  19
HETATM   19  S1  UNL     1      -1.559  -0.680  -1.341  1.00  0.00     0.233 S 
HETATM   20  O2  UNL     1      -2.142  -1.346  -2.562  1.00  0.00    -0.206 OA
HETATM   21  O3  UNL     1      -1.206   0.743  -1.585  1.00  0.00    -0.206 OA
BRANCH  19  22
HETATM   22  C2  UNL     1      -2.642  -0.803   0.049  1.00  0.00     0.176 C 
BRANCH  22  23
HETATM   23  C3  UNL     1      -3.922  -0.070  -0.124  1.00  0.00     0.021 C 
HETATM   24  C5  UNL     1      -4.794  -0.388   1.118  1.00  0.00     0.041 C 
HETATM   25  C6  UNL     1      -5.531   0.931   1.328  1.00  0.00     0.233 C 
HETATM   26  N2  UNL     1      -4.500   1.874   1.028  1.00  0.00    -0.074 N 
HETATM   27  C7  UNL     1      -3.738   1.413  -0.089  1.00  0.00     0.245 C 
ATOM     28  H22 UNL     1      -4.869   2.813   0.880  1.00  0.00     0.277 HD
ATOM     29  H21 UNL     1      -3.913   2.073   1.838  1.00  0.00     0.277 HD
BRANCH  23  30
HETATM   30  C4  UNL     1      -4.743  -0.521  -1.308  1.00  0.00     0.176 C 
BRANCH  30  31
HETATM   31  O4  UNL     1      -5.075  -1.863  -1.195  1.00  0.00    -0.400 OA
ATOM     32  H4  UNL     1      -5.592  -2.147  -1.940  1.00  0.00     0.209 HD
ENDBRANCH  30  31
ENDBRANCH  23  30
ENDBRANCH  22  23
ENDBRANCH  19  22
ENDBRANCH   3  19
TORSDOF 9
