REMARK  7 active torsions:
REMARK  status: ('A' for Active; 'I' for Inactive)
REMARK       I    between atoms: C2_5  and  N3_6 
REMARK       I    between atoms: C2_5  and  N5_10 
REMARK    1  A    between atoms: N5_10  and  N6_12 
REMARK       I    between atoms: N6_12  and  C4_14 
REMARK    2  A    between atoms: C4_14  and  C5_16 
REMARK    3  A    between atoms: C8_19  and  N7_20 
REMARK    4  A    between atoms: N7_20  and  N8_21 
REMARK    5  A    between atoms: N7_20  and  C9_24 
REMARK    6  A    between atoms: C9_24  and  C10_25 
REMARK    7  A    between atoms: N9_27  and  C12_28 
ROOT
HETATM    1  N1  UNL     1      -6.913  -3.580  -0.281  1.00  0.00    -0.171 NA
HETATM    2  C1  UNL     1      -7.194  -2.579   0.243  1.00  0.00     0.196 C 
HETATM    3  N2  UNL     1      -7.521  -1.375   0.874  1.00  0.00    -0.124 N 
ATOM      4  H2  UNL     1      -7.998  -1.406   1.775  1.00  0.00     0.197 HD
HETATM    5  C2  UNL     1      -7.243  -0.231   0.360  1.00  0.00     0.715 C 
HETATM    6  N3  UNL     1      -7.589   0.974   1.024  1.00  0.00    -0.124 N 
ATOM      7  H3  UNL     1      -7.504   1.069   2.036  1.00  0.00     0.197 HD
HETATM    8  C3  UNL     1      -8.053   2.027   0.224  1.00  0.00     0.196 C 
HETATM    9  N4  UNL     1      -8.452   2.892  -0.435  1.00  0.00    -0.171 NA
HETATM   10  N5  UNL     1      -6.586  -0.151  -0.890  1.00  0.00    -0.128 N 
ATOM     11  H5  UNL     1      -7.137  -0.165  -1.748  1.00  0.00     0.205 HD
ENDROOT
BRANCH  10  12
HETATM   12  N6  UNL     1      -5.203  -0.054  -0.968  1.00  0.00    -0.251 N 
HETATM   13  C4  UNL     1      -4.343  -0.014   0.151  1.00  0.00     0.270 C 
HETATM   14  O1  UNL     1      -4.802  -0.068   1.320  1.00  0.00    -0.266 OA
ATOM     15  H6  UNL     1      -4.780  -0.009  -1.895  1.00  0.00     0.191 HD
BRANCH  13  16
HETATM   16  C5  UNL     1      -2.907   0.090  -0.031  1.00  0.00     0.033 A 
HETATM   17  C6  UNL     1      -2.077  -0.132   1.053  1.00  0.00     0.019 A 
HETATM   18  C7  UNL     1      -0.725  -0.036   0.908  1.00  0.00     0.032 A 
HETATM   19  C8  UNL     1      -0.203   0.283  -0.322  1.00  0.00     0.050 A 
HETATM   20  C16 UNL     1      -0.989   0.512  -1.426  1.00  0.00     0.032 A 
HETATM   21  C17 UNL     1      -2.373   0.411  -1.265  1.00  0.00     0.019 A 
BRANCH  19  22
HETATM   22  N7  UNL     1       1.202   0.385  -0.485  1.00  0.00    -0.293 N 
BRANCH  22  23
HETATM   23  N8  UNL     1       1.832   1.613  -0.267  1.00  0.00    -0.342 N 
ATOM     24  H82 UNL     1       1.323   2.453   0.008  1.00  0.00     0.177 HD
ATOM     25  H81 UNL     1       2.843   1.686  -0.384  1.00  0.00     0.177 HD
ENDBRANCH  22  23
BRANCH  22  26
HETATM   26  C9  UNL     1       1.922  -0.802  -0.874  1.00  0.00     0.208 C 
BRANCH  26  27
HETATM   27  C10 UNL     1       3.360  -0.459  -0.978  1.00  0.00     0.060 A 
HETATM   28  C11 UNL     1       4.247  -0.573   0.072  1.00  0.00     0.144 A 
HETATM   29  N9  UNL     1       5.471  -0.180  -0.365  1.00  0.00    -0.233 N 
HETATM   30  N11 UNL     1       5.337   0.167  -1.649  1.00  0.00    -0.014 NA
HETATM   31  N12 UNL     1       4.073   0.001  -2.020  1.00  0.00    -0.285 N 
ATOM     32  H12 UNL     1       3.701   0.193  -2.950  1.00  0.00     0.184 HD
BRANCH  29  33
HETATM   33  C12 UNL     1       6.642  -0.161   0.435  1.00  0.00     0.125 A 
HETATM   34  C13 UNL     1       7.293   0.967   0.928  1.00  0.00     0.051 A 
HETATM   35  C14 UNL     1       8.387   0.587   1.658  1.00  0.00     0.021 A 
HETATM   36  C15 UNL     1       8.412  -0.788   1.614  1.00  0.00     0.090 A 
HETATM   37  N10 UNL     1       7.350  -1.214   0.871  1.00  0.00    -0.351 N 
ATOM     38  H10 UNL     1       7.127  -2.190   0.676  1.00  0.00     0.166 HD
ENDBRANCH  29  33
ENDBRANCH  26  27
ENDBRANCH  22  26
ENDBRANCH  19  22
ENDBRANCH  13  16
ENDBRANCH  10  12
TORSDOF 7
