REMARK  10 active torsions:
REMARK  status: ('A' for Active; 'I' for Inactive)
REMARK    1  A    between atoms: C4_4  and  C5_5 
REMARK    2  A    between atoms: C6_6  and  C7_7 
REMARK    3  A    between atoms: C7_7  and  C9_9 
REMARK    4  A    between atoms: C9_9  and  N1_10 
REMARK       I    between atoms: N1_10  and  C10_12 
REMARK    5  A    between atoms: C10_12  and  C11_14 
REMARK    6  A    between atoms: C11_14  and  C12_15 
REMARK    7  A    between atoms: C12_15  and  C13_16 
REMARK    8  A    between atoms: C13_16  and  C14_17 
REMARK    9  A    between atoms: C14_17  and  C15_18 
REMARK   10  A    between atoms: C15_18  and  N2_19 
REMARK       I    between atoms: N2_19  and  C16_21 
ROOT
HETATM    1  C1  UNL     1      -7.715   4.686   0.331  1.00  0.00     0.027 C 
HETATM    2  C2  UNL     1      -7.116   3.671   0.584  1.00  0.00    -0.025 C 
HETATM    3  C3  UNL     1      -6.434   2.465   0.883  1.00  0.00    -0.002 C 
HETATM    4  C4  UNL     1      -5.866   1.433   1.153  1.00  0.00    -0.001 C 
ENDROOT
BRANCH   4   5
HETATM    5  C5  UNL     1      -5.214   0.206   1.488  1.00  0.00    -0.009 C 
HETATM    6  C6  UNL     1      -4.677  -0.833   1.788  1.00  0.00    -0.056 C 
BRANCH   6   7
HETATM    7  C7  UNL     1      -4.054  -2.063   2.167  1.00  0.00     0.004 C 
HETATM    8  C8  UNL     1      -4.809  -3.126   2.366  1.00  0.00     0.030 C 
BRANCH   7   9
HETATM    9  C9  UNL     1      -2.592  -2.184   2.351  1.00  0.00     0.169 C 
BRANCH   9  10
HETATM   10  N1  UNL     1      -1.821  -1.894   1.184  1.00  0.00    -0.356 N 
HETATM   11  C10 UNL     1      -0.410  -1.974   1.222  1.00  0.00     0.217 C 
HETATM   12  O1  UNL     1       0.170  -2.307   2.308  1.00  0.00    -0.274 OA
ATOM     13  H1  UNL     1      -2.291  -1.628   0.319  1.00  0.00     0.162 HD
BRANCH  11  14
HETATM   14  C11 UNL     1       0.438  -1.679   0.017  1.00  0.00     0.103 C 
BRANCH  14  15
HETATM   15  C12 UNL     1       1.884  -1.849   0.366  1.00  0.00     0.009 C 
BRANCH  15  16
HETATM   16  C13 UNL     1       2.858  -1.602  -0.713  1.00  0.00     0.002 C 
BRANCH  16  17
HETATM   17  C14 UNL     1       2.874  -0.251  -1.330  1.00  0.00     0.020 C 
BRANCH  17  18
HETATM   18  C15 UNL     1       3.176   0.858  -0.315  1.00  0.00     0.122 C 
BRANCH  18  19
HETATM   19  N2  UNL     1       3.173   2.114  -1.035  1.00  0.00    -0.364 N 
HETATM   20  C16 UNL     1       4.171   2.438  -1.987  1.00  0.00     0.197 C 
HETATM   21  N3  UNL     1       5.408   2.943  -1.561  1.00  0.00    -0.063 NA
HETATM   22  N4  UNL     1       3.923   2.263  -3.226  1.00  0.00    -0.268 N 
HETATM   23  C17 UNL     1       4.829   2.547  -4.252  1.00  0.00     0.184 C 
ATOM     24  H4  UNL     1       3.008   1.893  -3.484  1.00  0.00     0.180 HD
HETATM   25  N5  UNL     1       5.590   2.791  -5.088  1.00  0.00    -0.172 NA
ATOM     26  H2  UNL     1       2.429   2.787  -0.851  1.00  0.00     0.162 HD
ENDBRANCH  18  19
ENDBRANCH  17  18
ENDBRANCH  16  17
ENDBRANCH  15  16
ENDBRANCH  14  15
ENDBRANCH  11  14
ENDBRANCH   9  10
ENDBRANCH   7   9
ENDBRANCH   6   7
ENDBRANCH   4   5
TORSDOF 10
