REMARK  9 active torsions:
REMARK  status: ('A' for Active; 'I' for Inactive)
REMARK       I    between atoms: C1_4  and  N3_6 
REMARK       I    between atoms: N4_9  and  C4_10 
REMARK    1  A    between atoms: N6_12  and  C5_14 
REMARK    2  A    between atoms: C5_14  and  C6_15 
REMARK    3  A    between atoms: C6_15  and  C7_16 
REMARK    4  A    between atoms: C7_16  and  C8_17 
REMARK    5  A    between atoms: C8_17  and  C9_18 
REMARK    6  A    between atoms: C9_18  and  S1_19 
REMARK    7  A    between atoms: S1_19  and  C10_20 
REMARK    8  A    between atoms: C10_20  and  C11_21 
REMARK    9  A    between atoms: C11_21  and  N7_22 
ROOT
HETATM    1  N1  UNL     1      -7.509  -1.975   0.378  1.00  0.00    -0.374 N 
ATOM      2  H11 UNL     1      -6.980  -2.753   0.772  1.00  0.00     0.158 HD
ATOM      3  H12 UNL     1      -8.509  -2.111   0.231  1.00  0.00     0.158 HD
HETATM    4  C1  UNL     1      -6.961  -0.854   0.067  1.00  0.00     0.184 C 
HETATM    5  N2  UNL     1      -7.694   0.225  -0.480  1.00  0.00    -0.064 NA
HETATM    6  N3  UNL     1      -5.563  -0.664   0.272  1.00  0.00    -0.353 N 
HETATM    7  C2  UNL     1      -5.149  -0.171   1.557  1.00  0.00     0.145 C 
HETATM    8  C3  UNL     1      -3.686   0.083   1.683  1.00  0.00     0.145 C 
HETATM    9  N4  UNL     1      -3.014   0.347   0.437  1.00  0.00    -0.353 N 
HETATM   10  C4  UNL     1      -1.697   0.878   0.501  1.00  0.00     0.186 C 
HETATM   11  N5  UNL     1      -1.404   2.213   0.164  1.00  0.00    -0.064 NA
HETATM   12  N6  UNL     1      -0.757   0.094   0.884  1.00  0.00    -0.365 N 
ATOM     13  H6  UNL     1      -0.967  -0.874   1.129  1.00  0.00     0.162 HD
HETATM   14  C12 UNL     1      -3.582   0.110  -0.868  1.00  0.00     0.145 C 
HETATM   15  C13 UNL     1      -4.644  -0.963  -0.783  1.00  0.00     0.145 C 
ENDROOT
BRANCH  12  16
HETATM   16  C5  UNL     1       0.585   0.578   0.967  1.00  0.00     0.122 C 
BRANCH  16  17
HETATM   17  C6  UNL     1       1.435   0.176  -0.239  1.00  0.00     0.020 C 
BRANCH  17  18
HETATM   18  C7  UNL     1       2.810   0.759   0.002  1.00  0.00     0.002 C 
BRANCH  18  19
HETATM   19  C8  UNL     1       3.774   0.452  -1.104  1.00  0.00     0.010 C 
BRANCH  19  20
HETATM   20  C9  UNL     1       5.103   1.095  -0.726  1.00  0.00     0.074 C 
BRANCH  20  21
HETATM   21  S1  UNL     1       5.605   0.337   0.853  1.00  0.00    -0.167 SA
BRANCH  21  22
HETATM   22  C10 UNL     1       5.946  -1.420   0.517  1.00  0.00     0.101 C 
BRANCH  22  23
HETATM   23  C11 UNL     1       7.161  -1.464  -0.388  1.00  0.00     0.239 C 
BRANCH  23  24
HETATM   24  N7  UNL     1       8.320  -0.852   0.228  1.00  0.00    -0.079 N 
ATOM     25  H73 UNL     1       8.118   0.101   0.530  1.00  0.00     0.274 HD
ATOM     26  H72 UNL     1       8.520  -1.270   1.137  1.00  0.00     0.274 HD
ATOM     27  H71 UNL     1       9.138  -0.882  -0.381  1.00  0.00     0.274 HD
ENDBRANCH  23  24
ENDBRANCH  22  23
ENDBRANCH  21  22
ENDBRANCH  20  21
ENDBRANCH  19  20
ENDBRANCH  18  19
ENDBRANCH  17  18
ENDBRANCH  16  17
ENDBRANCH  12  16
TORSDOF 9
