REMARK  9 active torsions:
REMARK  status: ('A' for Active; 'I' for Inactive)
REMARK    1  A    between atoms: C2_2  and  C3_3 
REMARK    2  A    between atoms: C3_3  and  C4_4 
REMARK    3  A    between atoms: C4_4  and  N1_5 
REMARK    4  A    between atoms: N1_5  and  C5_8 
REMARK    5  A    between atoms: C8_13  and  C9_14 
REMARK    6  A    between atoms: C9_14  and  C10_15 
REMARK    7  A    between atoms: C10_15  and  C11_16 
REMARK    8  A    between atoms: C11_16  and  N3_17 
REMARK    9  A    between atoms: N3_17  and  C12_19 
ROOT
HETATM    1  C5  UNL     1      -2.049   1.070  -0.467  1.00  0.00     0.301 C 
HETATM    2  C6  UNL     1      -1.463   1.190   0.875  1.00  0.00     0.253 C 
HETATM    3  O1  UNL     1      -1.534   2.117   1.745  1.00  0.00    -0.271 OA
HETATM    4  N2  UNL     1      -0.864  -0.056   0.743  1.00  0.00    -0.340 N 
HETATM    5  C7  UNL     1      -0.203  -1.269   1.123  1.00  0.00     0.151 C 
HETATM    6  C8  UNL     1       1.119  -1.416   0.355  1.00  0.00     0.094 C 
HETATM    7  N5  UNL     1       1.097  -0.857  -0.921  1.00  0.00    -0.413 N 
ATOM      8  H5  UNL     1       1.616  -1.299  -1.680  1.00  0.00     0.153 HD
HETATM    9  C13 UNL     1       0.343   0.344  -1.171  1.00  0.00     0.142 C 
HETATM   10  C14 UNL     1      -1.061   0.036  -0.722  1.00  0.00     0.144 C 
ENDROOT
BRANCH   6  11
HETATM   11  C9  UNL     1       2.220  -0.983   1.254  1.00  0.00     0.028 C 
BRANCH  11  12
HETATM   12  C10 UNL     1       3.624  -1.041   0.796  1.00  0.00     0.022 C 
BRANCH  12  13
HETATM   13  C11 UNL     1       3.930  -0.188  -0.376  1.00  0.00     0.121 C 
BRANCH  13  14
HETATM   14  N3  UNL     1       5.362  -0.238  -0.719  1.00  0.00    -0.369 N 
ATOM     15  H3  UNL     1       5.637  -0.727  -1.571  1.00  0.00     0.161 HD
BRANCH  14  16
HETATM   16  C12 UNL     1       6.369   0.351   0.062  1.00  0.00     0.180 C 
HETATM   17  N4  UNL     1       7.723   0.241  -0.334  1.00  0.00    -0.070 NA
HETATM   18  S1  UNL     1       6.001   1.187   1.403  1.00  0.00    -0.044 SA
ENDBRANCH  14  16
ENDBRANCH  13  14
ENDBRANCH  12  13
ENDBRANCH  11  12
ENDBRANCH   6  11
BRANCH   1  19
HETATM   19  N1  UNL     1      -3.379   0.467  -0.316  1.00  0.00    -0.060 N 
ATOM     20  H12 UNL     1      -3.311  -0.464   0.096  1.00  0.00     0.278 HD
ATOM     21  H11 UNL     1      -3.771   0.220  -1.225  1.00  0.00     0.278 HD
BRANCH  19  22
HETATM   22  C4  UNL     1      -4.282   1.281   0.420  1.00  0.00     0.237 C 
BRANCH  22  23
HETATM   23  C3  UNL     1      -5.587   0.524   0.570  1.00  0.00     0.054 C 
BRANCH  23  24
HETATM   24  C2  UNL     1      -6.131   0.208  -0.770  1.00  0.00    -0.035 C 
HETATM   25  C1  UNL     1      -7.309   0.670  -1.128  1.00  0.00     0.007 C 
ENDBRANCH  23  24
ENDBRANCH  22  23
ENDBRANCH  19  22
ENDBRANCH   1  19
TORSDOF 9
