REMARK  10 active torsions:
REMARK  status: ('A' for Active; 'I' for Inactive)
REMARK       I    between atoms: C1_2  and  N2_3 
REMARK    1  A    between atoms: N2_3  and  O1_5 
REMARK    2  A    between atoms: N3_7  and  C2_9 
REMARK    3  A    between atoms: C2_9  and  C3_10 
REMARK    4  A    between atoms: C3_10  and  C4_11 
REMARK    5  A    between atoms: C4_11  and  C5_12 
REMARK    6  A    between atoms: C5_12  and  C6_13 
REMARK    7  A    between atoms: C6_13  and  C7_14 
REMARK    8  A    between atoms: C7_14  and  C8_15 
REMARK    9  A    between atoms: C8_15  and  C9_16 
REMARK   10  A    between atoms: C9_16  and  N4_17 
REMARK       I    between atoms: C10_19  and  N6_21 
ROOT
HETATM    1  C7  UNL     1       0.514   1.085   1.176  1.00  0.00     0.002 C 
ENDROOT
BRANCH   1   2
HETATM    2  C6  UNL     1       1.333   0.412   0.112  1.00  0.00     0.000 C 
BRANCH   2   3
HETATM    3  C5  UNL     1       2.575  -0.236   0.649  1.00  0.00     0.000 C 
BRANCH   3   4
HETATM    4  C4  UNL     1       3.462   0.773   1.316  1.00  0.00     0.002 C 
BRANCH   4   5
HETATM    5  C3  UNL     1       3.890   1.841   0.372  1.00  0.00     0.020 C 
BRANCH   5   6
HETATM    6  C2  UNL     1       4.656   1.318  -0.815  1.00  0.00     0.122 C 
BRANCH   6   7
HETATM    7  N3  UNL     1       5.854   0.631  -0.456  1.00  0.00    -0.363 N 
HETATM    8  C1  UNL     1       6.290  -0.448  -0.984  1.00  0.00     0.208 C 
HETATM    9  N1  UNL     1       7.485  -1.024  -0.538  1.00  0.00    -0.062 NA
HETATM   10  N2  UNL     1       5.558  -1.058  -2.024  1.00  0.00    -0.241 N 
ATOM     11  H2  UNL     1       5.412  -0.593  -2.920  1.00  0.00     0.197 HD
ATOM     12  H3  UNL     1       6.415   1.039   0.292  1.00  0.00     0.162 HD
BRANCH  10  13
HETATM   13  O1  UNL     1       5.093  -2.207  -1.790  1.00  0.00    -0.287 OA
ATOM     14  H1  UNL     1       4.600  -2.618  -2.490  1.00  0.00     0.244 HD
ENDBRANCH  10  13
ENDBRANCH   6   7
ENDBRANCH   5   6
ENDBRANCH   4   5
ENDBRANCH   3   4
ENDBRANCH   2   3
ENDBRANCH   1   2
BRANCH   1  15
HETATM   15  C8  UNL     1       0.047   0.148   2.242  1.00  0.00     0.020 C 
BRANCH  15  16
HETATM   16  C9  UNL     1      -0.801  -0.924   1.633  1.00  0.00     0.122 C 
BRANCH  16  17
HETATM   17  N4  UNL     1      -1.943  -0.330   0.987  1.00  0.00    -0.365 N 
HETATM   18  C10 UNL     1      -3.017  -1.010   0.785  1.00  0.00     0.186 C 
HETATM   19  N5  UNL     1      -3.112  -2.382   1.195  1.00  0.00    -0.064 NA
HETATM   20  N6  UNL     1      -4.099  -0.349   0.141  1.00  0.00    -0.353 N 
HETATM   21  C11 UNL     1      -3.828   0.754  -0.778  1.00  0.00     0.144 C 
HETATM   22  C14 UNL     1      -5.477  -0.714   0.349  1.00  0.00     0.144 C 
HETATM   23  C12 UNL     1      -5.090   1.305  -1.359  1.00  0.00     0.133 C 
HETATM   24  N7  UNL     1      -6.013   0.322  -1.819  1.00  0.00    -0.418 N 
HETATM   25  C13 UNL     1      -6.293  -0.733  -0.900  1.00  0.00     0.133 C 
ATOM     26  H7  UNL     1      -6.444   0.369  -2.742  1.00  0.00     0.153 HD
ATOM     27  H4  UNL     1      -1.900   0.643   0.685  1.00  0.00     0.162 HD
ENDBRANCH  16  17
ENDBRANCH  15  16
ENDBRANCH   1  15
TORSDOF 10
