REMARK  10 active torsions:
REMARK  status: ('A' for Active; 'I' for Inactive)
REMARK    1  A    between atoms: N1_1  and  C1_5 
REMARK    2  A    between atoms: C1_5  and  C2_6 
REMARK    3  A    between atoms: C2_6  and  C3_7 
REMARK    4  A    between atoms: C3_7  and  C4_8 
REMARK    5  A    between atoms: C4_8  and  N2_9 
REMARK    6  A    between atoms: C7_16  and  C8_17 
REMARK    7  A    between atoms: C8_17  and  C9_18 
REMARK    8  A    between atoms: C9_18  and  C10_19 
REMARK    9  A    between atoms: C10_19  and  N4_20 
REMARK   10  A    between atoms: N4_20  and  C11_22 
ROOT
HETATM    1  N2  UNL     1      -0.683  -1.089   0.430  1.00  0.00    -0.344 N 
HETATM    2  C5  UNL     1      -0.433  -2.365   0.997  1.00  0.00     0.177 A 
HETATM    3  S1  UNL     1      -0.906  -2.871   2.480  1.00  0.00    -0.041 SA
HETATM    4  N3  UNL     1       0.301  -3.174   0.092  1.00  0.00    -0.302 N 
ATOM      5  H3  UNL     1       0.612  -4.133   0.247  1.00  0.00     0.171 HD
HETATM    6  C6  UNL     1       0.519  -2.392  -1.069  1.00  0.00     0.246 A 
HETATM    7  O1  UNL     1       1.201  -2.733  -2.105  1.00  0.00    -0.271 OA
HETATM    8  C7  UNL     1      -0.167  -1.119  -0.897  1.00  0.00     0.179 A 
ENDROOT
BRANCH   1   9
HETATM    9  C4  UNL     1      -1.353  -0.019   1.143  1.00  0.00     0.126 C 
BRANCH   9  10
HETATM   10  C3  UNL     1      -2.733   0.250   0.525  1.00  0.00     0.022 C 
BRANCH  10  11
HETATM   11  C2  UNL     1      -3.452   1.347   1.236  1.00  0.00     0.029 C 
BRANCH  11  12
HETATM   12  C1  UNL     1      -4.800   1.519   0.534  1.00  0.00     0.229 C 
BRANCH  12  13
HETATM   13  N1  UNL     1      -4.616   1.866  -0.859  1.00  0.00    -0.079 N 
ATOM     14  H13 UNL     1      -4.027   2.692  -0.967  1.00  0.00     0.274 HD
ATOM     15  H12 UNL     1      -4.024   1.190  -1.341  1.00  0.00     0.274 HD
ATOM     16  H11 UNL     1      -5.515   1.981  -1.327  1.00  0.00     0.274 HD
ENDBRANCH  12  13
ENDBRANCH  11  12
ENDBRANCH  10  11
ENDBRANCH   9  10
ENDBRANCH   1   9
BRANCH   8  17
HETATM   17  C8  UNL     1       0.524   0.101  -1.355  1.00  0.00     0.037 C 
BRANCH  17  18
HETATM   18  C9  UNL     1       1.707   0.593  -0.632  1.00  0.00     0.022 C 
BRANCH  18  19
HETATM   19  C10 UNL     1       2.891  -0.321  -0.551  1.00  0.00     0.121 C 
BRANCH  19  20
HETATM   20  N4  UNL     1       4.022   0.244   0.157  1.00  0.00    -0.369 N 
ATOM     21  H4  UNL     1       4.246  -0.155   1.069  1.00  0.00     0.161 HD
BRANCH  20  22
HETATM   22  C11 UNL     1       4.841   1.296  -0.302  1.00  0.00     0.180 C 
HETATM   23  N5  UNL     1       5.927   1.797   0.464  1.00  0.00    -0.070 NA
HETATM   24  S2  UNL     1       4.578   1.963  -1.755  1.00  0.00    -0.044 SA
ENDBRANCH  20  22
ENDBRANCH  19  20
ENDBRANCH  18  19
ENDBRANCH  17  18
ENDBRANCH   8  17
TORSDOF 10
