REMARK  8 active torsions:
REMARK  status: ('A' for Active; 'I' for Inactive)
REMARK    1  A    between atoms: N3_4  and  C2_6 
REMARK    2  A    between atoms: C2_6  and  C3_7 
REMARK    3  A    between atoms: C3_7  and  C4_8 
REMARK    4  A    between atoms: C4_8  and  C5_9 
REMARK    5  A    between atoms: C5_9  and  N4_10 
REMARK       I    between atoms: N4_10  and  C6_12 
REMARK    6  A    between atoms: C6_12  and  C7_14 
REMARK    7  A    between atoms: C10_17  and  C11_18 
REMARK    8  A    between atoms: C11_18  and  N5_19 
ROOT
HETATM    1  N4  UNL     1       1.486   0.924   0.257  1.00  0.00    -0.361 N 
ATOM      2  H4  UNL     1       1.432   1.305   1.202  1.00  0.00     0.162 HD
HETATM    3  C6  UNL     1       0.433   0.086  -0.170  1.00  0.00     0.221 C 
HETATM    4  O1  UNL     1       0.420  -0.420  -1.310  1.00  0.00    -0.273 OA
ENDROOT
BRANCH   3   5
HETATM    5  C7  UNL     1      -0.685  -0.199   0.763  1.00  0.00     0.078 C 
HETATM    6  C8  UNL     1      -1.392   1.068   1.168  1.00  0.00     0.014 C 
HETATM    7  C9  UNL     1      -2.512   1.451   0.264  1.00  0.00     0.007 C 
HETATM    8  C10 UNL     1      -3.396   0.318  -0.139  1.00  0.00     0.003 C 
HETATM    9  C13 UNL     1      -3.017  -0.911   0.679  1.00  0.00     0.007 C 
HETATM   10  C14 UNL     1      -1.597  -1.269   0.267  1.00  0.00     0.014 C 
BRANCH   8  11
HETATM   11  C11 UNL     1      -4.861   0.593   0.010  1.00  0.00     0.126 C 
BRANCH  11  12
HETATM   12  N5  UNL     1      -5.581  -0.586  -0.416  1.00  0.00    -0.367 N 
HETATM   13  C12 UNL     1      -6.860  -0.560  -0.542  1.00  0.00     0.196 C 
HETATM   14  N6  UNL     1      -7.548   0.644  -0.257  1.00  0.00    -0.067 NA
HETATM   15  N7  UNL     1      -7.613  -1.686  -0.954  1.00  0.00    -0.067 NA
ATOM     16  H5  UNL     1      -5.070  -1.445  -0.618  1.00  0.00     0.161 HD
ENDBRANCH  11  12
ENDBRANCH   8  11
ENDBRANCH   3   5
BRANCH   1  17
HETATM   17  C5  UNL     1       2.633   1.282  -0.541  1.00  0.00     0.122 C 
BRANCH  17  18
HETATM   18  C4  UNL     1       3.398   0.049  -0.901  1.00  0.00     0.021 C 
BRANCH  18  19
HETATM   19  C3  UNL     1       3.887  -0.709   0.315  1.00  0.00     0.021 C 
BRANCH  19  20
HETATM   20  C2  UNL     1       4.803   0.148   1.157  1.00  0.00     0.122 C 
BRANCH  20  21
HETATM   21  N3  UNL     1       5.943   0.549   0.380  1.00  0.00    -0.367 N 
HETATM   22  C1  UNL     1       6.973  -0.199   0.316  1.00  0.00     0.196 C 
HETATM   23  N1  UNL     1       7.004  -1.427   1.006  1.00  0.00    -0.067 NA
HETATM   24  N2  UNL     1       8.088   0.199  -0.449  1.00  0.00    -0.067 NA
ATOM     25  H3  UNL     1       5.928   1.436  -0.123  1.00  0.00     0.161 HD
ENDBRANCH  20  21
ENDBRANCH  19  20
ENDBRANCH  18  19
ENDBRANCH  17  18
ENDBRANCH   1  17
TORSDOF 8
