REMARK  14 active torsions:
REMARK  status: ('A' for Active; 'I' for Inactive)
REMARK    1  A    between atoms: O1_2  and  C2_3 
REMARK    2  A    between atoms: C2_3  and  O3_5 
REMARK    3  A    between atoms: O3_5  and  C3_6 
REMARK    4  A    between atoms: C3_6  and  C4_8 
REMARK    5  A    between atoms: C4_8  and  O5_9 
REMARK    6  A    between atoms: O5_9  and  C5_10 
REMARK    7  A    between atoms: C7_12  and  N1_13 
REMARK    8  A    between atoms: N1_13  and  C8_14 
REMARK    9  A    between atoms: C8_14  and  O6_15 
REMARK   10  A    between atoms: C8_14  and  C9_17 
REMARK   11  A    between atoms: C9_17  and  C10_19 
REMARK   12  A    between atoms: C11_21  and  N2_22 
REMARK   13  A    between atoms: C13_29  and  N5_30 
REMARK   14  A    between atoms: C15_34  and  O11_35 
ROOT
HETATM    1  C5  UNL     1       1.672  -2.132   0.522  1.00  0.00     0.105 A 
HETATM    2  C6  UNL     1       0.708  -1.254   0.077  1.00  0.00     0.087 A 
HETATM    3  C7  UNL     1      -0.658  -1.575  -0.016  1.00  0.00     0.146 A 
HETATM    4  C13 UNL     1      -1.010  -2.850   0.365  1.00  0.00     0.146 A 
HETATM    5  C14 UNL     1      -0.039  -3.753   0.821  1.00  0.00     0.079 A 
HETATM    6  C15 UNL     1       1.273  -3.380   0.891  1.00  0.00     0.101 A 
ENDROOT
BRANCH   3   7
HETATM    7  N1  UNL     1      -1.603  -0.612  -0.288  1.00  0.00    -0.374 NA
BRANCH   7   8
HETATM    8  C8  UNL     1      -2.516   0.322  -0.554  1.00  0.00     0.269 C 
BRANCH   8   9
HETATM    9  O6  UNL     1      -2.385   1.333  -1.386  1.00  0.00    -0.332 OA
ATOM     10  H6  UNL     1      -3.036   1.999  -1.576  1.00  0.00     0.220 HD
ENDBRANCH   8   9
BRANCH   8  11
HETATM   11  C9  UNL     1      -3.878   0.380   0.085  1.00  0.00     0.273 C 
HETATM   12  O7  UNL     1      -4.246  -0.472   0.905  1.00  0.00    -0.279 OA
BRANCH  11  13
HETATM   13  C10 UNL     1      -4.809   1.456  -0.248  1.00  0.00     0.176 A 
HETATM   14  O8  UNL     1      -4.582   2.462  -1.075  1.00  0.00    -0.272 OA
HETATM   15  C11 UNL     1      -5.636   3.256  -1.139  1.00  0.00     0.223 A 
HETATM   16  N3  UNL     1      -6.570   2.760  -0.341  1.00  0.00    -0.308 N 
HETATM   17  C12 UNL     1      -6.086   1.646   0.224  1.00  0.00     0.158 A 
ATOM     18  H3  UNL     1      -7.496   3.157  -0.184  1.00  0.00     0.170 HD
HETATM   19  N4  UNL     1      -6.765   0.791   1.138  1.00  0.00    -0.079 NA
BRANCH  15  20
HETATM   20  N2  UNL     1      -5.661   4.324  -1.887  1.00  0.00    -0.365 N 
ATOM     21  H22 UNL     1      -4.942   4.706  -2.501  1.00  0.00     0.159 HD
ATOM     22  H21 UNL     1      -6.475   4.937  -1.936  1.00  0.00     0.159 HD
ENDBRANCH  15  20
ENDBRANCH  11  13
ENDBRANCH   8  11
ENDBRANCH   7   8
ENDBRANCH   3   7
BRANCH   4  23
HETATM   23  N5  UNL     1      -2.341  -3.357   0.273  1.00  0.00    -0.112 N 
HETATM   24  O9  UNL     1      -3.107  -3.053  -0.651  1.00  0.00    -0.532 OA
HETATM   25  O10 UNL     1      -2.781  -4.274   1.198  1.00  0.00    -0.532 OA
ENDBRANCH   4  23
BRANCH   1  26
HETATM   26  O5  UNL     1       3.016  -1.697   0.570  1.00  0.00    -0.339 OA
BRANCH  26  27
HETATM   27  C4  UNL     1       3.333  -0.375   0.159  1.00  0.00     0.287 C 
BRANCH  27  28
HETATM   28  C3  UNL     1       4.799  -0.176   0.280  1.00  0.00     0.292 C 
HETATM   29  O4  UNL     1       5.570  -1.066   0.721  1.00  0.00    -0.262 OA
BRANCH  28  30
HETATM   30  O3  UNL     1       5.390   1.035  -0.103  1.00  0.00    -0.219 OA
BRANCH  30  31
HETATM   31  C2  UNL     1       6.756   1.251  -0.006  1.00  0.00     0.413 C 
HETATM   32  O2  UNL     1       7.530   0.365   0.434  1.00  0.00    -0.229 OA
BRANCH  31  33
HETATM   33  O1  UNL     1       7.245   2.470  -0.411  1.00  0.00    -0.303 OA
HETATM   34  C1  UNL     1       8.610   2.823  -0.365  1.00  0.00     0.215 C 
ENDBRANCH  31  33
ENDBRANCH  30  31
ENDBRANCH  28  30
ENDBRANCH  27  28
ENDBRANCH  26  27
ENDBRANCH   1  26
BRANCH   6  35
HETATM   35  O11 UNL     1       2.257  -4.280   1.346  1.00  0.00    -0.358 OA
ATOM     36  H11 UNL     1       1.979  -5.151   1.604  1.00  0.00     0.217 HD
ENDBRANCH   6  35
TORSDOF 14
