REMARK  15 active torsions:
REMARK  status: ('A' for Active; 'I' for Inactive)
REMARK    1  A    between atoms: C2_2  and  O2_4 
REMARK    2  A    between atoms: O2_4  and  C3_5 
REMARK    3  A    between atoms: C3_5  and  O3_6 
REMARK    4  A    between atoms: C3_5  and  C6_10 
REMARK    5  A    between atoms: O3_6  and  C4_7 
REMARK    6  A    between atoms: C7_11  and  O5_12 
REMARK    7  A    between atoms: C8_14  and  O6_15 
REMARK    8  A    between atoms: O6_15  and  C9_16 
REMARK    9  A    between atoms: C10_19  and  O8_20 
REMARK   10  A    between atoms: C11_22  and  C12_23 
REMARK   11  A    between atoms: C12_23  and  O9_24 
REMARK   12  A    between atoms: C12_23  and  C15_28 
REMARK   13  A    between atoms: O9_24  and  C13_25 
REMARK   14  A    between atoms: C15_28  and  O11_30 
REMARK   15  A    between atoms: C17_32  and  O12_33 
ROOT
HETATM    1  C6  UNL     1      -1.052   0.210   0.006  1.00  0.00     0.067 A 
HETATM    2  C7  UNL     1      -1.508   0.846  -1.165  1.00  0.00     0.116 A 
HETATM    3  C8  UNL     1      -0.687   0.996  -2.254  1.00  0.00     0.148 A 
HETATM    4  C10 UNL     1       0.576   0.541  -2.229  1.00  0.00     0.114 A 
HETATM    5  C11 UNL     1       1.087  -0.092  -1.099  1.00  0.00     0.044 A 
HETATM    6  C17 UNL     1       0.245  -0.243   0.002  1.00  0.00     0.091 A 
ENDROOT
BRANCH   1   7
HETATM    7  C3  UNL     1      -2.002   0.093   1.135  1.00  0.00     0.319 C 
BRANCH   7   8
HETATM    8  O2  UNL     1      -2.094  -1.284   1.586  1.00  0.00    -0.285 OA
BRANCH   8   9
HETATM    9  C2  UNL     1      -3.294  -1.958   1.568  1.00  0.00     0.257 C 
HETATM   10  C1  UNL     1      -3.530  -3.353   1.996  1.00  0.00     0.126 C 
HETATM   11  O1  UNL     1      -4.298  -1.303   1.136  1.00  0.00    -0.266 OA
ENDBRANCH   8   9
ENDBRANCH   7   8
BRANCH   7  12
HETATM   12  O3  UNL     1      -1.609   0.812   2.291  1.00  0.00    -0.285 OA
BRANCH  12  13
HETATM   13  C4  UNL     1      -2.499   1.761   2.881  1.00  0.00     0.257 C 
HETATM   14  C5  UNL     1      -2.002   2.468   4.128  1.00  0.00     0.126 C 
HETATM   15  O4  UNL     1      -3.580   1.924   2.337  1.00  0.00    -0.266 OA
ENDBRANCH  12  13
ENDBRANCH   7  12
ENDBRANCH   1   7
BRANCH   2  16
HETATM   16  O5  UNL     1      -2.788   1.313  -1.201  1.00  0.00    -0.357 OA
ATOM     17  H5  UNL     1      -3.096   1.742  -1.991  1.00  0.00     0.217 HD
ENDBRANCH   2  16
BRANCH   6  18
HETATM   18  O12 UNL     1       0.716  -0.882   1.155  1.00  0.00    -0.359 OA
ATOM     19  H12 UNL     1       1.613  -1.195   1.152  1.00  0.00     0.217 HD
ENDBRANCH   6  18
BRANCH   3  20
HETATM   20  O6  UNL     1      -1.111   1.631  -3.445  1.00  0.00    -0.258 OA
BRANCH  20  21
HETATM   21  C9  UNL     1      -0.796   3.012  -3.455  1.00  0.00     0.378 C 
HETATM   22  N1  UNL     1      -1.125   3.837  -4.545  1.00  0.00    -0.032 NA
HETATM   23  O7  UNL     1      -0.207   3.560  -2.483  1.00  0.00    -0.242 OA
ENDBRANCH  20  21
ENDBRANCH   3  20
BRANCH   5  24
HETATM   24  C12 UNL     1       2.420  -0.642  -1.125  1.00  0.00     0.199 C 
BRANCH  24  25
HETATM   25  O9  UNL     1       2.368  -1.668  -0.062  1.00  0.00    -0.309 OA
BRANCH  25  26
HETATM   26  C13 UNL     1       2.684  -2.983  -0.312  1.00  0.00     0.255 C 
HETATM   27  C14 UNL     1       2.645  -4.025   0.771  1.00  0.00     0.126 C 
HETATM   28  O10 UNL     1       3.012  -3.285  -1.489  1.00  0.00    -0.266 OA
ENDBRANCH  25  26
ENDBRANCH  24  25
BRANCH  24  29
HETATM   29  C15 UNL     1       3.533   0.225  -0.569  1.00  0.00     0.148 C 
HETATM   30  C16 UNL     1       3.309   1.033   0.614  1.00  0.00     0.042 C 
BRANCH  29  31
HETATM   31  O11 UNL     1       4.621  -0.629  -0.399  1.00  0.00    -0.393 OA
ATOM     32  H11 UNL     1       5.318  -0.086  -0.051  1.00  0.00     0.210 HD
ENDBRANCH  29  31
ENDBRANCH  24  29
ENDBRANCH   5  24
BRANCH   4  33
HETATM   33  O8  UNL     1       1.418   0.677  -3.296  1.00  0.00    -0.357 OA
ATOM     34  H8  UNL     1       2.312   0.355  -3.278  1.00  0.00     0.217 HD
ENDBRANCH   4  33
TORSDOF 15
