REMARK  11 active torsions:
REMARK  status: ('A' for Active; 'I' for Inactive)
REMARK    1  A    between atoms: O1_2  and  C2_3 
REMARK    2  A    between atoms: C2_3  and  C3_5 
REMARK    3  A    between atoms: C3_5  and  N1_8 
REMARK    4  A    between atoms: N1_8  and  C6_10 
REMARK    5  A    between atoms: C7_13  and  N3_14 
REMARK    6  A    between atoms: N3_14  and  N4_16 
REMARK    7  A    between atoms: N4_16  and  C8_18 
REMARK    8  A    between atoms: C8_18  and  C9_22 
REMARK    9  A    between atoms: C10_28  and  N8_29 
REMARK   10  A    between atoms: C11_34  and  N10_35 
REMARK   11  A    between atoms: C14_39  and  N12_40 
ROOT
HETATM    1  N10 UNL     1       1.457   0.596  -4.280  1.00  0.00    -0.272 N 
HETATM    2  C12 UNL     1       1.802   1.992  -4.601  1.00  0.00     0.170 C 
HETATM    3  C13 UNL     1       1.799  -0.371  -5.205  1.00  0.00     0.185 C 
HETATM    4  N11 UNL     1       2.086  -1.196  -5.967  1.00  0.00    -0.172 NA
ENDROOT
BRANCH   1   5
HETATM    5  C11 UNL     1       0.805   0.369  -3.047  1.00  0.00     0.169 A 
HETATM    6  N9  UNL     1      -0.541   0.196  -3.035  1.00  0.00    -0.172 N 
HETATM    7  C7  UNL     1      -1.226   0.030  -1.897  1.00  0.00     0.700 A 
ATOM      8  H9  UNL     1      -1.047   0.192  -3.921  1.00  0.00     0.186 HD
HETATM    9  N2  UNL     1      -0.530   0.038  -0.741  1.00  0.00    -0.173 N 
HETATM   10  C6  UNL     1       0.789   0.197  -0.613  1.00  0.00     0.155 A 
ATOM     11  H2  UNL     1      -1.064  -0.090   0.119  1.00  0.00     0.186 HD
HETATM   12  C14 UNL     1       1.474   0.370  -1.867  1.00  0.00     0.192 A 
BRANCH   7  13
HETATM   13  N3  UNL     1      -2.648  -0.152  -1.911  1.00  0.00    -0.130 N 
ATOM     14  H3  UNL     1      -3.117  -0.148  -2.817  1.00  0.00     0.205 HD
BRANCH  13  15
HETATM   15  N4  UNL     1      -3.434  -0.334  -0.780  1.00  0.00    -0.270 N 
ATOM     16  H4  UNL     1      -3.848  -1.248  -0.595  1.00  0.00     0.189 HD
BRANCH  15  17
HETATM   17  C8  UNL     1      -3.666   0.730   0.114  1.00  0.00     0.147 C 
HETATM   18  N5  UNL     1      -3.718   1.928  -0.358  1.00  0.00    -0.382 N 
ATOM     19  H52 UNL     1      -3.585   2.043  -1.363  1.00  0.00     0.157 HD
ATOM     20  H51 UNL     1      -3.886   2.698   0.289  1.00  0.00     0.157 HD
BRANCH  17  21
HETATM   21  C9  UNL     1      -3.855   0.566   1.547  1.00  0.00     0.146 A 
HETATM   22  N6  UNL     1      -4.088   1.583   2.437  1.00  0.00    -0.234 N 
HETATM   23  O3  UNL     1      -4.202   1.064   3.603  1.00  0.00    -0.155 OA
ATOM     24  H6  UNL     1      -4.158   2.575   2.211  1.00  0.00     0.197 HD
HETATM   25  N7  UNL     1      -4.064  -0.221   3.564  1.00  0.00    -0.224 N 
HETATM   26  C10 UNL     1      -3.841  -0.594   2.278  1.00  0.00     0.154 A 
ATOM     27  H7  UNL     1      -4.114  -0.850   4.366  1.00  0.00     0.198 HD
BRANCH  26  28
HETATM   28  N8  UNL     1      -3.653  -1.809   1.854  1.00  0.00    -0.382 N 
ATOM     29  H82 UNL     1      -3.485  -2.089   0.888  1.00  0.00     0.157 HD
ATOM     30  H81 UNL     1      -3.643  -2.672   2.398  1.00  0.00     0.157 HD
ENDBRANCH  26  28
ENDBRANCH  17  21
ENDBRANCH  15  17
ENDBRANCH  13  15
ENDBRANCH   7  13
BRANCH  10  31
HETATM   31  N1  UNL     1       1.485   0.214   0.417  1.00  0.00    -0.356 N 
ATOM     32  H1  UNL     1       2.464   0.354   0.168  1.00  0.00     0.162 HD
BRANCH  31  33
HETATM   33  C3  UNL     1       1.364   0.106   1.777  1.00  0.00     0.112 C 
HETATM   34  C4  UNL     1       0.006  -0.097   2.402  1.00  0.00     0.049 C 
HETATM   35  C5  UNL     1       1.975   1.341   2.471  1.00  0.00     0.049 C 
BRANCH  33  36
HETATM   36  C2  UNL     1       2.200  -1.040   2.350  1.00  0.00     0.286 C 
HETATM   37  O2  UNL     1       2.197  -1.228   3.596  1.00  0.00    -0.262 OA
BRANCH  36  38
HETATM   38  O1  UNL     1       2.953  -1.870   1.562  1.00  0.00    -0.325 OA
HETATM   39  C1  UNL     1       3.713  -2.920   2.135  1.00  0.00     0.213 C 
ENDBRANCH  36  38
ENDBRANCH  33  36
ENDBRANCH  31  33
ENDBRANCH  10  31
BRANCH  12  40
HETATM   40  N12 UNL     1       2.872   0.481  -1.807  1.00  0.00    -0.108 N 
HETATM   41  O4  UNL     1       3.480   0.572  -0.707  1.00  0.00    -0.531 OA
HETATM   42  O5  UNL     1       3.687   0.504  -2.905  1.00  0.00    -0.531 OA
ENDBRANCH  12  40
ENDBRANCH   1   5
TORSDOF 11
