REMARK  13 active torsions:
REMARK  status: ('A' for Active; 'I' for Inactive)
REMARK    1  A    between atoms: O1_2  and  C2_3 
REMARK    2  A    between atoms: C2_3  and  C3_5 
REMARK    3  A    between atoms: C4_7  and  N1_8 
REMARK    4  A    between atoms: N1_8  and  N2_10 
REMARK    5  A    between atoms: C5_12  and  C6_13 
REMARK    6  A    between atoms: C7_15  and  C8_16 
REMARK    7  A    between atoms: C8_16  and  O4_17 
REMARK    8  A    between atoms: C8_16  and  C9_19 
REMARK    9  A    between atoms: C10_22  and  N3_23 
REMARK   10  A    between atoms: C11_26  and  O9_27 
REMARK   11  A    between atoms: C12_31  and  C13_32 
REMARK   12  A    between atoms: C13_32  and  N5_33 
REMARK   13  A    between atoms: C13_32  and  N6_37 
ROOT
HETATM    1  N1  UNL     1      -0.413  -2.623   0.938  1.00  0.00    -0.280 N 
ATOM      2  H1  UNL     1      -0.469  -3.619   1.152  1.00  0.00     0.189 HD
ENDROOT
BRANCH   1   3
HETATM    3  C4  UNL     1      -1.488  -1.918   0.653  1.00  0.00     0.164 A 
HETATM    4  S1  UNL     1      -1.618  -0.275   0.271  1.00  0.00    -0.044 SA
HETATM    5  C3  UNL     1      -3.352  -0.199   0.048  1.00  0.00     0.110 A 
HETATM    6  C12 UNL     1      -3.698  -1.488   0.292  1.00  0.00     0.092 A 
HETATM    7  N4  UNL     1      -2.740  -2.343   0.597  1.00  0.00    -0.334 N 
ATOM      8  H4  UNL     1      -2.962  -3.320   0.787  1.00  0.00     0.168 HD
BRANCH   5   9
HETATM    9  C2  UNL     1      -4.088   1.014  -0.280  1.00  0.00     0.302 C 
HETATM   10  O2  UNL     1      -5.302   1.066  -0.396  1.00  0.00    -0.259 OA
BRANCH   9  11
HETATM   11  O1  UNL     1      -3.381   2.214  -0.481  1.00  0.00    -0.322 OA
HETATM   12  C1  UNL     1      -4.068   3.411  -0.802  1.00  0.00     0.213 C 
ENDBRANCH   9  11
ENDBRANCH   5   9
BRANCH   6  13
HETATM   13  C13 UNL     1      -5.140  -1.967   0.152  1.00  0.00     0.428 C 
BRANCH  13  14
HETATM   14  N5  UNL     1      -5.669  -1.564  -1.129  1.00  0.00    -0.045 N 
ATOM     15  H53 UNL     1      -5.583  -0.559  -1.280  1.00  0.00     0.277 HD
ATOM     16  H52 UNL     1      -5.084  -1.881  -1.902  1.00  0.00     0.277 HD
ATOM     17  H51 UNL     1      -6.633  -1.884  -1.223  1.00  0.00     0.277 HD
ENDBRANCH  13  14
BRANCH  13  18
HETATM   18  N6  UNL     1      -5.931  -1.407   1.237  1.00  0.00    -0.045 N 
ATOM     19  H63 UNL     1      -5.538  -1.619   2.154  1.00  0.00     0.277 HD
ATOM     20  H62 UNL     1      -5.862  -0.390   1.284  1.00  0.00     0.277 HD
ATOM     21  H61 UNL     1      -6.895  -1.727   1.143  1.00  0.00     0.277 HD
ENDBRANCH  13  18
ENDBRANCH   6  13
ENDBRANCH   1   3
BRANCH   1  22
HETATM   22  N2  UNL     1       0.802  -1.946   0.933  1.00  0.00    -0.307 N 
HETATM   23  C5  UNL     1       1.234  -1.279  -0.069  1.00  0.00     0.147 C 
ATOM     24  H2  UNL     1       1.379  -1.984   1.773  1.00  0.00     0.186 HD
BRANCH  23  25
HETATM   25  C6  UNL     1       2.515  -0.577  -0.045  1.00  0.00     0.128 A 
HETATM   26  O3  UNL     1       2.984   0.111  -1.054  1.00  0.00    -0.305 OA
HETATM   27  C7  UNL     1       4.168   0.638  -0.745  1.00  0.00     0.129 A 
HETATM   28  C10 UNL     1       4.481   0.269   0.538  1.00  0.00     0.171 A 
HETATM   29  C11 UNL     1       3.411  -0.514   0.983  1.00  0.00     0.137 A 
BRANCH  27  30
HETATM   30  C8  UNL     1       4.973   1.472  -1.659  1.00  0.00     0.278 C 
BRANCH  30  31
HETATM   31  O4  UNL     1       4.919   2.825  -1.293  1.00  0.00    -0.378 OA
ATOM     32  H4  UNL     1       5.437   3.362  -1.881  1.00  0.00     0.211 HD
ENDBRANCH  30  31
BRANCH  30  33
HETATM   33  C9  UNL     1       6.363   1.029  -1.702  1.00  0.00     0.209 C 
HETATM   34  O5  UNL     1       6.588  -0.174  -2.052  1.00  0.00    -0.646 OA
HETATM   35  O6  UNL     1       7.449   1.835  -1.389  1.00  0.00    -0.646 OA
ENDBRANCH  30  33
ENDBRANCH  27  30
BRANCH  28  36
HETATM   36  N3  UNL     1       5.587   0.572   1.363  1.00  0.00    -0.110 N 
HETATM   37  O7  UNL     1       6.646  -0.034   1.269  1.00  0.00    -0.532 OA
HETATM   38  O8  UNL     1       5.418   1.574   2.312  1.00  0.00    -0.532 OA
ENDBRANCH  28  36
BRANCH  29  39
HETATM   39  O9  UNL     1       3.341  -1.081   2.230  1.00  0.00    -0.356 OA
ATOM     40  H9  UNL     1       3.965  -1.037   2.945  1.00  0.00     0.218 HD
ENDBRANCH  29  39
ENDBRANCH  23  25
ENDBRANCH   1  22
TORSDOF 13
