REMARK  10 active torsions:
REMARK  status: ('A' for Active; 'I' for Inactive)
REMARK    1  A    between atoms: C2_2  and  N1_3 
REMARK    2  A    between atoms: C3_4  and  C4_5 
REMARK    3  A    between atoms: C5_8  and  S1_9 
REMARK    4  A    between atoms: S1_9  and  S2_10 
REMARK    5  A    between atoms: S2_10  and  C6_11 
REMARK    6  A    between atoms: C7_14  and  N3_15 
REMARK    7  A    between atoms: N4_17  and  N5_19 
REMARK    8  A    between atoms: N5_19  and  O3_21 
REMARK    9  A    between atoms: C9_23  and  N6_24 
REMARK   10  A    between atoms: C10_29  and  O4_30 
ROOT
HETATM    1  C6  UNL     1       1.792   0.115   0.489  1.00  0.00     0.134 A 
HETATM    2  N2  UNL     1       2.752  -0.596  -0.187  1.00  0.00    -0.329 N 
ATOM      3  H2  UNL     1       2.933  -1.563   0.084  1.00  0.00     0.168 HD
HETATM    4  C7  UNL     1       3.459  -0.062  -1.191  1.00  0.00     0.167 A 
HETATM    5  C9  UNL     1       3.239   1.249  -1.587  1.00  0.00     0.147 A 
HETATM    6  N7  UNL     1       2.302   1.930  -0.921  1.00  0.00    -0.318 N 
ATOM      7  H7  UNL     1       2.118   2.897  -1.190  1.00  0.00     0.169 HD
HETATM    8  C10 UNL     1       1.576   1.386   0.109  1.00  0.00     0.177 A 
ENDROOT
BRANCH   1   9
HETATM    9  S2  UNL     1       0.994  -0.808   1.785  1.00  0.00    -0.030 SA
BRANCH   9  10
HETATM   10  S1  UNL     1      -0.660  -1.812   0.928  1.00  0.00    -0.043 SA
BRANCH  10  11
HETATM   11  C5  UNL     1      -2.130  -0.845   1.180  1.00  0.00     0.114 A 
HETATM   12  C3  UNL     1      -3.345  -1.140   0.519  1.00  0.00     0.139 A 
HETATM   13  N1  UNL     1      -4.473  -0.447   0.778  1.00  0.00    -0.293 N 
HETATM   14  C12 UNL     1      -4.448   0.569   1.699  1.00  0.00     0.330 A 
HETATM   15  N8  UNL     1      -3.318   0.866   2.333  1.00  0.00    -0.274 N 
HETATM   16  O6  UNL     1      -5.510   1.203   1.923  1.00  0.00    -0.246 OA
HETATM   17  C11 UNL     1      -2.165   0.181   2.092  1.00  0.00     0.269 A 
ATOM     18  H8  UNL     1      -3.314   1.624   3.016  1.00  0.00     0.173 HD
HETATM   19  O5  UNL     1      -1.107   0.476   2.714  1.00  0.00    -0.266 OA
BRANCH  12  20
HETATM   20  C4  UNL     1      -3.263  -2.204  -0.470  1.00  0.00     0.228 C 
HETATM   21  O1  UNL     1      -4.222  -2.551  -1.176  1.00  0.00    -0.643 OA
HETATM   22  O2  UNL     1      -2.020  -2.868  -0.623  1.00  0.00    -0.643 OA
ENDBRANCH  12  20
BRANCH  13  23
HETATM   23  C2  UNL     1      -5.733  -0.764   0.132  1.00  0.00     0.130 C 
HETATM   24  C1  UNL     1      -5.958  -0.067  -1.163  1.00  0.00     0.027 C 
ENDBRANCH  13  23
ENDBRANCH  10  11
ENDBRANCH   9  10
ENDBRANCH   1   9
BRANCH   8  25
HETATM   25  O4  UNL     1       0.638   2.208   0.709  1.00  0.00    -0.344 OA
ATOM     26  H4  UNL     1       0.485   3.106   0.440  1.00  0.00     0.219 HD
ENDBRANCH   8  25
BRANCH   4  27
HETATM   27  N3  UNL     1       4.446  -0.796  -1.888  1.00  0.00    -0.266 N 
HETATM   28  N4  UNL     1       5.575  -1.033  -1.412  1.00  0.00    -0.220 N 
ATOM     29  H4  UNL     1       6.213  -1.571  -1.998  1.00  0.00     0.210 HD
ATOM     30  H3  UNL     1       4.226  -1.147  -2.820  1.00  0.00     0.190 HD
BRANCH  28  31
HETATM   31  N5  UNL     1       6.054  -0.642  -0.171  1.00  0.00    -0.192 N 
HETATM   32  C8  UNL     1       7.192   0.269  -0.068  1.00  0.00     0.209 C 
BRANCH  31  33
HETATM   33  O3  UNL     1       5.489  -1.089   0.970  1.00  0.00    -0.272 OA
ATOM     34  H3  UNL     1       5.817  -0.821   1.820  1.00  0.00     0.246 HD
ENDBRANCH  31  33
ENDBRANCH  28  31
ENDBRANCH   4  27
BRANCH   5  35
HETATM   35  N6  UNL     1       3.928   1.747  -2.555  1.00  0.00    -0.382 N 
ATOM     36  H62 UNL     1       4.643   1.227  -3.063  1.00  0.00     0.157 HD
ATOM     37  H61 UNL     1       3.766   2.711  -2.846  1.00  0.00     0.157 HD
ENDBRANCH   5  35
TORSDOF 10
