REMARK  5 active torsions:
REMARK  status: ('A' for Active; 'I' for Inactive)
REMARK    1  A    between atoms: C4_7  and  C5_8 
REMARK    2  A    between atoms: C5_8  and  N3_12 
REMARK    3  A    between atoms: C9_17  and  C10_18 
REMARK    4  A    between atoms: C9_17  and  N4_21 
REMARK    5  A    between atoms: C12_23  and  C13_24 
ROOT
HETATM    1  N3  UNL     1      -2.222  -1.036  -1.006  1.00  0.00    -0.331 N 
HETATM    2  C6  UNL     1      -3.224  -1.980  -1.448  1.00  0.00     0.164 C 
HETATM    3  C7  UNL     1      -2.570  -3.296  -1.701  1.00  0.00     0.192 C 
HETATM    4  F1  UNL     1      -3.120  -4.293  -0.915  1.00  0.00    -0.248 F 
HETATM    5  C8  UNL     1      -1.113  -3.094  -1.418  1.00  0.00     0.100 C 
HETATM    6  C9  UNL     1      -0.923  -1.591  -1.242  1.00  0.00     0.189 C 
ENDROOT
BRANCH   6   7
HETATM    7  C10 UNL     1      -0.404  -1.055  -2.569  1.00  0.00     0.403 C 
HETATM    8  F2  UNL     1      -1.276  -1.434  -3.602  1.00  0.00    -0.210 F 
HETATM    9  F3  UNL     1      -0.354   0.309  -2.601  1.00  0.00    -0.210 F 
ENDBRANCH   6   7
BRANCH   6  10
HETATM   10  N4  UNL     1       0.050  -1.399  -0.219  1.00  0.00    -0.250 N 
HETATM   11  C11 UNL     1       0.996  -0.463  -0.096  1.00  0.00     0.137 A 
HETATM   12  C12 UNL     1       1.706  -0.719   1.080  1.00  0.00     0.045 A 
HETATM   13  N5  UNL     1       1.155  -1.804   1.621  1.00  0.00    -0.286 N 
HETATM   14  N6  UNL     1       0.166  -2.206   0.840  1.00  0.00    -0.018 NA
ATOM     15  H5  UNL     1       1.446  -2.250   2.491  1.00  0.00     0.184 HD
BRANCH  12  16
HETATM   16  C13 UNL     1       2.836   0.076   1.579  1.00  0.00     0.038 C 
HETATM   17  C14 UNL     1       4.021  -0.733   2.014  1.00  0.00     0.011 C 
HETATM   18  C15 UNL     1       5.162   0.205   2.269  1.00  0.00     0.001 C 
HETATM   19  C16 UNL     1       4.776   1.621   2.507  1.00  0.00     0.000 C 
HETATM   20  C17 UNL     1       3.487   1.823   3.246  1.00  0.00     0.001 C 
HETATM   21  C18 UNL     1       2.396   0.880   2.796  1.00  0.00     0.011 C 
ENDBRANCH  12  16
ENDBRANCH   6  10
BRANCH   1  22
HETATM   22  C5  UNL     1      -2.542   0.237  -0.444  1.00  0.00     0.118 C 
HETATM   23  N2  UNL     1      -2.218   0.633   0.718  1.00  0.00    -0.384 N 
ATOM     24  H22 UNL     1      -2.447   1.542   1.119  1.00  0.00     0.157 HD
ATOM     25  H21 UNL     1      -1.682  -0.029   1.279  1.00  0.00     0.157 HD
BRANCH  22  26
HETATM   26  C4  UNL     1      -3.318   1.197  -1.257  1.00  0.00     0.071 A 
HETATM   27  C2  UNL     1      -3.730   2.470  -0.958  1.00  0.00     0.026 A 
HETATM   28  C1  UNL     1      -3.373   3.098   0.377  1.00  0.00     0.070 C 
HETATM   29  N1  UNL     1      -4.423   3.103  -1.850  1.00  0.00    -0.362 N 
HETATM   30  C3  UNL     1      -4.714   2.527  -3.002  1.00  0.00     0.139 A 
ATOM     31  H1  UNL     1      -4.746   4.052  -1.662  1.00  0.00     0.165 HD
HETATM   32  S1  UNL     1      -3.974   0.999  -2.837  1.00  0.00    -0.079 SA
ENDBRANCH  22  26
ENDBRANCH   1  22
TORSDOF 5
