REMARK  6 active torsions:
REMARK  status: ('A' for Active; 'I' for Inactive)
REMARK    1  A    between atoms: C2_2  and  O1_3 
REMARK    2  A    between atoms: C2_2  and  C20_27 
REMARK    3  A    between atoms: O1_3  and  C3_4 
REMARK    4  A    between atoms: C11_13  and  O3_14 
REMARK    5  A    between atoms: C12_16  and  C14_18 
REMARK    6  A    between atoms: C14_18  and  C15_20 
ROOT
HETATM    1  C3  UNL     1       2.883   0.635  -0.328  1.00  0.00     0.122 C 
HETATM    2  C4  UNL     1       2.096   0.932  -1.587  1.00  0.00     0.037 C 
HETATM    3  C5  UNL     1       0.609   0.972  -1.320  1.00  0.00     0.071 C 
HETATM    4  C6  UNL     1       0.181   0.046  -0.234  1.00  0.00     0.165 C 
HETATM    5  C7  UNL     1       0.931   0.184   1.046  1.00  0.00     0.071 C 
HETATM    6  C8  UNL     1       2.066   1.192   0.817  1.00  0.00     0.037 C 
HETATM    7  O2  UNL     1       0.196  -1.260  -0.718  1.00  0.00    -0.347 OA
HETATM    8  C9  UNL     1      -0.700  -1.926   0.115  1.00  0.00     0.158 C 
HETATM    9  C10 UNL     1      -1.414  -2.970  -0.681  1.00  0.00     0.067 C 
HETATM   10  C11 UNL     1      -2.876  -2.693  -0.407  1.00  0.00     0.139 C 
HETATM   11  C12 UNL     1      -2.960  -1.185  -0.307  1.00  0.00     0.078 C 
HETATM   12  C13 UNL     1      -2.990  -0.511  -1.644  1.00  0.00     0.029 C 
HETATM   13  C19 UNL     1      -1.709  -0.860   0.480  1.00  0.00     0.172 C 
HETATM   14  O6  UNL     1      -1.172   0.325   0.042  1.00  0.00    -0.346 OA
ENDROOT
BRANCH   1  15
HETATM   15  O1  UNL     1       4.126   1.211  -0.326  1.00  0.00    -0.372 OA
BRANCH  15  16
HETATM   16  C2  UNL     1       5.183   0.320  -0.204  1.00  0.00     0.225 C 
HETATM   17  C1  UNL     1       6.092   0.518  -1.407  1.00  0.00     0.049 C 
BRANCH  16  18
HETATM   18  C20 UNL     1       6.017   0.671   1.009  1.00  0.00     0.412 C 
HETATM   19  F1  UNL     1       7.113  -0.205   1.014  1.00  0.00    -0.168 F 
HETATM   20  F2  UNL     1       5.348   0.456   2.198  1.00  0.00    -0.168 F 
HETATM   21  F3  UNL     1       6.500   1.963   0.916  1.00  0.00    -0.168 F 
ENDBRANCH  16  18
ENDBRANCH  15  16
ENDBRANCH   1  15
BRANCH  11  22
HETATM   22  C14 UNL     1      -4.122  -0.825   0.509  1.00  0.00     0.196 C 
HETATM   23  O4  UNL     1      -4.875  -1.689   1.008  1.00  0.00    -0.289 OA
BRANCH  22  24
HETATM   24  C15 UNL     1      -4.430   0.591   0.761  1.00  0.00     0.121 A 
HETATM   25  C16 UNL     1      -5.473   1.101   1.498  1.00  0.00     0.043 A 
HETATM   26  C17 UNL     1      -5.381   2.477   1.472  1.00  0.00     0.027 A 
HETATM   27  C18 UNL     1      -4.269   2.751   0.708  1.00  0.00     0.142 A 
HETATM   28  O5  UNL     1      -3.743   1.621   0.312  1.00  0.00    -0.319 OA
ENDBRANCH  22  24
ENDBRANCH  11  22
BRANCH  10  29
HETATM   29  O3  UNL     1      -3.700  -3.196  -1.407  1.00  0.00    -0.394 OA
ATOM     30  H3  UNL     1      -4.618  -3.022  -1.235  1.00  0.00     0.210 HD
ENDBRANCH  10  29
TORSDOF 6
