REMARK  7 active torsions:
REMARK  status: ('A' for Active; 'I' for Inactive)
REMARK    1  A    between atoms: O1_2  and  C2_3 
REMARK    2  A    between atoms: C2_3  and  C3_4 
REMARK    3  A    between atoms: C3_4  and  O2_5 
REMARK    4  A    between atoms: N1_9  and  C6_10 
REMARK    5  A    between atoms: C11_16  and  C12_17 
REMARK    6  A    between atoms: C13_21  and  C14_22 
REMARK    7  A    between atoms: C18_26  and  C19_27 
ROOT
HETATM    1  C3  UNL     1      -1.562  -1.991  -0.084  1.00  0.00     0.083 C 
HETATM    2  C4  UNL     1      -1.428  -1.213  -1.346  1.00  0.00     0.059 C 
HETATM    3  C5  UNL     1      -1.775   0.266  -1.131  1.00  0.00     0.121 C 
HETATM    4  N1  UNL     1      -0.915   0.861  -0.127  1.00  0.00    -0.398 N 
HETATM    5  C11 UNL     1      -0.150  -0.005   0.635  1.00  0.00     0.143 C 
HETATM    6  C20 UNL     1      -1.031  -1.188   1.040  1.00  0.00     0.072 C 
ENDROOT
BRANCH   5   7
HETATM    7  C12 UNL     1       1.136  -0.513   0.271  1.00  0.00     0.116 A 
HETATM    8  O4  UNL     1       1.473  -1.782   0.299  1.00  0.00    -0.239 OA
HETATM    9  N2  UNL     1       2.662  -1.991  -0.063  1.00  0.00    -0.264 N 
HETATM   10  C13 UNL     1       3.281  -0.802  -0.390  1.00  0.00     0.058 A 
ATOM     11  H2  UNL     1       3.104  -2.909  -0.108  1.00  0.00     0.194 HD
HETATM   12  C18 UNL     1       2.306   0.133  -0.178  1.00  0.00     0.106 A 
BRANCH  10  13
HETATM   13  C14 UNL     1       4.657  -0.680  -0.814  1.00  0.00    -0.006 C 
HETATM   14  C15 UNL     1       5.578   0.119   0.077  1.00  0.00     0.021 C 
HETATM   15  C16 UNL     1       5.277  -2.104  -0.762  1.00  0.00     0.021 C 
HETATM   16  C17 UNL     1       4.876  -0.237  -2.221  1.00  0.00     0.021 C 
ENDBRANCH  10  13
BRANCH  12  17
HETATM   17  C19 UNL     1       2.340   1.546  -0.372  1.00  0.00     0.421 C 
HETATM   18  F1  UNL     1       2.048   2.303   0.757  1.00  0.00    -0.166 F 
HETATM   19  F2  UNL     1       3.516   2.117  -0.830  1.00  0.00    -0.166 F 
HETATM   20  F3  UNL     1       1.508   2.029  -1.387  1.00  0.00    -0.166 F 
ENDBRANCH  12  17
ENDBRANCH   5   7
BRANCH   4  21
HETATM   21  C6  UNL     1      -1.592   1.944   0.510  1.00  0.00     0.084 C 
HETATM   22  C7  UNL     1      -1.937   3.056  -0.495  1.00  0.00     0.051 C 
HETATM   23  C8  UNL     1      -2.621   4.206   0.172  1.00  0.00     0.169 C 
HETATM   24  O3  UNL     1      -2.823   3.950   1.508  1.00  0.00    -0.391 OA
HETATM   25  C9  UNL     1      -3.633   2.821   1.591  1.00  0.00     0.169 C 
HETATM   26  C10 UNL     1      -2.760   1.607   1.365  1.00  0.00     0.051 C 
ENDBRANCH   4  21
BRANCH   1  27
HETATM   27  C2  UNL     1      -3.018  -2.304   0.219  1.00  0.00     0.205 C 
BRANCH  27  28
HETATM   28  O1  UNL     1      -3.098  -2.996   1.415  1.00  0.00    -0.393 OA
HETATM   29  C1  UNL     1      -4.426  -3.290   1.706  1.00  0.00     0.201 C 
ENDBRANCH  27  28
ENDBRANCH   1  27
BRANCH   1  30
HETATM   30  O2  UNL     1      -0.918  -3.224  -0.174  1.00  0.00    -0.388 OA
ATOM     31  H2  UNL     1      -0.008  -3.028  -0.363  1.00  0.00     0.210 HD
ENDBRANCH   1  30
TORSDOF 7
