REMARK  4 active torsions:
REMARK  status: ('A' for Active; 'I' for Inactive)
REMARK       I    between atoms: C1_2  and  N1_3 
REMARK    1  A    between atoms: C1_2  and  C10_15 
REMARK    2  A    between atoms: N1_3  and  C2_5 
REMARK    3  A    between atoms: C12_20  and  S1_21 
REMARK    4  A    between atoms: S1_21  and  C13_22 
ROOT
HETATM    1  C10 UNL     1       2.341  -0.131   0.716  1.00  0.00     0.077 A 
HETATM    2  C11 UNL     1       3.184  -1.224   0.924  1.00  0.00     0.127 A 
HETATM    3  N2  UNL     1       4.395  -0.821   0.488  1.00  0.00    -0.303 N 
ATOM      4  H2  UNL     1       5.229  -1.408   0.509  1.00  0.00     0.186 HD
HETATM    5  N3  UNL     1       4.380   0.408   0.035  1.00  0.00    -0.247 N 
HETATM    6  C12 UNL     1       5.369   1.156  -0.455  1.00  0.00     0.120 A 
HETATM    7  C14 UNL     1       5.091   2.458  -0.847  1.00  0.00     0.069 A 
HETATM    8 CL1  UNL     1       6.389   3.451  -1.477  1.00  0.00    -0.081 Cl
HETATM    9  C15 UNL     1       3.805   2.990  -0.740  1.00  0.00     0.029 A 
HETATM   10  C16 UNL     1       2.833   2.171  -0.230  1.00  0.00     0.034 A 
HETATM   11  C17 UNL     1       3.107   0.867   0.164  1.00  0.00     0.074 A 
ENDROOT
BRANCH   1  12
HETATM   12  C1  UNL     1       0.916  -0.056   0.976  1.00  0.00     0.255 C 
HETATM   13  O1  UNL     1       0.544  -0.040   2.172  1.00  0.00    -0.268 OA
HETATM   14  N1  UNL     1      -0.009  -0.009  -0.088  1.00  0.00    -0.352 N 
ATOM     15  H1  UNL     1       0.309  -0.033  -1.057  1.00  0.00     0.163 HD
BRANCH  14  16
HETATM   16  C2  UNL     1      -1.435   0.075   0.231  1.00  0.00     0.085 C 
HETATM   17  C3  UNL     1      -1.891  -1.362   0.500  1.00  0.00     0.030 C 
HETATM   18  C4  UNL     1      -3.353  -1.419   0.885  1.00  0.00     0.070 C 
HETATM   19  C5  UNL     1      -4.150  -0.740  -0.226  1.00  0.00     0.164 C 
HETATM   20  C6  UNL     1      -3.236  -0.395  -1.377  1.00  0.00     0.070 C 
HETATM   21  O2  UNL     1      -4.682   0.459   0.229  1.00  0.00    -0.353 OA
HETATM   22  O3  UNL     1      -5.208  -1.573  -0.598  1.00  0.00    -0.353 OA
HETATM   23  C7  UNL     1      -2.259   0.672  -0.856  1.00  0.00     0.030 C 
HETATM   24  C8  UNL     1      -5.992   0.483  -0.261  1.00  0.00     0.197 C 
HETATM   25  C9  UNL     1      -6.356  -0.986  -0.009  1.00  0.00     0.197 C 
ENDBRANCH  14  16
ENDBRANCH   1  12
BRANCH   6  26
HETATM   26  S1  UNL     1       7.033   0.605  -0.681  1.00  0.00    -0.039 SA
BRANCH  26  27
HETATM   27  C13 UNL     1       7.334  -1.094  -0.203  1.00  0.00     0.422 C 
HETATM   28  F1  UNL     1       7.259  -1.312   1.174  1.00  0.00    -0.202 F 
HETATM   29  F2  UNL     1       8.581  -1.479  -0.617  1.00  0.00    -0.202 F 
ENDBRANCH  26  27
ENDBRANCH   6  26
TORSDOF 4
