REMARK  5 active torsions:
REMARK  status: ('A' for Active; 'I' for Inactive)
REMARK    1  A    between atoms: C7_7  and  C8_8 
REMARK    2  A    between atoms: C8_8  and  O1_9 
REMARK    3  A    between atoms: O1_9  and  C9_10 
REMARK       I    between atoms: C9_10  and  N1_12 
REMARK    4  A    between atoms: C14_23  and  O3_24 
REMARK    5  A    between atoms: O3_24  and  C15_25 
ROOT
HETATM    1  C9  UNL     1       1.837   0.545  -0.698  1.00  0.00     0.366 C 
HETATM    2  O2  UNL     1       1.666   0.746  -1.937  1.00  0.00    -0.238 OA
HETATM    3  N1  UNL     1       3.072   0.711  -0.047  1.00  0.00    -0.286 N 
ATOM      4  H1  UNL     1       3.149   1.478   0.621  1.00  0.00     0.172 HD
HETATM    5  C10 UNL     1       4.100  -0.015  -0.221  1.00  0.00     0.147 A 
HETATM    6  N2  UNL     1       4.059  -1.033  -1.082  1.00  0.00    -0.317 N 
ATOM      7  H2  UNL     1       3.203  -1.229  -1.601  1.00  0.00     0.169 HD
HETATM    8  C11 UNL     1       5.152  -1.802  -1.264  1.00  0.00     0.189 A 
HETATM    9  C12 UNL     1       5.064  -2.885  -2.197  1.00  0.00     0.137 C 
HETATM   10  N3  UNL     1       4.980  -3.773  -2.943  1.00  0.00    -0.188 NA
HETATM   11  N4  UNL     1       6.268  -1.518  -0.565  1.00  0.00    -0.341 N 
ATOM     12  H4  UNL     1       7.090  -2.105  -0.710  1.00  0.00     0.167 HD
HETATM   13  C13 UNL     1       6.358  -0.506   0.311  1.00  0.00     0.131 A 
HETATM   14  C14 UNL     1       5.237   0.296   0.509  1.00  0.00     0.137 A 
ENDROOT
BRANCH  14  15
HETATM   15  O3  UNL     1       5.259   1.360   1.399  1.00  0.00    -0.250 OA
BRANCH  15  16
HETATM   16  C15 UNL     1       5.629   2.674   1.041  1.00  0.00     0.530 C 
HETATM   17  F1  UNL     1       5.527   3.448   2.192  1.00  0.00    -0.144 F 
HETATM   18  F2  UNL     1       6.944   2.699   0.601  1.00  0.00    -0.144 F 
HETATM   19  F3  UNL     1       4.773   3.235   0.118  1.00  0.00    -0.144 F 
ENDBRANCH  15  16
ENDBRANCH  14  15
BRANCH   1  20
HETATM   20  O1  UNL     1       0.727   0.142   0.022  1.00  0.00    -0.303 OA
BRANCH  20  21
HETATM   21  C8  UNL     1      -0.546  -0.036  -0.616  1.00  0.00     0.185 C 
BRANCH  21  22
HETATM   22  C7  UNL     1      -1.547  -0.483   0.458  1.00  0.00     0.017 C 
HETATM   23  C6  UNL     1      -1.687   0.524   1.550  1.00  0.00     0.022 C 
HETATM   24  C5  UNL     1      -3.106   0.450   2.101  1.00  0.00     0.048 C 
HETATM   25  C4  UNL     1      -4.118   0.824   1.038  1.00  0.00     0.024 C 
HETATM   26  S1  UNL     1      -3.381  -1.324   2.453  1.00  0.00    -0.164 SA
HETATM   27  C2  UNL     1      -3.887   0.123  -0.268  1.00  0.00    -0.042 C 
HETATM   28  C1  UNL     1      -3.513   1.145  -1.297  1.00  0.00     0.015 C 
HETATM   29  C3  UNL     1      -5.157  -0.557  -0.774  1.00  0.00     0.015 C 
HETATM   30  C16 UNL     1      -2.842  -0.958  -0.133  1.00  0.00     0.009 C 
HETATM   31  C17 UNL     1      -3.364  -2.066   0.768  1.00  0.00     0.080 C 
ENDBRANCH  21  22
ENDBRANCH  20  21
ENDBRANCH   1  20
TORSDOF 5
