REMARK  6 active torsions:
REMARK  status: ('A' for Active; 'I' for Inactive)
REMARK    1  A    between atoms: N1_1  and  C1_5 
REMARK    2  A    between atoms: C1_5  and  C2_6 
REMARK    3  A    between atoms: C4_8  and  C5_9 
REMARK    4  A    between atoms: C7_13  and  O1_14 
REMARK    5  A    between atoms: O1_14  and  C8_15 
REMARK    6  A    between atoms: C8_15  and  C9_18 
ROOT
HETATM    1  C5  UNL     1       4.478  -0.874   0.136  1.00  0.00    -0.005 A 
HETATM    2  C6  UNL     1       3.768  -0.718  -1.032  1.00  0.00     0.102 A 
HETATM    3  N2  UNL     1       2.433  -0.735  -1.085  1.00  0.00    -0.343 N 
ATOM      4  H2  UNL     1       1.969  -0.613  -1.985  1.00  0.00     0.167 HD
HETATM    5  C7  UNL     1       1.667  -0.914   0.047  1.00  0.00     0.187 A 
HETATM    6  C19 UNL     1       2.375  -1.068   1.201  1.00  0.00     0.168 A 
HETATM    7  F3  UNL     1       1.737  -1.261   2.384  1.00  0.00    -0.202 F 
HETATM    8  C20 UNL     1       3.758  -1.055   1.287  1.00  0.00     0.060 A 
ENDROOT
BRANCH   5   9
HETATM    9  O1  UNL     1       0.332  -0.928  -0.036  1.00  0.00    -0.262 OA
BRANCH   9  10
HETATM   10  C8  UNL     1      -0.719  -1.054   0.814  1.00  0.00     0.386 C 
HETATM   11  F1  UNL     1      -0.772  -0.042   1.781  1.00  0.00    -0.172 F 
HETATM   12  F2  UNL     1      -0.809  -2.311   1.431  1.00  0.00    -0.172 F 
BRANCH  10  13
HETATM   13  C9  UNL     1      -2.077  -0.894   0.090  1.00  0.00     0.224 C 
HETATM   14  C10 UNL     1      -2.095   0.566  -0.362  1.00  0.00     0.042 C 
HETATM   15  C11 UNL     1      -3.207   0.842  -1.317  1.00  0.00     0.012 C 
HETATM   16  C12 UNL     1      -4.575   0.683  -0.691  1.00  0.00    -0.035 C 
HETATM   17  C13 UNL     1      -5.570   1.220  -1.709  1.00  0.00     0.036 C 
HETATM   18  C16 UNL     1      -4.724   1.488   0.551  1.00  0.00     0.036 C 
HETATM   19  C17 UNL     1      -4.846  -0.773  -0.533  1.00  0.00     0.036 C 
HETATM   20  C14 UNL     1      -6.905   1.541  -1.112  1.00  0.00     0.168 C 
HETATM   21  O2  UNL     1      -6.795   2.404  -0.013  1.00  0.00    -0.391 OA
HETATM   22  C15 UNL     1      -6.138   1.652   0.983  1.00  0.00     0.168 C 
HETATM   23  C18 UNL     1      -4.267  -1.435   0.644  1.00  0.00     0.169 C 
HETATM   24  O3  UNL     1      -3.034  -1.042   1.059  1.00  0.00    -0.377 OA
ENDBRANCH  10  13
ENDBRANCH   9  10
ENDBRANCH   5   9
BRANCH   1  25
HETATM   25  C4  UNL     1       5.934  -0.851   0.168  1.00  0.00     0.000 A 
HETATM   26  C3  UNL     1       6.825  -0.158  -0.618  1.00  0.00     0.048 A 
HETATM   27  C2  UNL     1       8.112  -0.482  -0.181  1.00  0.00     0.078 A 
HETATM   28  O4  UNL     1       7.947  -1.321   0.806  1.00  0.00    -0.324 OA
HETATM   29  C21 UNL     1       6.695  -1.574   1.056  1.00  0.00     0.154 A 
BRANCH  27  30
HETATM   30  C1  UNL     1       9.387   0.041  -0.750  1.00  0.00     0.294 C 
BRANCH  30  31
HETATM   31  N1  UNL     1       9.746   1.257  -0.026  1.00  0.00    -0.074 N 
ATOM     32  H13 UNL     1       8.999   1.952  -0.030  1.00  0.00     0.274 HD
ATOM     33  H12 UNL     1       9.795   1.114   0.983  1.00  0.00     0.274 HD
ATOM     34  H11 UNL     1      10.618   1.615  -0.415  1.00  0.00     0.274 HD
ENDBRANCH  30  31
ENDBRANCH  27  30
ENDBRANCH   1  25
TORSDOF 6
