REMARK  5 active torsions:
REMARK  status: ('A' for Active; 'I' for Inactive)
REMARK    1  A    between atoms: C8_8  and  C9_9 
REMARK    2  A    between atoms: N1_10  and  N2_12 
REMARK       I    between atoms: N2_12  and  C10_14 
REMARK    3  A    between atoms: C10_14  and  C11_16 
REMARK    4  A    between atoms: C12_22  and  C13_23 
REMARK    5  A    between atoms: C14_27  and  C16_29 
ROOT
HETATM    1  C9  UNL     1       1.180   0.022   0.064  1.00  0.00     0.086 C 
HETATM    2  N1  UNL     1       1.703   0.091  -1.117  1.00  0.00    -0.312 N 
ATOM      3  H1  UNL     1       1.076   0.048  -1.920  1.00  0.00     0.185 HD
ENDROOT
BRANCH   1   4
HETATM    4  C8  UNL     1      -0.306  -0.118   0.229  1.00  0.00     0.048 C 
HETATM    5  C6  UNL     1      -0.926   1.138  -0.249  1.00  0.00    -0.004 C 
HETATM    6  C5  UNL     1      -2.248   1.479   0.340  1.00  0.00    -0.006 C 
HETATM    7  C7  UNL     1       0.008   2.344  -0.073  1.00  0.00     0.011 C 
HETATM    8  C4  UNL     1      -2.273   2.255   1.595  1.00  0.00     0.006 C 
HETATM    9  C19 UNL     1      -2.996   0.210   0.774  1.00  0.00    -0.006 C 
HETATM   10  C3  UNL     1      -3.655   1.948   2.187  1.00  0.00     0.005 C 
HETATM   11  C2  UNL     1      -4.240   0.827   1.316  1.00  0.00    -0.014 C 
HETATM   12  C1  UNL     1      -5.137   1.391   0.247  1.00  0.00     0.010 C 
HETATM   13  C18 UNL     1      -3.122  -0.629  -0.439  1.00  0.00     0.007 C 
HETATM   14  C17 UNL     1      -2.144  -1.758  -0.331  1.00  0.00     0.021 C 
HETATM   15  C14 UNL     1      -0.703  -1.396  -0.387  1.00  0.00     0.053 C 
HETATM   16  C15 UNL     1       0.007  -2.473   0.475  1.00  0.00     0.027 C 
BRANCH  15  17
HETATM   17  C16 UNL     1      -0.228  -1.631  -1.772  1.00  0.00     0.182 C 
HETATM   18  O3  UNL     1       0.547  -2.571  -2.097  1.00  0.00    -0.647 OA
HETATM   19  O4  UNL     1      -0.623  -0.807  -2.813  1.00  0.00    -0.647 OA
ENDBRANCH  15  17
ENDBRANCH   1   4
BRANCH   2  20
HETATM   20  N2  UNL     1       3.051   0.219  -1.358  1.00  0.00    -0.265 N 
HETATM   21  C10 UNL     1       4.055  -0.558  -0.700  1.00  0.00     0.290 C 
HETATM   22  O1  UNL     1       3.701  -1.402   0.142  1.00  0.00    -0.264 OA
ATOM     23  H2  UNL     1       3.352   0.909  -2.047  1.00  0.00     0.190 HD
BRANCH  21  24
HETATM   24  C11 UNL     1       5.442  -0.346  -1.024  1.00  0.00     0.159 A 
HETATM   25  N3  UNL     1       5.928   0.529  -1.938  1.00  0.00    -0.234 N 
HETATM   26  O2  UNL     1       7.224   0.453  -1.974  1.00  0.00    -0.156 OA
ATOM     27  H3  UNL     1       5.361   1.153  -2.511  1.00  0.00     0.197 HD
HETATM   28  N4  UNL     1       7.611  -0.441  -1.116  1.00  0.00    -0.234 N 
HETATM   29  C12 UNL     1       6.525  -0.974  -0.492  1.00  0.00     0.174 A 
ATOM     30  H4  UNL     1       8.580  -0.704  -0.937  1.00  0.00     0.197 HD
BRANCH  29  31
HETATM   31  C13 UNL     1       6.598  -2.003   0.542  1.00  0.00     0.436 C 
HETATM   32  F1  UNL     1       6.077  -1.560   1.735  1.00  0.00    -0.164 F 
HETATM   33  F2  UNL     1       7.931  -2.339   0.813  1.00  0.00    -0.164 F 
HETATM   34  F3  UNL     1       5.997  -3.181   0.130  1.00  0.00    -0.164 F 
ENDBRANCH  29  31
ENDBRANCH  21  24
ENDBRANCH   2  20
TORSDOF 5
