REMARK  4 active torsions:
REMARK  status: ('A' for Active; 'I' for Inactive)
REMARK    1  A    between atoms: C2_2  and  S1_3 
REMARK    2  A    between atoms: C2_2  and  C7_13 
REMARK    3  A    between atoms: S1_3  and  C3_4 
REMARK       I    between atoms: C7_13  and  N3_15 
REMARK    4  A    between atoms: N3_15  and  C8_17 
ROOT
HETATM    1  C7  UNL     1       1.015  -1.226  -0.660  1.00  0.00     0.232 C 
HETATM    2  O1  UNL     1       1.307  -0.192  -1.301  1.00  0.00    -0.272 OA
HETATM    3  N3  UNL     1      -0.227  -1.508  -0.056  1.00  0.00    -0.351 N 
ATOM      4  H3  UNL     1      -0.352  -2.390   0.440  1.00  0.00     0.163 HD
ENDROOT
BRANCH   1   5
HETATM    5  C2  UNL     1       2.054  -2.303  -0.492  1.00  0.00     0.143 C 
HETATM    6  C1  UNL     1       2.218  -2.540   0.984  1.00  0.00     0.031 C 
BRANCH   5   7
HETATM    7  S1  UNL     1       3.564  -1.886  -1.329  1.00  0.00    -0.080 SA
BRANCH   7   8
HETATM    8  C3  UNL     1       4.296  -0.379  -0.788  1.00  0.00     0.144 A 
HETATM    9  N1  UNL     1       5.450   0.071  -1.365  1.00  0.00    -0.345 N 
HETATM   10  C4  UNL     1       5.996   1.211  -0.933  1.00  0.00     0.115 A 
ATOM     11  H1  UNL     1       5.890  -0.458  -2.118  1.00  0.00     0.167 HD
HETATM   12  C5  UNL     1       5.462   1.990   0.084  1.00  0.00     0.064 A 
HETATM   13 CL1  UNL     1       6.222   3.476   0.604  1.00  0.00    -0.081 Cl
HETATM   14  C6  UNL     1       4.301   1.516   0.648  1.00  0.00     0.115 A 
HETATM   15  N2  UNL     1       3.777   0.371   0.194  1.00  0.00    -0.345 N 
ATOM     16  H2  UNL     1       2.915   0.044   0.630  1.00  0.00     0.167 HD
ENDBRANCH   7   8
ENDBRANCH   5   7
ENDBRANCH   1   5
BRANCH   3  17
HETATM   17  C8  UNL     1      -1.321  -0.578  -0.125  1.00  0.00     0.034 C 
HETATM   18  C9  UNL     1      -0.915   0.698   0.546  1.00  0.00     0.035 C 
HETATM   19  C10 UNL     1      -2.035   1.712   0.433  1.00  0.00    -0.012 C 
HETATM   20  C11 UNL     1      -2.412   1.893  -1.004  1.00  0.00     0.009 C 
HETATM   21  C15 UNL     1      -3.197   1.139   1.247  1.00  0.00     0.009 C 
HETATM   22  C12 UNL     1      -2.875   0.603  -1.635  1.00  0.00    -0.012 C 
HETATM   23  C13 UNL     1      -4.072   0.122  -0.878  1.00  0.00     0.009 C 
HETATM   24  C17 UNL     1      -1.724  -0.406  -1.564  1.00  0.00     0.035 C 
HETATM   25  C14 UNL     1      -3.634  -0.126   0.550  1.00  0.00    -0.012 C 
HETATM   26  C16 UNL     1      -2.549  -1.145   0.590  1.00  0.00     0.035 C 
ENDBRANCH   3  17
TORSDOF 4
