REMARK  4 active torsions:
REMARK  status: ('A' for Active; 'I' for Inactive)
REMARK    1  A    between atoms: C5_9  and  C6_10 
REMARK    2  A    between atoms: C7_11  and  C8_12 
REMARK    3  A    between atoms: C8_12  and  S1_13 
REMARK    4  A    between atoms: S1_13  and  C9_14 
ROOT
HETATM    1  C6  UNL     1      -0.386  -0.031  -0.077  1.00  0.00    -0.098 C 
HETATM    2  C7  UNL     1       0.649   0.545   0.233  1.00  0.00    -0.096 C 
ENDROOT
BRANCH   2   3
HETATM    3  C8  UNL     1       1.821   1.306   0.653  1.00  0.00     0.176 C 
BRANCH   3   4
HETATM    4  S1  UNL     1       2.966   1.551  -0.675  1.00  0.00    -0.080 SA
BRANCH   4   5
HETATM    5  C9  UNL     1       4.479   0.628  -0.374  1.00  0.00     0.160 A 
HETATM    6  N2  UNL     1       5.519   0.627  -1.211  1.00  0.00    -0.331 N 
HETATM    7  C10 UNL     1       6.511  -0.072  -0.606  1.00  0.00     0.199 A 
ATOM      8  H2  UNL     1       5.560   1.068  -2.130  1.00  0.00     0.168 HD
HETATM    9  N3  UNL     1       6.051  -0.493   0.604  1.00  0.00    -0.294 N 
HETATM   10  N4  UNL     1       4.816  -0.071   0.749  1.00  0.00    -0.279 N 
ATOM     11  H3  UNL     1       6.577  -1.043   1.283  1.00  0.00     0.187 HD
ATOM     12  H4  UNL     1       4.216  -0.236   1.557  1.00  0.00     0.189 HD
ENDBRANCH   4   5
ENDBRANCH   3   4
ENDBRANCH   2   3
BRANCH   1  13
HETATM   13  C5  UNL     1      -1.695  -0.677  -0.413  1.00  0.00     0.102 C 
HETATM   14  C1  UNL     1      -2.443  -0.815   0.897  1.00  0.00     0.211 C 
HETATM   15  F1  UNL     1      -2.024   0.240   1.704  1.00  0.00    -0.246 F 
HETATM   16  C2  UNL     1      -3.913  -0.849   0.815  1.00  0.00     0.270 C 
HETATM   17  N1  UNL     1      -4.507  -0.019  -0.201  1.00  0.00    -0.072 N 
HETATM   18  C3  UNL     1      -3.837  -0.127  -1.472  1.00  0.00     0.233 C 
ATOM     19  H12 UNL     1      -5.504  -0.214  -0.296  1.00  0.00     0.277 HD
ATOM     20  H11 UNL     1      -4.557   0.953   0.104  1.00  0.00     0.277 HD
HETATM   21  C4  UNL     1      -2.416   0.308  -1.324  1.00  0.00     0.047 C 
ENDBRANCH   1  13
TORSDOF 4
