REMARK  4 active torsions:
REMARK  status: ('A' for Active; 'I' for Inactive)
REMARK    1  A    between atoms: C3_4  and  C4_5 
REMARK    2  A    between atoms: C4_5  and  O1_6 
REMARK    3  A    between atoms: C5_10  and  S1_11 
REMARK    4  A    between atoms: S1_11  and  C6_12 
ROOT
HETATM    1  C1  UNL     1      -0.748  -1.597   2.104  1.00  0.00     0.151 C 
HETATM    2  N1  UNL     1      -0.235  -0.887   0.950  1.00  0.00    -0.364 N 
HETATM    3  C2  UNL     1       1.181  -0.880   0.601  1.00  0.00     0.151 C 
HETATM    4  C3  UNL     1       1.150  -0.400  -0.810  1.00  0.00     0.125 C 
HETATM    5  N2  UNL     1      -0.141   0.152  -0.992  1.00  0.00    -0.362 N 
ATOM      6  H2  UNL     1      -0.414   0.699  -1.809  1.00  0.00     0.162 HD
HETATM    7  C5  UNL     1      -0.927  -0.112  -0.016  1.00  0.00     0.139 C 
ENDROOT
BRANCH   4   8
HETATM    8  C4  UNL     1       2.270   0.600  -1.014  1.00  0.00     0.191 C 
BRANCH   8   9
HETATM    9  O1  UNL     1       2.199   1.662  -0.148  1.00  0.00    -0.399 OA
ATOM     10  H1  UNL     1       2.901   2.289  -0.276  1.00  0.00     0.209 HD
ENDBRANCH   8   9
ENDBRANCH   4   8
BRANCH   7  11
HETATM   11  S1  UNL     1      -2.624   0.395   0.147  1.00  0.00    -0.084 SA
BRANCH  11  12
HETATM   12  C6  UNL     1      -3.160   1.376  -1.279  1.00  0.00     0.167 C 
HETATM   13 BR1  UNL     1      -2.164   3.035  -1.259  1.00  0.00    -0.085 Br
ENDBRANCH  11  12
ENDBRANCH   7  11
TORSDOF 4
