REMARK  4 active torsions:
REMARK  status: ('A' for Active; 'I' for Inactive)
REMARK    1  A    between atoms: C6_7  and  O2_8 
REMARK    2  A    between atoms: C6_7  and  C7_10 
REMARK    3  A    between atoms: C7_10  and  C8_11 
REMARK    4  A    between atoms: C10_13  and  O3_14 
ROOT
HETATM    1  C1  UNL     1      -2.845   2.202  -0.658  1.00  0.00     0.042 C 
HETATM    2  C2  UNL     1      -2.067   1.396   0.343  1.00  0.00     0.156 C 
HETATM    3  O1  UNL     1      -2.738   0.348   0.941  1.00  0.00    -0.370 OA
HETATM    4  C3  UNL     1      -1.981  -0.579   0.223  1.00  0.00     0.087 C 
HETATM    5  C4  UNL     1      -1.435  -1.685   1.065  1.00  0.00     0.049 C 
HETATM    6  C5  UNL     1      -2.865  -1.172  -0.881  1.00  0.00     0.049 C 
HETATM    7  C6  UNL     1      -1.031   0.470  -0.239  1.00  0.00     0.116 C 
ENDROOT
BRANCH   7   8
HETATM    8  O2  UNL     1      -0.895   0.590  -1.622  1.00  0.00    -0.384 OA
ATOM      9  H2  UNL     1      -0.242   0.006  -1.989  1.00  0.00     0.210 HD
ENDBRANCH   7   8
BRANCH   7  10
HETATM   10  C7  UNL     1       0.266   0.600   0.474  1.00  0.00     0.075 C 
BRANCH  10  11
HETATM   11  C8  UNL     1       1.348  -0.303  -0.060  1.00  0.00     0.130 C 
HETATM   12  C9  UNL     1       2.626  -0.099   0.727  1.00  0.00     0.069 C 
HETATM   13  C10 UNL     1       3.671  -0.057  -0.395  1.00  0.00     0.180 C 
HETATM   14  C11 UNL     1       2.883  -0.724  -1.519  1.00  0.00     0.336 C 
HETATM   15  F1  UNL     1       3.449  -0.522  -2.743  1.00  0.00    -0.217 F 
HETATM   16  O4  UNL     1       1.645  -0.077  -1.381  1.00  0.00    -0.349 OA
BRANCH  13  17
HETATM   17  O3  UNL     1       4.789  -0.785  -0.037  1.00  0.00    -0.390 OA
ATOM     18  H3  UNL     1       5.436  -0.759  -0.732  1.00  0.00     0.210 HD
ENDBRANCH  13  17
ENDBRANCH  10  11
ENDBRANCH   7  10
TORSDOF 4
