REMARK  8 active torsions:
REMARK  status: ('A' for Active; 'I' for Inactive)
REMARK    1  A    between atoms: C2_2  and  O1_3 
REMARK    2  A    between atoms: C2_2  and  C3_5 
REMARK    3  A    between atoms: C3_5  and  C4_6 
REMARK    4  A    between atoms: C4_6  and  C5_7 
REMARK    5  A    between atoms: C10_12  and  C11_13 
REMARK    6  A    between atoms: C11_13  and  C12_14 
REMARK    7  A    between atoms: C12_14  and  C13_15 
REMARK    8  A    between atoms: C13_15  and  N1_16 
ROOT
HETATM    1  C5  UNL     1       1.240   0.167  -1.067  1.00  0.00     0.016 C 
HETATM    2  C6  UNL     1       0.731  -0.691  -2.197  1.00  0.00     0.042 C 
HETATM    3  C7  UNL     1      -0.708  -0.927  -1.808  1.00  0.00     0.224 C 
HETATM    4  C8  UNL     1      -0.923  -2.262  -1.151  1.00  0.00     0.038 C 
HETATM    5  C9  UNL     1      -2.095  -2.017  -0.226  1.00  0.00     0.038 C 
HETATM    6  C10 UNL     1      -2.150  -0.533  -0.069  1.00  0.00     0.223 C 
HETATM    7  N2  UNL     1      -1.034   0.028  -0.777  1.00  0.00     0.098 N 
HETATM    8  C14 UNL     1       0.181   0.068   0.013  1.00  0.00     0.278 C 
ENDROOT
BRANCH   6   9
HETATM    9  C11 UNL     1      -3.418   0.008  -0.716  1.00  0.00     0.037 C 
BRANCH   9  10
HETATM   10  C12 UNL     1      -3.497   1.513  -0.570  1.00  0.00     0.029 C 
BRANCH  10  11
HETATM   11  C13 UNL     1      -3.508   1.932   0.887  1.00  0.00     0.229 C 
BRANCH  11  12
HETATM   12  N1  UNL     1      -4.640   1.373   1.598  1.00  0.00    -0.079 N 
ATOM     13  H13 UNL     1      -5.520   1.606   1.138  1.00  0.00     0.274 HD
ATOM     14  H12 UNL     1      -4.674   0.358   1.503  1.00  0.00     0.274 HD
ATOM     15  H11 UNL     1      -4.647   1.655   2.578  1.00  0.00     0.274 HD
ENDBRANCH  11  12
ENDBRANCH  10  11
ENDBRANCH   9  10
ENDBRANCH   6   9
BRANCH   1  16
HETATM   16  C4  UNL     1       2.586  -0.325  -0.578  1.00  0.00     0.009 C 
BRANCH  16  17
HETATM   17  C3  UNL     1       3.082   0.547   0.556  1.00  0.00     0.032 C 
BRANCH  17  18
HETATM   18  C2  UNL     1       4.428   0.025   1.018  1.00  0.00     0.114 C 
HETATM   19  C1  UNL     1       4.907   0.922   2.163  1.00  0.00     0.039 C 
BRANCH  18  20
HETATM   20  O1  UNL     1       5.387   0.124   0.022  1.00  0.00    -0.396 OA
ATOM     21  H1  UNL     1       5.090  -0.432  -0.688  1.00  0.00     0.210 HD
ENDBRANCH  18  20
ENDBRANCH  17  18
ENDBRANCH  16  17
ENDBRANCH   1  16
TORSDOF 8
