REMARK  6 active torsions:
REMARK  status: ('A' for Active; 'I' for Inactive)
REMARK    1  A    between atoms: N1_1  and  C1_5 
REMARK    2  A    between atoms: C1_5  and  C2_6 
REMARK    3  A    between atoms: C2_6  and  C3_7 
REMARK    4  A    between atoms: C3_7  and  N2_8 
REMARK    5  A    between atoms: N2_8  and  C4_10 
REMARK    6  A    between atoms: C4_10  and  C5_11 
ROOT
HETATM    1  C5  UNL     1       0.007  -0.108   0.286  1.00  0.00     0.041 C 
HETATM    2  C6  UNL     1      -0.118  -1.590   0.223  1.00  0.00     0.011 C 
HETATM    3  C7  UNL     1      -1.373  -2.108  -0.396  1.00  0.00     0.003 C 
HETATM    4  C8  UNL     1      -2.584  -1.996   0.481  1.00  0.00     0.025 C 
HETATM    5  C9  UNL     1      -3.154  -0.630   0.627  1.00  0.00     0.083 C 
HETATM    6  C10 UNL     1      -4.251  -0.388  -0.410  1.00  0.00     0.025 C 
HETATM    7  C11 UNL     1      -4.292   1.002  -0.917  1.00  0.00     0.004 C 
HETATM    8  C12 UNL     1      -3.845   2.063   0.006  1.00  0.00     0.020 C 
HETATM    9  C13 UNL     1      -2.924   1.641   1.092  1.00  0.00     0.122 C 
HETATM   10  N3  UNL     1      -2.237   0.441   0.708  1.00  0.00    -0.388 N 
HETATM   11  C14 UNL     1      -1.234   0.576  -0.250  1.00  0.00     0.065 C 
ENDROOT
BRANCH   1  12
HETATM   12  C4  UNL     1       1.268   0.414  -0.359  1.00  0.00     0.123 C 
BRANCH  12  13
HETATM   13  N2  UNL     1       2.391  -0.154   0.320  1.00  0.00    -0.420 N 
ATOM     14  H2  UNL     1       2.286  -0.799   1.103  1.00  0.00     0.153 HD
BRANCH  13  15
HETATM   15  C3  UNL     1       3.666   0.244  -0.174  1.00  0.00     0.115 C 
BRANCH  15  16
HETATM   16  C2  UNL     1       4.727  -0.456   0.665  1.00  0.00     0.046 C 
BRANCH  16  17
HETATM   17  C1  UNL     1       6.069  -0.042   0.150  1.00  0.00     0.231 C 
BRANCH  17  18
HETATM   18  N1  UNL     1       6.229   1.378   0.253  1.00  0.00    -0.079 N 
ATOM     19  H13 UNL     1       5.473   1.880  -0.212  1.00  0.00     0.274 HD
ATOM     20  H12 UNL     1       6.069   1.710   1.204  1.00  0.00     0.274 HD
ATOM     21  H11 UNL     1       7.144   1.660  -0.098  1.00  0.00     0.274 HD
ENDBRANCH  17  18
ENDBRANCH  16  17
ENDBRANCH  15  16
ENDBRANCH  13  15
ENDBRANCH  12  13
ENDBRANCH   1  12
TORSDOF 6
