REMARK  7 active torsions:
REMARK  status: ('A' for Active; 'I' for Inactive)
REMARK    1  A    between atoms: C2_2  and  C4_4 
REMARK    2  A    between atoms: C4_4  and  C5_5 
REMARK    3  A    between atoms: C7_8  and  C8_9 
REMARK    4  A    between atoms: C8_9  and  O2_10 
REMARK    5  A    between atoms: C8_9  and  C9_12 
REMARK    6  A    between atoms: C10_13  and  C11_14 
REMARK    7  A    between atoms: C13_16  and  O3_17 
ROOT
HETATM    1  C8  UNL     1       0.039  -1.204   0.587  1.00  0.00     0.149 C 
ENDROOT
BRANCH   1   2
HETATM    2  C7  UNL     1      -1.018  -0.147   0.637  1.00  0.00     0.071 C 
HETATM    3  C5  UNL     1      -1.587   0.328  -0.647  1.00  0.00     0.130 C 
HETATM    4  O1  UNL     1      -1.625   1.623  -0.115  1.00  0.00    -0.385 OA
HETATM    5  C6  UNL     1      -0.471   1.263   0.613  1.00  0.00     0.178 C 
BRANCH   3   6
HETATM    6  C4  UNL     1      -2.970  -0.127  -1.012  1.00  0.00     0.036 C 
BRANCH   6   7
HETATM    7  C2  UNL     1      -3.919  -0.161   0.137  1.00  0.00    -0.020 C 
HETATM    8  C1  UNL     1      -4.121   1.182   0.802  1.00  0.00     0.009 C 
HETATM    9  C3  UNL     1      -5.287  -0.562  -0.427  1.00  0.00     0.009 C 
ENDBRANCH   6   7
ENDBRANCH   3   6
ENDBRANCH   1   2
BRANCH   1  10
HETATM   10  O2  UNL     1      -0.468  -2.366  -0.032  1.00  0.00    -0.391 OA
ATOM     11  H2  UNL     1       0.203  -3.037  -0.064  1.00  0.00     0.210 HD
ENDBRANCH   1  10
BRANCH   1  12
HETATM   12  C9  UNL     1       1.271  -0.805  -0.098  1.00  0.00     0.001 C 
HETATM   13  C10 UNL     1       2.444  -1.084   0.420  1.00  0.00    -0.023 C 
BRANCH  13  14
HETATM   14  C11 UNL     1       3.732  -0.712  -0.215  1.00  0.00     0.013 C 
HETATM   15  C12 UNL     1       3.661   0.398  -1.221  1.00  0.00     0.040 C 
HETATM   16  C13 UNL     1       4.984   0.895  -0.667  1.00  0.00     0.119 C 
HETATM   17  C14 UNL     1       4.612   0.202   0.635  1.00  0.00     0.040 C 
BRANCH  16  18
HETATM   18  O3  UNL     1       6.097   0.312  -1.304  1.00  0.00    -0.396 OA
ATOM     19  H3  UNL     1       6.925   0.623  -0.957  1.00  0.00     0.210 HD
ENDBRANCH  16  18
ENDBRANCH  13  14
ENDBRANCH   1  12
TORSDOF 7
