REMARK  5 active torsions:
REMARK  status: ('A' for Active; 'I' for Inactive)
REMARK    1  A    between atoms: N1_5  and  C5_6 
REMARK    2  A    between atoms: C5_6  and  C6_7 
REMARK    3  A    between atoms: C6_7  and  N2_8 
REMARK    4  A    between atoms: N2_8  and  C7_11 
REMARK    5  A    between atoms: C7_11  and  C8_12 
ROOT
HETATM    1  N2  UNL     1       1.267  -0.536   0.112  1.00  0.00    -0.073 N 
ATOM      2  H21 UNL     1       1.440  -0.928   1.037  1.00  0.00     0.277 HD
ATOM      3  H22 UNL     1       1.491   0.435   0.331  1.00  0.00     0.277 HD
ENDROOT
BRANCH   1   4
HETATM    4  C6  UNL     1      -0.141  -0.714  -0.334  1.00  0.00     0.262 C 
BRANCH   4   5
HETATM    5  C5  UNL     1      -0.985  -0.038   0.702  1.00  0.00     0.299 C 
BRANCH   5   6
HETATM    6  N1  UNL     1      -2.399  -0.087   0.382  1.00  0.00     0.090 N 
HETATM    7  C4  UNL     1      -3.194   0.604   1.372  1.00  0.00     0.272 C 
HETATM    8  C3  UNL     1      -4.473  -0.182   1.556  1.00  0.00     0.030 C 
HETATM    9  C2  UNL     1      -5.588   0.388   0.720  1.00  0.00     0.002 C 
HETATM   10  C1  UNL     1      -5.114   0.900  -0.626  1.00  0.00     0.002 C 
HETATM   11  C14 UNL     1      -4.121  -0.027  -1.262  1.00  0.00     0.030 C 
HETATM   12  C13 UNL     1      -2.683   0.392  -0.931  1.00  0.00     0.272 C 
ENDBRANCH   5   6
ENDBRANCH   4   5
ENDBRANCH   1   4
BRANCH   1  13
HETATM   13  C7  UNL     1       2.141  -1.100  -0.912  1.00  0.00     0.237 C 
BRANCH  13  14
HETATM   14  C8  UNL     1       3.540  -0.686  -0.609  1.00  0.00     0.014 C 
HETATM   15  C9  UNL     1       4.065  -1.146   0.718  1.00  0.00     0.034 C 
HETATM   16  C10 UNL     1       5.094  -0.170   1.265  1.00  0.00     0.232 C 
HETATM   17  N3  UNL     1       5.879   0.482   0.266  1.00  0.00    -0.075 N 
HETATM   18  C11 UNL     1       5.119   1.160  -0.746  1.00  0.00     0.232 C 
ATOM     19  H32 UNL     1       6.542   1.124   0.700  1.00  0.00     0.277 HD
ATOM     20  H31 UNL     1       6.528  -0.179  -0.162  1.00  0.00     0.277 HD
HETATM   21  C12 UNL     1       3.655   0.843  -0.591  1.00  0.00     0.034 C 
ENDBRANCH  13  14
ENDBRANCH   1  13
TORSDOF 5
