REMARK  5 active torsions:
REMARK  status: ('A' for Active; 'I' for Inactive)
REMARK    1  A    between atoms: C2_2  and  C3_3 
REMARK    2  A    between atoms: C3_3  and  N1_4 
REMARK    3  A    between atoms: N1_4  and  C4_6 
REMARK    4  A    between atoms: C6_12  and  N4_13 
REMARK    5  A    between atoms: N4_13  and  C7_15 
ROOT
HETATM    1  C4  UNL     1      -1.861  -0.504  -0.513  1.00  0.00     0.693 A 
HETATM    2  N2  UNL     1      -1.654  -0.850   0.773  1.00  0.00    -0.187 N 
ATOM      3  H2  UNL     1      -2.444  -1.182   1.326  1.00  0.00     0.185 HD
HETATM    4  C5  UNL     1      -0.435  -0.773   1.359  1.00  0.00     0.215 A 
HETATM    5  N3  UNL     1       0.606  -0.339   0.639  1.00  0.00    -0.187 N 
ATOM      6  H3  UNL     1       1.529  -0.277   1.068  1.00  0.00     0.185 HD
HETATM    7  C6  UNL     1       0.441   0.016  -0.647  1.00  0.00     0.698 A 
HETATM    8  N5  UNL     1      -0.786  -0.072  -1.200  1.00  0.00    -0.022 N 
ATOM      9  H5  UNL     1      -0.904   0.199  -2.176  1.00  0.00     0.203 HD
ENDROOT
BRANCH   7  10
HETATM   10  N4  UNL     1       1.469   0.427  -1.300  1.00  0.00    -0.191 N 
ATOM     11  H4  UNL     1       1.365   0.700  -2.277  1.00  0.00     0.184 HD
BRANCH  10  12
HETATM   12  C7  UNL     1       2.746   0.508  -0.687  1.00  0.00     0.049 A 
HETATM   13  C8  UNL     1       3.135   1.602   0.059  1.00  0.00     0.030 A 
HETATM   14  C9  UNL     1       4.378   1.685   0.658  1.00  0.00     0.002 A 
HETATM   15  C10 UNL     1       5.293   0.661   0.532  1.00  0.00     0.000 A 
HETATM   16  C11 UNL     1       4.915  -0.437  -0.211  1.00  0.00     0.002 A 
HETATM   17  C12 UNL     1       3.675  -0.527  -0.813  1.00  0.00     0.030 A 
ENDBRANCH  10  12
ENDBRANCH   7  10
BRANCH   1  18
HETATM   18  N1  UNL     1      -3.028  -0.581  -1.061  1.00  0.00    -0.222 N 
ATOM     19  H1  UNL     1      -3.165  -0.314  -2.036  1.00  0.00     0.178 HD
BRANCH  18  20
HETATM   20  C3  UNL     1      -4.138  -1.055  -0.260  1.00  0.00     0.164 C 
BRANCH  20  21
HETATM   21  C2  UNL     1      -5.342  -0.215  -0.465  1.00  0.00    -0.017 C 
HETATM   22  C1  UNL     1      -5.914   0.441   0.540  1.00  0.00     0.008 C 
ENDBRANCH  20  21
ENDBRANCH  18  20
ENDBRANCH   1  18
TORSDOF 5
