REMARK  4 active torsions:
REMARK  status: ('A' for Active; 'I' for Inactive)
REMARK    1  A    between atoms: C5_7  and  N2_8 
REMARK    2  A    between atoms: N2_8  and  C6_10 
REMARK    3  A    between atoms: C6_10  and  C7_11 
REMARK    4  A    between atoms: C7_11  and  C8_12 
ROOT
HETATM    1  N2  UNL     1       0.754  -1.503   0.481  1.00  0.00    -0.376 N 
ATOM      2  H2  UNL     1       1.116  -2.416   0.757  1.00  0.00     0.161 HD
ENDROOT
BRANCH   1   3
HETATM    3  C5  UNL     1      -0.511  -1.309   0.438  1.00  0.00     0.101 A 
HETATM    4  N1  UNL     1      -0.983  -0.105   0.074  1.00  0.00    -0.342 N 
HETATM    5  C4  UNL     1      -2.291   0.180   0.003  1.00  0.00     0.043 A 
ATOM      6  H1  UNL     1      -0.313   0.628  -0.160  1.00  0.00     0.167 HD
HETATM    7  C3  UNL     1      -2.770   1.417  -0.371  1.00  0.00     0.030 A 
HETATM    8  C12 UNL     1      -3.179  -0.818   0.322  1.00  0.00    -0.009 A 
HETATM    9  C2  UNL     1      -4.153   1.650  -0.425  1.00  0.00     0.002 A 
HETATM   10  C1  UNL     1      -5.047   0.654  -0.106  1.00  0.00     0.001 A 
HETATM   11  C13 UNL     1      -4.538  -0.560   0.260  1.00  0.00     0.013 A 
HETATM   12  C11 UNL     1      -2.763  -2.088   0.707  1.00  0.00     0.017 A 
HETATM   13  C10 UNL     1      -1.407  -2.331   0.764  1.00  0.00     0.049 A 
ENDBRANCH   1   3
BRANCH   1  14
HETATM   14  C6  UNL     1       1.665  -0.452   0.146  1.00  0.00     0.128 C 
BRANCH  14  15
HETATM   15  C7  UNL     1       3.076  -0.884   0.486  1.00  0.00     0.097 C 
BRANCH  15  16
HETATM   16  C8  UNL     1       4.008   0.200   0.138  1.00  0.00     0.098 A 
HETATM   17  N3  UNL     1       4.614   0.359  -1.043  1.00  0.00    -0.340 N 
HETATM   18  C9  UNL     1       5.392   1.474  -0.968  1.00  0.00     0.198 A 
ATOM     19  H3  UNL     1       4.512  -0.248  -1.857  1.00  0.00     0.168 HD
HETATM   20  N4  UNL     1       5.245   1.978   0.264  1.00  0.00    -0.295 N 
HETATM   21  N5  UNL     1       4.408   1.203   0.926  1.00  0.00    -0.288 N 
ATOM     22  H4  UNL     1       5.701   2.815   0.627  1.00  0.00     0.187 HD
ATOM     23  H5  UNL     1       4.111   1.347   1.891  1.00  0.00     0.188 HD
ENDBRANCH  15  16
ENDBRANCH  14  15
ENDBRANCH   1  14
TORSDOF 4
