REMARK  4 active torsions:
REMARK  status: ('A' for Active; 'I' for Inactive)
REMARK    1  A    between atoms: C6_7  and  C7_8 
REMARK    2  A    between atoms: C7_8  and  N2_9 
REMARK    3  A    between atoms: N2_9  and  C8_11 
REMARK    4  A    between atoms: C10_13  and  C11_14 
ROOT
HETATM    1  N1  UNL     1      -5.905   2.245   1.003  1.00  0.00    -0.191 NA
HETATM    2  C1  UNL     1      -4.990   1.565   0.804  1.00  0.00     0.099 C 
HETATM    3  C2  UNL     1      -3.851   0.709   0.566  1.00  0.00     0.045 A 
HETATM    4  C3  UNL     1      -3.865  -0.629   0.954  1.00  0.00     0.022 A 
HETATM    5  C4  UNL     1      -2.781  -1.452   0.729  1.00  0.00     0.002 A 
HETATM    6  C5  UNL     1      -1.641  -0.975   0.111  1.00  0.00     0.009 A 
HETATM    7  C6  UNL     1      -1.606   0.338  -0.278  1.00  0.00    -0.039 A 
HETATM    8  C12 UNL     1      -2.702   1.151  -0.046  1.00  0.00     0.031 A 
ENDROOT
BRANCH   7   9
HETATM    9  C7  UNL     1      -0.405   0.915  -0.952  1.00  0.00     0.160 C 
BRANCH   9  10
HETATM   10  N2  UNL     1       0.591  -0.101  -1.084  1.00  0.00    -0.371 N 
ATOM     11  H2  UNL     1       0.378  -0.913  -1.663  1.00  0.00     0.161 HD
BRANCH  10  12
HETATM   12  C8  UNL     1       1.745  -0.047  -0.510  1.00  0.00     0.118 A 
HETATM   13  C9  UNL     1       2.731  -1.006  -0.612  1.00  0.00     0.083 A 
HETATM   14  C10 UNL     1       3.839  -0.607   0.144  1.00  0.00     0.089 A 
HETATM   15  N3  UNL     1       3.477   0.576   0.672  1.00  0.00    -0.296 N 
HETATM   16  N4  UNL     1       2.258   0.902   0.292  1.00  0.00    -0.285 N 
ATOM     17  H3  UNL     1       4.065   1.143   1.283  1.00  0.00     0.187 HD
ATOM     18  H4  UNL     1       1.772   1.755   0.568  1.00  0.00     0.188 HD
BRANCH  14  19
HETATM   19  C11 UNL     1       5.090  -1.334   0.303  1.00  0.00     0.289 C 
HETATM   20  O1  UNL     1       5.284  -2.436  -0.257  1.00  0.00    -0.300 OA
ENDBRANCH  14  19
ENDBRANCH  10  12
ENDBRANCH   9  10
ENDBRANCH   7   9
TORSDOF 4
