REMARK  3 active torsions:
REMARK  status: ('A' for Active; 'I' for Inactive)
REMARK    1  A    between atoms: N3_4  and  N4_6 
REMARK    2  A    between atoms: C2_8  and  C3_9 
REMARK    3  A    between atoms: C2_8  and  C9_15 
ROOT
HETATM    1  N4  UNL     1       0.484   0.154   1.037  1.00  0.00    -0.297 N 
ATOM      2  H4  UNL     1       1.130   0.922   1.220  1.00  0.00     0.187 HD
HETATM    3  C2  UNL     1      -0.097   0.303  -0.072  1.00  0.00     0.070 C 
ENDROOT
BRANCH   3   4
HETATM    4  C3  UNL     1      -1.057  -0.669  -0.537  1.00  0.00    -0.007 A 
HETATM    5  C4  UNL     1      -1.051  -1.999  -0.119  1.00  0.00     0.014 A 
HETATM    6  C5  UNL     1      -2.021  -2.925  -0.464  1.00  0.00     0.001 A 
HETATM    7  C6  UNL     1      -3.059  -2.529  -1.268  1.00  0.00     0.000 A 
HETATM    8  C7  UNL     1      -3.134  -1.236  -1.720  1.00  0.00     0.001 A 
HETATM    9  C8  UNL     1      -2.149  -0.355  -1.349  1.00  0.00     0.014 A 
ENDBRANCH   3   4
BRANCH   3  10
HETATM   10  C9  UNL     1       0.277   1.477  -0.834  1.00  0.00     0.008 A 
HETATM   11  C10 UNL     1       0.965   2.492  -0.153  1.00  0.00     0.016 A 
HETATM   12  C11 UNL     1       1.403   3.592  -0.845  1.00  0.00     0.018 A 
HETATM   13  C12 UNL     1       1.205   3.764  -2.198  1.00  0.00     0.087 A 
HETATM   14  N5  UNL     1       0.554   2.796  -2.831  1.00  0.00    -0.374 N 
HETATM   15  C13 UNL     1       0.107   1.691  -2.170  1.00  0.00     0.101 A 
ATOM     16  H5  UNL     1       0.385   2.881  -3.833  1.00  0.00     0.164 HD
ENDBRANCH   3  10
BRANCH   1  17
HETATM   17  N3  UNL     1       0.489  -0.723   2.033  1.00  0.00    -0.276 N 
HETATM   18  C1  UNL     1       1.553  -1.037   2.708  1.00  0.00     0.215 C 
HETATM   19  N1  UNL     1       1.429  -1.985   3.745  1.00  0.00    -0.065 NA
HETATM   20  N2  UNL     1       2.763  -0.416   2.366  1.00  0.00    -0.065 NA
ATOM     21  H3  UNL     1      -0.391  -1.175   2.282  1.00  0.00     0.189 HD
ENDBRANCH   1  17
TORSDOF 3
