REMARK  2 active torsions:
REMARK  status: ('A' for Active; 'I' for Inactive)
REMARK    1  A    between atoms: N2_3  and  C2_5 
REMARK    2  A    between atoms: C5_8  and  C6_9 
ROOT
HETATM    1  N1  UNL     1       5.668   0.527  -1.377  1.00  0.00    -0.172 NA
HETATM    2  C1  UNL     1       4.921  -0.168  -0.813  1.00  0.00     0.183 C 
HETATM    3  N2  UNL     1       4.008  -0.996  -0.131  1.00  0.00    -0.279 N 
ATOM      4  H2  UNL     1       4.354  -1.832   0.340  1.00  0.00     0.179 HD
ENDROOT
BRANCH   3   5
HETATM    5  C2  UNL     1       2.752  -0.730  -0.085  1.00  0.00     0.113 A 
HETATM    6  C3  UNL     1       1.825  -1.505   0.565  1.00  0.00     0.050 A 
HETATM    7  C4  UNL     1       0.486  -1.198   0.599  1.00  0.00     0.017 A 
HETATM    8  C5  UNL     1       0.054  -0.068  -0.045  1.00  0.00    -0.009 A 
HETATM    9  C11 UNL     1       0.998   0.712  -0.701  1.00  0.00     0.102 A 
HETATM   10  N4  UNL     1       2.300   0.378  -0.712  1.00  0.00    -0.351 N 
ATOM     11  H4  UNL     1       2.963   0.976  -1.206  1.00  0.00     0.166 HD
BRANCH   8  12
HETATM   12  C6  UNL     1      -1.353   0.305  -0.043  1.00  0.00    -0.009 A 
HETATM   13  C7  UNL     1      -2.302  -0.688  -0.015  1.00  0.00     0.015 A 
HETATM   14  C8  UNL     1      -3.637  -0.324  -0.012  1.00  0.00     0.018 A 
HETATM   15  C9  UNL     1      -3.984   1.004  -0.037  1.00  0.00     0.087 A 
HETATM   16  N3  UNL     1      -3.059   1.972  -0.065  1.00  0.00    -0.374 N 
HETATM   17  C10 UNL     1      -1.741   1.627  -0.067  1.00  0.00     0.100 A 
ATOM     18  H3  UNL     1      -3.337   2.953  -0.085  1.00  0.00     0.164 HD
ENDBRANCH   8  12
ENDBRANCH   3   5
TORSDOF 2
