REMARK  3 active torsions:
REMARK  status: ('A' for Active; 'I' for Inactive)
REMARK    1  A    between atoms: C2_2  and  O1_4 
REMARK    2  A    between atoms: C2_2  and  C4_6 
REMARK    3  A    between atoms: C12_15  and  N1_16 
ROOT
HETATM    1  C4  UNL     1      -1.380   0.343  -0.186  1.00  0.00     0.017 C 
HETATM    2  C5  UNL     1      -0.514  -0.637  -0.128  1.00  0.00    -0.051 C 
HETATM    3  C6  UNL     1      -1.047  -2.004   0.030  1.00  0.00     0.049 C 
HETATM    4  C7  UNL     1      -0.119  -3.037   0.546  1.00  0.00     0.083 C 
HETATM    5  S1  UNL     1       1.340  -2.370   1.385  1.00  0.00    -0.133 SA
HETATM    6  C8  UNL     1       1.856  -0.994   0.383  1.00  0.00    -0.013 C 
HETATM    7  C9  UNL     1       0.899  -0.318  -0.231  1.00  0.00    -0.039 C 
HETATM    8  C10 UNL     1       1.394   0.832  -1.069  1.00  0.00     0.042 C 
HETATM    9  C11 UNL     1       2.223   1.689  -0.137  1.00  0.00     0.037 C 
HETATM   10  C12 UNL     1       3.354   0.924   0.483  1.00  0.00     0.188 C 
HETATM   11  C13 UNL     1       3.249  -0.579   0.199  1.00  0.00     0.079 C 
ENDROOT
BRANCH   1  12
HETATM   12  C2  UNL     1      -2.846   0.271  -0.114  1.00  0.00     0.069 C 
HETATM   13  C1  UNL     1      -3.422   0.080   1.230  1.00  0.00     0.050 C 
HETATM   14  C3  UNL     1      -3.468   1.542  -0.724  1.00  0.00     0.050 C 
BRANCH  12  15
HETATM   15  O1  UNL     1      -3.271  -0.763  -0.955  1.00  0.00    -0.387 OA
ATOM     16  H1  UNL     1      -2.900  -0.640  -1.821  1.00  0.00     0.211 HD
ENDBRANCH  12  15
ENDBRANCH   1  12
BRANCH  10  17
HETATM   17  N1  UNL     1       4.654   1.411   0.022  1.00  0.00    -0.075 N 
ATOM     18  H13 UNL     1       4.714   1.403  -0.996  1.00  0.00     0.274 HD
ATOM     19  H12 UNL     1       4.753   2.414   0.180  1.00  0.00     0.274 HD
ATOM     20  H11 UNL     1       5.423   0.891   0.444  1.00  0.00     0.274 HD
ENDBRANCH  10  17
TORSDOF 3
