REMARK  2 active torsions:
REMARK  status: ('A' for Active; 'I' for Inactive)
REMARK    1  A    between atoms: C10_11  and  C11_12 
REMARK    2  A    between atoms: C11_12  and  N1_13 
ROOT
HETATM    1  C1  UNL     1      -2.328  -3.045  -0.268  1.00  0.00     0.046 C 
HETATM    2  C2  UNL     1      -2.122  -1.660   0.183  1.00  0.00    -0.059 C 
HETATM    3  C3  UNL     1      -3.125  -1.106   0.824  1.00  0.00    -0.022 C 
HETATM    4  C4  UNL     1      -3.164   0.297   1.386  1.00  0.00     0.030 C 
HETATM    5  C5  UNL     1      -2.399   1.200   0.482  1.00  0.00     0.036 C 
HETATM    6  C6  UNL     1      -0.907   1.107   0.672  1.00  0.00     0.126 C 
HETATM    7  O1  UNL     1      -0.500  -0.184   0.881  1.00  0.00    -0.376 OA
HETATM    8  C7  UNL     1      -0.814  -1.061  -0.140  1.00  0.00     0.150 C 
HETATM    9  C8  UNL     1       0.295  -2.078  -0.231  1.00  0.00     0.037 C 
HETATM   10  C9  UNL     1       1.562  -1.437   0.284  1.00  0.00     0.009 C 
HETATM   11  C10 UNL     1       1.972  -0.238  -0.564  1.00  0.00     0.011 C 
HETATM   12  C12 UNL     1       2.156   0.991   0.246  1.00  0.00     0.007 C 
HETATM   13  C13 UNL     1       1.261   2.130  -0.044  1.00  0.00     0.007 C 
HETATM   14  C14 UNL     1      -0.141   1.806  -0.413  1.00  0.00     0.011 C 
HETATM   15  C15 UNL     1      -0.861   3.146  -0.652  1.00  0.00     0.012 C 
ENDROOT
BRANCH  11  16
HETATM   16  C11 UNL     1       3.327  -0.604  -1.168  1.00  0.00     0.234 C 
BRANCH  16  17
HETATM   17  N1  UNL     1       4.230  -0.833  -0.070  1.00  0.00    -0.079 N 
ATOM     18  H13 UNL     1       4.280  -0.047   0.578  1.00  0.00     0.274 HD
ATOM     19  H12 UNL     1       3.886  -1.528   0.593  1.00  0.00     0.274 HD
ATOM     20  H11 UNL     1       5.135  -1.077  -0.473  1.00  0.00     0.274 HD
ENDBRANCH  16  17
ENDBRANCH  11  16
TORSDOF 2
