REMARK  1 active torsions:
REMARK  status: ('A' for Active; 'I' for Inactive)
REMARK    1  A    between atoms: C1_2  and  C2_3 
REMARK       I    between atoms: C1_2  and  N2_17 
ROOT
HETATM    1  C2  UNL     1       0.146  -0.967  -0.478  1.00  0.00     0.105 C 
HETATM    2  C3  UNL     1      -1.078  -1.271  -1.259  1.00  0.00     0.001 C 
HETATM    3  C4  UNL     1      -1.625  -2.615  -0.874  1.00  0.00     0.005 C 
HETATM    4  C5  UNL     1      -1.382  -3.050   0.511  1.00  0.00     0.002 C 
HETATM    5  C6  UNL     1      -0.966  -2.037   1.495  1.00  0.00     0.026 C 
HETATM    6  C7  UNL     1      -0.144  -0.892   0.984  1.00  0.00     0.094 C 
HETATM    7  N1  UNL     1      -0.828   0.364   1.255  1.00  0.00    -0.391 N 
ATOM      8  H1  UNL     1      -0.324   1.029   1.842  1.00  0.00     0.159 HD
HETATM    9  C8  UNL     1      -1.972   0.735   0.852  1.00  0.00    -0.014 C 
HETATM   10  C9  UNL     1      -2.560   2.037   1.197  1.00  0.00     0.052 C 
HETATM   11  C10 UNL     1      -3.983   1.993   0.753  1.00  0.00     0.006 C 
HETATM   12  C11 UNL     1      -4.031   0.928  -0.321  1.00  0.00     0.011 C 
HETATM   13  C12 UNL     1      -2.898  -0.028  -0.009  1.00  0.00     0.031 C 
HETATM   14  C13 UNL     1      -2.168  -0.279  -1.306  1.00  0.00     0.016 C 
ENDROOT
BRANCH   1  15
HETATM   15  C1  UNL     1       0.952   0.145  -0.967  1.00  0.00     0.226 C 
HETATM   16  O1  UNL     1       0.413   0.915  -1.823  1.00  0.00    -0.273 OA
HETATM   17  N2  UNL     1       2.257   0.425  -0.568  1.00  0.00    -0.352 N 
HETATM   18  C14 UNL     1       3.073  -0.316   0.360  1.00  0.00     0.125 C 
HETATM   19  C18 UNL     1       2.925   1.616  -1.133  1.00  0.00     0.125 C 
HETATM   20  C15 UNL     1       4.531  -0.125  -0.075  1.00  0.00     0.020 C 
HETATM   21  C16 UNL     1       4.891   1.297   0.371  1.00  0.00     0.003 C 
HETATM   22  C17 UNL     1       3.804   2.255  -0.087  1.00  0.00     0.020 C 
ENDBRANCH   1  15
TORSDOF 1
