REMARK  1 active torsions:
REMARK  status: ('A' for Active; 'I' for Inactive)
REMARK    1  A    between atoms: C11_11  and  C12_12 
ROOT
HETATM    1  C1  UNL     1       1.776   2.527  -1.227  1.00  0.00     0.010 C 
HETATM    2  C2  UNL     1       1.582   1.458  -0.141  1.00  0.00    -0.009 C 
HETATM    3  C3  UNL     1       2.713   0.498  -0.269  1.00  0.00     0.017 C 
HETATM    4  C4  UNL     1       2.509  -0.792   0.464  1.00  0.00    -0.029 C 
HETATM    5  C5  UNL     1       2.853  -0.707   1.931  1.00  0.00     0.019 C 
HETATM    6  C6  UNL     1       3.471  -1.811  -0.154  1.00  0.00     0.019 C 
HETATM    7  C7  UNL     1       1.150  -1.335   0.322  1.00  0.00    -0.013 C 
HETATM    8  C8  UNL     1       0.150  -0.580  -0.032  1.00  0.00    -0.045 C 
HETATM    9  C9  UNL     1       0.229   0.876  -0.331  1.00  0.00     0.021 C 
HETATM   10  C10 UNL     1      -0.771   1.568   0.535  1.00  0.00     0.025 C 
HETATM   11  C11 UNL     1      -2.171   1.537  -0.010  1.00  0.00     0.106 C 
HETATM   12  C13 UNL     1      -2.774   0.157  -0.024  1.00  0.00     0.235 C 
HETATM   13  C14 UNL     1      -2.804  -0.500   1.319  1.00  0.00     0.039 C 
HETATM   14  C15 UNL     1      -1.684  -1.526   1.298  1.00  0.00     0.042 C 
HETATM   15  C16 UNL     1      -1.101  -1.383  -0.098  1.00  0.00     0.252 C 
HETATM   16  N1  UNL     1      -2.116  -0.750  -0.905  1.00  0.00     0.098 N 
HETATM   17  C17 UNL     1      -2.982  -1.698  -1.547  1.00  0.00     0.311 C 
ENDROOT
BRANCH  11  18
HETATM   18  C12 UNL     1      -2.316   2.165  -1.326  1.00  0.00     0.225 C 
HETATM   19  O1  UNL     1      -2.712   1.559  -2.303  1.00  0.00    -0.279 OA
HETATM   20 CL1  UNL     1      -1.910   3.857  -1.532  1.00  0.00    -0.043 Cl
ENDBRANCH  11  18
TORSDOF 1
