REMARK  1 active torsions:
REMARK  status: ('A' for Active; 'I' for Inactive)
REMARK    1  A    between atoms: C7_7  and  C9_9 
ROOT
HETATM    1  C9  UNL     1       0.840   0.209  -0.119  1.00  0.00     0.035 C 
HETATM    2  C10 UNL     1       1.761   0.363  -1.299  1.00  0.00     0.021 C 
HETATM    3  C11 UNL     1       3.177   0.248  -0.747  1.00  0.00    -0.013 C 
HETATM    4  C12 UNL     1       3.409  -1.215  -0.472  1.00  0.00     0.008 C 
HETATM    5  C13 UNL     1       2.302  -1.817   0.320  1.00  0.00     0.053 C 
HETATM    6  C14 UNL     1       1.291  -0.835   0.850  1.00  0.00     0.174 C 
HETATM    7  F1  UNL     1       0.295  -1.549   1.450  1.00  0.00    -0.234 F 
HETATM    8  C15 UNL     1       2.010  -0.105   1.964  1.00  0.00     0.171 C 
HETATM    9  O1  UNL     1       2.284  -0.527   3.053  1.00  0.00    -0.294 OA
HETATM   10  C16 UNL     1       2.291   1.240   1.390  1.00  0.00     0.060 C 
HETATM   11  C17 UNL     1       3.442   1.117   0.427  1.00  0.00     0.017 C 
HETATM   12  C18 UNL     1       0.976   1.503   0.664  1.00  0.00     0.028 C 
ENDROOT
BRANCH   1  13
HETATM   13  C7  UNL     1      -0.617   0.109  -0.518  1.00  0.00     0.069 C 
HETATM   14  C6  UNL     1      -0.906  -1.089  -1.387  1.00  0.00     0.038 C 
HETATM   15  C5  UNL     1      -2.294  -1.625  -1.201  1.00  0.00     0.006 C 
HETATM   16  C4  UNL     1      -3.253  -0.706  -0.540  1.00  0.00     0.037 C 
HETATM   17  C2  UNL     1      -2.694   0.144   0.554  1.00  0.00     0.055 C 
HETATM   18  C1  UNL     1      -3.161  -0.472   1.889  1.00  0.00     0.045 C 
HETATM   19  C3  UNL     1      -3.396   1.483   0.504  1.00  0.00     0.045 C 
HETATM   20  O2  UNL     1      -1.335   0.199   0.627  1.00  0.00    -0.369 OA
HETATM   21  C8  UNL     1      -0.854   1.305  -1.460  1.00  0.00     0.047 C 
ENDBRANCH   1  13
TORSDOF 1
