REMARK  3 active torsions:
REMARK  status: ('A' for Active; 'I' for Inactive)
REMARK    1  A    between atoms: C2_2  and  C3_4 
REMARK    2  A    between atoms: C12_13  and  N1_14 
REMARK    3  A    between atoms: N1_14  and  C13_16 
ROOT
HETATM    1  C3  UNL     1       2.382  -0.021   0.491  1.00  0.00     0.059 C 
HETATM    2  C4  UNL     1       2.919  -0.708  -0.789  1.00  0.00     0.013 C 
HETATM    3  C5  UNL     1       1.670  -1.554  -1.145  1.00  0.00     0.006 C 
HETATM    4  C6  UNL     1       0.655  -0.513  -1.041  1.00  0.00    -0.003 C 
HETATM    5  C7  UNL     1       0.963   0.230   0.243  1.00  0.00     0.001 C 
HETATM    6  C8  UNL     1       0.468   1.604  -0.011  1.00  0.00     0.007 C 
HETATM    7  C9  UNL     1      -0.804   1.614  -0.814  1.00  0.00     0.012 C 
HETATM    8  C10 UNL     1      -1.575   0.332  -0.889  1.00  0.00    -0.018 C 
HETATM    9  C11 UNL     1      -2.320   0.437  -2.250  1.00  0.00     0.018 C 
HETATM   10  C12 UNL     1      -2.684   0.391   0.118  1.00  0.00     0.092 C 
HETATM   11  C14 UNL     1      -3.170  -0.963   0.555  1.00  0.00     0.027 C 
HETATM   12  C15 UNL     1      -1.994  -1.659   1.168  1.00  0.00     0.022 C 
HETATM   13  C16 UNL     1      -0.987  -1.933   0.125  1.00  0.00     0.087 C 
HETATM   14 CL1  UNL     1      -1.381  -3.565  -0.545  1.00  0.00    -0.125 Cl
HETATM   15  C17 UNL     1      -0.797  -0.921  -0.949  1.00  0.00     0.018 C 
ENDROOT
BRANCH  10  16
HETATM   16  N1  UNL     1      -2.349   1.137   1.315  1.00  0.00    -0.363 N 
ATOM     17  H1  UNL     1      -1.456   0.927   1.761  1.00  0.00     0.162 HD
BRANCH  16  18
HETATM   18  C13 UNL     1      -3.060   2.014   1.846  1.00  0.00     0.348 C 
HETATM   19  O2  UNL     1      -3.758   3.022   2.124  1.00  0.00    -0.284 OA
ENDBRANCH  16  18
ENDBRANCH  10  16
BRANCH   1  20
HETATM   20  C2  UNL     1       3.237   1.031   0.992  1.00  0.00     0.127 C 
HETATM   21  C1  UNL     1       4.643   0.751   1.370  1.00  0.00     0.091 C 
HETATM   22  O1  UNL     1       2.845   2.161   1.122  1.00  0.00    -0.298 OA
ENDBRANCH   1  20
TORSDOF 3
