REMARK  3 active torsions:
REMARK  status: ('A' for Active; 'I' for Inactive)
REMARK    1  A    between atoms: C3_3  and  C4_4 
REMARK    2  A    between atoms: C6_7  and  O2_8 
REMARK    3  A    between atoms: C8_12  and  C9_13 
ROOT
HETATM    1  C4  UNL     1       2.101  -0.065   0.822  1.00  0.00     0.088 C 
HETATM    2  C5  UNL     1       2.917  -1.186   1.278  1.00  0.00     0.051 C 
HETATM    3  O1  UNL     1       1.212   0.351   1.849  1.00  0.00    -0.333 OA
HETATM    4  C6  UNL     1       0.224  -0.409   1.201  1.00  0.00     0.233 C 
HETATM    5  C7  UNL     1      -1.092   0.236   1.101  1.00  0.00     0.193 C 
HETATM    6  O3  UNL     1      -1.285   1.100   1.899  1.00  0.00    -0.292 OA
HETATM    7  C8  UNL     1      -2.161  -0.060   0.155  1.00  0.00     0.064 C 
HETATM    8  C12 UNL     1      -1.568  -0.177  -1.229  1.00  0.00     0.013 C 
HETATM    9  C13 UNL     1      -0.711  -1.380  -1.418  1.00  0.00     0.005 C 
HETATM   10  C14 UNL     1       0.779  -1.076  -1.168  1.00  0.00    -0.006 C 
HETATM   11  C15 UNL     1       1.493  -2.373  -1.178  1.00  0.00     0.010 C 
HETATM   12  C16 UNL     1       0.970  -0.156  -0.065  1.00  0.00     0.098 C 
ENDROOT
BRANCH   1  13
HETATM   13  C3  UNL     1       2.988   1.103   0.546  1.00  0.00     0.007 C 
HETATM   14  C2  UNL     1       3.270   1.481  -0.679  1.00  0.00    -0.032 C 
HETATM   15  C1  UNL     1       4.154   2.643  -0.940  1.00  0.00     0.036 C 
ENDBRANCH   1  13
BRANCH   4  16
HETATM   16  O2  UNL     1       0.213  -1.667   1.734  1.00  0.00    -0.359 OA
ATOM     17  H2  UNL     1      -0.455  -2.181   1.296  1.00  0.00     0.213 HD
ENDBRANCH   4  16
BRANCH   7  18
HETATM   18  C9  UNL     1      -3.306   0.915   0.195  1.00  0.00    -0.011 C 
HETATM   19  C10 UNL     1      -3.989   0.995   1.513  1.00  0.00     0.010 C 
HETATM   20  C11 UNL     1      -4.332   0.624  -0.877  1.00  0.00     0.010 C 
ENDBRANCH   7  18
TORSDOF 3
