REMARK  19 active torsions:
REMARK  status: ('A' for Active; 'I' for Inactive)
REMARK    1  A    between atoms: C2_2  and  C3_3 
REMARK    2  A    between atoms: C3_3  and  C4_4 
REMARK    3  A    between atoms: C4_4  and  N1_5 
REMARK    4  A    between atoms: C4_4  and  C21_26 
REMARK    5  A    between atoms: N1_5  and  C5_7 
REMARK    6  A    between atoms: C5_7  and  C6_8 
REMARK    7  A    between atoms: C5_7  and  C13_15 
REMARK    8  A    between atoms: C6_8  and  C7_9 
REMARK    9  A    between atoms: C13_15  and  C14_17 
REMARK       I    between atoms: C14_17  and  N2_19 
REMARK   10  A    between atoms: N2_19  and  C15_20 
REMARK   11  A    between atoms: N2_19  and  C18_23 
REMARK   12  A    between atoms: C21_26  and  N4_33 
REMARK   13  A    between atoms: N3_27  and  C22_29 
REMARK       I    between atoms: N5_36  and  C28_37 
REMARK       I    between atoms: C28_37  and  N6_39 
REMARK   14  A    between atoms: N6_39  and  C29_41 
REMARK   15  A    between atoms: C29_41  and  C30_42 
REMARK   16  A    between atoms: C30_42  and  C31_43 
REMARK   17  A    between atoms: C31_43  and  C32_44 
REMARK   18  A    between atoms: C32_44  and  C33_45 
REMARK   19  A    between atoms: C33_45  and  N7_46 
ROOT
HETATM    1  C21 UNL     1       0.681   1.986   0.325  1.00  0.00     0.098 C 
HETATM    2  N3  UNL     1       1.094   3.121   0.248  1.00  0.00    -0.370 N 
ATOM      3  H3  UNL     1       0.406   3.717   0.708  1.00  0.00     0.161 HD
ENDROOT
BRANCH   1   4
HETATM    4  C4  UNL     1      -0.646   1.696   1.024  1.00  0.00     0.144 C 
BRANCH   4   5
HETATM    5  C3  UNL     1      -1.198   2.905   1.699  1.00  0.00     0.032 C 
BRANCH   5   6
HETATM    6  C2  UNL     1      -1.844   3.909   0.784  1.00  0.00    -0.002 C 
HETATM    7  C1  UNL     1      -2.333   5.043   1.670  1.00  0.00     0.005 C 
ENDBRANCH   5   6
ENDBRANCH   4   5
BRANCH   4   8
HETATM    8  N1  UNL     1      -1.493   0.912   0.280  1.00  0.00    -0.399 N 
ATOM      9  H1  UNL     1      -1.350   0.892  -0.730  1.00  0.00     0.154 HD
BRANCH   8  10
HETATM   10  C5  UNL     1      -2.559   0.122   0.809  1.00  0.00     0.158 C 
BRANCH  10  11
HETATM   11  C6  UNL     1      -3.692   0.720   1.488  1.00  0.00     0.037 C 
BRANCH  11  12
HETATM   12  C7  UNL     1      -4.670  -0.212   2.164  1.00  0.00    -0.012 C 
HETATM   13  C8  UNL     1      -3.936  -1.017   3.251  1.00  0.00     0.005 C 
HETATM   14  C9  UNL     1      -4.934  -1.861   3.965  1.00  0.00     0.000 C 
HETATM   15  C10 UNL     1      -6.345  -1.684   3.502  1.00  0.00     0.000 C 
HETATM   16  C11 UNL     1      -6.774  -0.235   3.514  1.00  0.00     0.000 C 
HETATM   17  C12 UNL     1      -5.692   0.623   2.954  1.00  0.00     0.005 C 
ENDBRANCH  11  12
ENDBRANCH  10  11
BRANCH  10  18
HETATM   18  C13 UNL     1      -2.887  -0.816  -0.347  1.00  0.00     0.238 C 
HETATM   19  O1  UNL     1      -1.815  -1.431  -0.718  1.00  0.00    -0.285 OA
BRANCH  18  20
HETATM   20  C14 UNL     1      -4.084  -1.077  -1.018  1.00  0.00     0.292 C 
HETATM   21  O2  UNL     1      -5.077  -0.272  -0.811  1.00  0.00    -0.264 OA
HETATM   22  N2  UNL     1      -4.413  -2.120  -1.925  1.00  0.00    -0.338 N 
BRANCH  22  23
HETATM   23  C15 UNL     1      -5.818  -2.126  -2.419  1.00  0.00     0.080 C 
HETATM   24  C16 UNL     1      -6.127  -0.837  -3.105  1.00  0.00     0.032 C 
HETATM   25  C17 UNL     1      -6.762  -2.307  -1.252  1.00  0.00     0.032 C 
ENDBRANCH  22  23
BRANCH  22  26
HETATM   26  C18 UNL     1      -3.585  -3.152  -2.446  1.00  0.00     0.080 C 
HETATM   27  C19 UNL     1      -3.058  -4.133  -1.429  1.00  0.00     0.032 C 
HETATM   28  C20 UNL     1      -2.480  -2.686  -3.365  1.00  0.00     0.032 C 
ENDBRANCH  22  26
ENDBRANCH  18  20
ENDBRANCH  10  18
ENDBRANCH   8  10
ENDBRANCH   4   8
ENDBRANCH   1   4
BRANCH   1  29
HETATM   29  N4  UNL     1       1.311   0.827  -0.182  1.00  0.00    -0.366 N 
HETATM   30  C26 UNL     1       1.656   0.565  -1.542  1.00  0.00     0.144 C 
HETATM   31  C27 UNL     1       2.998  -0.059  -1.699  1.00  0.00     0.147 C 
HETATM   32  N5  UNL     1       3.671  -0.378  -0.464  1.00  0.00    -0.331 N 
HETATM   33  C28 UNL     1       5.058  -0.151  -0.326  1.00  0.00     0.322 C 
HETATM   34  C34 UNL     1       2.887  -0.933   0.593  1.00  0.00     0.147 C 
HETATM   35  O3  UNL     1       5.648   0.328  -1.336  1.00  0.00    -0.247 OA
HETATM   36  N6  UNL     1       5.819  -0.413   0.835  1.00  0.00    -0.319 N 
ATOM     37  H6  UNL     1       5.314  -0.776   1.644  1.00  0.00     0.169 HD
HETATM   38  C35 UNL     1       1.597  -0.198   0.815  1.00  0.00     0.144 C 
BRANCH  36  39
HETATM   39  C29 UNL     1       7.203  -0.223   0.985  1.00  0.00     0.088 C 
BRANCH  39  40
HETATM   40  C30 UNL     1       8.196  -1.047   0.284  1.00  0.00    -0.009 C 
BRANCH  40  41
HETATM   41  C31 UNL     1       8.257  -1.146  -1.174  1.00  0.00     0.030 C 
BRANCH  41  42
HETATM   42  C32 UNL     1       9.483  -2.017  -1.530  1.00  0.00     0.031 C 
BRANCH  42  43
HETATM   43  C33 UNL     1       9.393  -3.393  -0.961  1.00  0.00     0.230 C 
BRANCH  43  44
HETATM   44  N7  UNL     1       8.192  -4.071  -1.450  1.00  0.00    -0.079 N 
ATOM     45  H73 UNL     1       7.348  -3.528  -1.266  1.00  0.00     0.274 HD
ATOM     46  H72 UNL     1       8.149  -4.078  -2.469  1.00  0.00     0.274 HD
ATOM     47  H71 UNL     1       8.130  -5.012  -1.061  1.00  0.00     0.274 HD
ENDBRANCH  43  44
ENDBRANCH  42  43
ENDBRANCH  41  42
ENDBRANCH  40  41
ENDBRANCH  39  40
ENDBRANCH  36  39
ENDBRANCH   1  29
BRANCH   2  48
HETATM   48  C22 UNL     1       2.103   3.948  -0.200  1.00  0.00     0.020 C 
HETATM   49  C23 UNL     1       1.933   4.476  -1.630  1.00  0.00     0.037 C 
HETATM   50  C24 UNL     1       2.134   5.187   0.737  1.00  0.00     0.037 C 
HETATM   51  C25 UNL     1       3.521   3.416  -0.135  1.00  0.00     0.037 C 
ENDBRANCH   2  48
TORSDOF 19
