REMARK  18 active torsions:
REMARK  status: ('A' for Active; 'I' for Inactive)
REMARK    1  A    between atoms: C2_2  and  C3_3 
REMARK    2  A    between atoms: C3_3  and  N1_4 
REMARK    3  A    between atoms: C3_3  and  C27_40 
REMARK    4  A    between atoms: N1_4  and  C4_6 
REMARK    5  A    between atoms: C4_6  and  O1_7 
REMARK    6  A    between atoms: C4_6  and  C5_9 
REMARK       I    between atoms: N2_10  and  C6_11 
REMARK    7  A    between atoms: C6_11  and  C7_13 
REMARK    8  A    between atoms: C7_13  and  N3_14 
REMARK    9  A    between atoms: C7_13  and  C19_31 
REMARK       I    between atoms: N3_14  and  C8_16 
REMARK   10  A    between atoms: C8_16  and  C9_18 
REMARK   11  A    between atoms: C9_18  and  C10_19 
REMARK   12  A    between atoms: C9_18  and  N4_26 
REMARK   13  A    between atoms: C10_19  and  C11_20 
REMARK       I    between atoms: N4_26  and  C17_28 
REMARK   14  A    between atoms: C19_31  and  C21_33 
REMARK       I    between atoms: C27_40  and  N5_42 
REMARK   15  A    between atoms: N5_42  and  C28_44 
REMARK   16  A    between atoms: C28_44  and  C29_45 
REMARK   17  A    between atoms: C29_45  and  C30_46 
REMARK   18  A    between atoms: C30_46  and  C31_47 
ROOT
HETATM    1  C5  UNL     1      -0.023  -2.630   2.795  1.00  0.00     0.180 C 
HETATM    2  N2  UNL     1      -0.785  -1.461   2.694  1.00  0.00    -0.328 N 
HETATM    3  C6  UNL     1      -0.877  -0.529   1.679  1.00  0.00     0.244 C 
HETATM    4  O2  UNL     1      -0.272  -0.812   0.582  1.00  0.00    -0.271 OA
HETATM    5  C23 UNL     1      -1.691  -1.422   3.875  1.00  0.00     0.201 C 
HETATM    6  S1  UNL     1      -2.371  -3.150   3.705  1.00  0.00    -0.137 SA
HETATM    7  C24 UNL     1      -0.966  -3.793   2.672  1.00  0.00     0.030 C 
HETATM    8  C25 UNL     1      -0.398  -4.956   3.439  1.00  0.00     0.029 C 
HETATM    9  C26 UNL     1      -1.462  -4.102   1.320  1.00  0.00     0.029 C 
ENDROOT
BRANCH   1  10
HETATM   10  C4  UNL     1       1.182  -2.770   2.054  1.00  0.00     0.137 C 
BRANCH  10  11
HETATM   11  N1  UNL     1       2.198  -1.803   1.783  1.00  0.00    -0.359 N 
ATOM     12  H1  UNL     1       2.081  -0.855   2.142  1.00  0.00     0.162 HD
BRANCH  11  13
HETATM   13  C3  UNL     1       3.406  -2.121   1.006  1.00  0.00     0.175 C 
BRANCH  13  14
HETATM   14  C2  UNL     1       4.467  -2.311   2.094  1.00  0.00     0.030 C 
HETATM   15  C1  UNL     1       5.815  -2.658   1.584  1.00  0.00     0.007 C 
ENDBRANCH  13  14
BRANCH  13  16
HETATM   16  C27 UNL     1       3.701  -1.029   0.092  1.00  0.00     0.240 C 
HETATM   17  O5  UNL     1       2.953   0.014   0.079  1.00  0.00    -0.271 OA
HETATM   18  N5  UNL     1       4.772  -0.981  -0.832  1.00  0.00    -0.359 N 
ATOM     19  H5  UNL     1       5.407  -1.778  -0.881  1.00  0.00     0.162 HD
BRANCH  18  20
HETATM   20  C28 UNL     1       5.012   0.151  -1.717  1.00  0.00     0.122 C 
BRANCH  20  21
HETATM   21  C29 UNL     1       6.202  -0.104  -2.568  1.00  0.00     0.020 C 
BRANCH  21  22
HETATM   22  C30 UNL     1       6.585   0.930  -3.542  1.00  0.00     0.005 C 
BRANCH  22  23
HETATM   23  C31 UNL     1       6.959   2.278  -3.095  1.00  0.00    -0.023 C 
HETATM   24  C32 UNL     1       8.135   2.355  -2.165  1.00  0.00     0.009 C 
HETATM   25  C33 UNL     1       5.810   3.108  -2.590  1.00  0.00     0.009 C 
ENDBRANCH  22  23
ENDBRANCH  21  22
ENDBRANCH  20  21
ENDBRANCH  18  20
ENDBRANCH  13  16
ENDBRANCH  11  13
ENDBRANCH  10  11
BRANCH  10  26
HETATM   26  O1  UNL     1       1.487  -3.929   1.518  1.00  0.00    -0.348 OA
ATOM     27  H1  UNL     1       0.811  -4.572   1.698  1.00  0.00     0.219 HD
ENDBRANCH  10  26
ENDBRANCH   1  10
BRANCH   3  28
HETATM   28  C7  UNL     1      -1.619   0.784   1.742  1.00  0.00     0.180 C 
BRANCH  28  29
HETATM   29  N3  UNL     1      -2.091   1.237   0.470  1.00  0.00    -0.346 N 
HETATM   30  C8  UNL     1      -3.401   1.733   0.226  1.00  0.00     0.241 C 
HETATM   31  O3  UNL     1      -4.255   1.808   1.190  1.00  0.00    -0.271 OA
ATOM     32  H3  UNL     1      -1.443   1.202  -0.317  1.00  0.00     0.163 HD
BRANCH  30  33
HETATM   33  C9  UNL     1      -3.876   2.186  -1.093  1.00  0.00     0.177 C 
BRANCH  33  34
HETATM   34  C10 UNL     1      -3.841   1.180  -2.187  1.00  0.00     0.039 C 
BRANCH  34  35
HETATM   35  C11 UNL     1      -4.595  -0.061  -2.126  1.00  0.00    -0.012 C 
HETATM   36  C12 UNL     1      -4.271  -0.763  -3.478  1.00  0.00     0.005 C 
HETATM   37  C13 UNL     1      -4.875  -2.123  -3.517  1.00  0.00     0.000 C 
HETATM   38  C14 UNL     1      -5.968  -2.311  -2.501  1.00  0.00     0.000 C 
HETATM   39  C15 UNL     1      -5.399  -2.141  -1.136  1.00  0.00     0.000 C 
HETATM   40  C16 UNL     1      -4.272  -1.086  -1.114  1.00  0.00     0.005 C 
ENDBRANCH  34  35
ENDBRANCH  33  34
BRANCH  33  41
HETATM   41  N4  UNL     1      -5.181   2.825  -0.973  1.00  0.00    -0.348 N 
HETATM   42  C17 UNL     1      -5.408   4.187  -1.257  1.00  0.00     0.214 C 
HETATM   43  C18 UNL     1      -6.736   4.823  -1.122  1.00  0.00     0.117 C 
HETATM   44  O4  UNL     1      -4.439   4.878  -1.637  1.00  0.00    -0.274 OA
ATOM     45  H4  UNL     1      -5.971   2.257  -0.668  1.00  0.00     0.163 HD
ENDBRANCH  33  41
ENDBRANCH  30  33
ENDBRANCH  28  29
BRANCH  28  46
HETATM   46  C19 UNL     1      -0.786   1.808   2.487  1.00  0.00     0.013 C 
HETATM   47  C20 UNL     1       0.550   2.067   1.871  1.00  0.00     0.012 C 
BRANCH  46  48
HETATM   48  C21 UNL     1      -1.609   3.071   2.608  1.00  0.00     0.002 C 
HETATM   49  C22 UNL     1      -0.821   4.154   3.357  1.00  0.00     0.005 C 
ENDBRANCH  46  48
ENDBRANCH  28  46
ENDBRANCH   3  28
TORSDOF 18
