REMARK  19 active torsions:
REMARK  status: ('A' for Active; 'I' for Inactive)
REMARK    1  A    between atoms: C2_2  and  C3_3 
REMARK    2  A    between atoms: C3_3  and  C4_4 
REMARK    3  A    between atoms: C4_4  and  C5_5 
REMARK    4  A    between atoms: C5_5  and  C6_6 
REMARK    5  A    between atoms: C5_5  and  N6_47 
REMARK    6  A    between atoms: C6_6  and  C7_7 
REMARK       I    between atoms: C7_7  and  N1_9 
REMARK    7  A    between atoms: N2_14  and  C12_15 
REMARK    8  A    between atoms: C12_15  and  O2_16 
REMARK    9  A    between atoms: C12_15  and  C13_18 
REMARK   10  A    between atoms: C13_18  and  C14_19 
REMARK   11  A    between atoms: C13_18  and  N4_27 
REMARK   12  A    between atoms: C14_19  and  C15_20 
REMARK   13  A    between atoms: C15_20  and  C16_21 
REMARK   14  A    between atoms: C16_21  and  C17_22 
REMARK   15  A    between atoms: C17_22  and  N3_23 
REMARK       I    between atoms: N4_27  and  C18_29 
REMARK   16  A    between atoms: C18_29  and  C19_31 
REMARK   17  A    between atoms: C19_31  and  N5_32 
REMARK   18  A    between atoms: N5_32  and  C20_34 
REMARK   19  A    between atoms: N6_47  and  C33_49 
ROOT
HETATM    1  C12 UNL     1      -1.591  -0.627  -0.709  1.00  0.00     0.161 C 
ENDROOT
BRANCH   1   2
HETATM    2  N2  UNL     1      -0.289  -1.009  -1.047  1.00  0.00    -0.360 N 
HETATM    3  C11 UNL     1       0.102  -1.082  -2.454  1.00  0.00     0.126 C 
HETATM    4  C10 UNL     1       1.201  -0.074  -2.750  1.00  0.00     0.033 C 
HETATM    5  C9  UNL     1       2.291  -0.165  -1.711  1.00  0.00    -0.005 C 
HETATM    6  C8  UNL     1       2.752   1.102  -1.082  1.00  0.00     0.137 C 
HETATM    7  C31 UNL     1       2.077  -1.327  -0.779  1.00  0.00     0.033 C 
HETATM    8  C32 UNL     1       3.647  -0.142  -2.371  1.00  0.00     0.137 C 
HETATM    9  N1  UNL     1       4.137   0.641  -1.270  1.00  0.00    -0.350 N 
HETATM   10  C7  UNL     1       5.392   0.849  -0.670  1.00  0.00     0.221 C 
HETATM   11  O1  UNL     1       5.467   1.628   0.305  1.00  0.00    -0.273 OA
HETATM   12  C30 UNL     1       0.736  -1.333  -0.096  1.00  0.00     0.126 C 
BRANCH  10  13
HETATM   13  C6  UNL     1       6.566   0.149  -1.203  1.00  0.00     0.127 C 
BRANCH  13  14
HETATM   14  C5  UNL     1       7.849   0.413  -0.386  1.00  0.00     0.086 C 
BRANCH  14  15
HETATM   15  C4  UNL     1       7.708  -0.053   1.030  1.00  0.00     0.025 C 
BRANCH  15  16
HETATM   16  C3  UNL     1       7.391  -1.546   1.033  1.00  0.00     0.002 C 
BRANCH  16  17
HETATM   17  C2  UNL     1       7.246  -2.055   2.455  1.00  0.00    -0.004 C 
HETATM   18  C1  UNL     1       8.537  -1.829   3.223  1.00  0.00     0.005 C 
ENDBRANCH  16  17
ENDBRANCH  15  16
ENDBRANCH  14  15
BRANCH  14  19
HETATM   19  N6  UNL     1       8.144   1.775  -0.593  1.00  0.00    -0.409 N 
ATOM     20  H6  UNL     1       7.465   2.351  -1.091  1.00  0.00     0.154 HD
BRANCH  19  21
HETATM   21  C33 UNL     1       9.325   2.372  -0.147  1.00  0.00     0.015 C 
HETATM   22  C34 UNL     1       9.576   2.471   1.317  1.00  0.00     0.037 C 
HETATM   23  C35 UNL     1       9.333   3.811  -0.717  1.00  0.00     0.037 C 
HETATM   24  C36 UNL     1      10.509   1.702  -0.846  1.00  0.00     0.037 C 
ENDBRANCH  19  21
ENDBRANCH  14  19
ENDBRANCH  13  14
ENDBRANCH  10  13
ENDBRANCH   1   2
BRANCH   1  25
HETATM   25  O2  UNL     1      -2.349  -0.345  -1.733  1.00  0.00    -0.345 OA
ATOM     26  H2  UNL     1      -3.234  -0.085  -1.503  1.00  0.00     0.219 HD
ENDBRANCH   1  25
BRANCH   1  27
HETATM   27  C13 UNL     1      -2.197  -0.506   0.622  1.00  0.00     0.063 C 
BRANCH  27  28
HETATM   28  C14 UNL     1      -1.979  -1.643   1.552  1.00  0.00     0.062 C 
BRANCH  28  29
HETATM   29  C15 UNL     1      -2.404  -2.995   1.133  1.00  0.00     0.008 C 
BRANCH  29  30
HETATM   30  C16 UNL     1      -3.831  -3.220   0.802  1.00  0.00     0.027 C 
BRANCH  30  31
HETATM   31  C17 UNL     1      -3.998  -4.722   0.459  1.00  0.00     0.229 C 
BRANCH  31  32
HETATM   32  N3  UNL     1      -5.369  -4.993   0.131  1.00  0.00    -0.079 N 
ATOM     33  H33 UNL     1      -6.007  -4.694   0.869  1.00  0.00     0.274 HD
ATOM     34  H32 UNL     1      -5.713  -4.388  -0.615  1.00  0.00     0.274 HD
ATOM     35  H31 UNL     1      -5.479  -5.982  -0.095  1.00  0.00     0.274 HD
ENDBRANCH  31  32
ENDBRANCH  30  31
ENDBRANCH  29  30
ENDBRANCH  28  29
ENDBRANCH  27  28
BRANCH  27  36
HETATM   36  N4  UNL     1      -3.564  -0.000   0.594  1.00  0.00    -0.325 N 
HETATM   37  C18 UNL     1      -3.934   1.225   1.233  1.00  0.00     0.239 C 
HETATM   38  O3  UNL     1      -3.037   1.883   1.838  1.00  0.00    -0.271 OA
ATOM     39  H4  UNL     1      -4.279  -0.537   0.103  1.00  0.00     0.168 HD
BRANCH  37  40
HETATM   40  C19 UNL     1      -5.339   1.679   1.167  1.00  0.00     0.218 C 
BRANCH  40  41
HETATM   41  N5  UNL     1      -6.112   0.743   0.418  1.00  0.00    -0.404 N 
ATOM     42  H5  UNL     1      -5.696  -0.088  -0.003  1.00  0.00     0.154 HD
BRANCH  41  43
HETATM   43  C20 UNL     1      -7.507   1.039   0.292  1.00  0.00     0.027 C 
HETATM   44  C21 UNL     1      -8.148   1.031   1.648  1.00  0.00     0.035 C 
HETATM   45  C22 UNL     1      -9.640   1.238   1.472  1.00  0.00    -0.012 C 
HETATM   46  C23 UNL     1      -9.920   2.576   0.816  1.00  0.00     0.009 C 
HETATM   47  C27 UNL     1     -10.243   0.154   0.641  1.00  0.00     0.009 C 
HETATM   48  C24 UNL     1      -9.235   2.591  -0.528  1.00  0.00    -0.012 C 
HETATM   49  C25 UNL     1      -9.765   1.497  -1.429  1.00  0.00     0.009 C 
HETATM   50  C29 UNL     1      -7.764   2.391  -0.326  1.00  0.00     0.035 C 
HETATM   51  C26 UNL     1      -9.598   0.182  -0.736  1.00  0.00    -0.012 C 
HETATM   52  C28 UNL     1      -8.128  -0.077  -0.523  1.00  0.00     0.035 C 
ENDBRANCH  41  43
ENDBRANCH  40  41
ENDBRANCH  37  40
ENDBRANCH  27  36
ENDBRANCH   1  27
TORSDOF 19
