REMARK  8 active torsions:
REMARK  status: ('A' for Active; 'I' for Inactive)
REMARK    1  A    between atoms: C2_2  and  S1_5 
REMARK    2  A    between atoms: S1_5  and  C5_6 
REMARK    3  A    between atoms: C5_6  and  N1_8 
REMARK    4  A    between atoms: N1_8  and  C6_9 
REMARK    5  A    between atoms: N1_8  and  C9_16 
REMARK    6  A    between atoms: C6_9  and  C7_10 
REMARK    7  A    between atoms: C7_10  and  C8_11 
REMARK    8  A    between atoms: C8_11  and  N2_12 
ROOT
HETATM    1  N1  UNL     1      -0.758  -0.555   0.084  1.00  0.00    -0.358 N 
ENDROOT
BRANCH   1   2
HETATM    2  C5  UNL     1       0.664  -0.568   0.056  1.00  0.00     0.138 C 
HETATM    3  S2  UNL     1       1.528  -1.879  -0.384  1.00  0.00    -0.053 SA
BRANCH   2   4
HETATM    4  S1  UNL     1       1.532   0.898   0.513  1.00  0.00    -0.092 SA
BRANCH   4   5
HETATM    5  C2  UNL     1       3.303   0.792   0.360  1.00  0.00     0.004 C 
HETATM    6  C1  UNL     1       3.769   0.660  -1.076  1.00  0.00     0.026 C 
HETATM    7  C3  UNL     1       3.920  -0.382   1.102  1.00  0.00     0.026 C 
HETATM    8  C4  UNL     1       3.909   2.053   0.934  1.00  0.00     0.026 C 
ENDBRANCH   4   5
ENDBRANCH   2   4
ENDBRANCH   1   2
BRANCH   1   9
HETATM    9  C6  UNL     1      -1.482   0.628   0.471  1.00  0.00     0.127 C 
BRANCH   9  10
HETATM   10  C7  UNL     1      -2.185   1.334  -0.637  1.00  0.00     0.047 C 
BRANCH  10  11
HETATM   11  C8  UNL     1      -2.946   2.558  -0.145  1.00  0.00     0.231 C 
BRANCH  11  12
HETATM   12  N2  UNL     1      -3.945   2.178   0.828  1.00  0.00    -0.079 N 
ATOM     13  H23 UNL     1      -4.574   1.462   0.465  1.00  0.00     0.274 HD
ATOM     14  H22 UNL     1      -3.540   1.648   1.600  1.00  0.00     0.274 HD
ATOM     15  H21 UNL     1      -4.455   2.998   1.158  1.00  0.00     0.274 HD
ENDBRANCH  11  12
ENDBRANCH  10  11
ENDBRANCH   9  10
ENDBRANCH   1   9
BRANCH   1  16
HETATM   16  C9  UNL     1      -1.444  -1.751  -0.306  1.00  0.00     0.023 C 
HETATM   17  C10 UNL     1      -1.097  -2.122  -1.753  1.00  0.00     0.037 C 
HETATM   18  C11 UNL     1      -2.926  -1.725  -0.207  1.00  0.00     0.037 C 
HETATM   19  C12 UNL     1      -0.951  -2.928   0.558  1.00  0.00     0.037 C 
ENDBRANCH   1  16
TORSDOF 8
