REMARK  3 active torsions:
REMARK  status: ('A' for Active; 'I' for Inactive)
REMARK    1  A    between atoms: C2_2  and  C4_4 
REMARK    2  A    between atoms: C5_7  and  C6_8 
REMARK    3  A    between atoms: C9_11  and  C10_12 
ROOT
HETATM    1  C4  UNL     1       2.241  -0.015  -0.162  1.00  0.00     0.256 C 
HETATM    2  N1  UNL     1       0.992   0.415  -0.645  1.00  0.00    -0.385 N 
ATOM      3  H1  UNL     1       0.915   0.989  -1.484  1.00  0.00     0.156 HD
HETATM    4  C5  UNL     1      -0.181   0.006   0.103  1.00  0.00     0.110 C 
HETATM    5  C9  UNL     1      -1.101  -0.880  -0.665  1.00  0.00     0.040 C 
HETATM    6  C12 UNL     1      -1.175  -2.283  -0.144  1.00  0.00    -0.081 C 
HETATM    7  C13 UNL     1      -2.508  -2.814   0.274  1.00  0.00     0.043 C 
HETATM    8  C14 UNL     1      -0.147  -3.104  -0.022  1.00  0.00    -0.014 C 
HETATM    9  C15 UNL     1       1.268  -2.809  -0.373  1.00  0.00     0.138 C 
HETATM   10  C16 UNL     1       2.026  -2.262   0.775  1.00  0.00     0.264 C 
HETATM   11  O1  UNL     1       2.620  -2.996   1.622  1.00  0.00    -0.265 OA
HETATM   12  O2  UNL     1       2.080  -0.906   0.916  1.00  0.00    -0.291 OA
ENDROOT
BRANCH   1  13
HETATM   13  C2  UNL     1       2.977   1.177   0.342  1.00  0.00    -0.045 C 
HETATM   14  C1  UNL     1       3.353   1.240   1.608  1.00  0.00     0.018 C 
HETATM   15  C3  UNL     1       3.301   2.314  -0.560  1.00  0.00     0.047 C 
ENDBRANCH   1  13
BRANCH   4  16
HETATM   16  C6  UNL     1      -0.799   1.328   0.501  1.00  0.00    -0.006 C 
HETATM   17  C7  UNL     1      -0.698   2.399  -0.279  1.00  0.00    -0.033 C 
HETATM   18  C8  UNL     1      -1.296   3.699   0.093  1.00  0.00     0.036 C 
ENDBRANCH   4  16
BRANCH   5  19
HETATM   19  C10 UNL     1      -2.456  -0.291  -0.915  1.00  0.00     0.007 C 
HETATM   20  C11 UNL     1      -3.292   0.073   0.235  1.00  0.00     0.006 C 
ENDBRANCH   5  19
TORSDOF 3
