REMARK  5 active torsions:
REMARK  status: ('A' for Active; 'I' for Inactive)
REMARK    1  A    between atoms: C2_2  and  C3_3 
REMARK    2  A    between atoms: C3_3  and  N1_5 
REMARK    3  A    between atoms: N1_5  and  C4_6 
REMARK    4  A    between atoms: N1_5  and  C10_12 
REMARK    5  A    between atoms: C10_12  and  C12_14 
ROOT
HETATM    1  N1  UNL     1      -0.357   0.413  -0.300  1.00  0.00    -0.357 N 
ENDROOT
BRANCH   1   2
HETATM    2  C3  UNL     1      -0.996   1.648  -0.068  1.00  0.00     0.099 C 
HETATM    3  S1  UNL     1      -0.125   2.852   0.691  1.00  0.00    -0.061 SA
BRANCH   2   4
HETATM    4  C2  UNL     1      -2.348   1.986  -0.417  1.00  0.00     0.031 C 
HETATM    5  C1  UNL     1      -2.838   3.199  -0.129  1.00  0.00     0.014 C 
ENDBRANCH   2   4
ENDBRANCH   1   2
BRANCH   1   6
HETATM    6  C4  UNL     1       1.007   0.200   0.092  1.00  0.00     0.086 C 
HETATM    7  C5  UNL     1       1.325   0.346   1.536  1.00  0.00     0.025 C 
HETATM    8  C6  UNL     1       2.561  -0.554   1.770  1.00  0.00     0.002 C 
HETATM    9  C7  UNL     1       3.690  -0.146   0.866  1.00  0.00     0.000 C 
HETATM   10  C8  UNL     1       3.337   0.226  -0.520  1.00  0.00     0.002 C 
HETATM   11  C9  UNL     1       2.035   0.984  -0.682  1.00  0.00     0.025 C 
ENDBRANCH   1   6
BRANCH   1  12
HETATM   12  C10 UNL     1      -1.058  -0.709  -0.932  1.00  0.00     0.133 C 
HETATM   13  C11 UNL     1      -1.657  -0.398  -2.254  1.00  0.00     0.039 C 
BRANCH  12  14
HETATM   14  C12 UNL     1      -1.977  -1.416  -0.033  1.00  0.00     0.057 A 
HETATM   15  C13 UNL     1      -2.177  -2.801   0.012  1.00  0.00     0.056 A 
HETATM   16  C14 UNL     1      -3.085  -3.079   0.978  1.00  0.00     0.169 A 
HETATM   17  O1  UNL     1      -3.436  -1.942   1.510  1.00  0.00    -0.250 OA
HETATM   18  N2  UNL     1      -2.808  -0.961   0.942  1.00  0.00    -0.264 N 
ATOM     19  H2  UNL     1      -2.922   0.021   1.193  1.00  0.00     0.194 HD
ENDBRANCH  12  14
ENDBRANCH   1  12
TORSDOF 5
