REMARK  4 active torsions:
REMARK  status: ('A' for Active; 'I' for Inactive)
REMARK    1  A    between atoms: C2_2  and  C3_3 
REMARK    2  A    between atoms: C4_4  and  C5_5 
REMARK    3  A    between atoms: C5_5  and  C7_7 
REMARK    4  A    between atoms: C16_18  and  O3_19 
ROOT
HETATM    1  C5  UNL     1      -1.386  -1.115  -0.683  1.00  0.00     0.055 C 
HETATM    2  C6  UNL     1      -1.240  -1.759  -2.099  1.00  0.00     0.018 C 
ENDROOT
BRANCH   1   3
HETATM    3  C4  UNL     1      -1.938   0.217  -0.841  1.00  0.00    -0.014 A 
HETATM    4  C3  UNL     1      -2.466   1.042   0.106  1.00  0.00     0.030 A 
HETATM    5  C16 UNL     1      -2.803   2.229  -0.585  1.00  0.00     0.193 A 
HETATM    6  O2  UNL     1      -2.483   2.064  -1.819  1.00  0.00    -0.299 OA
HETATM    7  C15 UNL     1      -1.965   0.894  -2.043  1.00  0.00     0.153 A 
BRANCH   4   8
HETATM    8  C2  UNL     1      -2.736   0.856   1.542  1.00  0.00     0.007 C 
HETATM    9  C1  UNL     1      -3.009  -0.240   2.170  1.00  0.00     0.012 C 
ENDBRANCH   4   8
BRANCH   5  10
HETATM   10  O3  UNL     1      -3.372   3.317   0.052  1.00  0.00    -0.340 OA
ATOM     11  H3  UNL     1      -3.598   4.114  -0.412  1.00  0.00     0.220 HD
ENDBRANCH   5  10
ENDBRANCH   1   3
BRANCH   1  12
HETATM   12  C7  UNL     1       0.023  -1.208  -0.137  1.00  0.00     0.097 A 
HETATM   13  C8  UNL     1       0.413  -2.699  -0.026  1.00  0.00     0.050 C 
HETATM   14  O1  UNL     1       0.360  -0.523   1.057  1.00  0.00    -0.363 OA
HETATM   15  C9  UNL     1       1.081  -0.324  -0.253  1.00  0.00     0.093 A 
HETATM   16  C10 UNL     1       1.213   1.124  -0.494  1.00  0.00     0.041 C 
HETATM   17  C14 UNL     1       2.519  -0.871  -0.181  1.00  0.00     0.041 C 
HETATM   18  C11 UNL     1       2.624   1.662  -0.207  1.00  0.00     0.003 C 
HETATM   19  C12 UNL     1       3.209   1.097   1.051  1.00  0.00     0.000 C 
HETATM   20  C13 UNL     1       3.066  -0.406   1.136  1.00  0.00     0.003 C 
ENDBRANCH   1  12
TORSDOF 4
