REMARK  4 active torsions:
REMARK  status: ('A' for Active; 'I' for Inactive)
REMARK    1  A    between atoms: C5_5  and  O1_6 
REMARK    2  A    between atoms: C6_8  and  C8_10 
REMARK    3  A    between atoms: C8_10  and  C9_11 
REMARK    4  A    between atoms: C9_11  and  C10_12 
ROOT
HETATM    1  C1  UNL     1      -4.928   1.301   0.583  1.00  0.00     0.049 C 
HETATM    2  C2  UNL     1      -4.187   0.001   0.275  1.00  0.00     0.091 C 
HETATM    3  C3  UNL     1      -5.199  -1.100   0.295  1.00  0.00     0.049 C 
HETATM    4  C4  UNL     1      -3.442   0.100  -1.047  1.00  0.00     0.075 C 
HETATM    5  C5  UNL     1      -2.029  -0.426  -0.921  1.00  0.00     0.158 C 
HETATM    6  C6  UNL     1      -1.299   0.369   0.116  1.00  0.00     0.118 C 
HETATM    7  C7  UNL     1      -0.875   1.678  -0.508  1.00  0.00     0.052 C 
HETATM    8  O2  UNL     1      -2.310   0.761   1.043  1.00  0.00    -0.227 OA
HETATM    9  O3  UNL     1      -3.177  -0.177   1.249  1.00  0.00    -0.230 OA
ENDROOT
BRANCH   6  10
HETATM   10  C8  UNL     1      -0.304  -0.341   0.909  1.00  0.00     0.044 C 
BRANCH  10  11
HETATM   11  C9  UNL     1       0.854  -1.000   0.307  1.00  0.00     0.008 C 
BRANCH  11  12
HETATM   12  C10 UNL     1       1.829  -0.176  -0.455  1.00  0.00    -0.014 C 
HETATM   13  C11 UNL     1       2.906  -1.156  -0.957  1.00  0.00     0.004 C 
HETATM   14  C12 UNL     1       3.908  -1.505   0.087  1.00  0.00     0.000 C 
HETATM   15  C13 UNL     1       4.995  -0.498   0.263  1.00  0.00     0.000 C 
HETATM   16  C14 UNL     1       4.866   0.699  -0.651  1.00  0.00     0.000 C 
HETATM   17  C15 UNL     1       3.617   1.483  -0.444  1.00  0.00     0.000 C 
HETATM   18  C16 UNL     1       2.603   0.789   0.435  1.00  0.00     0.004 C 
ENDBRANCH  11  12
ENDBRANCH  10  11
ENDBRANCH   6  10
BRANCH   5  19
HETATM   19  O1  UNL     1      -2.061  -1.768  -0.722  1.00  0.00    -0.392 OA
ATOM     20  H1  UNL     1      -1.174  -2.098  -0.643  1.00  0.00     0.210 HD
ENDBRANCH   5  19
TORSDOF 4
