REMARK  12 active torsions:
REMARK  status: ('A' for Active; 'I' for Inactive)
REMARK    1  A    between atoms: C2_2  and  C3_3 
REMARK    2  A    between atoms: C3_3  and  C4_4 
REMARK    3  A    between atoms: C4_4  and  C5_5 
REMARK    4  A    between atoms: C5_5  and  C6_6 
REMARK    5  A    between atoms: C6_6  and  C7_7 
REMARK    6  A    between atoms: C6_6  and  C15_15 
REMARK    7  A    between atoms: C10_10  and  C11_11 
REMARK    8  A    between atoms: C15_15  and  O1_16 
REMARK    9  A    between atoms: C15_15  and  C16_18 
REMARK   10  A    between atoms: C16_18  and  C17_19 
REMARK   11  A    between atoms: C17_19  and  C18_21 
REMARK   12  A    between atoms: C18_21  and  C19_22 
ROOT
HETATM    1  C6  UNL     1       0.291   0.207   0.299  1.00  0.00     0.048 C 
ENDROOT
BRANCH   1   2
HETATM    2  C5  UNL     1      -0.140   1.424  -0.453  1.00  0.00     0.012 C 
BRANCH   2   3
HETATM    3  C4  UNL     1      -1.393   1.958   0.248  1.00  0.00     0.001 C 
BRANCH   3   4
HETATM    4  C3  UNL     1      -1.904   3.201  -0.452  1.00  0.00    -0.000 C 
BRANCH   4   5
HETATM    5  C2  UNL     1      -3.125   3.690   0.263  1.00  0.00    -0.005 C 
HETATM    6  C1  UNL     1      -2.883   4.044   1.694  1.00  0.00     0.005 C 
ENDBRANCH   4   5
ENDBRANCH   3   4
ENDBRANCH   2   3
ENDBRANCH   1   2
BRANCH   1   7
HETATM    7  C7  UNL     1      -0.810  -0.788   0.260  1.00  0.00    -0.051 A 
HETATM    8  C8  UNL     1      -1.251  -1.265  -0.943  1.00  0.00     0.008 A 
HETATM    9  C9  UNL     1      -2.277  -2.191  -0.976  1.00  0.00     0.007 A 
HETATM   10  C10 UNL     1      -2.827  -2.607   0.220  1.00  0.00    -0.059 A 
HETATM   11  C13 UNL     1      -2.402  -2.143   1.441  1.00  0.00     0.007 A 
HETATM   12  C14 UNL     1      -1.364  -1.207   1.444  1.00  0.00     0.008 A 
BRANCH  10  13
HETATM   13  C11 UNL     1      -3.925  -3.600   0.168  1.00  0.00     0.034 C 
HETATM   14  C12 UNL     1      -5.240  -2.863   0.081  1.00  0.00     0.010 C 
ENDBRANCH  10  13
ENDBRANCH   1   7
BRANCH   1  15
HETATM   15  C15 UNL     1       1.510  -0.458  -0.292  1.00  0.00     0.133 C 
BRANCH  15  16
HETATM   16  O1  UNL     1       1.780  -1.578   0.528  1.00  0.00    -0.394 OA
ATOM     17  H1  UNL     1       2.547  -1.997   0.156  1.00  0.00     0.210 HD
ENDBRANCH  15  16
BRANCH  15  18
HETATM   18  C16 UNL     1       2.732   0.412  -0.233  1.00  0.00     0.110 C 
BRANCH  18  19
HETATM   19  C17 UNL     1       3.853  -0.386  -0.854  1.00  0.00     0.129 C 
HETATM   20  O2  UNL     1       3.918  -0.421  -2.067  1.00  0.00    -0.298 OA
BRANCH  19  21
HETATM   21  C18 UNL     1       4.832  -1.097   0.019  1.00  0.00     0.078 C 
BRANCH  21  22
HETATM   22  C19 UNL     1       6.084  -0.254   0.084  1.00  0.00     0.003 C 
HETATM   23  C20 UNL     1       6.667  -0.068  -1.295  1.00  0.00     0.005 C 
ENDBRANCH  21  22
ENDBRANCH  19  21
ENDBRANCH  18  19
ENDBRANCH  15  18
ENDBRANCH   1  15
TORSDOF 12
