REMARK  13 active torsions:
REMARK  status: ('A' for Active; 'I' for Inactive)
REMARK    1  A    between atoms: C2_2  and  C3_3 
REMARK    2  A    between atoms: C3_3  and  C4_4 
REMARK    3  A    between atoms: C3_3  and  O1_10 
REMARK    4  A    between atoms: C4_4  and  C5_5 
REMARK    5  A    between atoms: C5_5  and  C6_6 
REMARK    6  A    between atoms: C6_6  and  C7_7 
REMARK    7  A    between atoms: O1_10  and  C10_11 
REMARK    8  A    between atoms: C10_11  and  C11_12 
REMARK    9  A    between atoms: C11_12  and  C12_13 
REMARK   10  A    between atoms: C15_16  and  C16_17 
REMARK   11  A    between atoms: C16_17  and  C17_18 
REMARK   12  A    between atoms: C17_18  and  C18_19 
REMARK   13  A    between atoms: C18_19  and  O2_20 
ROOT
HETATM    1  C11 UNL     1       1.356  -2.610  -2.027  1.00  0.00     0.064 C 
ENDROOT
BRANCH   1   2
HETATM    2  C10 UNL     1       0.024  -1.862  -1.942  1.00  0.00     0.172 C 
BRANCH   2   3
HETATM    3  O1  UNL     1      -0.348  -1.880  -0.606  1.00  0.00    -0.386 OA
BRANCH   3   4
HETATM    4  C3  UNL     1      -1.540  -1.241  -0.349  1.00  0.00     0.121 C 
BRANCH   4   5
HETATM    5  C2  UNL     1      -2.588  -2.186   0.209  1.00  0.00     0.027 C 
HETATM    6  C1  UNL     1      -2.766  -3.315  -0.794  1.00  0.00     0.007 C 
ENDBRANCH   4   5
BRANCH   4   7
HETATM    7  C4  UNL     1      -1.342  -0.110   0.628  1.00  0.00     0.032 C 
BRANCH   7   8
HETATM    8  C5  UNL     1      -2.605   0.669   0.867  1.00  0.00     0.003 C 
BRANCH   8   9
HETATM    9  C6  UNL     1      -3.139   1.287  -0.408  1.00  0.00     0.004 C 
BRANCH   9  10
HETATM   10  C7  UNL     1      -4.417   2.053  -0.057  1.00  0.00    -0.023 C 
HETATM   11  C8  UNL     1      -5.006   2.698  -1.289  1.00  0.00     0.009 C 
HETATM   12  C9  UNL     1      -4.137   3.135   0.950  1.00  0.00     0.009 C 
ENDBRANCH   9  10
ENDBRANCH   8   9
ENDBRANCH   7   8
ENDBRANCH   4   7
ENDBRANCH   3   4
ENDBRANCH   2   3
ENDBRANCH   1   2
BRANCH   1  13
HETATM   13  C12 UNL     1       2.390  -1.949  -1.195  1.00  0.00    -0.056 A 
HETATM   14  C13 UNL     1       3.172  -0.964  -1.795  1.00  0.00     0.007 A 
HETATM   15  C14 UNL     1       4.155  -0.311  -1.064  1.00  0.00     0.007 A 
HETATM   16  C15 UNL     1       4.355  -0.638   0.251  1.00  0.00    -0.058 A 
HETATM   17  C19 UNL     1       3.589  -1.604   0.839  1.00  0.00     0.007 A 
HETATM   18  C20 UNL     1       2.610  -2.258   0.121  1.00  0.00     0.007 A 
BRANCH  16  19
HETATM   19  C16 UNL     1       5.395   0.042   1.049  1.00  0.00     0.041 C 
BRANCH  19  20
HETATM   20  C17 UNL     1       4.828   1.222   1.757  1.00  0.00     0.030 C 
BRANCH  20  21
HETATM   21  C18 UNL     1       4.268   2.217   0.801  1.00  0.00     0.164 C 
BRANCH  21  22
HETATM   22  O2  UNL     1       3.772   3.300   1.550  1.00  0.00    -0.401 OA
ATOM     23  H2  UNL     1       3.415   3.935   0.940  1.00  0.00     0.209 HD
ENDBRANCH  21  22
ENDBRANCH  20  21
ENDBRANCH  19  20
ENDBRANCH  16  19
ENDBRANCH   1  13
TORSDOF 13
