REMARK  10 active torsions:
REMARK  status: ('A' for Active; 'I' for Inactive)
REMARK    1  A    between atoms: O1_2  and  C2_3 
REMARK    2  A    between atoms: C3_5  and  C4_6 
REMARK    3  A    between atoms: C4_6  and  O3_7 
REMARK    4  A    between atoms: C5_10  and  O5_11 
REMARK    5  A    between atoms: O5_11  and  C6_12 
REMARK    6  A    between atoms: C8_14  and  C9_15 
REMARK    7  A    between atoms: N1_16  and  N2_18 
REMARK    8  A    between atoms: C10_21  and  O6_22 
REMARK    9  A    between atoms: C11_24  and  N3_25 
REMARK   10  A    between atoms: C12_29  and  O7_30 
ROOT
HETATM    1  C6  UNL     1       1.082  -0.071  -0.142  1.00  0.00     0.158 C 
HETATM    2  C7  UNL     1       2.145  -0.950  -0.760  1.00  0.00     0.046 C 
HETATM    3  C8  UNL     1       3.425  -0.558  -0.084  1.00  0.00     0.059 C 
HETATM    4  C10 UNL     1       3.075   0.468   0.971  1.00  0.00     0.160 C 
HETATM    5  C11 UNL     1       1.863   1.144   0.316  1.00  0.00     0.241 C 
ENDROOT
BRANCH   1   6
HETATM    6  O5  UNL     1       0.112   0.313  -1.024  1.00  0.00    -0.351 OA
BRANCH   6   7
HETATM    7  C5  UNL     1      -1.132  -0.051  -0.531  1.00  0.00     0.297 C 
HETATM    8  O4  UNL     1      -1.673  -0.968  -1.389  1.00  0.00    -0.327 OA
HETATM    9  C3  UNL     1      -2.992  -1.176  -1.365  1.00  0.00     0.289 C 
HETATM   10  O2  UNL     1      -3.816  -0.151  -0.999  1.00  0.00    -0.327 OA
HETATM   11  C2  UNL     1      -3.388   0.603   0.070  1.00  0.00     0.295 C 
HETATM   12  C12 UNL     1      -2.015   1.140  -0.271  1.00  0.00     0.228 C 
BRANCH   9  13
HETATM   13  C4  UNL     1      -3.267  -2.339  -0.398  1.00  0.00     0.225 C 
BRANCH  13  14
HETATM   14  O3  UNL     1      -4.591  -2.747  -0.470  1.00  0.00    -0.396 OA
ATOM     15  H3  UNL     1      -4.761  -3.466   0.128  1.00  0.00     0.209 HD
ENDBRANCH  13  14
ENDBRANCH   9  13
BRANCH  11  16
HETATM   16  O1  UNL     1      -4.251   1.688   0.207  1.00  0.00    -0.363 OA
HETATM   17  C1  UNL     1      -4.754   1.661   1.506  1.00  0.00     0.204 C 
ENDBRANCH  11  16
BRANCH  12  18
HETATM   18  O7  UNL     1      -1.542   1.820   0.850  1.00  0.00    -0.386 OA
ATOM     19  H7  UNL     1      -0.680   2.157   0.636  1.00  0.00     0.210 HD
ENDBRANCH  12  18
ENDBRANCH   6   7
ENDBRANCH   1   6
BRANCH   5  20
HETATM   20  N3  UNL     1       2.262   1.943  -0.823  1.00  0.00    -0.070 N 
ATOM     21  H33 UNL     1       2.780   1.395  -1.510  1.00  0.00     0.274 HD
ATOM     22  H32 UNL     1       1.465   2.200  -1.405  1.00  0.00     0.274 HD
ATOM     23  H31 UNL     1       2.788   2.761  -0.515  1.00  0.00     0.274 HD
ENDBRANCH   5  20
BRANCH   3  24
HETATM   24  C9  UNL     1       4.408  -0.006  -1.060  1.00  0.00     0.087 C 
HETATM   25  N1  UNL     1       5.675  -0.014  -0.813  1.00  0.00    -0.322 N 
ATOM     26  H1  UNL     1       6.331   0.368  -1.494  1.00  0.00     0.185 HD
BRANCH  25  27
HETATM   27  N2  UNL     1       6.144  -0.547   0.389  1.00  0.00    -0.346 N 
ATOM     28  H22 UNL     1       5.474  -0.925   1.059  1.00  0.00     0.176 HD
ATOM     29  H21 UNL     1       7.145  -0.553   0.584  1.00  0.00     0.176 HD
ENDBRANCH  25  27
ENDBRANCH   3  24
BRANCH   4  30
HETATM   30  O6  UNL     1       2.616  -0.188   2.107  1.00  0.00    -0.393 OA
ATOM     31  H6  UNL     1       2.396   0.456   2.770  1.00  0.00     0.210 HD
ENDBRANCH   4  30
TORSDOF 10
