REMARK  11 active torsions:
REMARK  status: ('A' for Active; 'I' for Inactive)
REMARK    1  A    between atoms: O1_2  and  C2_3 
REMARK    2  A    between atoms: C3_5  and  O3_6 
REMARK    3  A    between atoms: O3_6  and  C4_7 
REMARK    4  A    between atoms: C6_12  and  O4_13 
REMARK    5  A    between atoms: C7_15  and  O5_16 
REMARK    6  A    between atoms: C8_18  and  O6_19 
REMARK    7  A    between atoms: C9_21  and  N2_22 
REMARK    8  A    between atoms: C10_26  and  N3_27 
REMARK    9  A    between atoms: C11_31  and  N4_32 
REMARK   10  A    between atoms: N4_32  and  N5_34 
REMARK   11  A    between atoms: N5_34  and  N6_35 
ROOT
HETATM    1  C2  UNL     1      -2.506   1.221  -0.460  1.00  0.00     0.289 C 
HETATM    2  O2  UNL     1      -1.399   0.828  -1.197  1.00  0.00    -0.327 OA
HETATM    3  C3  UNL     1      -0.722  -0.241  -0.680  1.00  0.00     0.298 C 
HETATM    4  C9  UNL     1      -1.548  -1.300  -0.026  1.00  0.00     0.271 C 
HETATM    5  C10 UNL     1      -2.948  -1.241  -0.522  1.00  0.00     0.248 C 
HETATM    6  C11 UNL     1      -3.518   0.140  -0.290  1.00  0.00     0.202 C 
ENDROOT
BRANCH   3   7
HETATM    7  O3  UNL     1       0.230   0.162   0.288  1.00  0.00    -0.324 OA
BRANCH   7   8
HETATM    8  C4  UNL     1       1.523  -0.103  -0.090  1.00  0.00     0.354 C 
HETATM    9  N1  UNL     1       2.215   1.199  -0.101  1.00  0.00    -0.044 N 
HETATM   10  C5  UNL     1       3.544   0.969  -0.682  1.00  0.00     0.269 C 
ATOM     11  H12 UNL     1       1.688   1.930  -0.579  1.00  0.00     0.280 HD
ATOM     12  H11 UNL     1       2.249   1.644   0.816  1.00  0.00     0.280 HD
HETATM   13  C6  UNL     1       4.359   0.149   0.325  1.00  0.00     0.175 C 
HETATM   14  C7  UNL     1       3.625  -1.121   0.625  1.00  0.00     0.181 C 
HETATM   15  C8  UNL     1       2.181  -0.901   1.013  1.00  0.00     0.205 C 
BRANCH  13  16
HETATM   16  O4  UNL     1       4.584   0.885   1.481  1.00  0.00    -0.391 OA
ATOM     17  H4  UNL     1       5.089   0.377   2.105  1.00  0.00     0.210 HD
ENDBRANCH  13  16
BRANCH  14  18
HETATM   18  O5  UNL     1       3.650  -1.994  -0.447  1.00  0.00    -0.390 OA
ATOM     19  H5  UNL     1       3.184  -2.800  -0.257  1.00  0.00     0.210 HD
ENDBRANCH  14  18
BRANCH  15  20
HETATM   20  O6  UNL     1       2.128  -0.143   2.176  1.00  0.00    -0.388 OA
ATOM     21  H6  UNL     1       2.541  -0.644   2.869  1.00  0.00     0.210 HD
ENDBRANCH  15  20
ENDBRANCH   7   8
ENDBRANCH   3   7
BRANCH   4  22
HETATM   22  N2  UNL     1      -0.904  -2.576  -0.282  1.00  0.00    -0.068 N 
ATOM     23  H23 UNL     1      -0.747  -2.750  -1.275  1.00  0.00     0.275 HD
ATOM     24  H22 UNL     1       0.072  -2.595   0.012  1.00  0.00     0.275 HD
ATOM     25  H21 UNL     1      -1.468  -3.299   0.165  1.00  0.00     0.275 HD
ENDBRANCH   4  22
BRANCH   1  26
HETATM   26  O1  UNL     1      -3.107   2.270  -1.155  1.00  0.00    -0.364 OA
HETATM   27  C1  UNL     1      -3.098   3.453  -0.424  1.00  0.00     0.204 C 
ENDBRANCH   1  26
BRANCH   5  28
HETATM   28  N3  UNL     1      -3.108  -1.603  -1.897  1.00  0.00    -0.071 N 
ATOM     29  H33 UNL     1      -2.499  -1.036  -2.486  1.00  0.00     0.274 HD
ATOM     30  H32 UNL     1      -2.709  -2.526  -2.069  1.00  0.00     0.274 HD
ATOM     31  H31 UNL     1      -4.069  -1.563  -2.237  1.00  0.00     0.274 HD
ENDBRANCH   5  28
BRANCH   6  32
HETATM   32  N4  UNL     1      -4.064   0.221   1.050  1.00  0.00    -0.241 N 
ATOM     33  H4  UNL     1      -5.050   0.036   1.233  1.00  0.00     0.197 HD
BRANCH  32  34
HETATM   34  N5  UNL     1      -3.291   0.522   1.956  1.00  0.00    -0.248 NA
BRANCH  34  35
HETATM   35  N6  UNL     1      -2.789   1.029   2.971  1.00  0.00    -0.261 N 
ATOM     36  H62 UNL     1      -3.615   1.582   3.200  1.00  0.00     0.193 HD
ATOM     37  H61 UNL     1      -2.147   1.279   3.723  1.00  0.00     0.193 HD
ENDBRANCH  34  35
ENDBRANCH  32  34
ENDBRANCH   6  32
TORSDOF 11
