REMARK  10 active torsions:
REMARK  status: ('A' for Active; 'I' for Inactive)
REMARK    1  A    between atoms: C3_4  and  C4_5 
REMARK    2  A    between atoms: C4_5  and  O2_7 
REMARK    3  A    between atoms: O2_7  and  C5_8 
REMARK    4  A    between atoms: C6_9  and  N2_10 
REMARK    5  A    between atoms: C7_14  and  O3_15 
REMARK    6  A    between atoms: C8_17  and  O4_18 
REMARK    7  A    between atoms: C9_20  and  O5_21 
REMARK    8  A    between atoms: C10_23  and  N3_24 
REMARK    9  A    between atoms: N3_24  and  O6_26 
REMARK   10  A    between atoms: O6_26  and  S1_27 
ROOT
HETATM    1  C5  UNL     1      -0.120  -0.513  -0.480  1.00  0.00     0.192 C 
HETATM    2  C6  UNL     1      -0.148  -2.009  -0.163  1.00  0.00     0.246 C 
HETATM    3  C7  UNL     1      -1.494  -2.597  -0.434  1.00  0.00     0.182 C 
HETATM    4  C8  UNL     1      -2.566  -1.580  -0.689  1.00  0.00     0.179 C 
HETATM    5  C9  UNL     1      -2.499  -0.430   0.267  1.00  0.00     0.176 C 
HETATM    6  C10 UNL     1      -1.131   0.120   0.481  1.00  0.00     0.170 C 
ENDROOT
BRANCH   1   7
HETATM    7  O2  UNL     1       1.160  -0.029  -0.214  1.00  0.00    -0.308 OA
BRANCH   7   8
HETATM    8  C4  UNL     1       1.921   0.588  -1.194  1.00  0.00     0.284 C 
HETATM    9  O1  UNL     1       1.443   0.721  -2.376  1.00  0.00    -0.260 OA
BRANCH   8  10
HETATM   10  C3  UNL     1       3.237   1.074  -0.881  1.00  0.00     0.103 C 
HETATM   11  C2  UNL     1       3.720   0.932   0.338  1.00  0.00     0.026 C 
HETATM   12  C1  UNL     1       5.091   1.452   0.618  1.00  0.00     0.065 C 
HETATM   13  N1  UNL     1       3.005   0.316   1.384  1.00  0.00    -0.107 NA
ENDBRANCH   8  10
ENDBRANCH   7   8
ENDBRANCH   1   7
BRANCH   2  14
HETATM   14  N2  UNL     1       0.279  -2.181   1.208  1.00  0.00    -0.070 N 
ATOM     15  H23 UNL     1       1.186  -1.754   1.396  1.00  0.00     0.274 HD
ATOM     16  H22 UNL     1      -0.270  -1.627   1.865  1.00  0.00     0.274 HD
ATOM     17  H21 UNL     1       0.260  -3.179   1.419  1.00  0.00     0.274 HD
ENDBRANCH   2  14
BRANCH   6  18
HETATM   18  N3  UNL     1      -1.035   1.535   0.373  1.00  0.00    -0.274 N 
ATOM     19  H3  UNL     1      -0.791   2.125   1.169  1.00  0.00     0.189 HD
BRANCH  18  20
HETATM   20  O6  UNL     1      -1.282   2.038  -0.827  1.00  0.00    -0.142 OA
BRANCH  20  21
HETATM   21  S1  UNL     1      -2.322   3.330  -0.848  1.00  0.00     0.422 S 
HETATM   22  O7  UNL     1      -1.776   4.486  -1.671  1.00  0.00    -0.177 OA
HETATM   23  O8  UNL     1      -2.643   3.856   0.502  1.00  0.00    -0.177 OA
ENDBRANCH  20  21
ENDBRANCH  18  20
ENDBRANCH   6  18
BRANCH   3  24
HETATM   24  O3  UNL     1      -1.890  -3.319   0.716  1.00  0.00    -0.391 OA
ATOM     25  H3  UNL     1      -2.746  -3.693   0.544  1.00  0.00     0.210 HD
ENDBRANCH   3  24
BRANCH   5  26
HETATM   26  O5  UNL     1      -3.006  -0.892   1.503  1.00  0.00    -0.391 OA
ATOM     27  H5  UNL     1      -2.963  -0.162   2.110  1.00  0.00     0.210 HD
ENDBRANCH   5  26
BRANCH   4  28
HETATM   28  O4  UNL     1      -2.624  -1.181  -2.022  1.00  0.00    -0.390 OA
ATOM     29  H4  UNL     1      -3.303  -0.537  -2.184  1.00  0.00     0.210 HD
ENDBRANCH   4  28
TORSDOF 10
