REMARK  7 active torsions:
REMARK  status: ('A' for Active; 'I' for Inactive)
REMARK    1  A    between atoms: O1_1  and  C1_3 
REMARK    2  A    between atoms: C1_3  and  C2_4 
REMARK    3  A    between atoms: C2_4  and  S1_5 
REMARK    4  A    between atoms: S1_5  and  C3_6 
REMARK    5  A    between atoms: C3_6  and  C4_7 
REMARK    6  A    between atoms: C4_7  and  N1_8 
REMARK    7  A    between atoms: N1_8  and  C5_10 
ROOT
HETATM    1  C5  UNL     1      -1.630  -0.549  -0.001  1.00  0.00     0.090 C 
HETATM    2  N2  UNL     1      -2.251  -0.719  -1.112  1.00  0.00    -0.347 N 
ATOM      3  H2  UNL     1      -1.979  -1.387  -1.834  1.00  0.00     0.163 HD
HETATM    4  C6  UNL     1      -3.399   0.175  -1.198  1.00  0.00     0.290 C 
HETATM    5  N3  UNL     1      -4.580  -0.337  -0.581  1.00  0.00    -0.086 NA
HETATM    6  N4  UNL     1      -5.177   0.724   0.111  1.00  0.00    -0.019 NA
HETATM    7  N5  UNL     1      -4.242   1.744   0.219  1.00  0.00    -0.035 NA
HETATM    8  N6  UNL     1      -3.029   1.253  -0.277  1.00  0.00    -0.171 NA
HETATM    9  C7  UNL     1      -2.352   0.496   0.750  1.00  0.00     0.190 C 
ENDROOT
BRANCH   1  10
HETATM   10  N1  UNL     1      -0.463  -1.215   0.480  1.00  0.00    -0.378 N 
ATOM     11  H1  UNL     1      -0.540  -2.195   0.753  1.00  0.00     0.160 HD
BRANCH  10  12
HETATM   12  C4  UNL     1       0.815  -0.569   0.597  1.00  0.00     0.131 C 
BRANCH  12  13
HETATM   13  C3  UNL     1       1.883  -1.489   1.129  1.00  0.00     0.093 C 
BRANCH  13  14
HETATM   14  S1  UNL     1       3.421  -0.500   1.205  1.00  0.00    -0.165 SA
BRANCH  14  15
HETATM   15  C2  UNL     1       3.950  -0.057  -0.494  1.00  0.00     0.100 C 
BRANCH  15  16
HETATM   16  C1  UNL     1       5.235   0.764  -0.334  1.00  0.00     0.174 C 
BRANCH  16  17
HETATM   17  O1  UNL     1       6.203   0.016   0.302  1.00  0.00    -0.400 OA
ATOM     18  H1  UNL     1       6.999   0.525   0.401  1.00  0.00     0.209 HD
ENDBRANCH  16  17
ENDBRANCH  15  16
ENDBRANCH  14  15
ENDBRANCH  13  14
ENDBRANCH  12  13
ENDBRANCH  10  12
ENDBRANCH   1  10
TORSDOF 7
