REMARK  7 active torsions:
REMARK  status: ('A' for Active; 'I' for Inactive)
REMARK    1  A    between atoms: N2_6  and  C3_8 
REMARK    2  A    between atoms: C3_8  and  C4_9 
REMARK    3  A    between atoms: C4_9  and  C5_10 
REMARK    4  A    between atoms: C5_10  and  C6_11 
REMARK    5  A    between atoms: C6_11  and  O1_12 
REMARK    6  A    between atoms: O1_12  and  N3_13 
REMARK    7  A    between atoms: N7_22  and  N8_23 
ROOT
HETATM    1  N1  UNL     1      -2.738  -2.485  -0.229  1.00  0.00    -0.380 N 
ATOM      2  H11 UNL     1      -3.538  -3.118  -0.218  1.00  0.00     0.158 HD
ATOM      3  H12 UNL     1      -1.790  -2.826  -0.387  1.00  0.00     0.158 HD
HETATM    4  C1  UNL     1      -2.937  -1.235  -0.039  1.00  0.00     0.182 A 
HETATM    5  C2  UNL     1      -1.859  -0.382  -0.054  1.00  0.00     0.151 A 
HETATM    6  N2  UNL     1      -0.681  -0.829  -0.253  1.00  0.00    -0.373 N 
ATOM      7  H2  UNL     1      -0.530  -1.827  -0.403  1.00  0.00     0.161 HD
HETATM    8  N4  UNL     1      -2.088   0.929   0.148  1.00  0.00    -0.312 N 
ATOM      9  H4  UNL     1      -1.311   1.590   0.144  1.00  0.00     0.170 HD
HETATM   10  C7  UNL     1      -3.343   1.365   0.355  1.00  0.00     0.210 A 
HETATM   11  N5  UNL     1      -3.583   2.744   0.567  1.00  0.00    -0.062 NA
HETATM   12  N6  UNL     1      -4.391   0.514   0.366  1.00  0.00    -0.251 N 
ATOM     13  H6  UNL     1      -5.336   0.863   0.524  1.00  0.00     0.192 HD
HETATM   14  N7  UNL     1      -4.179  -0.788   0.168  1.00  0.00    -0.181 N 
ENDROOT
BRANCH   6  15
HETATM   15  C3  UNL     1       0.426   0.074  -0.265  1.00  0.00     0.121 C 
BRANCH  15  16
HETATM   16  C4  UNL     1       1.759  -0.687  -0.230  1.00  0.00     0.022 C 
BRANCH  16  17
HETATM   17  C5  UNL     1       2.833   0.389  -0.247  1.00  0.00     0.030 C 
BRANCH  17  18
HETATM   18  C6  UNL     1       4.219  -0.211  -0.216  1.00  0.00     0.200 C 
BRANCH  18  19
HETATM   19  O1  UNL     1       5.124   0.850  -0.234  1.00  0.00    -0.287 OA
BRANCH  19  20
HETATM   20  N3  UNL     1       6.414   0.380  -0.208  1.00  0.00    -0.311 N 
ATOM     21  H32 UNL     1       6.660  -0.610  -0.180  1.00  0.00     0.184 HD
ATOM     22  H31 UNL     1       7.076   1.156  -0.221  1.00  0.00     0.184 HD
ENDBRANCH  19  20
ENDBRANCH  18  19
ENDBRANCH  17  18
ENDBRANCH  16  17
ENDBRANCH  15  16
ENDBRANCH   6  15
BRANCH  14  23
HETATM   23  N8  UNL     1      -5.245  -1.686   0.175  1.00  0.00    -0.322 N 
ATOM     24  H82 UNL     1      -5.083  -2.682   0.024  1.00  0.00     0.179 HD
ATOM     25  H81 UNL     1      -6.193  -1.345   0.333  1.00  0.00     0.179 HD
ENDBRANCH  14  23
TORSDOF 7
