REMARK  8 active torsions:
REMARK  status: ('A' for Active; 'I' for Inactive)
REMARK    1  A    between atoms: C4_7  and  N3_8 
REMARK    2  A    between atoms: C5_13  and  S1_14 
REMARK    3  A    between atoms: S1_14  and  C6_15 
REMARK    4  A    between atoms: C6_15  and  O1_16 
REMARK    5  A    between atoms: C6_15  and  C7_20 
REMARK    6  A    between atoms: O1_16  and  N5_17 
REMARK    7  A    between atoms: C7_20  and  N6_21 
REMARK    8  A    between atoms: C7_20  and  N7_25 
ROOT
HETATM    1  N1  UNL     1       1.737   3.350  -0.350  1.00  0.00    -0.191 NA
HETATM    2  C1  UNL     1       1.942   2.199  -0.367  1.00  0.00     0.103 C 
HETATM    3  C2  UNL     1       2.200   0.798  -0.404  1.00  0.00     0.094 A 
HETATM    4  C3  UNL     1       3.439   0.308   0.025  1.00  0.00     0.131 A 
HETATM    5  N2  UNL     1       3.636  -1.020  -0.028  1.00  0.00    -0.201 N 
ATOM      6  H2  UNL     1       4.532  -1.398   0.280  1.00  0.00     0.183 HD
HETATM    7  C4  UNL     1       2.692  -1.868  -0.474  1.00  0.00     0.676 A 
HETATM    8  N4  UNL     1       1.494  -1.365  -0.887  1.00  0.00    -0.184 N 
ATOM      9  H4  UNL     1       0.782  -2.012  -1.225  1.00  0.00     0.185 HD
HETATM   10  C5  UNL     1       1.214  -0.049  -0.866  1.00  0.00     0.111 A 
ENDROOT
BRANCH  10  11
HETATM   11  S1  UNL     1      -0.347   0.622  -1.403  1.00  0.00    -0.071 SA
BRANCH  11  12
HETATM   12  C6  UNL     1      -1.544   0.740  -0.060  1.00  0.00     0.276 C 
BRANCH  12  13
HETATM   13  O1  UNL     1      -2.717   1.272  -0.589  1.00  0.00    -0.267 OA
BRANCH  13  14
HETATM   14  N5  UNL     1      -3.087   2.416   0.064  1.00  0.00    -0.310 N 
ATOM     15  H52 UNL     1      -2.559   2.816   0.839  1.00  0.00     0.184 HD
ATOM     16  H51 UNL     1      -3.946   2.806  -0.324  1.00  0.00     0.184 HD
ENDBRANCH  13  14
ENDBRANCH  12  13
BRANCH  12  17
HETATM   17  C7  UNL     1      -1.857  -0.636   0.457  1.00  0.00     0.419 C 
BRANCH  17  18
HETATM   18  N6  UNL     1      -2.332  -1.434  -0.644  1.00  0.00    -0.047 N 
ATOM     19  H63 UNL     1      -3.122  -1.007  -1.127  1.00  0.00     0.276 HD
ATOM     20  H62 UNL     1      -1.681  -1.448  -1.429  1.00  0.00     0.276 HD
ATOM     21  H61 UNL     1      -2.544  -2.368  -0.293  1.00  0.00     0.276 HD
ENDBRANCH  17  18
BRANCH  17  22
HETATM   22  N7  UNL     1      -2.852  -0.633   1.495  1.00  0.00    -0.047 N 
ATOM     23  H73 UNL     1      -2.582  -0.011   2.257  1.00  0.00     0.276 HD
ATOM     24  H72 UNL     1      -3.700  -0.159   1.185  1.00  0.00     0.276 HD
ATOM     25  H71 UNL     1      -3.064  -1.567   1.846  1.00  0.00     0.276 HD
ENDBRANCH  17  22
ENDBRANCH  12  17
ENDBRANCH  11  12
ENDBRANCH  10  11
BRANCH   7  26
HETATM   26  N3  UNL     1       2.928  -3.135  -0.507  1.00  0.00    -0.234 N 
ATOM     27  H32 UNL     1       3.824  -3.511  -0.198  1.00  0.00     0.174 HD
ATOM     28  H31 UNL     1       2.212  -3.778  -0.845  1.00  0.00     0.174 HD
ENDBRANCH   7  26
TORSDOF 8
