REMARK  10 active torsions:
REMARK  status: ('A' for Active; 'I' for Inactive)
REMARK    1  A    between atoms: N1_1  and  C1_4 
REMARK    2  A    between atoms: C4_11  and  N4_12 
REMARK    3  A    between atoms: N4_12  and  C5_14 
REMARK    4  A    between atoms: C5_14  and  C6_15 
REMARK    5  A    between atoms: C6_15  and  N5_16 
REMARK    6  A    between atoms: N5_16  and  C7_19 
REMARK    7  A    between atoms: C7_19  and  C8_20 
REMARK    8  A    between atoms: C8_20  and  C9_21 
REMARK    9  A    between atoms: C9_21  and  C10_22 
REMARK   10  A    between atoms: C10_22  and  O1_23 
ROOT
HETATM    1  C1  UNL     1      -5.524   1.196   0.030  1.00  0.00     0.131 A 
HETATM    2  N2  UNL     1      -5.739   0.906  -1.264  1.00  0.00    -0.337 N 
ATOM      3  H2  UNL     1      -6.565   1.288  -1.724  1.00  0.00     0.168 HD
HETATM    4  C2  UNL     1      -4.901   0.129  -1.972  1.00  0.00     0.182 A 
HETATM    5  N3  UNL     1      -3.808  -0.383  -1.383  1.00  0.00    -0.347 N 
ATOM      6  H3  UNL     1      -3.175  -0.972  -1.923  1.00  0.00     0.167 HD
HETATM    7  C3  UNL     1      -3.537  -0.129  -0.089  1.00  0.00     0.111 A 
HETATM    8  C4  UNL     1      -2.427  -0.637   0.545  1.00  0.00     0.146 A 
HETATM    9  N6  UNL     1      -2.238  -0.334   1.830  1.00  0.00    -0.269 N 
ATOM     10  H6  UNL     1      -1.420  -0.703   2.315  1.00  0.00     0.190 HD
HETATM   11  N7  UNL     1      -3.084   0.431   2.486  1.00  0.00    -0.240 N 
ATOM     12  H7  UNL     1      -2.899   0.636   3.468  1.00  0.00     0.208 HD
HETATM   13  N8  UNL     1      -4.154   0.939   1.928  1.00  0.00    -0.280 N 
ATOM     14  H8  UNL     1      -4.787   1.528   2.469  1.00  0.00     0.188 HD
HETATM   15  C11 UNL     1      -4.408   0.676   0.639  1.00  0.00     0.123 A 
ENDROOT
BRANCH   8  16
HETATM   16  N4  UNL     1      -1.622  -1.378  -0.120  1.00  0.00    -0.372 N 
ATOM     17  H4  UNL     1      -1.844  -1.559  -1.099  1.00  0.00     0.161 HD
BRANCH  16  18
HETATM   18  C5  UNL     1      -0.427  -1.973   0.416  1.00  0.00     0.149 C 
BRANCH  18  19
HETATM   19  C6  UNL     1       0.672  -0.937   0.347  1.00  0.00     0.251 C 
BRANCH  19  20
HETATM   20  N5  UNL     1       1.914  -1.438   0.864  1.00  0.00    -0.074 N 
ATOM     21  H52 UNL     1       1.806  -1.800   1.812  1.00  0.00     0.277 HD
ATOM     22  H51 UNL     1       2.193  -2.301   0.397  1.00  0.00     0.277 HD
BRANCH  20  23
HETATM   23  C7  UNL     1       2.947  -0.444   0.794  1.00  0.00     0.232 C 
BRANCH  23  24
HETATM   24  C8  UNL     1       3.361  -0.117  -0.627  1.00  0.00     0.029 C 
BRANCH  24  25
HETATM   25  C9  UNL     1       4.443   0.929  -0.607  1.00  0.00     0.028 C 
BRANCH  25  26
HETATM   26  C10 UNL     1       5.675   0.513   0.125  1.00  0.00     0.164 C 
BRANCH  26  27
HETATM   27  O1  UNL     1       6.600   1.556   0.074  1.00  0.00    -0.401 OA
ATOM     28  H1  UNL     1       7.384   1.291   0.540  1.00  0.00     0.209 HD
ENDBRANCH  26  27
ENDBRANCH  25  26
ENDBRANCH  24  25
ENDBRANCH  23  24
ENDBRANCH  20  23
ENDBRANCH  19  20
ENDBRANCH  18  19
ENDBRANCH  16  18
ENDBRANCH   8  16
BRANCH   1  29
HETATM   29  N1  UNL     1      -6.347   1.939   0.666  1.00  0.00    -0.383 N 
ATOM     30  H12 UNL     1      -7.176   2.325   0.214  1.00  0.00     0.157 HD
ATOM     31  H11 UNL     1      -6.184   2.159   1.648  1.00  0.00     0.157 HD
ENDBRANCH   1  29
TORSDOF 10
