REMARK  10 active torsions:
REMARK  status: ('A' for Active; 'I' for Inactive)
REMARK    1  A    between atoms: N1_1  and  C1_4 
REMARK    2  A    between atoms: C3_6  and  C4_7 
REMARK    3  A    between atoms: C4_7  and  O1_8 
REMARK    4  A    between atoms: O1_8  and  N2_9 
REMARK    5  A    between atoms: N2_9  and  N3_10 
REMARK    6  A    between atoms: N2_9  and  C5_13 
REMARK    7  A    between atoms: C5_13  and  C6_14 
REMARK    8  A    between atoms: C6_14  and  C7_15 
REMARK    9  A    between atoms: C7_15  and  C8_16 
REMARK   10  A    between atoms: C9_27  and  N9_28 
ROOT
HETATM    1  O1  UNL     1      -0.630   0.382  -0.575  1.00  0.00    -0.279 OA
ENDROOT
BRANCH   1   2
HETATM    2  C4  UNL     1      -1.522  -0.490   0.023  1.00  0.00     0.254 C 
BRANCH   2   3
HETATM    3  C3  UNL     1      -2.908   0.062   0.025  1.00  0.00     0.055 A 
HETATM    4  C2  UNL     1      -3.185   1.295  -0.522  1.00  0.00     0.076 A 
HETATM    5  C1  UNL     1      -4.463   1.808  -0.524  1.00  0.00     0.116 A 
HETATM    6  N10 UNL     1      -5.456   1.085   0.022  1.00  0.00    -0.177 N 
HETATM    7  C9  UNL     1      -5.176  -0.126   0.558  1.00  0.00     0.677 A 
ATOM      8  H10 UNL     1      -6.410   1.445   0.032  1.00  0.00     0.185 HD
HETATM    9  N8  UNL     1      -3.938  -0.619   0.557  1.00  0.00    -0.193 N 
ATOM     10  H8  UNL     1      -3.768  -1.536   0.970  1.00  0.00     0.184 HD
BRANCH   5  11
HETATM   11  N1  UNL     1      -4.694   2.966  -1.043  1.00  0.00    -0.385 N 
ATOM     12  H12 UNL     1      -3.941   3.515  -1.457  1.00  0.00     0.157 HD
ATOM     13  H11 UNL     1      -5.641   3.346  -1.044  1.00  0.00     0.157 HD
ENDBRANCH   5  11
BRANCH   7  14
HETATM   14  N9  UNL     1      -6.136  -0.797   1.072  1.00  0.00    -0.234 N 
ATOM     15  H92 UNL     1      -5.925  -1.710   1.476  1.00  0.00     0.174 HD
ATOM     16  H91 UNL     1      -7.084  -0.420   1.073  1.00  0.00     0.174 HD
ENDBRANCH   7  14
ENDBRANCH   2   3
ENDBRANCH   1   2
BRANCH   1  17
HETATM   17  N2  UNL     1       0.643  -0.120  -0.578  1.00  0.00    -0.111 NA
BRANCH  17  18
HETATM   18  N3  UNL     1       1.284   0.296  -1.764  1.00  0.00    -0.341 NA
ATOM     19  H32 UNL     1       0.775   0.051  -2.613  1.00  0.00     0.173 HD
ATOM     20  H31 UNL     1       2.233  -0.078  -1.766  1.00  0.00     0.173 HD
ENDBRANCH  17  18
BRANCH  17  21
HETATM   21  C5  UNL     1       1.350   0.220   0.602  1.00  0.00     0.146 C 
BRANCH  21  22
HETATM   22  C6  UNL     1       2.693  -0.386   0.767  1.00  0.00     0.026 C 
BRANCH  22  23
HETATM   23  C7  UNL     1       3.731  -0.095  -0.256  1.00  0.00     0.080 C 
BRANCH  23  24
HETATM   24  C8  UNL     1       5.036  -0.759   0.123  1.00  0.00     0.113 A 
HETATM   25  N4  UNL     1       5.432  -1.990  -0.219  1.00  0.00    -0.272 N 
HETATM   26  N5  UNL     1       6.627  -2.234   0.288  1.00  0.00    -0.227 N 
ATOM     27  H4  UNL     1       4.892  -2.643  -0.787  1.00  0.00     0.190 HD
HETATM   28  N6  UNL     1       6.997  -1.173   0.950  1.00  0.00    -0.227 N 
ATOM     29  H5  UNL     1       7.163  -3.095   0.181  1.00  0.00     0.210 HD
HETATM   30  N7  UNL     1       6.039  -0.260   0.861  1.00  0.00    -0.272 N 
ATOM     31  H6  UNL     1       7.878  -1.063   1.453  1.00  0.00     0.210 HD
ATOM     32  H7  UNL     1       6.061   0.668   1.284  1.00  0.00     0.190 HD
ENDBRANCH  23  24
ENDBRANCH  22  23
ENDBRANCH  21  22
ENDBRANCH  17  21
ENDBRANCH   1  17
TORSDOF 10
