REMARK  9 active torsions:
REMARK  status: ('A' for Active; 'I' for Inactive)
REMARK    1  A    between atoms: N1_1  and  C1_5 
REMARK    2  A    between atoms: C1_5  and  C2_6 
REMARK    3  A    between atoms: C2_6  and  C3_7 
REMARK    4  A    between atoms: C3_7  and  N2_8 
REMARK    5  A    between atoms: N2_8  and  C4_11 
REMARK    6  A    between atoms: C4_11  and  C5_12 
REMARK    7  A    between atoms: N3_13  and  C6_15 
REMARK    8  A    between atoms: C8_22  and  N6_23 
REMARK    9  A    between atoms: N6_23  and  C9_25 
ROOT
HETATM    1  C6  UNL     1      -1.337  -1.996   0.073  1.00  0.00     0.152 A 
HETATM    2  N4  UNL     1      -1.317  -3.328  -0.064  1.00  0.00    -0.281 N 
ATOM      3  H4  UNL     1      -0.637  -3.859  -0.608  1.00  0.00     0.188 HD
HETATM    4  N5  UNL     1      -2.320  -3.841   0.619  1.00  0.00    -0.263 N 
ATOM      5  H5  UNL     1      -2.531  -4.837   0.682  1.00  0.00     0.190 HD
HETATM    6  C7  UNL     1      -3.025  -2.872   1.219  1.00  0.00     0.290 A 
HETATM    7  O1  UNL     1      -4.050  -3.024   1.951  1.00  0.00    -0.264 OA
HETATM    8  C8  UNL     1      -2.397  -1.676   0.872  1.00  0.00     0.150 A 
ENDROOT
BRANCH   1   9
HETATM    9  N3  UNL     1      -0.393  -1.114  -0.514  1.00  0.00    -0.351 N 
HETATM   10  C5  UNL     1       0.793  -1.124  -0.026  1.00  0.00     0.090 C 
ATOM     11  H3  UNL     1      -0.646  -0.500  -1.288  1.00  0.00     0.166 HD
BRANCH  10  12
HETATM   12  C4  UNL     1       1.919  -0.270  -0.513  1.00  0.00     0.276 C 
BRANCH  12  13
HETATM   13  N2  UNL     1       2.013   0.871   0.365  1.00  0.00    -0.071 N 
ATOM     14  H22 UNL     1       2.071   0.580   1.341  1.00  0.00     0.277 HD
ATOM     15  H21 UNL     1       1.131   1.383   0.399  1.00  0.00     0.277 HD
BRANCH  13  16
HETATM   16  C3  UNL     1       3.105   1.741   0.017  1.00  0.00     0.234 C 
BRANCH  16  17
HETATM   17  C2  UNL     1       4.412   1.036   0.314  1.00  0.00     0.055 C 
BRANCH  17  18
HETATM   18  C1  UNL     1       5.607   1.927  -0.030  1.00  0.00     0.231 C 
BRANCH  18  19
HETATM   19  N1  UNL     1       6.795   1.138   0.301  1.00  0.00    -0.079 N 
ATOM     20  H13 UNL     1       6.804   0.794   1.261  1.00  0.00     0.274 HD
ATOM     21  H12 UNL     1       6.820   0.226  -0.154  1.00  0.00     0.274 HD
ATOM     22  H11 UNL     1       7.592   1.732   0.072  1.00  0.00     0.274 HD
ENDBRANCH  18  19
ENDBRANCH  17  18
ENDBRANCH  16  17
ENDBRANCH  13  16
ENDBRANCH  12  13
ENDBRANCH  10  12
ENDBRANCH   1   9
BRANCH   8  23
HETATM   23  N6  UNL     1      -2.836  -0.403   1.294  1.00  0.00    -0.321 N 
ATOM     24  H6  UNL     1      -2.460   0.029   2.138  1.00  0.00     0.169 HD
BRANCH  23  25
HETATM   25  C9  UNL     1      -3.829   0.266   0.500  1.00  0.00     0.175 A 
HETATM   26  N7  UNL     1      -4.760  -0.343  -0.146  1.00  0.00    -0.361 N 
HETATM   27  C10 UNL     1      -5.606   0.565  -0.850  1.00  0.00     0.142 A 
ATOM     28  H7  UNL     1      -4.879  -1.356  -0.154  1.00  0.00     0.162 HD
HETATM   29  C11 UNL     1      -5.003   1.918  -0.581  1.00  0.00     0.142 A 
HETATM   30  N8  UNL     1      -3.910   1.666   0.328  1.00  0.00    -0.361 N 
ATOM     31  H8  UNL     1      -3.310   2.366   0.764  1.00  0.00     0.162 HD
ENDBRANCH  23  25
ENDBRANCH   8  23
TORSDOF 9
