REMARK  9 active torsions:
REMARK  status: ('A' for Active; 'I' for Inactive)
REMARK    1  A    between atoms: C2_2  and  N1_3 
REMARK    2  A    between atoms: N1_3  and  C3_4 
REMARK    3  A    between atoms: N1_3  and  N9_26 
REMARK    4  A    between atoms: C3_4  and  C4_5 
REMARK    5  A    between atoms: C4_5  and  C5_6 
REMARK    6  A    between atoms: C5_6  and  N2_7 
REMARK    7  A    between atoms: C7_11  and  N4_12 
REMARK    8  A    between atoms: C8_17  and  N6_18 
REMARK    9  A    between atoms: N9_26  and  N10_27 
ROOT
HETATM    1  N2  UNL     1       1.356   0.369  -0.388  1.00  0.00    -0.232 N 
HETATM    2  N3  UNL     1       1.689  -0.909  -0.306  1.00  0.00    -0.277 N 
ATOM      3  H3  UNL     1       1.025  -1.681  -0.365  1.00  0.00     0.189 HD
HETATM    4  C6  UNL     1       3.009  -1.059  -0.135  1.00  0.00     0.140 A 
HETATM    5  C7  UNL     1       3.851  -2.144   0.004  1.00  0.00     0.147 A 
HETATM    6  N5  UNL     1       5.165  -1.883   0.159  1.00  0.00    -0.175 N 
ATOM      7  H5  UNL     1       5.818  -2.660   0.264  1.00  0.00     0.186 HD
HETATM    8  C8  UNL     1       5.636  -0.622   0.179  1.00  0.00     0.679 A 
HETATM    9  N7  UNL     1       4.847   0.468   0.046  1.00  0.00    -0.173 N 
ATOM     10  H7  UNL     1       5.258   1.401   0.067  1.00  0.00     0.186 HD
HETATM   11  C9  UNL     1       3.531   0.323  -0.113  1.00  0.00     0.169 A 
HETATM   12  N8  UNL     1       2.463   1.117  -0.273  1.00  0.00    -0.266 N 
ATOM     13  H8  UNL     1       2.488   2.136  -0.303  1.00  0.00     0.190 HD
ENDROOT
BRANCH   1  14
HETATM   14  C5  UNL     1       0.005   0.854  -0.581  1.00  0.00     0.171 C 
BRANCH  14  15
HETATM   15  C4  UNL     1      -0.727   1.092   0.727  1.00  0.00     0.039 C 
BRANCH  15  16
HETATM   16  C3  UNL     1      -2.125   1.594   0.400  1.00  0.00     0.113 C 
BRANCH  16  17
HETATM   17  N1  UNL     1      -2.773   0.570  -0.387  1.00  0.00    -0.215 NA
BRANCH  17  18
HETATM   18  C2  UNL     1      -4.099   1.082  -0.779  1.00  0.00     0.107 C 
HETATM   19  C1  UNL     1      -5.015   1.205   0.399  1.00  0.00     0.022 C 
ENDBRANCH  17  18
BRANCH  17  20
HETATM   20  N9  UNL     1      -3.046  -0.577   0.373  1.00  0.00    -0.056 NA
BRANCH  20  21
HETATM   21  N10 UNL     1      -2.961  -1.760  -0.328  1.00  0.00    -0.333 N 
ATOM     22 2H10 UNL     1      -2.718  -1.783  -1.318  1.00  0.00     0.173 HD
ATOM     23 1H10 UNL     1      -3.160  -2.594   0.225  1.00  0.00     0.173 HD
ENDBRANCH  20  21
ENDBRANCH  17  20
ENDBRANCH  16  17
ENDBRANCH  15  16
ENDBRANCH  14  15
ENDBRANCH   1  14
BRANCH   5  24
HETATM   24  N4  UNL     1       3.415  -3.357  -0.013  1.00  0.00    -0.383 N 
ATOM     25  H42 UNL     1       2.421  -3.554  -0.130  1.00  0.00     0.157 HD
ATOM     26  H41 UNL     1       4.037  -4.159   0.090  1.00  0.00     0.157 HD
ENDBRANCH   5  24
BRANCH   8  27
HETATM   27  N6  UNL     1       6.897  -0.428   0.329  1.00  0.00    -0.234 N 
ATOM     28  H62 UNL     1       7.492  -1.250   0.429  1.00  0.00     0.174 HD
ATOM     29  H61 UNL     1       7.254   0.527   0.344  1.00  0.00     0.174 HD
ENDBRANCH   8  27
TORSDOF 9
