REMARK  8 active torsions:
REMARK  status: ('A' for Active; 'I' for Inactive)
REMARK    1  A    between atoms: N1_1  and  N2_4 
REMARK    2  A    between atoms: N2_4  and  C1_6 
REMARK    3  A    between atoms: C2_9  and  C3_10 
REMARK    4  A    between atoms: C3_10  and  C4_12 
REMARK       I    between atoms: C4_12  and  N4_14 
REMARK    5  A    between atoms: N4_14  and  N5_16 
REMARK    6  A    between atoms: C5_19  and  N6_20 
REMARK    7  A    between atoms: N6_20  and  O3_22 
REMARK    8  A    between atoms: C6_24  and  O4_25 
ROOT
HETATM    1  C1  UNL     1      -1.845   0.623  -0.086  1.00  0.00     0.699 A 
HETATM    2  N3  UNL     1      -0.492   0.620  -0.018  1.00  0.00    -0.184 N 
ATOM      3  H3  UNL     1      -0.005   1.514   0.050  1.00  0.00     0.184 HD
HETATM    4  C2  UNL     1       0.235  -0.508  -0.036  1.00  0.00     0.138 A 
HETATM    5  C5  UNL     1      -0.444  -1.689  -0.126  1.00  0.00     0.137 A 
HETATM    6  C6  UNL     1      -1.807  -1.694  -0.195  1.00  0.00     0.186 A 
HETATM    7  N7  UNL     1      -2.475  -0.536  -0.173  1.00  0.00    -0.167 N 
ATOM      8  H7  UNL     1      -3.494  -0.547  -0.225  1.00  0.00     0.186 HD
ENDROOT
BRANCH   4   9
HETATM    9  C3  UNL     1       1.677  -0.488   0.038  1.00  0.00     0.270 C 
HETATM   10  O1  UNL     1       2.322  -1.572   0.019  1.00  0.00    -0.280 OA
BRANCH   9  11
HETATM   11  C4  UNL     1       2.355   0.805   0.134  1.00  0.00     0.312 C 
HETATM   12  O2  UNL     1       1.698   1.874   0.152  1.00  0.00    -0.262 OA
HETATM   13  N4  UNL     1       3.772   0.898   0.209  1.00  0.00    -0.270 N 
ATOM     14  H4  UNL     1       4.328   0.043   0.195  1.00  0.00     0.189 HD
BRANCH  13  15
HETATM   15  N5  UNL     1       4.418   2.127   0.301  1.00  0.00    -0.342 N 
ATOM     16  H52 UNL     1       3.847   2.972   0.314  1.00  0.00     0.176 HD
ATOM     17  H51 UNL     1       5.434   2.194   0.355  1.00  0.00     0.176 HD
ENDBRANCH  13  15
ENDBRANCH   9  11
ENDBRANCH   4   9
BRANCH   5  18
HETATM   18  N6  UNL     1       0.227  -2.944  -0.153  1.00  0.00    -0.263 N 
ATOM     19  H6  UNL     1       0.836  -3.207  -0.928  1.00  0.00     0.194 HD
BRANCH  18  20
HETATM   20  O3  UNL     1       0.035  -3.711   0.821  1.00  0.00    -0.289 OA
ATOM     21  H3  UNL     1       0.483  -4.549   0.803  1.00  0.00     0.244 HD
ENDBRANCH  18  20
ENDBRANCH   5  18
BRANCH   1  22
HETATM   22  N2  UNL     1      -2.408   1.776  -0.059  1.00  0.00    -0.138 N 
ATOM     23  H2  UNL     1      -1.791   2.585   0.012  1.00  0.00     0.205 HD
BRANCH  22  24
HETATM   24  N1  UNL     1      -3.746   2.031  -0.115  1.00  0.00    -0.331 N 
ATOM     25  H12 UNL     1      -4.347   1.210  -0.185  1.00  0.00     0.177 HD
ATOM     26  H11 UNL     1      -4.193   2.947  -0.094  1.00  0.00     0.177 HD
ENDBRANCH  22  24
ENDBRANCH   1  22
BRANCH   6  27
HETATM   27  O4  UNL     1      -2.500  -2.901  -0.288  1.00  0.00    -0.344 OA
ATOM     28  H4  UNL     1      -3.449  -2.904  -0.336  1.00  0.00     0.219 HD
ENDBRANCH   6  27
TORSDOF 8
