REMARK  7 active torsions:
REMARK  status: ('A' for Active; 'I' for Inactive)
REMARK    1  A    between atoms: N1_1  and  C1_4 
REMARK    2  A    between atoms: C2_7  and  N3_8 
REMARK    3  A    between atoms: C5_11  and  N4_12 
REMARK    4  A    between atoms: N4_12  and  N5_13 
REMARK    5  A    between atoms: N4_12  and  N6_16 
REMARK    6  A    between atoms: N6_16  and  O1_18 
REMARK    7  A    between atoms: C6_24  and  N9_25 
ROOT
HETATM    1  C1  UNL     1      -2.974   1.544  -0.157  1.00  0.00     0.705 A 
HETATM    2  N2  UNL     1      -1.664   1.293  -0.018  1.00  0.00    -0.020 N 
ATOM      3  H2  UNL     1      -1.003   2.049  -0.198  1.00  0.00     0.203 HD
HETATM    4  C2  UNL     1      -1.175   0.080   0.351  1.00  0.00     0.728 A 
HETATM    5  N8  UNL     1      -2.027  -0.917   0.589  1.00  0.00    -0.020 N 
ATOM      6  H8  UNL     1      -1.690  -1.838   0.868  1.00  0.00     0.203 HD
HETATM    7  C6  UNL     1      -3.342  -0.677   0.452  1.00  0.00     0.705 A 
HETATM    8  N10 UNL     1      -3.824   0.527   0.086  1.00  0.00    -0.022 N 
ATOM      9  H10 UNL     1      -4.830   0.668  -0.007  1.00  0.00     0.203 HD
ENDROOT
BRANCH   4  10
HETATM   10  N3  UNL     1       0.223  -0.118   0.465  1.00  0.00    -0.121 N 
HETATM   11  C3  UNL     1       1.090   0.592   1.407  1.00  0.00     0.175 C 
HETATM   12  C4  UNL     1       2.295   0.814   0.476  1.00  0.00     0.104 C 
HETATM   13  C5  UNL     1       2.279  -0.501  -0.256  1.00  0.00     0.140 C 
HETATM   14  N7  UNL     1       1.069  -0.972  -0.221  1.00  0.00    -0.270 N 
ATOM     15  H7  UNL     1       0.780  -1.855  -0.643  1.00  0.00     0.189 HD
BRANCH  13  16
HETATM   16  N4  UNL     1       3.405  -1.110  -0.872  1.00  0.00    -0.170 N 
BRANCH  16  17
HETATM   17  N5  UNL     1       4.583  -0.404  -1.084  1.00  0.00    -0.321 N 
ATOM     18  H52 UNL     1       4.614   0.570  -0.784  1.00  0.00     0.179 HD
ATOM     19  H51 UNL     1       5.391  -0.841  -1.526  1.00  0.00     0.179 HD
ENDBRANCH  16  17
BRANCH  16  20
HETATM   20  N6  UNL     1       3.363  -2.443  -1.283  1.00  0.00    -0.188 N 
ATOM     21  H6  UNL     1       3.155  -2.709  -2.246  1.00  0.00     0.218 HD
BRANCH  20  22
HETATM   22  O1  UNL     1       3.600  -3.301  -0.381  1.00  0.00    -0.273 OA
ATOM     23  H1  UNL     1       3.571  -4.208  -0.661  1.00  0.00     0.246 HD
ENDBRANCH  20  22
ENDBRANCH  16  20
ENDBRANCH  13  16
ENDBRANCH   4  10
BRANCH   1  24
HETATM   24  N1  UNL     1      -3.372   2.717  -0.511  1.00  0.00    -0.234 N 
ATOM     25  H12 UNL     1      -2.729   3.487  -0.695  1.00  0.00     0.174 HD
ATOM     26  H11 UNL     1      -4.368   2.908  -0.617  1.00  0.00     0.174 HD
ENDBRANCH   1  24
BRANCH   7  27
HETATM   27  N9  UNL     1      -4.164  -1.658   0.686  1.00  0.00    -0.234 N 
ATOM     28  H92 UNL     1      -3.799  -2.569   0.963  1.00  0.00     0.174 HD
ATOM     29  H91 UNL     1      -5.162  -1.476   0.582  1.00  0.00     0.174 HD
ENDBRANCH   7  27
TORSDOF 7
