REMARK  4 active torsions:
REMARK  status: ('A' for Active; 'I' for Inactive)
REMARK    1  A    between atoms: N1_1  and  C1_4 
REMARK    2  A    between atoms: C1_4  and  C2_5 
REMARK    3  A    between atoms: C2_5  and  N2_6 
REMARK    4  A    between atoms: C5_22  and  N9_23 
ROOT
HETATM    1  C1  UNL     1       0.288   0.055   0.446  1.00  0.00     0.057 C 
HETATM    2  C4  UNL     1      -1.137   0.083   0.253  1.00  0.00     0.141 A 
HETATM    3  N7  UNL     1      -1.728  -0.691  -0.725  1.00  0.00    -0.280 N 
ATOM      4  H7  UNL     1      -1.129  -1.280  -1.303  1.00  0.00     0.188 HD
HETATM    5  N8  UNL     1      -3.015  -0.708  -0.949  1.00  0.00    -0.132 N 
ATOM      6  H8  UNL     1      -3.389  -1.303  -1.688  1.00  0.00     0.205 HD
HETATM    7  C5  UNL     1      -3.851   0.045  -0.222  1.00  0.00     0.693 A 
HETATM    8  N10 UNL     1      -3.367   0.818   0.737  1.00  0.00    -0.153 N 
ATOM      9  H10 UNL     1      -3.994   1.396   1.297  1.00  0.00     0.187 HD
HETATM   10  C6  UNL     1      -2.030   0.836   0.970  1.00  0.00     0.289 A 
HETATM   11  O1  UNL     1      -1.619   1.577   1.881  1.00  0.00    -0.265 OA
ENDROOT
BRANCH   1  12
HETATM   12  N1  UNL     1       0.927   0.707   1.292  1.00  0.00    -0.399 N 
ATOM     13  H12 UNL     1       1.938   0.687   1.429  1.00  0.00     0.156 HD
ATOM     14  H11 UNL     1       0.396   1.322   1.909  1.00  0.00     0.156 HD
ENDBRANCH   1  12
BRANCH   1  15
HETATM   15  C2  UNL     1       1.067  -0.847  -0.459  1.00  0.00     0.228 C 
BRANCH  15  16
HETATM   16  N2  UNL     1       2.485  -0.803  -0.184  1.00  0.00    -0.102 N 
HETATM   17  N3  UNL     1       3.080  -1.602   0.678  1.00  0.00    -0.211 N 
HETATM   18  N4  UNL     1       4.366  -1.294   0.684  1.00  0.00    -0.213 N 
ATOM     19  H3  UNL     1       2.631  -2.326   1.239  1.00  0.00     0.210 HD
HETATM   20  N5  UNL     1       4.598  -0.321  -0.150  1.00  0.00    -0.115 N 
ATOM     21  H4  UNL     1       5.074  -1.752   1.258  1.00  0.00     0.210 HD
HETATM   22  C3  UNL     1       3.423   0.002  -0.707  1.00  0.00     0.710 A 
ATOM     23  H5  UNL     1       5.501   0.112  -0.342  1.00  0.00     0.207 HD
HETATM   24  N6  UNL     1       3.180   0.914  -1.593  1.00  0.00    -0.232 N 
ATOM     25  H62 UNL     1       2.285   1.160  -2.017  1.00  0.00     0.174 HD
ATOM     26  H61 UNL     1       3.893   1.526  -1.990  1.00  0.00     0.174 HD
ENDBRANCH  15  16
ENDBRANCH   1  15
BRANCH   7  27
HETATM   27  N9  UNL     1      -5.124  -0.005  -0.481  1.00  0.00    -0.233 N 
ATOM     28  H92 UNL     1      -5.497  -0.601  -1.220  1.00  0.00     0.174 HD
ATOM     29  H91 UNL     1      -5.761   0.568   0.073  1.00  0.00     0.174 HD
ENDBRANCH   7  27
TORSDOF 4
