REMARK  0 active torsions:
REMARK  status: ('A' for Active; 'I' for Inactive)
ROOT
HETATM    1  C1  UNL     1       4.649  -1.014   0.294  1.00  0.00     0.229 C 
HETATM    2  N1  UNL     1       3.550  -0.626   0.193  1.00  0.00    -0.429 NA
HETATM    3  C2  UNL     1       2.245  -0.169   0.095  1.00  0.00     0.106 A 
HETATM    4  C3  UNL     1       1.952   1.171  -0.077  1.00  0.00     0.045 A 
HETATM    5  C4  UNL     1       0.650   1.619  -0.174  1.00  0.00     0.015 A 
HETATM    6  C5  UNL     1      -0.403   0.730  -0.102  1.00  0.00    -0.026 A 
HETATM    7  C6  UNL     1      -1.728   1.157  -0.198  1.00  0.00     0.012 A 
HETATM    8  C7  UNL     1      -2.794   0.310  -0.132  1.00  0.00     0.001 A 
HETATM    9  C8  UNL     1      -2.514  -1.048   0.041  1.00  0.00     0.001 A 
HETATM   10  C9  UNL     1      -1.210  -1.484   0.138  1.00  0.00     0.012 A 
HETATM   11  C10 UNL     1      -0.142  -0.614   0.068  1.00  0.00    -0.023 A 
HETATM   12  C11 UNL     1       1.167  -1.041   0.164  1.00  0.00     0.057 A 
ENDROOT
TORSDOF 0
