REMARK  0 active torsions:
REMARK  status: ('A' for Active; 'I' for Inactive)
ROOT
HETATM    1  S1  UNL     1       0.699   3.292   0.240  1.00  0.00    -0.059 SA
HETATM    2  C1  UNL     1       1.025   1.701   0.136  1.00  0.00     0.111 A 
HETATM    3  N1  UNL     1       2.332   1.302   0.132  1.00  0.00    -0.356 N 
ATOM      4  H1  UNL     1       3.068   2.006   0.194  1.00  0.00     0.166 HD
HETATM    5  C2  UNL     1       2.669   0.011   0.049  1.00  0.00     0.090 A 
HETATM    6  C3  UNL     1       1.665  -0.918  -0.033  1.00  0.00     0.029 A 
HETATM    7  C4  UNL     1       0.326  -0.591  -0.035  1.00  0.00    -0.022 A 
HETATM    8  C5  UNL     1      -0.680  -1.542  -0.119  1.00  0.00     0.012 A 
HETATM    9  C6  UNL     1      -1.994  -1.178  -0.117  1.00  0.00     0.001 A 
HETATM   10  C7  UNL     1      -2.292   0.171  -0.030  1.00  0.00     0.001 A 
HETATM   11  C8  UNL     1      -1.322   1.147   0.055  1.00  0.00     0.015 A 
HETATM   12  C9  UNL     1       0.021   0.757   0.053  1.00  0.00     0.012 A 
ENDROOT
TORSDOF 0
