REMARK  0 active torsions:
REMARK  status: ('A' for Active; 'I' for Inactive)
ROOT
HETATM    1  C1  UNL     1      -2.875   1.163  -0.063  1.00  0.00     0.001 A 
HETATM    2  C2  UNL     1      -3.111  -0.162   0.242  1.00  0.00     0.001 A 
HETATM    3  C3  UNL     1      -2.049  -1.054   0.366  1.00  0.00     0.014 A 
HETATM    4  C4  UNL     1      -0.735  -0.636   0.187  1.00  0.00     0.003 A 
HETATM    5  C5  UNL     1      -0.506   0.704  -0.120  1.00  0.00    -0.011 A 
HETATM    6  C6  UNL     1      -1.575   1.589  -0.242  1.00  0.00     0.013 A 
HETATM    7  C7  UNL     1       0.912   0.387  -0.145  1.00  0.00     0.003 A 
HETATM    8  C8  UNL     1       2.234   0.746  -0.311  1.00  0.00     0.016 A 
HETATM    9  C9  UNL     1       3.266  -0.157  -0.182  1.00  0.00     0.018 A 
HETATM   10  C10 UNL     1       3.012  -1.475   0.122  1.00  0.00     0.088 A 
HETATM   11  N1  UNL     1       1.711  -1.825   0.284  1.00  0.00    -0.364 N 
ATOM     12  H1  UNL     1       1.492  -2.795   0.509  1.00  0.00     0.165 HD
HETATM   13  C11 UNL     1       0.690  -0.945   0.160  1.00  0.00     0.054 A 
ENDROOT
TORSDOF 0
