REMARK  6 active torsions:
REMARK  status: ('A' for Active; 'I' for Inactive)
REMARK    1  A    between atoms: N1_2  and  C3_4 
REMARK    2  A    between atoms: C3_4  and  C4_5 
REMARK    3  A    between atoms: C4_5  and  C5_6 
REMARK       I    between atoms: C5_6  and  N2_8 
REMARK    4  A    between atoms: N2_8  and  C6_10 
REMARK       I    between atoms: N3_13  and  C9_14 
REMARK    5  A    between atoms: C9_14  and  C10_16 
REMARK    6  A    between atoms: C15_21  and  C16_22 
ROOT
HETATM    1  C6  UNL     1       0.085  -0.709   0.581  1.00  0.00     0.092 C 
HETATM    2  C7  UNL     1      -0.488  -2.043   1.034  1.00  0.00     0.045 C 
HETATM    3  C8  UNL     1      -1.776  -2.240   0.311  1.00  0.00     0.128 C 
HETATM    4  N3  UNL     1      -2.570  -1.050   0.081  1.00  0.00    -0.351 N 
HETATM    5  C9  UNL     1      -3.926  -1.249  -0.414  1.00  0.00     0.227 C 
HETATM    6  O2  UNL     1      -4.333  -2.443  -0.621  1.00  0.00    -0.273 OA
HETATM    7  C14 UNL     1      -2.100   0.289   0.291  1.00  0.00     0.133 C 
HETATM    8  C15 UNL     1      -0.867   0.301   1.157  1.00  0.00     0.040 C 
ENDROOT
BRANCH   1   9
HETATM    9  N2  UNL     1       1.446  -0.523   0.945  1.00  0.00    -0.356 N 
HETATM   10  C5  UNL     1       2.547  -0.389   0.083  1.00  0.00     0.219 C 
HETATM   11  O1  UNL     1       2.358  -0.433  -1.168  1.00  0.00    -0.274 OA
ATOM     12  H2  UNL     1       1.646  -0.482   1.944  1.00  0.00     0.162 HD
BRANCH  10  13
HETATM   13  C4  UNL     1       3.923  -0.199   0.603  1.00  0.00     0.133 C 
BRANCH  13  14
HETATM   14  C3  UNL     1       4.880  -0.135  -0.566  1.00  0.00     0.280 C 
BRANCH  14  15
HETATM   15  N1  UNL     1       6.241   0.053  -0.157  1.00  0.00     0.080 N 
HETATM   16  C1  UNL     1       6.525   1.337   0.420  1.00  0.00     0.309 C 
HETATM   17  C2  UNL     1       7.158  -0.332  -1.186  1.00  0.00     0.309 C 
ENDBRANCH  14  15
ENDBRANCH  13  14
ENDBRANCH  10  13
ENDBRANCH   1   9
BRANCH   8  18
HETATM   18  C16 UNL     1      -0.259   1.673   1.279  1.00  0.00     0.123 C 
HETATM   19 CL1  UNL     1      -1.441   2.809   1.966  1.00  0.00    -0.130 Cl
ENDBRANCH   8  18
BRANCH   5  20
HETATM   20  C10 UNL     1      -4.858  -0.151  -0.690  1.00  0.00     0.030 C 
HETATM   21  C11 UNL     1      -6.093  -0.744  -1.395  1.00  0.00     0.025 C 
HETATM   22  C12 UNL     1      -5.417   0.500   0.566  1.00  0.00     0.025 C 
HETATM   23  C13 UNL     1      -4.270   0.835  -1.657  1.00  0.00     0.025 C 
ENDBRANCH   5  20
TORSDOF 6
