REMARK  4 active torsions:
REMARK  status: ('A' for Active; 'I' for Inactive)
REMARK    1  A    between atoms: S1_2  and  N1_5 
REMARK    2  A    between atoms: N1_5  and  C2_7 
REMARK    3  A    between atoms: C2_7  and  C3_8 
REMARK    4  A    between atoms: N2_9  and  C4_11 
ROOT
HETATM    1  C4  UNL     1      -1.043   0.352  -0.181  1.00  0.00     0.035 C 
HETATM    2  C5  UNL     1      -1.637   0.756   1.152  1.00  0.00     0.036 C 
HETATM    3  C6  UNL     1      -3.069   1.088   0.709  1.00  0.00    -0.010 C 
HETATM    4  C7  UNL     1      -2.738   2.077  -0.418  1.00  0.00     0.012 C 
HETATM    5  C8  UNL     1      -1.702   1.237  -1.178  1.00  0.00     0.015 C 
HETATM    6  C9  UNL     1      -2.556   0.293  -2.036  1.00  0.00     0.028 C 
HETATM    7  C10 UNL     1      -2.951  -0.734  -0.971  1.00  0.00     0.021 C 
HETATM    8 BR1  UNL     1      -3.807  -2.238  -1.758  1.00  0.00    -0.085 Br
HETATM    9  C11 UNL     1      -3.736  -0.118   0.135  1.00  0.00     0.026 C 
HETATM   10  C12 UNL     1      -1.553  -1.071  -0.434  1.00  0.00     0.052 C 
ENDROOT
BRANCH   1  11
HETATM   11  N2  UNL     1       0.361   0.356  -0.200  1.00  0.00    -0.391 N 
HETATM   12  C3  UNL     1       1.118  -0.675  -0.116  1.00  0.00     0.076 C 
ATOM     13  H2  UNL     1       0.821   1.262  -0.289  1.00  0.00     0.159 HD
BRANCH  12  14
HETATM   14  C2  UNL     1       2.587  -0.469  -0.155  1.00  0.00     0.176 C 
BRANCH  14  15
HETATM   15  N1  UNL     1       3.206  -1.419   0.770  1.00  0.00    -0.315 N 
ATOM     16  H1  UNL     1       2.699  -2.099   1.336  1.00  0.00     0.172 HD
BRANCH  15  17
HETATM   17  S1  UNL     1       4.927  -1.218   0.761  1.00  0.00     0.223 S 
HETATM   18  C1  UNL     1       5.383   0.407   1.300  1.00  0.00     0.185 C 
HETATM   19  O1  UNL     1       5.505  -2.214   1.724  1.00  0.00    -0.206 OA
HETATM   20  O2  UNL     1       5.478  -1.474  -0.626  1.00  0.00    -0.206 OA
ENDBRANCH  15  17
ENDBRANCH  14  15
ENDBRANCH  12  14
ENDBRANCH   1  11
TORSDOF 4
