REMARK  4 active torsions:
REMARK  status: ('A' for Active; 'I' for Inactive)
REMARK       I    between atoms: C1_2  and  N1_3 
REMARK    1  A    between atoms: C1_2  and  C11_19 
REMARK    2  A    between atoms: N1_3  and  S1_5 
REMARK    3  A    between atoms: S1_5  and  N2_8 
REMARK    4  A    between atoms: C4_11  and  C5_13 
ROOT
HETATM    1  S1  UNL     1       0.687  -1.200  -0.128  1.00  0.00     0.305 S 
HETATM    2  O2  UNL     1       0.431  -2.346  -1.097  1.00  0.00    -0.188 OA
HETATM    3  O3  UNL     1       0.307  -1.709   1.227  1.00  0.00    -0.188 OA
ENDROOT
BRANCH   1   4
HETATM    4  N1  UNL     1       2.341  -0.779  -0.222  1.00  0.00    -0.241 N 
HETATM    5  C1  UNL     1       2.975   0.056   0.737  1.00  0.00     0.236 C 
HETATM    6  O1  UNL     1       2.308   0.517   1.705  1.00  0.00    -0.272 OA
ATOM      7  H1  UNL     1       2.895  -1.142  -0.998  1.00  0.00     0.182 HD
BRANCH   5   8
HETATM    8  C11 UNL     1       4.389   0.399   0.640  1.00  0.00     0.079 C 
HETATM    9  C12 UNL     1       5.236  -0.880   0.522  1.00  0.00     0.014 C 
HETATM   10  C13 UNL     1       6.608  -0.350   0.146  1.00  0.00     0.001 C 
HETATM   11  C14 UNL     1       6.354   1.025  -0.460  1.00  0.00     0.001 C 
HETATM   12  C15 UNL     1       4.817   1.142  -0.580  1.00  0.00     0.014 C 
ENDBRANCH   5   8
ENDBRANCH   1   4
BRANCH   1  13
HETATM   13  N2  UNL     1      -0.269   0.164  -0.559  1.00  0.00    -0.190 NA
HETATM   14  C2  UNL     1      -0.874  -0.025  -1.848  1.00  0.00     0.112 C 
HETATM   15  C3  UNL     1      -2.325   0.368  -1.673  1.00  0.00     0.060 C 
HETATM   16  C4  UNL     1      -2.597  -0.143  -0.265  1.00  0.00     0.121 C 
HETATM   17  F1  UNL     1      -2.659  -1.516  -0.324  1.00  0.00    -0.241 F 
HETATM   18  C10 UNL     1      -1.333   0.351   0.415  1.00  0.00     0.152 C 
BRANCH  16  19
HETATM   19  C5  UNL     1      -3.844   0.489   0.256  1.00  0.00     0.026 C 
HETATM   20  C6  UNL     1      -4.190   0.040   1.648  1.00  0.00     0.008 C 
HETATM   21  C7  UNL     1      -5.700   0.244   1.696  1.00  0.00     0.001 C 
HETATM   22  C8  UNL     1      -6.142  -0.300   0.371  1.00  0.00     0.001 C 
HETATM   23  C9  UNL     1      -5.008   0.039  -0.607  1.00  0.00     0.008 C 
ENDBRANCH  16  19
ENDBRANCH   1  13
TORSDOF 4
