REMARK  5 active torsions:
REMARK  status: ('A' for Active; 'I' for Inactive)
REMARK    1  A    between atoms: C2_2  and  C3_4 
REMARK    2  A    between atoms: C3_4  and  N1_5 
REMARK    3  A    between atoms: C3_4  and  C4_9 
REMARK    4  A    between atoms: C4_9  and  N2_10 
REMARK       I    between atoms: N3_12  and  C6_13 
REMARK    5  A    between atoms: C6_13  and  C7_15 
ROOT
HETATM    1  N2  UNL     1      -1.284  -0.044  -0.592  1.00  0.00     0.118 N 
HETATM    2  C5  UNL     1      -0.070  -0.445  -1.265  1.00  0.00     0.401 C 
HETATM    3  N3  UNL     1       1.110  -0.174  -0.498  1.00  0.00    -0.326 N 
HETATM    4  C6  UNL     1       2.163  -1.091  -0.517  1.00  0.00     0.225 C 
HETATM    5  O1  UNL     1       2.057  -2.144  -1.215  1.00  0.00    -0.273 OA
HETATM    6  C11 UNL     1       1.210   1.030   0.277  1.00  0.00     0.130 C 
HETATM    7  C12 UNL     1      -0.076   1.496   0.888  1.00  0.00     0.061 C 
HETATM    8  C13 UNL     1      -1.195   1.311  -0.087  1.00  0.00     0.163 C 
HETATM    9  C14 UNL     1      -1.085   2.319  -1.209  1.00  0.00     0.042 C 
HETATM   10  C15 UNL     1      -1.856   3.537  -0.805  1.00  0.00     0.003 C 
HETATM   11  C16 UNL     1      -2.457   3.261   0.534  1.00  0.00     0.003 C 
HETATM   12  C17 UNL     1      -2.478   1.735   0.596  1.00  0.00     0.042 C 
ENDROOT
BRANCH   1  13
HETATM   13  C4  UNL     1      -1.498  -0.948   0.517  1.00  0.00     0.314 C 
BRANCH  13  14
HETATM   14  C3  UNL     1      -1.841  -2.342   0.125  1.00  0.00     0.255 C 
BRANCH  14  15
HETATM   15  C2  UNL     1      -3.109  -2.401  -0.697  1.00  0.00     0.034 C 
HETATM   16  C1  UNL     1      -4.185  -3.046  -0.281  1.00  0.00     0.034 C 
HETATM   17 CL1  UNL     1      -3.188  -1.596  -2.261  1.00  0.00    -0.088 Cl
ENDBRANCH  14  15
BRANCH  14  18
HETATM   18  N1  UNL     1      -2.122  -3.073   1.372  1.00  0.00    -0.069 N 
ATOM     19  H13 UNL     1      -2.943  -2.726   1.868  1.00  0.00     0.275 HD
ATOM     20  H12 UNL     1      -2.460  -4.023   1.217  1.00  0.00     0.275 HD
ATOM     21  H11 UNL     1      -1.267  -3.033   1.926  1.00  0.00     0.275 HD
ENDBRANCH  14  18
ENDBRANCH  13  14
ENDBRANCH   1  13
BRANCH   4  22
HETATM   22  C7  UNL     1       3.371  -0.799   0.283  1.00  0.00     0.078 C 
HETATM   23  C8  UNL     1       4.483  -1.848   0.167  1.00  0.00     0.014 C 
HETATM   24  C9  UNL     1       5.443  -0.663   0.345  1.00  0.00     0.002 C 
HETATM   25  C10 UNL     1       4.351   0.183  -0.323  1.00  0.00     0.014 C 
ENDBRANCH   4  22
TORSDOF 5
