REMARK  2 active torsions:
REMARK  status: ('A' for Active; 'I' for Inactive)
REMARK       I    between atoms: N1_3  and  C3_5 
REMARK    1  A    between atoms: C3_5  and  C4_7 
REMARK    2  A    between atoms: C4_7  and  C6_9 
ROOT
HETATM    1  C1  UNL     1       3.988  -1.181   2.005  1.00  0.00     0.037 C 
HETATM    2  C2  UNL     1       3.146  -0.610   1.343  1.00  0.00     0.002 C 
HETATM    3  N1  UNL     1       2.183   0.057   0.557  1.00  0.00    -0.282 N 
ATOM      4  H1  UNL     1       2.441   0.930   0.096  1.00  0.00     0.179 HD
HETATM    5  C3  UNL     1       0.873  -0.445   0.388  1.00  0.00     0.258 C 
HETATM    6  O1  UNL     1       0.517  -1.534   0.950  1.00  0.00    -0.267 OA
ENDROOT
BRANCH   5   7
HETATM    7  C4  UNL     1      -0.091   0.259  -0.423  1.00  0.00     0.005 C 
HETATM    8  C5  UNL     1       0.222   1.382  -1.022  1.00  0.00     0.025 C 
BRANCH   7   9
HETATM    9  C6  UNL     1      -1.458  -0.303  -0.575  1.00  0.00     0.023 A 
HETATM   10  C7  UNL     1      -2.652   0.533  -0.332  1.00  0.00     0.010 A 
HETATM   11  C8  UNL     1      -2.291  -0.492   0.678  1.00  0.00     0.010 A 
ENDBRANCH   7   9
ENDBRANCH   5   7
TORSDOF 2
