REMARK  3 active torsions:
REMARK  status: ('A' for Active; 'I' for Inactive)
REMARK    1  A    between atoms: C1_2  and  C2_4 
REMARK    2  A    between atoms: C3_5  and  C4_6 
REMARK    3  A    between atoms: C4_6  and  C5_7 
ROOT
HETATM    1  C4  UNL     1      -0.201  -0.207   0.415  1.00  0.00     0.007 C 
ENDROOT
BRANCH   1   2
HETATM    2  C3  UNL     1       1.188  -0.100  -0.072  1.00  0.00     0.006 C 
HETATM    3  C2  UNL     1       2.153  -0.515   0.684  1.00  0.00     0.071 C 
BRANCH   3   4
HETATM    4  C1  UNL     1       3.532  -0.425   0.235  1.00  0.00     0.254 C 
HETATM    5  N1  UNL     1       3.793   0.126  -1.044  1.00  0.00    -0.058 NA
HETATM    6  O1  UNL     1       4.493  -0.832   0.973  1.00  0.00    -0.272 OA
ENDBRANCH   3   4
ENDBRANCH   1   2
BRANCH   1   7
HETATM    7  C5  UNL     1      -1.152   0.210  -0.347  1.00  0.00    -0.058 A 
HETATM    8  C6  UNL     1      -1.906   0.612  -1.111  1.00  0.00     0.003 A 
HETATM    9  C7  UNL     1      -2.627   0.717  -1.217  1.00  0.00    -0.026 A 
HETATM   10  C8  UNL     1      -3.700   0.556  -0.668  1.00  0.00     0.032 A 
HETATM   11  C9  UNL     1      -2.660  -0.116   0.654  1.00  0.00     0.042 A 
ENDBRANCH   1   7
TORSDOF 3
