REMARK  2 active torsions:
REMARK  status: ('A' for Active; 'I' for Inactive)
REMARK    1  A    between atoms: C1_2  and  N1_3 
REMARK    2  A    between atoms: N1_3  and  C2_5 
ROOT
HETATM    1  C2  UNL     1       0.659  -0.038  -0.197  1.00  0.00     0.088 C 
HETATM    2  C3  UNL     1       0.300  -1.439   0.213  1.00  0.00     0.031 C 
HETATM    3  C4  UNL     1      -1.199  -1.354   0.409  1.00  0.00    -0.003 A 
HETATM    4  C5  UNL     1      -2.016  -0.378  -0.319  1.00  0.00    -0.005 A 
HETATM    5  C6  UNL     1      -1.529   0.965  -0.745  1.00  0.00     0.012 C 
HETATM    6  C7  UNL     1      -0.446   0.856   0.334  1.00  0.00     0.013 C 
HETATM    7  C8  UNL     1      -1.366  -0.057   1.057  1.00  0.00     0.001 A 
ENDROOT
BRANCH   1   8
HETATM    8  N1  UNL     1       1.958   0.367   0.277  1.00  0.00    -0.363 N 
ATOM      9  H1  UNL     1       2.131   0.408   1.281  1.00  0.00     0.162 HD
BRANCH   8  10
HETATM   10  C1  UNL     1       3.003   0.710  -0.622  1.00  0.00     0.348 C 
HETATM   11  O1  UNL     1       2.799   0.662  -1.861  1.00  0.00    -0.284 OA
ENDBRANCH   8  10
ENDBRANCH   1   8
TORSDOF 2
