REMARK  7 active torsions:
REMARK  status: ('A' for Active; 'I' for Inactive)
REMARK    1  A    between atoms: C2_2  and  N1_4 
REMARK       I    between atoms: N2_7  and  C6_8 
REMARK       I    between atoms: C6_8  and  N4_12 
REMARK    2  A    between atoms: N4_12  and  N5_14 
REMARK    3  A    between atoms: N5_14  and  S1_16 
REMARK    4  A    between atoms: S1_16  and  N6_19 
REMARK    5  A    between atoms: N6_19  and  C7_21 
REMARK    6  A    between atoms: C9_23  and  N7_24 
REMARK    7  A    between atoms: C12_29  and  O5_30 
ROOT
HETATM    1  N5  UNL     1       1.412  -0.109   0.045  1.00  0.00    -0.195 N 
ATOM      2  H5  UNL     1       1.341   0.729  -0.532  1.00  0.00     0.202 HD
ENDROOT
BRANCH   1   3
HETATM    3  N4  UNL     1       0.615  -1.221  -0.117  1.00  0.00    -0.122 N 
HETATM    4  C6  UNL     1      -0.687  -1.381   0.425  1.00  0.00     0.689 C 
HETATM    5  N2  UNL     1      -1.848  -0.883  -0.209  1.00  0.00    -0.211 N 
HETATM    6  N3  UNL     1      -0.811  -2.007   1.540  1.00  0.00    -0.233 N 
HETATM    7  C5  UNL     1      -2.841  -1.700  -0.878  1.00  0.00     0.161 C 
HETATM    8  C13 UNL     1      -2.076   0.545  -0.198  1.00  0.00     0.185 C 
HETATM    9  C4  UNL     1      -4.166  -1.377  -0.185  1.00  0.00     0.143 C 
HETATM   10  N1  UNL     1      -4.479  -0.008  -0.413  1.00  0.00    -0.386 N 
HETATM   11  C14 UNL     1      -3.441   0.843  -0.785  1.00  0.00     0.079 C 
ATOM     12  H32 UNL     1      -1.747  -2.122   1.930  1.00  0.00     0.174 HD
ATOM     13  H31 UNL     1       0.027  -2.366   1.998  1.00  0.00     0.174 HD
ATOM     14  H4  UNL     1       0.991  -1.991  -0.671  1.00  0.00     0.206 HD
BRANCH  10  15
HETATM   15  C2  UNL     1      -5.602   0.498   0.284  1.00  0.00     0.075 C 
HETATM   16  C1  UNL     1      -6.844  -0.256  -0.147  1.00  0.00     0.032 C 
HETATM   17  C3  UNL     1      -5.816   1.950  -0.085  1.00  0.00     0.032 C 
ENDBRANCH  10  15
ENDBRANCH   1   3
BRANCH   1  18
HETATM   18  S1  UNL     1       2.556  -0.296   1.348  1.00  0.00     0.337 S 
HETATM   19  O1  UNL     1       1.929  -1.148   2.449  1.00  0.00    -0.181 OA
HETATM   20  O2  UNL     1       2.752   1.063   1.950  1.00  0.00    -0.181 OA
BRANCH  18  21
HETATM   21  N6  UNL     1       4.001  -0.990   0.780  1.00  0.00    -0.264 N 
ATOM     22  H6  UNL     1       4.074  -2.006   0.835  1.00  0.00     0.180 HD
BRANCH  21  23
HETATM   23  C7  UNL     1       5.112  -0.302   0.239  1.00  0.00     0.079 A 
HETATM   24  C8  UNL     1       5.041   1.015  -0.120  1.00  0.00     0.069 A 
HETATM   25  C9  UNL     1       6.130   1.668  -0.650  1.00  0.00     0.105 A 
HETATM   26  C10 UNL     1       7.307   1.005  -0.828  1.00  0.00     0.039 A 
HETATM   27  C11 UNL     1       7.375  -0.309  -0.469  1.00  0.00     0.041 A 
HETATM   28  C12 UNL     1       6.312  -0.983   0.059  1.00  0.00     0.093 A 
BRANCH  25  29
HETATM   29  N7  UNL     1       6.053   3.056  -1.028  1.00  0.00    -0.116 N 
HETATM   30  O3  UNL     1       7.045   3.633  -1.506  1.00  0.00    -0.532 OA
HETATM   31  O4  UNL     1       4.879   3.707  -0.847  1.00  0.00    -0.532 OA
ENDBRANCH  25  29
BRANCH  28  32
HETATM   32  O5  UNL     1       6.405  -2.311   0.414  1.00  0.00    -0.358 OA
ATOM     33  H5  UNL     1       7.224  -2.776   0.291  1.00  0.00     0.217 HD
ENDBRANCH  28  32
ENDBRANCH  21  23
ENDBRANCH  18  21
ENDBRANCH   1  18
TORSDOF 7
