REMARK  9 active torsions:
REMARK  status: ('A' for Active; 'I' for Inactive)
REMARK    1  A    between atoms: C2_2  and  N1_3 
REMARK    2  A    between atoms: C2_2  and  C9_17 
REMARK    3  A    between atoms: N1_3  and  S1_5 
REMARK    4  A    between atoms: S1_5  and  C3_8 
REMARK    5  A    between atoms: C8_13  and  N2_14 
REMARK       I    between atoms: C9_17  and  N3_19 
REMARK    6  A    between atoms: N3_19  and  C10_21 
REMARK    7  A    between atoms: C13_24  and  O6_25 
REMARK    8  A    between atoms: C14_27  and  O7_28 
REMARK    9  A    between atoms: C16_31  and  O8_32 
ROOT
HETATM    1  C9  UNL     1       0.168  -1.052  -0.673  1.00  0.00     0.241 C 
HETATM    2  O5  UNL     1       0.645  -0.222  -1.466  1.00  0.00    -0.271 OA
HETATM    3  N3  UNL     1      -1.145  -0.857  -0.214  1.00  0.00    -0.347 N 
ATOM      4  H3  UNL     1      -1.513  -1.551   0.437  1.00  0.00     0.163 HD
ENDROOT
BRANCH   1   5
HETATM    5  C2  UNL     1       0.950  -2.196  -0.231  1.00  0.00     0.180 C 
HETATM    6  C1  UNL     1       0.291  -3.531  -0.493  1.00  0.00     0.043 C 
BRANCH   5   7
HETATM    7  N1  UNL     1       2.282  -2.260  -0.800  1.00  0.00    -0.302 N 
ATOM      8  H1  UNL     1       2.468  -2.311  -1.802  1.00  0.00     0.173 HD
BRANCH   7   9
HETATM    9  S1  UNL     1       3.510  -2.241   0.395  1.00  0.00     0.262 S 
HETATM   10  O1  UNL     1       4.868  -2.452  -0.214  1.00  0.00    -0.200 OA
HETATM   11  O2  UNL     1       3.265  -3.434   1.335  1.00  0.00    -0.200 OA
BRANCH   9  12
HETATM   12  C3  UNL     1       3.554  -0.820   1.374  1.00  0.00     0.112 A 
HETATM   13  C4  UNL     1       3.309  -0.974   2.748  1.00  0.00     0.028 A 
HETATM   14  C5  UNL     1       3.292   0.108   3.590  1.00  0.00     0.002 A 
HETATM   15  C6  UNL     1       3.517   1.368   3.089  1.00  0.00     0.003 A 
HETATM   16  C7  UNL     1       3.756   1.516   1.752  1.00  0.00     0.038 A 
HETATM   17  C8  UNL     1       3.779   0.425   0.870  1.00  0.00     0.126 A 
BRANCH  17  18
HETATM   18  N2  UNL     1       4.031   0.685  -0.478  1.00  0.00    -0.114 N 
HETATM   19  O3  UNL     1       4.644   0.045  -1.314  1.00  0.00    -0.532 OA
HETATM   20  O4  UNL     1       3.525   1.914  -0.954  1.00  0.00    -0.532 OA
ENDBRANCH  17  18
ENDBRANCH   9  12
ENDBRANCH   7   9
ENDBRANCH   5   7
ENDBRANCH   1   5
BRANCH   3  21
HETATM   21  C10 UNL     1      -2.015   0.220  -0.571  1.00  0.00     0.065 C 
HETATM   22  C11 UNL     1      -3.355   0.101   0.125  1.00  0.00     0.036 C 
HETATM   23  C12 UNL     1      -4.388   1.041  -0.388  1.00  0.00     0.037 C 
HETATM   24  C13 UNL     1      -3.859   2.202  -1.168  1.00  0.00     0.155 C 
HETATM   25  C14 UNL     1      -2.429   1.990  -1.573  1.00  0.00     0.114 C 
HETATM   26  C15 UNL     1      -1.550   1.623  -0.369  1.00  0.00     0.077 C 
HETATM   27  C16 UNL     1      -2.222   0.531  -2.015  1.00  0.00     0.183 C 
BRANCH  24  28
HETATM   28  O6  UNL     1      -4.608   2.301  -2.339  1.00  0.00    -0.392 OA
ATOM     29  H6  UNL     1      -4.272   3.039  -2.835  1.00  0.00     0.210 HD
ENDBRANCH  24  28
BRANCH  25  30
HETATM   30  O7  UNL     1      -1.889   2.903  -2.433  1.00  0.00    -0.384 OA
ATOM     31  H7  UNL     1      -0.984   2.769  -2.689  1.00  0.00     0.210 HD
ENDBRANCH  25  30
BRANCH  27  32
HETATM   32  O8  UNL     1      -3.363  -0.036  -2.581  1.00  0.00    -0.390 OA
ATOM     33  H8  UNL     1      -3.495   0.162  -3.501  1.00  0.00     0.210 HD
ENDBRANCH  27  32
ENDBRANCH   3  21
TORSDOF 9
