REMARK  11 active torsions:
REMARK  status: ('A' for Active; 'I' for Inactive)
REMARK    1  A    between atoms: C2_2  and  C3_4 
REMARK    2  A    between atoms: C3_4  and  O2_5 
REMARK    3  A    between atoms: C6_9  and  O3_10 
REMARK    4  A    between atoms: C12_18  and  C13_19 
REMARK    5  A    between atoms: C13_19  and  C14_20 
REMARK    6  A    between atoms: C14_20  and  C16_22 
REMARK    7  A    between atoms: C16_22  and  N1_23 
REMARK    8  A    between atoms: C16_22  and  C17_27 
REMARK    9  A    between atoms: C17_27  and  C18_29 
REMARK   10  A    between atoms: C18_29  and  O6_31 
REMARK   11  A    between atoms: O6_31  and  C20_32 
ROOT
HETATM    1  C3  UNL     1       2.181  -1.217  -0.290  1.00  0.00     0.141 C 
HETATM    2  C4  UNL     1       3.492  -0.755   0.345  1.00  0.00     0.056 C 
HETATM    3  C5  UNL     1       3.885   0.654   0.035  1.00  0.00     0.075 C 
HETATM    4  C6  UNL     1       3.885   1.494   1.270  1.00  0.00     0.189 A 
HETATM    5  O4  UNL     1       3.573   2.896   0.890  1.00  0.00    -0.341 OA
HETATM    6  C7  UNL     1       2.770   2.067   1.806  1.00  0.00     0.195 A 
HETATM    7  C8  UNL     1       1.364   1.812   1.326  1.00  0.00    -0.012 C 
HETATM    8  C9  UNL     1       0.981   2.684   0.163  1.00  0.00     0.018 C 
HETATM    9  C10 UNL     1       0.446   2.416   2.428  1.00  0.00     0.018 C 
HETATM   10  C11 UNL     1       0.975   0.382   1.225  1.00  0.00     0.049 C 
HETATM   11  C12 UNL     1       1.076  -0.268  -0.144  1.00  0.00    -0.041 C 
ENDROOT
BRANCH  11  12
HETATM   12  C13 UNL     1      -0.224  -0.586  -0.746  1.00  0.00    -0.014 C 
BRANCH  12  13
HETATM   13  C14 UNL     1      -1.102  -1.688  -0.458  1.00  0.00     0.042 C 
HETATM   14  C15 UNL     1      -0.781  -3.108  -0.616  1.00  0.00     0.016 C 
BRANCH  13  15
HETATM   15  C16 UNL     1      -2.374  -1.472  -1.327  1.00  0.00     0.262 C 
BRANCH  15  16
HETATM   16  N1  UNL     1      -2.111  -1.416  -2.713  1.00  0.00    -0.068 N 
ATOM     17  H13 UNL     1      -1.410  -0.704  -2.918  1.00  0.00     0.275 HD
ATOM     18  H12 UNL     1      -1.604  -2.247  -3.017  1.00  0.00     0.275 HD
ATOM     19  H11 UNL     1      -2.945  -1.274  -3.283  1.00  0.00     0.275 HD
ENDBRANCH  15  16
BRANCH  15  20
HETATM   20  C17 UNL     1      -3.206  -0.348  -0.885  1.00  0.00     0.186 C 
HETATM   21  O5  UNL     1      -3.546   0.477  -1.752  1.00  0.00    -0.293 OA
BRANCH  20  22
HETATM   22  C18 UNL     1      -3.663  -0.146   0.523  1.00  0.00     0.199 C 
HETATM   23  C19 UNL     1      -4.316  -1.428   0.997  1.00  0.00     0.048 C 
BRANCH  22  24
HETATM   24  O6  UNL     1      -4.550   0.932   0.568  1.00  0.00    -0.312 OA
BRANCH  24  25
HETATM   25  C20 UNL     1      -4.263   2.222   0.191  1.00  0.00     0.225 C 
HETATM   26  N2  UNL     1      -3.057   2.621   0.340  1.00  0.00    -0.368 N 
ATOM     27  H22 UNL     1      -2.359   1.985   0.725  1.00  0.00     0.159 HD
ATOM     28  H21 UNL     1      -2.844   3.578   0.060  1.00  0.00     0.159 HD
HETATM   29  N3  UNL     1      -5.234   3.106  -0.345  1.00  0.00    -0.057 NA
ENDBRANCH  24  25
ENDBRANCH  22  24
ENDBRANCH  20  22
ENDBRANCH  15  20
ENDBRANCH  13  15
ENDBRANCH  12  13
ENDBRANCH  11  12
BRANCH   1  30
HETATM   30  C2  UNL     1       2.540  -1.521  -1.707  1.00  0.00     0.161 C 
HETATM   31  C1  UNL     1       2.827  -2.843  -2.263  1.00  0.00     0.094 C 
HETATM   32  O1  UNL     1       2.602  -0.575  -2.473  1.00  0.00    -0.295 OA
ENDBRANCH   1  30
BRANCH   1  33
HETATM   33  O2  UNL     1       2.019  -2.487   0.285  1.00  0.00    -0.377 OA
ATOM     34  H2  UNL     1       1.791  -2.294   1.187  1.00  0.00     0.211 HD
ENDBRANCH   1  33
BRANCH   4  35
HETATM   35  O3  UNL     1       5.055   1.364   2.028  1.00  0.00    -0.363 OA
ATOM     36  H3  UNL     1       5.055   1.898   2.814  1.00  0.00     0.213 HD
ENDBRANCH   4  35
TORSDOF 11
