REMARK  7 active torsions:
REMARK  status: ('A' for Active; 'I' for Inactive)
REMARK    1  A    between atoms: N2_8  and  C6_9 
REMARK    2  A    between atoms: C6_9  and  C7_10 
REMARK    3  A    between atoms: C6_9  and  C8_15 
REMARK    4  A    between atoms: C7_10  and  N3_11 
REMARK       I    between atoms: C8_15  and  N4_17 
REMARK    5  A    between atoms: N4_17  and  C9_18 
REMARK    6  A    between atoms: C12_21  and  S2_22 
REMARK    7  A    between atoms: S2_22  and  N5_25 
REMARK       I    between atoms: N5_25  and  C13_27 
ROOT
HETATM    1  N1  UNL     1      -6.300  -1.312  -1.651  1.00  0.00    -0.195 NA
HETATM    2  C1  UNL     1      -5.745  -0.877  -0.729  1.00  0.00     0.096 C 
HETATM    3  C2  UNL     1      -5.066  -0.278   0.468  1.00  0.00     0.339 C 
HETATM    4  C3  UNL     1      -6.127   0.447   1.192  1.00  0.00     0.124 C 
HETATM    5  S1  UNL     1      -5.869   2.140   1.645  1.00  0.00    -0.164 SA
HETATM    6  C4  UNL     1      -4.099   2.535   1.316  1.00  0.00     0.104 C 
HETATM    7  C5  UNL     1      -3.474   1.150   1.337  1.00  0.00     0.285 C 
HETATM    8  N2  UNL     1      -3.893   0.425   0.108  1.00  0.00     0.124 N 
ENDROOT
BRANCH   8   9
HETATM    9  C6  UNL     1      -2.743  -0.309  -0.291  1.00  0.00     0.355 C 
BRANCH   9  10
HETATM   10  C7  UNL     1      -2.940  -1.172  -1.500  1.00  0.00     0.276 C 
BRANCH  10  11
HETATM   11  N3  UNL     1      -1.741  -1.874  -1.946  1.00  0.00    -0.077 N 
ATOM     12  H33 UNL     1      -0.980  -1.213  -2.102  1.00  0.00     0.274 HD
ATOM     13  H32 UNL     1      -1.344  -2.420  -1.181  1.00  0.00     0.274 HD
ATOM     14  H31 UNL     1      -1.875  -2.461  -2.769  1.00  0.00     0.274 HD
ENDBRANCH  10  11
ENDBRANCH   9  10
BRANCH   9  15
HETATM   15  C8  UNL     1      -1.678   0.709  -0.766  1.00  0.00     0.327 C 
HETATM   16  O1  UNL     1      -2.202   1.631  -1.428  1.00  0.00    -0.255 OA
HETATM   17  N4  UNL     1      -0.376   0.518  -0.443  1.00  0.00    -0.369 NA
BRANCH  17  18
HETATM   18  C9  UNL     1       0.934   0.343  -0.130  1.00  0.00     0.111 A 
HETATM   19  C10 UNL     1       1.363  -1.024   0.007  1.00  0.00     0.046 A 
HETATM   20  C11 UNL     1       2.601  -1.391   0.354  1.00  0.00     0.028 A 
HETATM   21  C12 UNL     1       3.598  -0.445   0.617  1.00  0.00     0.080 A 
HETATM   22  C14 UNL     1       3.228   0.863   0.495  1.00  0.00     0.028 A 
HETATM   23  C15 UNL     1       1.931   1.235   0.133  1.00  0.00     0.046 A 
BRANCH  21  24
HETATM   24  S2  UNL     1       5.162  -1.044   1.049  1.00  0.00     0.265 S 
HETATM   25  O2  UNL     1       5.027  -2.523   1.508  1.00  0.00    -0.200 OA
HETATM   26  O3  UNL     1       5.671  -0.312   2.269  1.00  0.00    -0.200 OA
BRANCH  24  27
HETATM   27  N5  UNL     1       6.341  -1.072  -0.164  1.00  0.00    -0.254 N 
HETATM   28  C13 UNL     1       6.839   0.068  -0.801  1.00  0.00     0.195 C 
HETATM   29  N6  UNL     1       6.130   1.036  -1.230  1.00  0.00    -0.373 N 
HETATM   30  N7  UNL     1       8.292   0.187  -0.994  1.00  0.00    -0.063 NA
ATOM     31  H62 UNL     1       5.122   0.953  -1.096  1.00  0.00     0.158 HD
ATOM     32  H61 UNL     1       6.493   1.868  -1.695  1.00  0.00     0.158 HD
ATOM     33  H5  UNL     1       6.712  -1.979  -0.449  1.00  0.00     0.181 HD
ENDBRANCH  24  27
ENDBRANCH  21  24
ENDBRANCH  17  18
ENDBRANCH   9  15
ENDBRANCH   8   9
TORSDOF 7
