REMARK  8 active torsions:
REMARK  status: ('A' for Active; 'I' for Inactive)
REMARK    1  A    between atoms: N1_2  and  C2_5 
REMARK    2  A    between atoms: C2_5  and  C3_6 
REMARK    3  A    between atoms: C3_6  and  N2_7 
REMARK    4  A    between atoms: N2_7  and  C4_10 
REMARK    5  A    between atoms: C12_18  and  O1_19 
REMARK    6  A    between atoms: C20_28  and  O2_29 
REMARK    7  A    between atoms: C23_33  and  O3_34 
REMARK    8  A    between atoms: C25_37  and  O4_38 
ROOT
HETATM    1  C4  UNL     1       0.697   1.679  -0.483  1.00  0.00     0.191 C 
HETATM    2  C5  UNL     1       1.435   0.559  -1.170  1.00  0.00     0.068 C 
HETATM    3  C6  UNL     1       1.427  -0.480  -0.067  1.00  0.00    -0.066 C 
HETATM    4  C7  UNL     1       0.220  -0.591   0.763  1.00  0.00    -0.068 C 
HETATM    5  C8  UNL     1       0.045  -1.997   1.258  1.00  0.00     0.036 C 
HETATM    6  C9  UNL     1       1.422  -2.377   1.837  1.00  0.00     0.010 C 
HETATM    7  C10 UNL     1       2.456  -2.455   0.766  1.00  0.00     0.001 C 
HETATM    8  C11 UNL     1       3.056  -3.806   0.565  1.00  0.00     0.037 C 
HETATM    9  C12 UNL     1       4.371  -3.562  -0.188  1.00  0.00     0.118 C 
HETATM   10  C13 UNL     1       4.193  -2.715  -1.391  1.00  0.00     0.033 C 
HETATM   11  C14 UNL     1       3.456  -1.406  -1.151  1.00  0.00     0.016 C 
HETATM   12  C15 UNL     1       2.086  -1.754  -0.526  1.00  0.00    -0.016 C 
HETATM   13  C16 UNL     1       1.407  -2.546  -1.547  1.00  0.00     0.020 C 
HETATM   14  C17 UNL     1      -1.057   0.147   0.405  1.00  0.00    -0.010 C 
HETATM   15  C18 UNL     1      -1.448   1.069   1.582  1.00  0.00     0.017 C 
HETATM   16  C19 UNL     1      -2.202   0.410   2.652  1.00  0.00     0.034 C 
HETATM   17  C20 UNL     1      -3.370  -0.398   2.238  1.00  0.00     0.129 C 
HETATM   18  C21 UNL     1      -3.481  -0.670   0.774  1.00  0.00     0.013 C 
HETATM   19  C22 UNL     1      -4.068  -2.108   0.729  1.00  0.00     0.021 C 
HETATM   20  C23 UNL     1      -4.601   0.137   0.182  1.00  0.00     0.131 C 
HETATM   21  C24 UNL     1      -4.818  -0.055  -1.271  1.00  0.00     0.064 C 
HETATM   22  C25 UNL     1      -3.485   0.274  -1.950  1.00  0.00     0.121 C 
HETATM   23  C26 UNL     1      -2.529  -0.762  -1.465  1.00  0.00     0.038 C 
HETATM   24  C27 UNL     1      -2.210  -0.709   0.001  1.00  0.00     0.014 C 
HETATM   25  C28 UNL     1      -0.759   1.224  -0.665  1.00  0.00     0.047 C 
ENDROOT
BRANCH   1  26
HETATM   26  N2  UNL     1       0.913   2.999  -0.883  1.00  0.00    -0.069 N 
ATOM     27  H22 UNL     1       0.263   3.633  -0.418  1.00  0.00     0.277 HD
ATOM     28  H21 UNL     1       0.619   3.141  -1.849  1.00  0.00     0.277 HD
BRANCH  26  29
HETATM   29  C3  UNL     1       2.271   3.420  -0.690  1.00  0.00     0.260 C 
BRANCH  29  30
HETATM   30  C2  UNL     1       2.442   4.923  -0.769  1.00  0.00     0.259 C 
BRANCH  30  31
HETATM   31  N1  UNL     1       1.667   5.574   0.275  1.00  0.00    -0.077 N 
HETATM   32  C1  UNL     1       1.926   6.995   0.195  1.00  0.00     0.267 C 
ATOM     33  H12 UNL     1       1.850   5.190   1.202  1.00  0.00     0.276 HD
ATOM     34  H11 UNL     1       0.673   5.349   0.229  1.00  0.00     0.276 HD
ENDBRANCH  30  31
ENDBRANCH  29  30
ENDBRANCH  26  29
ENDBRANCH   1  26
BRANCH  17  35
HETATM   35  O2  UNL     1      -3.337  -1.581   3.020  1.00  0.00    -0.395 OA
ATOM     36  H2  UNL     1      -4.087  -2.100   2.754  1.00  0.00     0.210 HD
ENDBRANCH  17  35
BRANCH  20  37
HETATM   37  O3  UNL     1      -4.564   1.488   0.454  1.00  0.00    -0.395 OA
ATOM     38  H3  UNL     1      -5.272   1.998   0.080  1.00  0.00     0.210 HD
ENDBRANCH  20  37
BRANCH  22  39
HETATM   39  O4  UNL     1      -3.651   0.108  -3.310  1.00  0.00    -0.395 OA
ATOM     40  H4  UNL     1      -2.824   0.312  -3.731  1.00  0.00     0.210 HD
ENDBRANCH  22  39
BRANCH   9  41
HETATM   41  O1  UNL     1       4.930  -4.769  -0.572  1.00  0.00    -0.396 OA
ATOM     42  H1  UNL     1       5.744  -4.618  -1.038  1.00  0.00     0.210 HD
ENDBRANCH   9  41
TORSDOF 8
