REMARK  9 active torsions:
REMARK  status: ('A' for Active; 'I' for Inactive)
REMARK    1  A    between atoms: N1_1  and  N2_4 
REMARK    2  A    between atoms: C1_6  and  C2_7 
REMARK    3  A    between atoms: C1_6  and  N5_24 
REMARK    4  A    between atoms: C2_7  and  C3_8 
REMARK    5  A    between atoms: C3_8  and  N3_9 
REMARK    6  A    between atoms: N3_9  and  C4_12 
REMARK    7  A    between atoms: C7_15  and  N4_16 
REMARK    8  A    between atoms: C8_20  and  O1_21 
REMARK    9  A    between atoms: N5_24  and  C10_26 
ROOT
HETATM    1  N2  UNL     1       2.173  -0.074  -2.955  1.00  0.00    -0.296 N 
ATOM      2  H2  UNL     1       2.543   0.546  -3.675  1.00  0.00     0.187 HD
HETATM    3  C1  UNL     1       1.997   0.400  -1.781  1.00  0.00     0.093 C 
ENDROOT
BRANCH   3   4
HETATM    4  C2  UNL     1       2.327   1.806  -1.500  1.00  0.00     0.105 C 
BRANCH   4   5
HETATM    5  C3  UNL     1       3.411   1.820  -0.414  1.00  0.00     0.240 C 
BRANCH   5   6
HETATM    6  N3  UNL     1       4.537   1.097  -0.975  1.00  0.00    -0.070 N 
ATOM      7  H32 UNL     1       4.267   0.166  -1.293  1.00  0.00     0.277 HD
ATOM      8  H31 UNL     1       4.827   1.488  -1.871  1.00  0.00     0.277 HD
BRANCH   6   9
HETATM    9  C4  UNL     1       5.649   1.042  -0.023  1.00  0.00     0.188 C 
HETATM   10  C5  UNL     1       5.161   0.283   1.173  1.00  0.00     0.035 C 
HETATM   11  C6  UNL     1       6.215  -0.493   1.882  1.00  0.00     0.037 C 
HETATM   12  C7  UNL     1       7.616   0.015   1.625  1.00  0.00     0.212 C 
HETATM   13  C8  UNL     1       7.889  -0.080   0.163  1.00  0.00     0.150 C 
HETATM   14  C9  UNL     1       6.810   0.434  -0.717  1.00  0.00     0.067 C 
BRANCH  12  15
HETATM   15  N4  UNL     1       8.518  -0.933   2.299  1.00  0.00    -0.073 N 
ATOM     16  H43 UNL     1       8.307  -1.064   3.288  1.00  0.00     0.274 HD
ATOM     17  H42 UNL     1       8.377  -1.902   2.014  1.00  0.00     0.274 HD
ATOM     18  H41 UNL     1       9.463  -0.590   2.126  1.00  0.00     0.274 HD
ENDBRANCH  12  15
BRANCH  13  19
HETATM   19  O1  UNL     1       9.136   0.535  -0.071  1.00  0.00    -0.393 OA
ATOM     20  H1  UNL     1       9.310   0.474  -1.003  1.00  0.00     0.210 HD
ENDBRANCH  13  19
ENDBRANCH   6   9
ENDBRANCH   5   6
ENDBRANCH   4   5
ENDBRANCH   3   4
BRANCH   3  21
HETATM   21  N5  UNL     1       1.491  -0.422  -0.765  1.00  0.00    -0.365 N 
ATOM     22  H5  UNL     1       2.070  -1.201  -0.452  1.00  0.00     0.161 HD
BRANCH  21  23
HETATM   23  C10 UNL     1       0.206  -0.242  -0.130  1.00  0.00     0.175 C 
HETATM   24  C11 UNL     1      -0.958  -0.327  -1.072  1.00  0.00     0.035 C 
HETATM   25  C12 UNL     1      -1.291   0.975  -1.743  1.00  0.00     0.002 C 
HETATM   26  C13 UNL     1      -2.776   1.196  -1.883  1.00  0.00     0.000 C 
HETATM   27  C14 UNL     1      -3.545  -0.096  -2.004  1.00  0.00     0.000 C 
HETATM   28  C15 UNL     1      -4.839   0.183  -2.775  1.00  0.00     0.000 C 
HETATM   29  C16 UNL     1      -5.781   1.035  -1.989  1.00  0.00     0.000 C 
HETATM   30  C17 UNL     1      -6.848   0.228  -1.282  1.00  0.00     0.000 C 
HETATM   31  C18 UNL     1      -6.938   0.586   0.186  1.00  0.00     0.000 C 
HETATM   32  C19 UNL     1      -7.149  -0.606   1.063  1.00  0.00     0.000 C 
HETATM   33  C20 UNL     1      -5.884  -1.317   1.427  1.00  0.00     0.000 C 
HETATM   34  C21 UNL     1      -5.006  -0.510   2.327  1.00  0.00     0.000 C 
HETATM   35  C22 UNL     1      -3.603  -1.106   2.368  1.00  0.00     0.002 C 
HETATM   36  C23 UNL     1      -2.725  -0.173   3.160  1.00  0.00     0.020 C 
HETATM   37  C24 UNL     1      -1.477   0.153   2.360  1.00  0.00     0.122 C 
HETATM   38  N6  UNL     1      -0.800  -1.092   2.064  1.00  0.00    -0.359 N 
HETATM   39  C25 UNL     1       0.016  -1.285   0.913  1.00  0.00     0.240 C 
ATOM     40  H6  UNL     1      -0.913  -1.871   2.713  1.00  0.00     0.162 HD
HETATM   41  O2  UNL     1       0.627  -2.384   0.731  1.00  0.00    -0.271 OA
ENDBRANCH  21  23
ENDBRANCH   3  21
BRANCH   1  42
HETATM   42  N1  UNL     1       1.886  -1.397  -3.305  1.00  0.00    -0.344 N 
ATOM     43  H12 UNL     1       1.517  -2.003  -2.572  1.00  0.00     0.176 HD
ATOM     44  H11 UNL     1       2.026  -1.775  -4.242  1.00  0.00     0.176 HD
ENDBRANCH   1  42
TORSDOF 9
