REMARK  11 active torsions:
REMARK  status: ('A' for Active; 'I' for Inactive)
REMARK    1  A    between atoms: C2_2  and  C3_3 
REMARK    2  A    between atoms: C2_2  and  C6_10 
REMARK    3  A    between atoms: C3_3  and  O1_4 
REMARK    4  A    between atoms: C3_3  and  C4_6 
REMARK    5  A    between atoms: C4_6  and  C5_7 
REMARK    6  A    between atoms: C5_7  and  O2_8 
REMARK    7  A    between atoms: C6_10  and  C8_12 
REMARK    8  A    between atoms: C13_17  and  O3_18 
REMARK    9  A    between atoms: C15_21  and  O4_22 
REMARK   10  A    between atoms: C16_24  and  O5_25 
REMARK   11  A    between atoms: C25_35  and  O6_36 
ROOT
HETATM    1  C8  UNL     1       1.214  -0.568  -0.572  1.00  0.00    -0.005 C 
HETATM    2  C9  UNL     1      -0.097   0.231  -0.910  1.00  0.00     0.011 C 
HETATM    3  C10 UNL     1      -1.114   0.008   0.127  1.00  0.00    -0.001 C 
HETATM    4  C11 UNL     1      -1.644  -1.401  -0.132  1.00  0.00     0.001 C 
HETATM    5  C12 UNL     1      -2.684  -1.383  -1.265  1.00  0.00     0.038 C 
HETATM    6  C13 UNL     1      -3.872  -0.532  -0.787  1.00  0.00     0.126 C 
HETATM    7  C14 UNL     1      -3.363   0.865  -0.642  1.00  0.00     0.054 C 
HETATM    8  C15 UNL     1      -4.478   1.790  -0.293  1.00  0.00     0.154 C 
HETATM    9  C16 UNL     1      -4.090   3.215  -0.149  1.00  0.00     0.147 C 
HETATM   10  C17 UNL     1      -2.713   3.471   0.337  1.00  0.00     0.035 C 
HETATM   11  C18 UNL     1      -1.694   2.429   0.011  1.00  0.00     0.012 C 
HETATM   12  C19 UNL     1      -2.190   1.005   0.283  1.00  0.00    -0.032 C 
HETATM   13  C20 UNL     1      -2.641   0.982   1.753  1.00  0.00     0.016 C 
HETATM   14  C21 UNL     1      -0.580  -2.391  -0.313  1.00  0.00    -0.036 C 
HETATM   15  C22 UNL     1      -1.036  -3.284  -1.483  1.00  0.00     0.016 C 
HETATM   16  C23 UNL     1      -0.659  -3.354   0.885  1.00  0.00     0.012 C 
HETATM   17  C24 UNL     1       0.016  -4.659   0.585  1.00  0.00     0.032 C 
HETATM   18  C25 UNL     1       1.415  -4.349   0.199  1.00  0.00     0.118 C 
HETATM   19  C26 UNL     1       1.750  -2.846   0.419  1.00  0.00     0.037 C 
HETATM   20  C27 UNL     1       0.855  -1.979  -0.434  1.00  0.00     0.001 C 
ENDROOT
BRANCH   1  21
HETATM   21  C6  UNL     1       1.993   0.187   0.430  1.00  0.00    -0.008 C 
HETATM   22  C7  UNL     1       3.247  -0.449   0.975  1.00  0.00     0.011 C 
BRANCH  21  23
HETATM   23  C2  UNL     1       2.386   1.588   0.089  1.00  0.00     0.014 C 
HETATM   24  C1  UNL     1       2.839   2.234   1.410  1.00  0.00     0.013 C 
BRANCH  23  25
HETATM   25  C3  UNL     1       3.301   1.929  -0.994  1.00  0.00     0.124 C 
BRANCH  25  26
HETATM   26  O1  UNL     1       3.042   1.416  -2.256  1.00  0.00    -0.395 OA
ATOM     27  H1  UNL     1       3.638   1.638  -2.962  1.00  0.00     0.210 HD
ENDBRANCH  25  26
BRANCH  25  28
HETATM   28  C4  UNL     1       4.786   1.898  -0.707  1.00  0.00     0.058 C 
BRANCH  28  29
HETATM   29  C5  UNL     1       5.568   2.307  -1.978  1.00  0.00     0.166 C 
BRANCH  29  30
HETATM   30  O2  UNL     1       6.921   2.265  -1.636  1.00  0.00    -0.401 OA
ATOM     31  H2  UNL     1       7.401   2.516  -2.416  1.00  0.00     0.209 HD
ENDBRANCH  29  30
ENDBRANCH  28  29
ENDBRANCH  25  28
ENDBRANCH  23  25
ENDBRANCH  21  23
ENDBRANCH   1  21
BRANCH  18  32
HETATM   32  O6  UNL     1       2.254  -5.004   1.138  1.00  0.00    -0.396 OA
ATOM     33  H6  UNL     1       3.150  -4.806   0.891  1.00  0.00     0.210 HD
ENDBRANCH  18  32
BRANCH   6  34
HETATM   34  O3  UNL     1      -4.494  -1.061   0.310  1.00  0.00    -0.395 OA
ATOM     35  H3  UNL     1      -5.228  -0.535   0.605  1.00  0.00     0.210 HD
ENDBRANCH   6  34
BRANCH   8  36
HETATM   36  O4  UNL     1      -5.240   1.311   0.798  1.00  0.00    -0.393 OA
ATOM     37  H4  UNL     1      -5.951   1.901   1.020  1.00  0.00     0.210 HD
ENDBRANCH   8  36
BRANCH   9  38
HETATM   38  O5  UNL     1      -4.347   3.931  -1.342  1.00  0.00    -0.393 OA
ATOM     39  H5  UNL     1      -4.099   4.843  -1.250  1.00  0.00     0.210 HD
ENDBRANCH   9  38
TORSDOF 11
