REMARK  4 active torsions:
REMARK  status: ('A' for Active; 'I' for Inactive)
REMARK    1  A    between atoms: C3_4  and  C4_5 
REMARK       I    between atoms: C4_5  and  N1_7 
REMARK    2  A    between atoms: C6_10  and  S1_11 
REMARK    3  A    between atoms: C8_14  and  O3_15 
REMARK    4  A    between atoms: C9_17  and  O4_18 
ROOT
HETATM    1  C4  UNL     1       2.258   0.076   0.491  1.00  0.00     0.332 C 
HETATM    2  O2  UNL     1       2.704   1.124   1.071  1.00  0.00    -0.253 OA
HETATM    3  N1  UNL     1       2.797  -1.122   0.383  1.00  0.00    -0.289 NA
HETATM    4  C5  UNL     1       3.350  -2.351   0.273  1.00  0.00     0.271 C 
HETATM    5  N2  UNL     1       3.792  -3.417   0.160  1.00  0.00    -0.156 NA
ENDROOT
BRANCH   1   6
HETATM    6  C3  UNL     1       0.883   0.299  -0.160  1.00  0.00     0.246 C 
HETATM    7  O1  UNL     1       0.517  -0.891  -0.725  1.00  0.00    -0.366 OA
HETATM    8  C2  UNL     1      -0.803  -1.049  -1.007  1.00  0.00     0.150 C 
HETATM    9  C1  UNL     1      -1.393  -2.079  -0.068  1.00  0.00     0.042 C 
HETATM   10  C9  UNL     1      -1.585   0.232  -1.023  1.00  0.00     0.176 C 
HETATM   11  C8  UNL     1      -1.396   1.051   0.215  1.00  0.00     0.167 C 
HETATM   12  C6  UNL     1      -0.105   0.657   0.903  1.00  0.00     0.133 C 
BRANCH  10  13
HETATM   13  O4  UNL     1      -2.899  -0.094  -1.317  1.00  0.00    -0.390 OA
ATOM     14  H4  UNL     1      -3.394   0.717  -1.327  1.00  0.00     0.210 HD
ENDBRANCH  10  13
BRANCH  11  15
HETATM   15  O3  UNL     1      -1.395   2.394  -0.182  1.00  0.00    -0.392 OA
ATOM     16  H3  UNL     1      -2.205   2.641  -0.613  1.00  0.00     0.210 HD
ENDBRANCH  11  15
BRANCH  12  17
HETATM   17  S1  UNL     1       0.547   1.963   1.940  1.00  0.00    -0.040 SA
HETATM   18  C7  UNL     1       0.723   3.492   1.084  1.00  0.00     0.134 C 
HETATM   19  N3  UNL     1       0.815   4.511   0.502  1.00  0.00    -0.184 NA
ENDBRANCH  12  17
ENDBRANCH   1   6
TORSDOF 4
