REMARK  7 active torsions:
REMARK  status: ('A' for Active; 'I' for Inactive)
REMARK    1  A    between atoms: O1_2  and  C2_3 
REMARK    2  A    between atoms: C3_4  and  O2_6 
REMARK    3  A    between atoms: N1_11  and  C7_13 
REMARK    4  A    between atoms: N2_15  and  O4_17 
REMARK    5  A    between atoms: C9_19  and  O5_20 
REMARK    6  A    between atoms: C9_19  and  C10_22 
REMARK    7  A    between atoms: C10_22  and  O6_23 
ROOT
HETATM    1  C2  UNL     1      -0.948   0.247   0.457  1.00  0.00     0.201 C 
HETATM    2  C3  UNL     1      -1.682  -1.032   0.570  1.00  0.00     0.105 C 
HETATM    3  C4  UNL     1      -3.141  -0.893   0.112  1.00  0.00     0.051 C 
HETATM    4  C5  UNL     1      -1.118  -2.212  -0.130  1.00  0.00     0.217 C 
HETATM    5  O3  UNL     1       0.295  -2.239  -0.187  1.00  0.00    -0.333 OA
HETATM    6  C6  UNL     1       1.058  -1.071  -0.152  1.00  0.00     0.159 C 
HETATM    7  N1  UNL     1       2.291  -1.152   0.027  1.00  0.00    -0.326 N 
ATOM      8  H1  UNL     1       2.623  -2.111   0.133  1.00  0.00     0.169 HD
HETATM    9  C9  UNL     1       0.334   0.197  -0.335  1.00  0.00     0.172 C 
ENDROOT
BRANCH   7  10
HETATM   10  C7  UNL     1       3.300  -0.208   0.111  1.00  0.00     0.099 C 
HETATM   11  C8  UNL     1       3.996   0.217  -1.142  1.00  0.00     0.091 C 
HETATM   12  N2  UNL     1       3.717   0.356   1.195  1.00  0.00    -0.257 N 
ATOM     13  H2  UNL     1       4.471   1.037   1.110  1.00  0.00     0.195 HD
BRANCH  12  14
HETATM   14  O4  UNL     1       3.233   0.115   2.435  1.00  0.00    -0.288 OA
ATOM     15  H4  UNL     1       3.540   0.530   3.233  1.00  0.00     0.244 HD
ENDBRANCH  12  14
ENDBRANCH   7  10
BRANCH   9  16
HETATM   16  O5  UNL     1       1.103   1.289   0.059  1.00  0.00    -0.377 OA
ATOM     17  H5  UNL     1       1.911   1.257  -0.440  1.00  0.00     0.211 HD
ENDBRANCH   9  16
BRANCH   9  18
HETATM   18  C10 UNL     1       0.085   0.365  -1.822  1.00  0.00     0.213 C 
BRANCH  18  19
HETATM   19  O6  UNL     1      -0.578   1.522  -2.151  1.00  0.00    -0.397 OA
ATOM     20  H6  UNL     1      -0.734   1.627  -3.082  1.00  0.00     0.209 HD
ENDBRANCH  18  19
ENDBRANCH   9  18
BRANCH   1  21
HETATM   21  O1  UNL     1      -1.767   1.214  -0.123  1.00  0.00    -0.384 OA
HETATM   22  C1  UNL     1      -1.967   2.309   0.703  1.00  0.00     0.202 C 
ENDBRANCH   1  21
BRANCH   2  23
HETATM   23  O2  UNL     1      -1.775  -1.370   1.941  1.00  0.00    -0.385 OA
ATOM     24  H2  UNL     1      -2.246  -2.192   2.014  1.00  0.00     0.210 HD
ENDBRANCH   2  23
TORSDOF 7
