REMARK  3 active torsions:
REMARK  status: ('A' for Active; 'I' for Inactive)
REMARK    1  A    between atoms: C6_7  and  S1_8 
REMARK    2  A    between atoms: S1_8  and  C7_9 
REMARK    3  A    between atoms: C9_16  and  N6_17 
ROOT
HETATM    1  C1  UNL     1      -0.770  -1.198   3.040  1.00  0.00     0.014 C 
HETATM    2  C2  UNL     1      -1.038  -0.385   2.199  1.00  0.00    -0.080 C 
HETATM    3  C3  UNL     1      -1.390   0.606   1.179  1.00  0.00     0.328 C 
HETATM    4  C4  UNL     1      -0.286   0.577   0.124  1.00  0.00     0.194 C 
HETATM    5  C5  UNL     1      -0.620   1.464  -0.991  1.00  0.00     0.074 C 
HETATM    6  N1  UNL     1      -0.866   2.174  -1.883  1.00  0.00    -0.196 NA
HETATM    7  C6  UNL     1      -0.235  -0.813  -0.391  1.00  0.00     0.068 C 
HETATM    8  N5  UNL     1      -1.374  -1.396  -0.531  1.00  0.00    -0.335 N 
ATOM      9  H5  UNL     1      -1.352  -2.352  -0.885  1.00  0.00     0.163 HD
HETATM   10  C9  UNL     1      -2.638  -0.868  -0.253  1.00  0.00     0.522 C 
HETATM   11  N7  UNL     1      -2.673   0.250   0.632  1.00  0.00     0.151 N 
HETATM   12  C10 UNL     1      -3.465   1.351   0.192  1.00  0.00     0.316 C 
ENDROOT
BRANCH   7  13
HETATM   13  S1  UNL     1       1.198  -1.726  -0.827  1.00  0.00    -0.091 SA
BRANCH  13  14
HETATM   14  C7  UNL     1       2.769  -1.036  -0.633  1.00  0.00     0.180 C 
HETATM   15  C8  UNL     1       3.139   0.175  -1.454  1.00  0.00     0.165 C 
HETATM   16  N2  UNL     1       4.441   0.494  -0.842  1.00  0.00    -0.128 NA
HETATM   17  N3  UNL     1       4.536  -0.214   0.342  1.00  0.00    -0.039 NA
HETATM   18  N4  UNL     1       3.219  -0.652   0.678  1.00  0.00    -0.113 NA
ENDBRANCH  13  14
ENDBRANCH   7  13
BRANCH  10  19
HETATM   19  N6  UNL     1      -3.304  -0.602  -1.528  1.00  0.00    -0.030 N 
ATOM     20  H63 UNL     1      -2.753  -0.005  -2.145  1.00  0.00     0.279 HD
ATOM     21  H62 UNL     1      -3.343  -1.423  -2.133  1.00  0.00     0.279 HD
ATOM     22  H61 UNL     1      -4.226  -0.217  -1.325  1.00  0.00     0.279 HD
ENDBRANCH  10  19
TORSDOF 3
