REMARK  9 active torsions:
REMARK  status: ('A' for Active; 'I' for Inactive)
REMARK    1  A    between atoms: S1_2  and  C2_5 
REMARK    2  A    between atoms: C2_5  and  C3_6 
REMARK    3  A    between atoms: C2_5  and  C9_26 
REMARK    4  A    between atoms: C3_6  and  O3_7 
REMARK    5  A    between atoms: C3_6  and  N1_9 
REMARK    6  A    between atoms: N1_9  and  N2_10 
REMARK       I    between atoms: N2_10  and  C4_12 
REMARK       I    between atoms: C4_12  and  N3_14 
REMARK    7  A    between atoms: N3_14  and  N4_16 
REMARK    8  A    between atoms: C5_18  and  C6_19 
REMARK    9  A    between atoms: C11_29  and  N7_30 
ROOT
HETATM    1  C3  UNL     1      -1.942   0.560   0.142  1.00  0.00     0.239 C 
ENDROOT
BRANCH   1   2
HETATM    2  C2  UNL     1      -2.877  -0.633   0.577  1.00  0.00     0.249 C 
BRANCH   2   3
HETATM    3  S1  UNL     1      -4.189   0.006   1.525  1.00  0.00     0.159 S 
HETATM    4  C1  UNL     1      -3.621   1.293   2.633  1.00  0.00     0.162 C 
HETATM    5  O1  UNL     1      -4.773  -1.070   2.450  1.00  0.00    -0.227 OA
HETATM    6  O2  UNL     1      -5.346   0.475   0.705  1.00  0.00    -0.227 OA
ENDBRANCH   2   3
BRANCH   2   7
HETATM    7  C9  UNL     1      -3.289  -1.350  -0.694  1.00  0.00     0.045 A 
HETATM    8  C10 UNL     1      -2.467  -1.488  -1.724  1.00  0.00     0.080 A 
HETATM    9  S2  UNL     1      -3.425  -2.293  -2.903  1.00  0.00    -0.064 SA
HETATM   10  C11 UNL     1      -4.864  -2.404  -1.956  1.00  0.00     0.142 A 
HETATM   11  N8  UNL     1      -4.542  -1.827  -0.800  1.00  0.00    -0.338 N 
ATOM     12  H8  UNL     1      -5.211  -1.751  -0.034  1.00  0.00     0.168 HD
BRANCH  10  13
HETATM   13  N7  UNL     1      -6.020  -2.948  -2.349  1.00  0.00    -0.380 N 
ATOM     14  H72 UNL     1      -6.267  -3.390  -3.235  1.00  0.00     0.158 HD
ATOM     15  H71 UNL     1      -6.870  -3.014  -1.789  1.00  0.00     0.158 HD
ENDBRANCH  10  13
ENDBRANCH   2   7
ENDBRANCH   1   2
BRANCH   1  16
HETATM   16  O3  UNL     1      -2.618   1.662  -0.044  1.00  0.00    -0.336 OA
ATOM     17  H3  UNL     1      -2.055   2.381  -0.306  1.00  0.00     0.220 HD
ENDBRANCH   1  16
BRANCH   1  18
HETATM   18  N1  UNL     1      -0.688   0.416   0.010  1.00  0.00    -0.299 NA
BRANCH  18  19
HETATM   19  N2  UNL     1       0.678   0.260  -0.135  1.00  0.00    -0.181 N 
HETATM   20  C4  UNL     1       1.590   0.134   0.931  1.00  0.00     0.363 C 
HETATM   21  O4  UNL     1       1.230   0.177   2.121  1.00  0.00    -0.243 OA
HETATM   22  N3  UNL     1       2.966  -0.058   0.616  1.00  0.00    -0.250 N 
ATOM     23  H3  UNL     1       3.206  -0.074  -0.375  1.00  0.00     0.192 HD
ATOM     24  H2  UNL     1       1.053   0.234  -1.083  1.00  0.00     0.207 HD
BRANCH  22  25
HETATM   25  N4  UNL     1       4.003  -0.224   1.496  1.00  0.00    -0.306 N 
HETATM   26  C5  UNL     1       5.201   0.078   1.240  1.00  0.00     0.138 C 
ATOM     27  H4  UNL     1       3.794  -0.616   2.414  1.00  0.00     0.186 HD
BRANCH  26  28
HETATM   28  C6  UNL     1       5.635   0.652  -0.003  1.00  0.00     0.065 A 
HETATM   29  C7  UNL     1       6.979   0.729  -0.472  1.00  0.00     0.119 A 
HETATM   30  N5  UNL     1       6.975   1.399  -1.642  1.00  0.00    -0.360 N 
HETATM   31  C8  UNL     1       5.721   1.740  -1.923  1.00  0.00     0.180 A 
ATOM     32  H5  UNL     1       7.794   1.608  -2.213  1.00  0.00     0.166 HD
HETATM   33  N6  UNL     1       4.930   1.300  -0.961  1.00  0.00    -0.350 N 
ATOM     34  H6  UNL     1       3.919   1.431  -0.942  1.00  0.00     0.166 HD
ENDBRANCH  26  28
ENDBRANCH  22  25
ENDBRANCH  18  19
ENDBRANCH   1  18
TORSDOF 9
