REMARK  8 active torsions:
REMARK  status: ('A' for Active; 'I' for Inactive)
REMARK    1  A    between atoms: N1_1  and  N2_4 
REMARK    2  A    between atoms: C1_6  and  C2_8 
REMARK    3  A    between atoms: C5_11  and  S1_12 
REMARK    4  A    between atoms: S1_12  and  N4_15 
REMARK    5  A    between atoms: N4_15  and  C6_17 
REMARK    6  A    between atoms: C9_20  and  S2_21 
REMARK    7  A    between atoms: S2_21  and  N5_22 
REMARK    8  A    between atoms: C13_30  and  O5_31 
ROOT
HETATM    1  S1  UNL     1       0.081  -2.255   2.452  1.00  0.00     0.263 S 
HETATM    2  O1  UNL     1      -0.061  -3.475   1.580  1.00  0.00    -0.200 OA
HETATM    3  O2  UNL     1       0.689  -2.642   3.786  1.00  0.00    -0.200 OA
ENDROOT
BRANCH   1   4
HETATM    4  C5  UNL     1       1.262  -1.197   1.670  1.00  0.00     0.082 A 
HETATM    5  C4  UNL     1       2.101  -0.390   2.386  1.00  0.00     0.026 A 
HETATM    6  C3  UNL     1       3.029   0.423   1.733  1.00  0.00     0.019 A 
HETATM    7  C2  UNL     1       3.125   0.436   0.377  1.00  0.00     0.040 A 
HETATM    8  C13 UNL     1       2.275  -0.382  -0.331  1.00  0.00     0.080 A 
HETATM    9  C12 UNL     1       1.352  -1.193   0.272  1.00  0.00     0.062 A 
BRANCH   7  10
HETATM   10  C1  UNL     1       4.092   1.278  -0.382  1.00  0.00     0.143 C 
HETATM   11  N2  UNL     1       4.080   1.218  -1.564  1.00  0.00    -0.294 N 
ATOM     12  H2  UNL     1       3.344   0.565  -1.831  1.00  0.00     0.187 HD
HETATM   13  N3  UNL     1       4.969   2.076   0.412  1.00  0.00    -0.080 NA
BRANCH  11  14
HETATM   14  N1  UNL     1       4.663   1.678  -2.718  1.00  0.00    -0.344 N 
ATOM     15  H12 UNL     1       5.392   2.326  -2.420  1.00  0.00     0.176 HD
ATOM     16  H11 UNL     1       4.653   1.626  -3.737  1.00  0.00     0.176 HD
ENDBRANCH  11  14
ENDBRANCH   7  10
BRANCH   8  17
HETATM   17  O5  UNL     1       2.378  -0.362  -1.739  1.00  0.00    -0.360 OA
ATOM     18  H5  UNL     1       1.791  -0.927  -2.228  1.00  0.00     0.217 HD
ENDBRANCH   8  17
ENDBRANCH   1   4
BRANCH   1  19
HETATM   19  N4  UNL     1      -1.372  -1.394   2.655  1.00  0.00    -0.281 N 
ATOM     20  H4  UNL     1      -1.730  -1.237   3.597  1.00  0.00     0.179 HD
BRANCH  19  21
HETATM   21  C6  UNL     1      -2.099  -0.888   1.541  1.00  0.00     0.042 A 
HETATM   22  C7  UNL     1      -2.325  -1.620   0.399  1.00  0.00     0.031 A 
HETATM   23  C8  UNL     1      -3.025  -1.090  -0.664  1.00  0.00     0.027 A 
HETATM   24  C9  UNL     1      -3.526   0.213  -0.607  1.00  0.00     0.079 A 
HETATM   25  C10 UNL     1      -3.314   0.973   0.531  1.00  0.00     0.027 A 
HETATM   26  C11 UNL     1      -2.612   0.410   1.568  1.00  0.00     0.031 A 
BRANCH  24  27
HETATM   27  S2  UNL     1      -4.391   0.886  -1.965  1.00  0.00     0.256 S 
HETATM   28  O3  UNL     1      -3.875   0.312  -3.249  1.00  0.00    -0.201 OA
HETATM   29  O4  UNL     1      -4.289   2.402  -1.969  1.00  0.00    -0.201 OA
BRANCH  27  30
HETATM   30  N5  UNL     1      -6.067   0.508  -1.842  1.00  0.00    -0.324 N 
ATOM     31  H52 UNL     1      -6.478  -0.031  -1.080  1.00  0.00     0.169 HD
ATOM     32  H51 UNL     1      -6.573   0.901  -2.636  1.00  0.00     0.169 HD
ENDBRANCH  27  30
ENDBRANCH  24  27
ENDBRANCH  19  21
ENDBRANCH   1  19
TORSDOF 8
