REMARK  10 active torsions:
REMARK  status: ('A' for Active; 'I' for Inactive)
REMARK    1  A    between atoms: C2_2  and  O1_4 
REMARK    2  A    between atoms: C2_2  and  C18_32 
REMARK    3  A    between atoms: O1_4  and  N1_5 
REMARK       I    between atoms: N1_5  and  C4_7 
REMARK    4  A    between atoms: C4_7  and  C5_9 
REMARK    5  A    between atoms: C5_9  and  O3_10 
REMARK    6  A    between atoms: C5_9  and  C6_12 
REMARK    7  A    between atoms: C5_9  and  C12_18 
REMARK    8  A    between atoms: C12_18  and  O4_19 
REMARK    9  A    between atoms: N2_22  and  O5_24 
REMARK   10  A    between atoms: C16_28  and  O6_30 
ROOT
HETATM    1  C5  UNL     1      -1.202  -0.464  -0.586  1.00  0.00     0.207 C 
ENDROOT
BRANCH   1   2
HETATM    2  C4  UNL     1      -0.037   0.414  -0.854  1.00  0.00     0.284 C 
HETATM    3  N1  UNL     1       1.077   0.564  -0.005  1.00  0.00    -0.231 N 
ATOM      4  H1  UNL     1       1.113   0.019   0.856  1.00  0.00     0.197 HD
HETATM    5  O2  UNL     1       0.004   1.110  -1.924  1.00  0.00    -0.267 OA
BRANCH   3   6
HETATM    6  O1  UNL     1       2.083   1.388  -0.282  1.00  0.00    -0.258 OA
BRANCH   6   7
HETATM    7  C2  UNL     1       3.347   1.002   0.008  1.00  0.00     0.159 C 
HETATM    8  C1  UNL     1       3.522   0.630   1.468  1.00  0.00     0.058 C 
HETATM    9  C3  UNL     1       4.189   2.325  -0.185  1.00  0.00     0.058 C 
BRANCH   7  10
HETATM   10  C18 UNL     1       3.914   0.070  -0.947  1.00  0.00     0.267 C 
HETATM   11  N3  UNL     1       3.219  -0.317  -2.109  1.00  0.00    -0.059 NA
HETATM   12  O7  UNL     1       5.069  -0.413  -0.734  1.00  0.00    -0.273 OA
ENDBRANCH   7  10
ENDBRANCH   6   7
ENDBRANCH   3   6
ENDBRANCH   1   2
BRANCH   1  13
HETATM   13  O3  UNL     1      -1.823  -0.567  -1.904  1.00  0.00    -0.372 OA
ATOM     14  H3  UNL     1      -2.569  -1.129  -1.732  1.00  0.00     0.211 HD
ENDBRANCH   1  13
BRANCH   1  15
HETATM   15  C6  UNL     1      -0.752  -1.843  -0.406  1.00  0.00    -0.011 A 
HETATM   16  C7  UNL     1      -1.149  -2.732   0.562  1.00  0.00     0.011 A 
HETATM   17  C8  UNL     1      -0.685  -4.031   0.674  1.00  0.00     0.001 A 
HETATM   18  C9  UNL     1       0.240  -4.464  -0.249  1.00  0.00     0.000 A 
HETATM   19  C10 UNL     1       0.685  -3.632  -1.248  1.00  0.00     0.001 A 
HETATM   20  C11 UNL     1       0.191  -2.354  -1.312  1.00  0.00     0.011 A 
ENDBRANCH   1  15
BRANCH   1  21
HETATM   21  C12 UNL     1      -2.276   0.084   0.207  1.00  0.00     0.172 C 
HETATM   22  C13 UNL     1      -2.872   1.238  -0.633  1.00  0.00     0.051 C 
HETATM   23  N2  UNL     1      -3.596   1.093  -1.684  1.00  0.00    -0.274 N 
HETATM   24  C14 UNL     1      -2.487   2.523  -0.061  1.00  0.00     0.061 C 
ATOM     25  H2  UNL     1      -3.827   0.163  -2.034  1.00  0.00     0.193 HD
HETATM   26  C15 UNL     1      -2.029   2.206   1.314  1.00  0.00     0.047 C 
HETATM   27  C16 UNL     1      -2.264   0.687   1.501  1.00  0.00     0.095 C 
HETATM   28  C17 UNL     1      -1.420   0.289   2.632  1.00  0.00     0.049 C 
BRANCH  21  29
HETATM   29  O4  UNL     1      -3.354  -0.850   0.154  1.00  0.00    -0.377 OA
ATOM     30  H4  UNL     1      -4.061  -0.489   0.676  1.00  0.00     0.211 HD
ENDBRANCH  21  29
BRANCH  23  31
HETATM   31  O5  UNL     1      -4.050   2.211  -2.323  1.00  0.00    -0.290 OA
ATOM     32  H5  UNL     1      -4.585   2.104  -3.100  1.00  0.00     0.244 HD
ENDBRANCH  23  31
BRANCH  27  33
HETATM   33  O6  UNL     1      -3.601   0.689   2.037  1.00  0.00    -0.387 OA
ATOM     34  H6  UNL     1      -3.593   1.090   2.898  1.00  0.00     0.210 HD
ENDBRANCH  27  33
ENDBRANCH   1  21
TORSDOF 10
