REMARK  4 active torsions:
REMARK  status: ('A' for Active; 'I' for Inactive)
REMARK    1  A    between atoms: C4_7  and  N3_8 
REMARK    2  A    between atoms: C8_12  and  C9_13 
REMARK    3  A    between atoms: C9_13  and  N4_14 
REMARK    4  A    between atoms: C9_13  and  C10_18 
ROOT
HETATM    1  N1  UNL     1       7.349  -1.426  -0.812  1.00  0.00    -0.191 NA
HETATM    2  C1  UNL     1       6.240  -1.130  -0.661  1.00  0.00     0.102 C 
HETATM    3  C2  UNL     1       4.856  -0.754  -0.450  1.00  0.00     0.076 A 
HETATM    4  C3  UNL     1       3.821  -1.534  -0.923  1.00  0.00     0.130 A 
HETATM    5  N2  UNL     1       2.542  -1.176  -0.722  1.00  0.00    -0.200 N 
ATOM      6  H2  UNL     1       1.800  -1.775  -1.085  1.00  0.00     0.183 HD
HETATM    7  C4  UNL     1       2.205  -0.055  -0.059  1.00  0.00     0.679 A 
HETATM    8  N6  UNL     1       3.222   0.712   0.406  1.00  0.00    -0.200 N 
ATOM      9  H6  UNL     1       2.994   1.568   0.912  1.00  0.00     0.183 HD
HETATM   10  C12 UNL     1       4.517   0.397   0.231  1.00  0.00     0.130 A 
ENDROOT
BRANCH   7  11
HETATM   11  N3  UNL     1       0.844   0.318   0.150  1.00  0.00    -0.217 N 
HETATM   12  C5  UNL     1       0.492   1.525   0.864  1.00  0.00     0.141 C 
HETATM   13  C6  UNL     1      -0.538   1.138   1.905  1.00  0.00     0.021 C 
HETATM   14  C7  UNL     1      -1.786   0.711   1.173  1.00  0.00     0.010 C 
HETATM   15  C8  UNL     1      -1.527   0.304  -0.254  1.00  0.00     0.043 C 
HETATM   16  C11 UNL     1      -0.230  -0.510  -0.352  1.00  0.00     0.148 C 
BRANCH  15  17
HETATM   17  C9  UNL     1      -2.635  -0.650  -0.686  1.00  0.00     0.277 C 
BRANCH  17  18
HETATM   18  N4  UNL     1      -2.591  -1.788   0.193  1.00  0.00    -0.066 N 
ATOM     19  H43 UNL     1      -1.673  -2.232   0.224  1.00  0.00     0.275 HD
ATOM     20  H42 UNL     1      -2.648  -1.532   1.179  1.00  0.00     0.275 HD
ATOM     21  H41 UNL     1      -3.332  -2.426  -0.096  1.00  0.00     0.275 HD
ENDBRANCH  17  18
BRANCH  17  22
HETATM   22  C10 UNL     1      -3.967  -0.002  -0.598  1.00  0.00     0.262 C 
HETATM   23  N5  UNL     1      -4.299   1.149  -1.358  1.00  0.00    -0.060 NA
HETATM   24  O1  UNL     1      -4.848  -0.470   0.169  1.00  0.00    -0.275 OA
ENDBRANCH  17  22
ENDBRANCH  15  17
ENDBRANCH   7  11
TORSDOF 4
