REMARK  5 active torsions:
REMARK  status: ('A' for Active; 'I' for Inactive)
REMARK    1  A    between atoms: N1_2  and  S1_4 
REMARK    2  A    between atoms: S1_4  and  N2_7 
REMARK    3  A    between atoms: N2_7  and  C2_9 
REMARK    4  A    between atoms: C2_9  and  C5_16 
REMARK       I    between atoms: N3_10  and  C3_12 
REMARK    5  A    between atoms: C3_12  and  O4_14 
ROOT
HETATM    1  C2  UNL     1       0.004  -0.266   0.360  1.00  0.00     0.132 C 
HETATM    2  N3  UNL     1       0.378  -1.443   0.074  1.00  0.00    -0.287 N 
ATOM      3  H3  UNL     1      -0.245  -2.188   0.386  1.00  0.00     0.172 HD
HETATM    4  C3  UNL     1       1.520  -1.866  -0.607  1.00  0.00     0.365 C 
HETATM    5  O3  UNL     1       1.482  -2.634  -1.627  1.00  0.00    -0.238 OA
ENDROOT
BRANCH   1   6
HETATM    6  N2  UNL     1      -1.240  -0.142   1.081  1.00  0.00    -0.252 N 
ATOM      7  H2  UNL     1      -1.432   0.707   1.613  1.00  0.00     0.182 HD
BRANCH   6   8
HETATM    8  S1  UNL     1      -2.407  -1.414   1.053  1.00  0.00     0.320 S 
HETATM    9  O1  UNL     1      -3.100  -1.443   2.367  1.00  0.00    -0.182 OA
HETATM   10  O2  UNL     1      -1.712  -2.741   0.880  1.00  0.00    -0.182 OA
BRANCH   8  11
HETATM   11  N1  UNL     1      -3.464  -1.132  -0.271  1.00  0.00    -0.307 N 
HETATM   12  C1  UNL     1      -4.602  -0.332   0.068  1.00  0.00     0.161 C 
ATOM     13  H1  UNL     1      -3.297  -1.499  -1.208  1.00  0.00     0.173 HD
ENDBRANCH   8  11
ENDBRANCH   6   8
ENDBRANCH   1   6
BRANCH   1  14
HETATM   14  C5  UNL     1       0.678   0.975   0.040  1.00  0.00     0.024 A 
HETATM   15  C6  UNL     1       0.665   2.032   0.962  1.00  0.00     0.018 A 
HETATM   16  C7  UNL     1       1.290   3.228   0.685  1.00  0.00     0.018 A 
HETATM   17  C8  UNL     1       1.952   3.430  -0.507  1.00  0.00     0.087 A 
HETATM   18  N4  UNL     1       1.965   2.417  -1.389  1.00  0.00    -0.374 N 
HETATM   19  C9  UNL     1       1.350   1.224  -1.133  1.00  0.00     0.102 A 
ATOM     20  H4  UNL     1       2.449   2.542  -2.278  1.00  0.00     0.164 HD
ENDBRANCH   1  14
BRANCH   4  21
HETATM   21  O4  UNL     1       2.784  -1.459  -0.194  1.00  0.00    -0.309 OA
HETATM   22  C4  UNL     1       3.978  -1.842  -0.825  1.00  0.00     0.215 C 
ENDBRANCH   4  21
TORSDOF 5
