REMARK  6 active torsions:
REMARK  status: ('A' for Active; 'I' for Inactive)
REMARK    1  A    between atoms: N2_3  and  C2_5 
REMARK    2  A    between atoms: C2_5  and  N3_7 
REMARK    3  A    between atoms: N3_7  and  N4_9 
REMARK    4  A    between atoms: C3_11  and  C4_12 
REMARK    5  A    between atoms: C7_15  and  O1_16 
REMARK    6  A    between atoms: C8_18  and  N5_19 
ROOT
HETATM    1  N1  UNL     1       6.405   0.584   2.021  1.00  0.00    -0.172 NA
HETATM    2  C1  UNL     1       5.704   0.077   1.241  1.00  0.00     0.184 C 
HETATM    3  N2  UNL     1       4.865  -0.510   0.294  1.00  0.00    -0.269 N 
ATOM      4  H2  UNL     1       5.281  -0.979  -0.511  1.00  0.00     0.180 HD
ENDROOT
BRANCH   3   5
HETATM    5  C2  UNL     1       3.449  -0.477   0.413  1.00  0.00     0.199 C 
HETATM    6  S1  UNL     1       2.806   0.286   1.722  1.00  0.00    -0.038 SA
BRANCH   5   7
HETATM    7  N3  UNL     1       2.613  -1.080  -0.561  1.00  0.00    -0.276 N 
ATOM      8  H3  UNL     1       3.019  -1.551  -1.369  1.00  0.00     0.189 HD
BRANCH   7   9
HETATM    9  N4  UNL     1       1.243  -1.021  -0.401  1.00  0.00    -0.309 N 
HETATM   10  C3  UNL     1       0.536   0.036  -0.488  1.00  0.00     0.118 C 
ATOM     11  H4  UNL     1       0.757  -1.894  -0.197  1.00  0.00     0.186 HD
BRANCH  10  12
HETATM   12  C4  UNL     1      -0.911  -0.045  -0.295  1.00  0.00    -0.017 A 
HETATM   13  C5  UNL     1      -1.509  -1.257  -0.021  1.00  0.00     0.016 A 
HETATM   14  C6  UNL     1      -2.871  -1.359   0.164  1.00  0.00     0.040 A 
HETATM   15  C7  UNL     1      -3.678  -0.246   0.081  1.00  0.00     0.098 A 
HETATM   16  C8  UNL     1      -3.068   0.950  -0.192  1.00  0.00     0.136 A 
HETATM   17  C9  UNL     1      -1.722   1.066  -0.378  1.00  0.00     0.052 A 
BRANCH  15  18
HETATM   18  O1  UNL     1      -5.067  -0.363   0.272  1.00  0.00    -0.358 OA
ATOM     19  H1  UNL     1      -5.624   0.405   0.215  1.00  0.00     0.217 HD
ENDBRANCH  15  18
BRANCH  16  20
HETATM   20  N5  UNL     1      -3.931   2.096  -0.274  1.00  0.00    -0.113 N 
HETATM   21  O2  UNL     1      -3.612   3.087  -0.986  1.00  0.00    -0.532 OA
HETATM   22  O3  UNL     1      -5.107   2.138   0.412  1.00  0.00    -0.532 OA
ENDBRANCH  16  20
ENDBRANCH  10  12
ENDBRANCH   7   9
ENDBRANCH   5   7
ENDBRANCH   3   5
TORSDOF 6
