REMARK  6 active torsions:
REMARK  status: ('A' for Active; 'I' for Inactive)
REMARK    1  A    between atoms: O1_2  and  C2_3 
REMARK    2  A    between atoms: C6_7  and  C7_8 
REMARK    3  A    between atoms: C7_8  and  O2_9 
REMARK    4  A    between atoms: C7_8  and  O3_11 
REMARK    5  A    between atoms: C11_18  and  O4_19 
REMARK    6  A    between atoms: O4_19  and  C12_20 
ROOT
HETATM    1  C2  UNL     1      -1.364  -0.811  -0.671  1.00  0.00     0.104 A 
HETATM    2  C3  UNL     1      -0.419  -1.841  -0.643  1.00  0.00     0.040 A 
HETATM    3  C4  UNL     1       0.892  -1.589  -0.303  1.00  0.00     0.017 A 
HETATM    4  C5  UNL     1       1.290  -0.310   0.017  1.00  0.00     0.005 A 
HETATM    5  C6  UNL     1       2.584  -0.035   0.363  1.00  0.00     0.010 A 
HETATM    6  C8  UNL     1       2.886   1.295   0.676  1.00  0.00     0.030 A 
HETATM    7  C9  UNL     1       1.917   2.267   0.633  1.00  0.00     0.089 A 
HETATM    8  N1  UNL     1       0.648   2.000   0.294  1.00  0.00    -0.363 N 
ATOM      9  H1  UNL     1      -0.060   2.734   0.267  1.00  0.00     0.165 HD
HETATM   10  C10 UNL     1       0.347   0.732  -0.007  1.00  0.00     0.080 A 
HETATM   11  C11 UNL     1      -0.982   0.466  -0.354  1.00  0.00     0.140 A 
ENDROOT
BRANCH   5  12
HETATM   12  C7  UNL     1       3.628  -1.073   0.390  1.00  0.00     0.289 C 
BRANCH  12  13
HETATM   13  O2  UNL     1       4.770  -0.476  -0.227  1.00  0.00    -0.367 OA
ATOM     14  H2  UNL     1       5.444  -1.146  -0.210  1.00  0.00     0.213 HD
ENDBRANCH  12  13
BRANCH  12  15
HETATM   15  O3  UNL     1       4.005  -1.410   1.678  1.00  0.00    -0.367 OA
ATOM     16  H3  UNL     1       4.679  -2.080   1.695  1.00  0.00     0.213 HD
ENDBRANCH  12  15
ENDBRANCH   5  12
BRANCH  11  17
HETATM   17  O4  UNL     1      -1.942   1.461  -0.391  1.00  0.00    -0.274 OA
BRANCH  17  18
HETATM   18  C12 UNL     1      -2.733   1.837   0.660  1.00  0.00     0.260 C 
HETATM   19  C13 UNL     1      -3.729   2.933   0.465  1.00  0.00     0.126 C 
HETATM   20  O5  UNL     1      -2.589   1.241   1.753  1.00  0.00    -0.265 OA
ENDBRANCH  17  18
ENDBRANCH  11  17
BRANCH   1  21
HETATM   21  O1  UNL     1      -2.686  -1.021  -1.006  1.00  0.00    -0.353 OA
HETATM   22  C1  UNL     1      -3.238  -2.261  -1.354  1.00  0.00     0.210 C 
ENDBRANCH   1  21
TORSDOF 6
