REMARK  12 active torsions:
REMARK  status: ('A' for Active; 'I' for Inactive)
REMARK    1  A    between atoms: O1_2  and  C2_3 
REMARK    2  A    between atoms: C2_3  and  C3_5 
REMARK    3  A    between atoms: C3_5  and  N1_6 
REMARK    4  A    between atoms: N1_6  and  O3_7 
REMARK    5  A    between atoms: C8_14  and  C9_15 
REMARK    6  A    between atoms: C9_15  and  O5_16 
REMARK    7  A    between atoms: C9_15  and  C10_18 
REMARK    8  A    between atoms: C10_18  and  O6_19 
REMARK    9  A    between atoms: C10_18  and  C11_21 
REMARK   10  A    between atoms: C11_21  and  O7_22 
REMARK   11  A    between atoms: C16_34  and  C17_35 
REMARK   12  A    between atoms: C17_35  and  O9_36 
ROOT
HETATM    1  C3  UNL     1      -2.163   1.371  -0.354  1.00  0.00     0.147 C 
HETATM    2  C4  UNL     1      -0.757   1.605  -0.757  1.00  0.00     0.045 C 
HETATM    3  C5  UNL     1       0.278   1.278   0.262  1.00  0.00     0.074 C 
HETATM    4  C6  UNL     1       1.063   0.030  -0.033  1.00  0.00     0.192 C 
HETATM    5  C7  UNL     1       0.291  -1.167  -0.366  1.00  0.00     0.237 C 
HETATM    6  O4  UNL     1      -1.067  -1.019  -0.483  1.00  0.00    -0.378 OA
HETATM    7  C8  UNL     1      -1.730  -0.890   0.710  1.00  0.00     0.155 C 
HETATM    8  C12 UNL     1      -2.423   0.421   0.753  1.00  0.00     0.074 C 
HETATM    9  O8  UNL     1       2.018  -0.188   0.958  1.00  0.00    -0.313 OA
HETATM   10  C13 UNL     1       3.063  -0.195   0.005  1.00  0.00     0.209 C 
HETATM   11  C14 UNL     1       3.506  -1.567  -0.390  1.00  0.00     0.193 C 
HETATM   12  N2  UNL     1       4.845  -1.900  -0.029  1.00  0.00    -0.359 N 
ATOM     13  H2  UNL     1       5.141  -2.859  -0.209  1.00  0.00     0.162 HD
HETATM   14  C15 UNL     1       5.707  -1.128   0.493  1.00  0.00     0.184 C 
HETATM   15  N3  UNL     1       7.005  -1.608   0.795  1.00  0.00    -0.064 NA
HETATM   16  N4  UNL     1       5.363   0.205   0.767  1.00  0.00    -0.353 N 
ATOM     17  H4  UNL     1       5.988   0.778   1.334  1.00  0.00     0.162 HD
HETATM   18  C16 UNL     1       4.146   0.775   0.263  1.00  0.00     0.171 C 
HETATM   19  O10 UNL     1       2.134   0.290  -0.917  1.00  0.00    -0.313 OA
ENDROOT
BRANCH   1  20
HETATM   20  C2  UNL     1      -2.730   2.698   0.095  1.00  0.00     0.285 C 
HETATM   21  O2  UNL     1      -3.637   3.300  -0.484  1.00  0.00    -0.263 OA
BRANCH  20  22
HETATM   22  O1  UNL     1      -2.158   3.239   1.246  1.00  0.00    -0.325 OA
HETATM   23  C1  UNL     1      -2.639   4.489   1.733  1.00  0.00     0.213 C 
ENDBRANCH  20  22
ENDBRANCH   1  20
BRANCH   1  24
HETATM   24  N1  UNL     1      -2.930   1.037  -1.564  1.00  0.00    -0.083 NA
BRANCH  24  25
HETATM   25  O3  UNL     1      -2.779   1.990  -2.509  1.00  0.00    -0.295 OA
ATOM     26  H3  UNL     1      -3.274   1.774  -3.290  1.00  0.00     0.238 HD
ENDBRANCH  24  25
ENDBRANCH   1  24
BRANCH   7  27
HETATM   27  C9  UNL     1      -2.616  -2.068   1.029  1.00  0.00     0.178 C 
BRANCH  27  28
HETATM   28  O5  UNL     1      -1.801  -3.199   1.094  1.00  0.00    -0.390 OA
ATOM     29  H5  UNL     1      -2.359  -3.941   1.295  1.00  0.00     0.210 HD
ENDBRANCH  27  28
BRANCH  27  30
HETATM   30  C10 UNL     1      -3.689  -2.324   0.039  1.00  0.00     0.172 C 
BRANCH  30  31
HETATM   31  O6  UNL     1      -3.185  -2.586  -1.237  1.00  0.00    -0.391 OA
ATOM     32  H6  UNL     1      -3.873  -2.750  -1.872  1.00  0.00     0.210 HD
ENDBRANCH  30  31
BRANCH  30  33
HETATM   33  C11 UNL     1      -4.423  -3.585   0.462  1.00  0.00     0.198 C 
BRANCH  33  34
HETATM   34  O7  UNL     1      -4.966  -3.424   1.730  1.00  0.00    -0.398 OA
ATOM     35  H7  UNL     1      -5.425  -4.213   1.995  1.00  0.00     0.209 HD
ENDBRANCH  33  34
ENDBRANCH  30  33
ENDBRANCH  27  30
ENDBRANCH   7  27
BRANCH  18  36
HETATM   36  C17 UNL     1       4.525   1.573  -0.991  1.00  0.00     0.195 C 
BRANCH  36  37
HETATM   37  O9  UNL     1       3.427   2.175  -1.571  1.00  0.00    -0.399 OA
ATOM     38  H9  UNL     1       3.662   2.669  -2.348  1.00  0.00     0.209 HD
ENDBRANCH  36  37
ENDBRANCH  18  36
TORSDOF 12
