REMARK  12 active torsions:
REMARK  status: ('A' for Active; 'I' for Inactive)
REMARK    1  A    between atoms: N1_2  and  N2_3 
REMARK    2  A    between atoms: N1_2  and  C2_6 
REMARK    3  A    between atoms: N5_12  and  C5_14 
REMARK    4  A    between atoms: C5_14  and  N6_15 
REMARK    5  A    between atoms: C5_14  and  C7_20 
REMARK    6  A    between atoms: C7_20  and  O1_21 
REMARK    7  A    between atoms: C7_20  and  C8_23 
REMARK    8  A    between atoms: C8_23  and  O2_24 
REMARK    9  A    between atoms: C8_23  and  C9_26 
REMARK   10  A    between atoms: C9_26  and  O3_27 
REMARK   11  A    between atoms: C11_30  and  O4_31 
REMARK   12  A    between atoms: O4_31  and  N9_32 
ROOT
HETATM    1  C2  UNL     1       2.908  -1.225  -1.358  1.00  0.00     0.151 A 
HETATM    2  N3  UNL     1       1.726  -1.496  -1.924  1.00  0.00    -0.326 N 
ATOM      3  H3  UNL     1       1.719  -2.096  -2.749  1.00  0.00     0.168 HD
HETATM    4  C3  UNL     1       0.538  -1.027  -1.474  1.00  0.00     0.145 A 
HETATM    5  N4  UNL     1      -0.576  -1.448  -2.232  1.00  0.00    -0.080 NA
HETATM    6  C4  UNL     1       0.370  -0.213  -0.382  1.00  0.00     0.087 A 
HETATM    7  N5  UNL     1      -0.675   0.255   0.113  1.00  0.00    -0.363 N 
ATOM      8  H5  UNL     1      -0.520   0.839   0.935  1.00  0.00     0.162 HD
HETATM    9  C10 UNL     1       1.581   0.114   0.267  1.00  0.00     0.064 A 
HETATM   10  C11 UNL     1       1.392   0.933   1.372  1.00  0.00     0.159 C 
HETATM   11  C12 UNL     1       2.249   1.030   2.456  1.00  0.00     0.166 A 
HETATM   12  N10 UNL     1       1.865   1.521   3.642  1.00  0.00    -0.334 N 
ATOM     13  H10 UNL     1       0.937   1.868   3.886  1.00  0.00     0.168 HD
HETATM   14  C13 UNL     1       2.938   1.468   4.448  1.00  0.00     0.199 A 
HETATM   15  N11 UNL     1       3.945   0.944   3.726  1.00  0.00    -0.287 N 
ATOM     16  H11 UNL     1       4.888   0.784   4.081  1.00  0.00     0.188 HD
HETATM   17  N12 UNL     1       3.551   0.664   2.497  1.00  0.00    -0.232 N 
HETATM   18  C14 UNL     1       4.363   0.131   1.566  1.00  0.00     0.209 C 
HETATM   19  N13 UNL     1       4.065  -0.184   0.269  1.00  0.00    -0.347 N 
ATOM     20  H13 UNL     1       4.852  -0.255  -0.376  1.00  0.00     0.167 HD
HETATM   21  C15 UNL     1       2.840  -0.410  -0.247  1.00  0.00     0.095 A 
ENDROOT
BRANCH   7  22
HETATM   22  C5  UNL     1      -2.020   0.127  -0.250  1.00  0.00     0.215 C 
BRANCH  22  23
HETATM   23  N6  UNL     1      -2.883   1.251   0.120  1.00  0.00    -0.343 N 
HETATM   24  C6  UNL     1      -2.832   2.387  -0.478  1.00  0.00     0.198 C 
HETATM   25  N7  UNL     1      -1.977   2.711  -1.531  1.00  0.00    -0.067 NA
HETATM   26  N8  UNL     1      -3.735   3.391  -0.008  1.00  0.00    -0.067 NA
ATOM     27  H6  UNL     1      -3.550   1.127   0.882  1.00  0.00     0.164 HD
ENDBRANCH  22  23
BRANCH  22  28
HETATM   28  C7  UNL     1      -2.668  -1.065   0.492  1.00  0.00     0.191 C 
BRANCH  28  29
HETATM   29  O1  UNL     1      -2.538  -0.758   1.867  1.00  0.00    -0.389 OA
ATOM     30  H1  UNL     1      -2.936  -1.490   2.323  1.00  0.00     0.210 HD
ENDBRANCH  28  29
BRANCH  28  31
HETATM   31  C8  UNL     1      -4.157  -1.109   0.228  1.00  0.00     0.174 C 
BRANCH  31  32
HETATM   32  O2  UNL     1      -4.652  -2.123   1.079  1.00  0.00    -0.391 OA
ATOM     33  H2  UNL     1      -5.587  -2.151   0.913  1.00  0.00     0.210 HD
ENDBRANCH  31  32
BRANCH  31  34
HETATM   34  C9  UNL     1      -4.464  -1.473  -1.211  1.00  0.00     0.198 C 
BRANCH  34  35
HETATM   35  O3  UNL     1      -5.869  -1.581  -1.317  1.00  0.00    -0.398 OA
ATOM     36  H3  UNL     1      -6.061  -1.809  -2.219  1.00  0.00     0.209 HD
ENDBRANCH  34  35
ENDBRANCH  31  34
ENDBRANCH  28  31
ENDBRANCH  22  28
ENDBRANCH   7  22
BRANCH  10  37
HETATM   37  O4  UNL     1       0.249   1.700   1.359  1.00  0.00    -0.240 OA
BRANCH  37  38
HETATM   38  N9  UNL     1      -0.121   2.563   2.337  1.00  0.00    -0.305 N 
ATOM     39  H92 UNL     1       0.507   2.638   3.137  1.00  0.00     0.184 HD
ATOM     40  H91 UNL     1      -0.968   3.131   2.327  1.00  0.00     0.184 HD
ENDBRANCH  37  38
ENDBRANCH  10  37
BRANCH   1  41
HETATM   41  N1  UNL     1       4.151  -1.721  -1.837  1.00  0.00    -0.286 N 
HETATM   42  C1  UNL     1       5.240  -0.879  -2.273  1.00  0.00     0.179 C 
BRANCH  41  43
HETATM   43  N2  UNL     1       4.318  -3.110  -1.883  1.00  0.00    -0.342 N 
ATOM     44  H22 UNL     1       5.210  -3.466  -2.227  1.00  0.00     0.177 HD
ATOM     45  H21 UNL     1       3.549  -3.705  -1.575  1.00  0.00     0.177 HD
ENDBRANCH  41  43
ENDBRANCH   1  41
TORSDOF 12
