REMARK  12 active torsions:
REMARK  status: ('A' for Active; 'I' for Inactive)
REMARK    1  A    between atoms: N1_1  and  C1_4 
REMARK    2  A    between atoms: C2_5  and  O1_6 
REMARK    3  A    between atoms: C3_8  and  N2_9 
REMARK    4  A    between atoms: N2_9  and  C4_11 
REMARK    5  A    between atoms: C4_11  and  N3_12 
REMARK       I    between atoms: N3_12  and  C5_14 
REMARK       I    between atoms: C5_14  and  N5_16 
REMARK    6  A    between atoms: N5_16  and  C6_18 
REMARK    7  A    between atoms: C6_18  and  O2_19 
REMARK    8  A    between atoms: C6_18  and  C7_21 
REMARK    9  A    between atoms: C7_21  and  N6_22 
REMARK   10  A    between atoms: C7_21  and  C8_26 
REMARK       I    between atoms: C8_26  and  N7_28 
REMARK   11  A    between atoms: C13_39  and  O4_40 
REMARK   12  A    between atoms: N12_42  and  N13_43 
ROOT
HETATM    1  N2  UNL     1      -1.538  -1.379  -0.026  1.00  0.00    -0.335 N 
ATOM      2  H2  UNL     1      -1.100  -2.249  -0.330  1.00  0.00     0.168 HD
ENDROOT
BRANCH   1   3
HETATM    3  C3  UNL     1      -2.944  -1.354  -0.040  1.00  0.00     0.161 A 
HETATM    4  C2  UNL     1      -3.726  -2.453  -0.365  1.00  0.00     0.157 A 
HETATM    5  C1  UNL     1      -5.048  -2.065  -0.275  1.00  0.00     0.160 A 
HETATM    6  N10 UNL     1      -5.015  -0.773   0.093  1.00  0.00    -0.215 N 
HETATM    7  N9  UNL     1      -3.757  -0.348   0.234  1.00  0.00    -0.258 N 
HETATM    8  C12 UNL     1      -5.892   0.312   0.388  1.00  0.00     0.159 A 
HETATM    9  C15 UNL     1      -3.749   1.051   0.633  1.00  0.00     0.215 A 
HETATM   10  C14 UNL     1      -5.171   1.439   0.720  1.00  0.00     0.103 A 
HETATM   11  N12 UNL     1      -6.002   2.457   0.996  1.00  0.00    -0.224 N 
HETATM   12  C13 UNL     1      -7.248   1.983   0.841  1.00  0.00     0.244 A 
HETATM   13  N11 UNL     1      -7.197   0.691   0.474  1.00  0.00    -0.303 N 
ATOM     14  H11 UNL     1      -8.003   0.093   0.290  1.00  0.00     0.171 HD
BRANCH   4  15
HETATM   15  O1  UNL     1      -3.267  -3.729  -0.722  1.00  0.00    -0.354 OA
ATOM     16  H1  UNL     1      -2.357  -3.996  -0.784  1.00  0.00     0.218 HD
ENDBRANCH   4  15
BRANCH   5  17
HETATM   17  N1  UNL     1      -6.067  -2.821  -0.507  1.00  0.00    -0.382 N 
ATOM     18  H12 UNL     1      -6.092  -3.802  -0.786  1.00  0.00     0.157 HD
ATOM     19  H11 UNL     1      -7.044  -2.534  -0.441  1.00  0.00     0.157 HD
ENDBRANCH   5  17
BRANCH  11  20
HETATM   20  N13 UNL     1      -5.685   3.773   1.375  1.00  0.00    -0.335 N 
ATOM     21 2H13 UNL     1      -6.316   4.546   1.585  1.00  0.00     0.177 HD
ATOM     22 1H13 UNL     1      -4.738   4.133   1.493  1.00  0.00     0.177 HD
ENDBRANCH  11  20
BRANCH  12  23
HETATM   23  O4  UNL     1      -8.445   2.698   1.025  1.00  0.00    -0.331 OA
ATOM     24  H4  UNL     1      -8.481   3.611   1.284  1.00  0.00     0.221 HD
ENDBRANCH  12  23
ENDBRANCH   1   3
BRANCH   1  25
HETATM   25  C4  UNL     1      -0.749  -0.444   0.321  1.00  0.00     0.184 C 
BRANCH  25  26
HETATM   26  N3  UNL     1       0.642  -0.653   0.269  1.00  0.00    -0.327 N 
HETATM   27  C5  UNL     1       1.232  -0.724  -0.861  1.00  0.00     0.191 C 
HETATM   28  N4  UNL     1       0.481  -0.592  -2.049  1.00  0.00    -0.063 NA
HETATM   29  N5  UNL     1       2.651  -0.939  -0.905  1.00  0.00    -0.336 N 
ATOM     30  H5  UNL     1       3.027  -1.841  -0.613  1.00  0.00     0.164 HD
ATOM     31  H3  UNL     1       1.177  -0.748   1.132  1.00  0.00     0.169 HD
BRANCH  29  32
HETATM   32  C6  UNL     1       3.544   0.075  -1.346  1.00  0.00     0.260 C 
BRANCH  32  33
HETATM   33  O2  UNL     1       3.308   1.353  -0.924  1.00  0.00    -0.374 OA
ATOM     34  H2  UNL     1       3.905   2.031  -1.219  1.00  0.00     0.212 HD
ENDBRANCH  32  33
BRANCH  32  35
HETATM   35  C7  UNL     1       4.991  -0.363  -1.203  1.00  0.00     0.323 C 
BRANCH  35  36
HETATM   36  N6  UNL     1       5.829   0.477  -2.029  1.00  0.00    -0.062 N 
ATOM     37  H63 UNL     1       5.524   0.490  -3.002  1.00  0.00     0.275 HD
ATOM     38  H62 UNL     1       5.703   1.468  -1.825  1.00  0.00     0.275 HD
ATOM     39  H61 UNL     1       6.801   0.183  -1.933  1.00  0.00     0.275 HD
ENDBRANCH  35  36
BRANCH  35  40
HETATM   40  C8  UNL     1       5.430  -0.471   0.186  1.00  0.00     0.264 C 
HETATM   41  O3  UNL     1       4.680  -1.213   0.942  1.00  0.00    -0.270 OA
HETATM   42  N7  UNL     1       6.556   0.124   0.804  1.00  0.00    -0.286 N 
HETATM   43  C9  UNL     1       6.895  -0.031   2.128  1.00  0.00     0.118 A 
HETATM   44  C11 UNL     1       7.476   0.911   0.288  1.00  0.00     0.190 A 
HETATM   45  C10 UNL     1       8.036   0.677   2.392  1.00  0.00     0.106 A 
HETATM   46  N8  UNL     1       8.391   1.258   1.252  1.00  0.00    -0.360 N 
ATOM     47  H8  UNL     1       9.204   1.859   1.116  1.00  0.00     0.166 HD
ENDBRANCH  35  40
ENDBRANCH  32  35
ENDBRANCH  29  32
ENDBRANCH  25  26
ENDBRANCH   1  25
TORSDOF 12
