REMARK  9 active torsions:
REMARK  status: ('A' for Active; 'I' for Inactive)
REMARK    1  A    between atoms: N1_2  and  C3_4 
REMARK    2  A    between atoms: C6_11  and  C7_12 
REMARK    3  A    between atoms: C7_12  and  O2_13 
REMARK    4  A    between atoms: O2_13  and  C8_14 
REMARK       I    between atoms: C8_14  and  N4_16 
REMARK    5  A    between atoms: C9_21  and  C10_22 
REMARK    6  A    between atoms: C11_23  and  N7_24 
REMARK    7  A    between atoms: N7_24  and  O4_26 
REMARK    8  A    between atoms: C12_30  and  N9_31 
REMARK    9  A    between atoms: N11_37  and  O5_39 
ROOT
HETATM    1  C8  UNL     1      -0.144   1.415   0.635  1.00  0.00     0.403 C 
HETATM    2  O3  UNL     1      -0.443   2.532   1.131  1.00  0.00    -0.234 OA
HETATM    3  N4  UNL     1      -1.170   0.471   0.275  1.00  0.00    -0.119 N 
HETATM    4  N5  UNL     1      -0.993  -0.727  -0.250  1.00  0.00    -0.215 N 
ATOM      5  H5  UNL     1      -0.087  -1.140  -0.470  1.00  0.00     0.210 HD
HETATM    6  N6  UNL     1      -2.156  -1.312  -0.448  1.00  0.00    -0.267 N 
ATOM      7  H6  UNL     1      -2.294  -2.242  -0.843  1.00  0.00     0.190 HD
HETATM    8  C9  UNL     1      -3.146  -0.469  -0.038  1.00  0.00     0.155 A 
HETATM    9  N12 UNL     1      -2.472   0.628   0.405  1.00  0.00    -0.256 N 
ATOM     10  H12 UNL     1      -2.917   1.462   0.788  1.00  0.00     0.191 HD
ENDROOT
BRANCH   8  11
HETATM   11  C10 UNL     1      -4.574  -0.711  -0.087  1.00  0.00     0.103 A 
HETATM   12  C11 UNL     1      -5.235  -0.332  -1.227  1.00  0.00     0.158 A 
HETATM   13  N8  UNL     1      -6.554  -0.524  -1.344  1.00  0.00    -0.174 N 
HETATM   14  C12 UNL     1      -7.232  -1.094  -0.330  1.00  0.00     0.679 A 
ATOM     15  H8  UNL     1      -7.042  -0.241  -2.194  1.00  0.00     0.186 HD
HETATM   16  N10 UNL     1      -6.595  -1.469   0.789  1.00  0.00    -0.174 N 
HETATM   17  C13 UNL     1      -5.245  -1.285   0.937  1.00  0.00     0.158 A 
ATOM     18  H10 UNL     1      -7.126  -1.900   1.546  1.00  0.00     0.186 HD
HETATM   19  N11 UNL     1      -4.680  -1.655   2.019  1.00  0.00    -0.252 N 
ATOM     20  H11 UNL     1      -5.261  -2.080   2.742  1.00  0.00     0.196 HD
BRANCH  12  21
HETATM   21  N7  UNL     1      -4.558   0.276  -2.326  1.00  0.00    -0.252 N 
ATOM     22  H7  UNL     1      -4.182  -0.334  -3.052  1.00  0.00     0.196 HD
BRANCH  21  23
HETATM   23  O4  UNL     1      -4.385   1.595  -2.465  1.00  0.00    -0.288 OA
ATOM     24  H4  UNL     1      -3.934   2.000  -3.197  1.00  0.00     0.244 HD
ENDBRANCH  21  23
ENDBRANCH  12  21
BRANCH  14  25
HETATM   25  N9  UNL     1      -8.522  -1.276  -0.459  1.00  0.00    -0.234 N 
ATOM     26  H92 UNL     1      -9.006  -0.991  -1.310  1.00  0.00     0.174 HD
ATOM     27  H91 UNL     1      -9.036  -1.708   0.309  1.00  0.00     0.174 HD
ENDBRANCH  14  25
BRANCH  19  28
HETATM   28  O5  UNL     1      -3.359  -1.519   2.267  1.00  0.00    -0.288 OA
ATOM     29  H5  UNL     1      -2.938  -1.795   3.073  1.00  0.00     0.244 HD
ENDBRANCH  19  28
ENDBRANCH   8  11
BRANCH   1  30
HETATM   30  O2  UNL     1       1.182   1.131   0.450  1.00  0.00    -0.295 OA
BRANCH  30  31
HETATM   31  C7  UNL     1       2.184   2.058   0.803  1.00  0.00     0.240 C 
BRANCH  31  32
HETATM   32  C6  UNL     1       3.536   1.548   0.519  1.00  0.00     0.080 A 
HETATM   33  C5  UNL     1       4.629   2.316   0.799  1.00  0.00     0.140 A 
HETATM   34  C4  UNL     1       5.883   1.831   0.531  1.00  0.00     0.285 A 
HETATM   35  N3  UNL     1       4.487   3.605   1.363  1.00  0.00    -0.094 NA
HETATM   36  N2  UNL     1       5.981   0.609  -0.001  1.00  0.00    -0.154 N 
HETATM   37  O1  UNL     1       6.944   2.489   0.765  1.00  0.00    -0.266 OA
HETATM   38  C3  UNL     1       4.903  -0.141  -0.274  1.00  0.00     0.682 A 
ATOM     39  H2  UNL     1       6.907   0.234  -0.206  1.00  0.00     0.187 HD
HETATM   40  N13 UNL     1       3.691   0.336  -0.012  1.00  0.00    -0.191 N 
ATOM     41  H13 UNL     1       2.870  -0.232  -0.220  1.00  0.00     0.184 HD
BRANCH  38  42
HETATM   42  N1  UNL     1       5.126  -1.434  -0.843  1.00  0.00    -0.226 N 
HETATM   43  C1  UNL     1       6.457  -1.927  -1.118  1.00  0.00     0.168 C 
HETATM   44  C2  UNL     1       3.966  -2.241  -1.137  1.00  0.00     0.168 C 
ENDBRANCH  38  42
ENDBRANCH  31  32
ENDBRANCH  30  31
ENDBRANCH   1  30
TORSDOF 9
