REMARK  11 active torsions:
REMARK  status: ('A' for Active; 'I' for Inactive)
REMARK    1  A    between atoms: C4_6  and  N2_7 
REMARK    2  A    between atoms: N2_7  and  N3_8 
REMARK    3  A    between atoms: N2_7  and  C5_11 
REMARK    4  A    between atoms: C8_24  and  C9_25 
REMARK    5  A    between atoms: C9_25  and  N10_26 
REMARK    6  A    between atoms: N10_26  and  N11_27 
REMARK    7  A    between atoms: N10_26  and  C10_30 
REMARK    8  A    between atoms: C10_30  and  O1_31 
REMARK    9  A    between atoms: C10_30  and  C11_33 
REMARK   10  A    between atoms: C13_39  and  C14_40 
REMARK   11  A    between atoms: C14_40  and  N14_41 
ROOT
HETATM    1  C1  UNL     1       3.372   3.097   0.352  1.00  0.00     0.065 C 
HETATM    2  C2  UNL     1       3.044   1.900  -0.400  1.00  0.00     0.136 C 
HETATM    3  C3  UNL     1       3.340   2.109  -1.888  1.00  0.00     0.065 C 
HETATM    4  N1  UNL     1       3.797   0.675  -0.043  1.00  0.00    -0.196 N 
ATOM      5  H1  UNL     1       4.451   0.326  -0.743  1.00  0.00     0.180 HD
HETATM    6  C4  UNL     1       3.719  -0.001   1.054  1.00  0.00     0.712 C 
HETATM    7  N8  UNL     1       2.860   0.290   2.154  1.00  0.00    -0.217 N 
ATOM      8  H8  UNL     1       3.249   0.038   3.063  1.00  0.00     0.178 HD
HETATM    9  C6  UNL     1       1.529   0.881   2.222  1.00  0.00     0.216 C 
HETATM   10  C7  UNL     1       1.025   1.083   0.842  1.00  0.00     0.121 A 
HETATM   11  N9  UNL     1      -0.210   0.780   0.488  1.00  0.00    -0.328 N 
ATOM     12  H9  UNL     1      -0.922   0.433   1.131  1.00  0.00     0.169 HD
HETATM   13  C8  UNL     1      -0.411   0.984  -0.814  1.00  0.00     0.134 A 
HETATM   14  N15 UNL     1       0.798   1.448  -1.249  1.00  0.00    -0.279 N 
ATOM     15  H15 UNL     1       1.007   1.710  -2.212  1.00  0.00     0.189 HD
HETATM   16  N16 UNL     1       1.634   1.509  -0.278  1.00  0.00    -0.247 N 
ENDROOT
BRANCH  13  17
HETATM   17  C9  UNL     1      -1.507   0.779  -1.736  1.00  0.00     0.135 C 
BRANCH  17  18
HETATM   18  N10 UNL     1      -2.820   0.678  -1.277  1.00  0.00    -0.175 NA
BRANCH  18  19
HETATM   19  N11 UNL     1      -3.359   1.896  -0.770  1.00  0.00    -0.357 NA
ATOM     20 2H11 UNL     1      -3.205   2.600  -1.492  1.00  0.00     0.171 HD
ATOM     21 1H11 UNL     1      -4.319   1.822  -0.434  1.00  0.00     0.171 HD
ENDBRANCH  18  19
BRANCH  18  22
HETATM   22  C10 UNL     1      -3.039  -0.324  -0.249  1.00  0.00     0.268 C 
BRANCH  22  23
HETATM   23  O1  UNL     1      -2.050  -1.322  -0.450  1.00  0.00    -0.373 OA
ATOM     24  H1  UNL     1      -2.193  -1.978   0.223  1.00  0.00     0.212 HD
ENDBRANCH  22  23
BRANCH  22  25
HETATM   25  C11 UNL     1      -4.293  -1.044  -0.725  1.00  0.00     0.080 A 
HETATM   26  N12 UNL     1      -4.336  -1.810  -1.851  1.00  0.00    -0.351 N 
HETATM   27  C12 UNL     1      -5.557  -2.422  -1.847  1.00  0.00     0.181 A 
ATOM     28  H12 UNL     1      -3.604  -1.907  -2.555  1.00  0.00     0.166 HD
HETATM   29  N13 UNL     1      -6.260  -2.046  -0.749  1.00  0.00    -0.353 N 
HETATM   30  C13 UNL     1      -5.446  -1.170  -0.068  1.00  0.00     0.062 A 
ATOM     31  H13 UNL     1      -7.197  -2.350  -0.484  1.00  0.00     0.166 HD
BRANCH  30  32
HETATM   32  C14 UNL     1      -5.805  -0.286   1.078  1.00  0.00     0.288 C 
BRANCH  32  33
HETATM   33  N14 UNL     1      -5.675  -0.929   2.342  1.00  0.00    -0.074 N 
ATOM     34 3H14 UNL     1      -6.215  -1.794   2.367  1.00  0.00     0.274 HD
ATOM     35 2H14 UNL     1      -4.738  -1.314   2.459  1.00  0.00     0.274 HD
ATOM     36 1H14 UNL     1      -5.921  -0.324   3.126  1.00  0.00     0.274 HD
ENDBRANCH  32  33
ENDBRANCH  30  32
ENDBRANCH  22  25
ENDBRANCH  18  22
ENDBRANCH  17  18
ENDBRANCH  13  17
BRANCH   6  37
HETATM   37  N2  UNL     1       4.551  -1.165   1.186  1.00  0.00     0.085 N 
BRANCH  37  38
HETATM   38  N3  UNL     1       5.065  -1.513   2.432  1.00  0.00    -0.309 N 
ATOM     39  H32 UNL     1       4.871  -0.977   3.278  1.00  0.00     0.178 HD
ATOM     40  H31 UNL     1       5.656  -2.339   2.526  1.00  0.00     0.178 HD
ENDBRANCH  37  38
BRANCH  37  41
HETATM   41  C5  UNL     1       4.824  -1.920  -0.006  1.00  0.00     0.743 A 
HETATM   42  N4  UNL     1       4.591  -1.567  -1.249  1.00  0.00    -0.114 N 
HETATM   43  N5  UNL     1       4.968  -2.545  -2.091  1.00  0.00     0.006 NA
ATOM     44  H4  UNL     1       4.182  -0.677  -1.535  1.00  0.00     0.203 HD
HETATM   45  N6  UNL     1       5.439  -3.514  -1.309  1.00  0.00     0.006 NA
HETATM   46  N7  UNL     1       5.354  -3.145  -0.015  1.00  0.00    -0.114 N 
ATOM     47  H7  UNL     1       5.638  -3.693   0.797  1.00  0.00     0.203 HD
ENDBRANCH  37  41
ENDBRANCH   6  37
TORSDOF 11
