REMARK  12 active torsions:
REMARK  status: ('A' for Active; 'I' for Inactive)
REMARK    1  A    between atoms: C2_2  and  N1_3 
REMARK    2  A    between atoms: C2_2  and  C4_11 
REMARK    3  A    between atoms: N1_3  and  N2_5 
REMARK    4  A    between atoms: N2_5  and  C3_7 
REMARK    5  A    between atoms: C3_7  and  N3_8 
REMARK    6  A    between atoms: C4_11  and  C12_35 
REMARK       I    between atoms: N4_12  and  C5_14 
REMARK    7  A    between atoms: C5_14  and  C6_16 
REMARK    8  A    between atoms: N5_19  and  O3_20 
REMARK    9  A    between atoms: C10_27  and  C11_28 
REMARK   10  A    between atoms: C11_28  and  O4_29 
REMARK   11  A    between atoms: C11_28  and  O5_31 
REMARK   12  A    between atoms: C11_28  and  O6_33 
ROOT
HETATM    1  C4  UNL     1       1.958  -0.084   0.986  1.00  0.00     0.082 C 
HETATM    2  N4  UNL     1       0.928  -0.398   1.568  1.00  0.00    -0.325 N 
ATOM      3  H4  UNL     1       1.052  -1.230   2.145  1.00  0.00     0.169 HD
HETATM    4  C5  UNL     1      -0.351   0.091   1.637  1.00  0.00     0.235 C 
HETATM    5  O1  UNL     1      -0.557   1.146   2.350  1.00  0.00    -0.272 OA
ENDROOT
BRANCH   1   6
HETATM    6  C2  UNL     1       3.195  -0.954   1.214  1.00  0.00     0.149 C 
HETATM    7  C1  UNL     1       4.262  -0.071   1.793  1.00  0.00     0.040 C 
BRANCH   6   8
HETATM    8  N1  UNL     1       2.866  -2.093   2.002  1.00  0.00    -0.318 N 
ATOM      9  H1  UNL     1       1.917  -2.221   2.353  1.00  0.00     0.181 HD
BRANCH   8  10
HETATM   10  N2  UNL     1       3.849  -3.023   2.285  1.00  0.00    -0.255 N 
ATOM     11  H2  UNL     1       4.137  -3.121   3.259  1.00  0.00     0.198 HD
BRANCH  10  12
HETATM   12  C3  UNL     1       4.419  -3.762   1.432  1.00  0.00     0.060 C 
BRANCH  12  13
HETATM   13  N3  UNL     1       4.738  -4.541   0.474  1.00  0.00    -0.351 N 
ATOM     14  H32 UNL     1       3.763  -4.609   0.181  1.00  0.00     0.167 HD
ATOM     15  H31 UNL     1       5.198  -5.137  -0.214  1.00  0.00     0.167 HD
ENDBRANCH  12  13
ENDBRANCH  10  12
ENDBRANCH   8  10
ENDBRANCH   6   8
ENDBRANCH   1   6
BRANCH   1  16
HETATM   16  C12 UNL     1       2.160   1.034   0.074  1.00  0.00     0.154 A 
HETATM   17  N8  UNL     1       3.351   1.357  -0.523  1.00  0.00    -0.239 N 
HETATM   18  O7  UNL     1       3.226   2.376  -1.271  1.00  0.00    -0.199 OA
ATOM     19  H8  UNL     1       4.223   0.846  -0.385  1.00  0.00     0.196 HD
HETATM   20  C13 UNL     1       1.999   2.791  -1.232  1.00  0.00     0.242 A 
HETATM   21  N9  UNL     1       1.457   3.789  -1.843  1.00  0.00    -0.364 N 
HETATM   22  N10 UNL     1       1.320   1.961  -0.394  1.00  0.00    -0.304 N 
ATOM     23  H92 UNL     1       1.966   4.411  -2.471  1.00  0.00     0.159 HD
ATOM     24  H91 UNL     1       0.491   4.116  -1.812  1.00  0.00     0.159 HD
ATOM     25  H10 UNL     1       0.330   2.035  -0.161  1.00  0.00     0.171 HD
ENDBRANCH   1  16
BRANCH   4  26
HETATM   26  C6  UNL     1      -1.538  -0.482   0.967  1.00  0.00     0.170 C 
HETATM   27  C7  UNL     1      -2.722   0.371   1.259  1.00  0.00     0.124 A 
HETATM   28  O2  UNL     1      -3.508   0.817   2.208  1.00  0.00    -0.210 OA
HETATM   29  C9  UNL     1      -3.199   0.920   0.082  1.00  0.00     0.108 A 
HETATM   30  N5  UNL     1      -4.430   1.592   1.732  1.00  0.00    -0.105 N 
HETATM   31  C8  UNL     1      -4.304   1.708   0.401  1.00  0.00     0.198 A 
HETATM   32  N6  UNL     1      -5.098   2.456  -0.508  1.00  0.00    -0.075 NA
HETATM   33  N7  UNL     1      -2.385   0.471  -0.992  1.00  0.00    -0.372 N 
HETATM   34  C10 UNL     1      -1.471  -0.545  -0.517  1.00  0.00     0.194 C 
ATOM     35  H7  UNL     1      -2.437   0.813  -1.952  1.00  0.00     0.160 HD
BRANCH  30  36
HETATM   36  O3  UNL     1      -5.405   2.211   2.503  1.00  0.00    -0.261 OA
ATOM     37  H3  UNL     1      -6.081   2.779   2.154  1.00  0.00     0.247 HD
ENDBRANCH  30  36
BRANCH  34  38
HETATM   38  C11 UNL     1      -2.065  -1.879  -0.995  1.00  0.00     0.298 C 
BRANCH  38  39
HETATM   39  O4  UNL     1      -1.272  -2.948  -0.629  1.00  0.00    -0.342 OA
ATOM     40  H4  UNL     1      -1.639  -3.773  -0.925  1.00  0.00     0.215 HD
ENDBRANCH  38  39
BRANCH  38  41
HETATM   41  O5  UNL     1      -3.329  -1.968  -0.413  1.00  0.00    -0.342 OA
ATOM     42  H5  UNL     1      -3.696  -2.793  -0.709  1.00  0.00     0.215 HD
ENDBRANCH  38  41
BRANCH  38  43
HETATM   43  O6  UNL     1      -2.229  -1.823  -2.382  1.00  0.00    -0.342 OA
ATOM     44  H6  UNL     1      -2.596  -2.648  -2.678  1.00  0.00     0.215 HD
ENDBRANCH  38  43
ENDBRANCH  34  38
ENDBRANCH   4  26
TORSDOF 12
