REMARK  11 active torsions:
REMARK  status: ('A' for Active; 'I' for Inactive)
REMARK    1  A    between atoms: N1_1  and  C1_4 
REMARK    2  A    between atoms: C1_4  and  N2_5 
REMARK    3  A    between atoms: N2_5  and  N3_7 
REMARK       I    between atoms: C2_9  and  N4_10 
REMARK       I    between atoms: C2_9  and  N7_17 
REMARK    4  A    between atoms: N4_10  and  N5_12 
REMARK       I    between atoms: N5_12  and  C3_14 
REMARK    5  A    between atoms: N7_17  and  N8_19 
REMARK    6  A    between atoms: C5_25  and  S1_26 
REMARK    7  A    between atoms: S1_26  and  C6_27 
REMARK    8  A    between atoms: C6_27  and  C7_28 
REMARK    9  A    between atoms: C8_33  and  C9_34 
REMARK   10  A    between atoms: C10_40  and  N15_41 
REMARK   11  A    between atoms: N16_44  and  N17_45 
ROOT
HETATM    1  N8  UNL     1      -1.452  -0.248  -1.495  1.00  0.00    -0.212 N 
HETATM    2  C4  UNL     1      -1.510  -1.095  -2.531  1.00  0.00     0.226 A 
HETATM    3  N9  UNL     1      -0.344  -1.034  -3.239  1.00  0.00    -0.292 N 
ATOM      4  H9  UNL     1      -0.114  -1.570  -4.076  1.00  0.00     0.187 HD
HETATM    5  N10 UNL     1       0.427  -0.153  -2.638  1.00  0.00    -0.277 N 
ATOM      6  H10 UNL     1       1.367   0.117  -2.928  1.00  0.00     0.189 HD
HETATM    7  C5  UNL     1      -0.241   0.329  -1.575  1.00  0.00     0.182 A 
ENDROOT
BRANCH   7   8
HETATM    8  S1  UNL     1       0.445   1.557  -0.470  1.00  0.00    -0.083 SA
BRANCH   8   9
HETATM    9  C6  UNL     1       2.081   2.073  -0.967  1.00  0.00     0.162 C 
BRANCH   9  10
HETATM   10  C7  UNL     1       3.135   1.065  -0.879  1.00  0.00     0.129 A 
HETATM   11  N11 UNL     1       3.437   0.194  -1.851  1.00  0.00    -0.285 N 
HETATM   12  N12 UNL     1       4.430  -0.559  -1.462  1.00  0.00    -0.281 N 
ATOM     13  H11 UNL     1       2.965   0.129  -2.753  1.00  0.00     0.188 HD
HETATM   14  C8  UNL     1       4.791  -0.159  -0.178  1.00  0.00     0.175 A 
ATOM     15  H12 UNL     1       4.864  -1.307  -2.002  1.00  0.00     0.188 HD
HETATM   16  N16 UNL     1       3.989   0.838   0.170  1.00  0.00    -0.228 N 
BRANCH  14  17
HETATM   17  C9  UNL     1       5.884  -0.840   0.494  1.00  0.00     0.149 A 
HETATM   18  N13 UNL     1       6.615  -1.879  -0.038  1.00  0.00    -0.234 N 
HETATM   19  O2  UNL     1       7.513  -2.262   0.792  1.00  0.00    -0.155 OA
ATOM     20  H13 UNL     1       6.463  -2.286  -0.961  1.00  0.00     0.197 HD
HETATM   21  N14 UNL     1       7.456  -1.566   1.858  1.00  0.00    -0.224 N 
HETATM   22  C10 UNL     1       6.434  -0.647   1.715  1.00  0.00     0.154 A 
ATOM     23  H14 UNL     1       8.059  -1.669   2.674  1.00  0.00     0.198 HD
BRANCH  22  24
HETATM   24  N15 UNL     1       6.133   0.201   2.627  1.00  0.00    -0.382 N 
ATOM     25 2H15 UNL     1       5.379   0.879   2.521  1.00  0.00     0.157 HD
ATOM     26 1H15 UNL     1       6.548   0.346   3.547  1.00  0.00     0.157 HD
ENDBRANCH  22  24
ENDBRANCH  14  17
BRANCH  16  27
HETATM   27  N17 UNL     1       3.943   1.573   1.337  1.00  0.00    -0.335 N 
ATOM     28 2H17 UNL     1       3.326   2.340   1.605  1.00  0.00     0.177 HD
ATOM     29 1H17 UNL     1       4.578   1.404   2.117  1.00  0.00     0.177 HD
ENDBRANCH  16  27
ENDBRANCH   9  10
ENDBRANCH   8   9
ENDBRANCH   7   8
BRANCH   1  30
HETATM   30  N7  UNL     1      -2.428   0.026  -0.518  1.00  0.00    -0.120 N 
HETATM   31  C2  UNL     1      -3.708  -0.585  -0.525  1.00  0.00     0.727 C 
HETATM   32  N3  UNL     1      -4.332  -0.597  -1.672  1.00  0.00    -0.121 N 
HETATM   33  N4  UNL     1      -4.278  -1.151   0.645  1.00  0.00    -0.126 N 
ATOM     34  H3  UNL     1      -3.915  -0.188  -2.508  1.00  0.00     0.206 HD
ATOM     35  H4  UNL     1      -3.901  -2.005   1.057  1.00  0.00     0.206 HD
ATOM     36  H7  UNL     1      -2.206   0.690   0.224  1.00  0.00     0.206 HD
BRANCH  32  37
HETATM   37  N2  UNL     1      -5.587  -1.190  -1.706  1.00  0.00    -0.236 N 
ATOM     38  H2  UNL     1      -5.949  -1.710  -0.907  1.00  0.00     0.199 HD
BRANCH  37  39
HETATM   39  C1  UNL     1      -6.272  -1.058  -2.781  1.00  0.00     0.061 C 
BRANCH  39  40
HETATM   40  N1  UNL     1      -6.908  -1.146  -3.872  1.00  0.00    -0.350 N 
ATOM     41  H12 UNL     1      -6.665  -2.136  -3.907  1.00  0.00     0.167 HD
ATOM     42  H11 UNL     1      -7.453  -1.041  -4.728  1.00  0.00     0.167 HD
ENDBRANCH  39  40
ENDBRANCH  37  39
ENDBRANCH  32  37
BRANCH  33  43
HETATM   43  N5  UNL     1      -5.375  -0.497   1.213  1.00  0.00    -0.240 N 
HETATM   44  C3  UNL     1      -5.381  -0.195   2.599  1.00  0.00     0.347 C 
HETATM   45  N6  UNL     1      -6.501   0.468   3.157  1.00  0.00    -0.038 NA
HETATM   46  O1  UNL     1      -4.397  -0.520   3.301  1.00  0.00    -0.249 OA
ATOM     47  H5  UNL     1      -6.171  -0.237   0.631  1.00  0.00     0.192 HD
ENDBRANCH  33  43
ENDBRANCH   1  30
TORSDOF 11
