REMARK  10 active torsions:
REMARK  status: ('A' for Active; 'I' for Inactive)
REMARK    1  A    between atoms: C4_7  and  N4_8 
REMARK    2  A    between atoms: N5_11  and  C5_12 
REMARK    3  A    between atoms: C5_12  and  C6_13 
REMARK    4  A    between atoms: C6_13  and  N11_29 
REMARK    5  A    between atoms: N6_14  and  O1_16 
REMARK    6  A    between atoms: O1_16  and  C7_17 
REMARK    7  A    between atoms: C8_23  and  N9_24 
REMARK    8  A    between atoms: N9_24  and  N10_26 
REMARK    9  A    between atoms: N11_29  and  C9_31 
REMARK   10  A    between atoms: C9_31  and  C10_32 
ROOT
HETATM    1  C6  UNL     1      -0.628  -0.671  -0.031  1.00  0.00     0.117 C 
HETATM    2  N6  UNL     1      -0.403   0.582   0.260  1.00  0.00    -0.245 N 
ATOM      3  H6  UNL     1       0.545   0.959   0.265  1.00  0.00     0.196 HD
ENDROOT
BRANCH   1   4
HETATM    4  C5  UNL     1       0.479  -1.610  -0.370  1.00  0.00     0.213 C 
BRANCH   4   5
HETATM    5  N5  UNL     1       1.761  -0.990  -0.339  1.00  0.00    -0.277 N 
HETATM    6  C4  UNL     1       2.276  -0.410  -1.427  1.00  0.00     0.133 A 
HETATM    7  C3  UNL     1       3.537   0.197  -1.400  1.00  0.00     0.131 A 
HETATM    8  C2  UNL     1       4.253   0.193  -0.232  1.00  0.00     0.150 A 
HETATM    9  N3  UNL     1       4.067   0.807  -2.558  1.00  0.00    -0.095 NA
HETATM   10  N1  UNL     1       3.712  -0.397   0.846  1.00  0.00    -0.290 N 
HETATM   11  N2  UNL     1       5.554   0.804  -0.155  1.00  0.00    -0.080 NA
HETATM   12  C1  UNL     1       4.460  -0.407   2.086  1.00  0.00     0.162 C 
HETATM   13  C12 UNL     1       2.478  -0.983   0.792  1.00  0.00     0.331 A 
HETATM   14  O3  UNL     1       2.059  -1.510   1.858  1.00  0.00    -0.246 OA
BRANCH   6  15
HETATM   15  N4  UNL     1       1.668  -0.362  -2.561  1.00  0.00    -0.384 N 
ATOM     16  H42 UNL     1       2.061   0.081  -3.392  1.00  0.00     0.157 HD
ATOM     17  H41 UNL     1       0.749  -0.804  -2.581  1.00  0.00     0.157 HD
ENDBRANCH   6  15
ENDBRANCH   4   5
ENDBRANCH   1   4
BRANCH   1  18
HETATM   18  N11 UNL     1      -1.939  -1.214  -0.042  1.00  0.00    -0.371 N 
ATOM     19  H11 UNL     1      -2.389  -1.444   0.844  1.00  0.00     0.161 HD
BRANCH  18  20
HETATM   20  C9  UNL     1      -2.650  -1.449  -1.271  1.00  0.00     0.187 C 
BRANCH  20  21
HETATM   21  C10 UNL     1      -4.003  -2.023  -0.939  1.00  0.00     0.087 A 
HETATM   22  N12 UNL     1      -4.981  -2.384  -1.742  1.00  0.00    -0.294 N 
HETATM   23  N13 UNL     1      -6.063  -2.853  -1.276  1.00  0.00    -0.279 N 
ATOM     24  H12 UNL     1      -4.867  -2.285  -2.751  1.00  0.00     0.187 HD
HETATM   25  C11 UNL     1      -6.190  -2.972   0.052  1.00  0.00     0.158 A 
ATOM     26  H13 UNL     1      -6.820  -3.134  -1.899  1.00  0.00     0.189 HD
HETATM   27  N14 UNL     1      -7.228  -3.432   0.715  1.00  0.00    -0.379 N 
HETATM   28  S1  UNL     1      -4.684  -2.380   0.603  1.00  0.00    -0.037 SA
ATOM     29 2H14 UNL     1      -8.127  -3.785   0.386  1.00  0.00     0.158 HD
ATOM     30 1H14 UNL     1      -7.325  -3.523   1.726  1.00  0.00     0.158 HD
ENDBRANCH  20  21
ENDBRANCH  18  20
ENDBRANCH   1  18
BRANCH   2  31
HETATM   31  O1  UNL     1      -1.477   1.371   0.558  1.00  0.00    -0.212 OA
BRANCH  31  32
HETATM   32  C7  UNL     1      -1.547   2.303   1.542  1.00  0.00     0.239 A 
HETATM   33  N7  UNL     1      -2.044   2.121   2.774  1.00  0.00    -0.214 N 
HETATM   34  O2  UNL     1      -1.941   3.254   3.446  1.00  0.00    -0.153 OA
ATOM     35  H7  UNL     1      -2.437   1.251   3.133  1.00  0.00     0.199 HD
HETATM   36  N8  UNL     1      -1.391   4.169   2.686  1.00  0.00    -0.220 N 
HETATM   37  C8  UNL     1      -1.129   3.611   1.483  1.00  0.00     0.197 A 
ATOM     38  H8  UNL     1      -1.195   5.133   2.955  1.00  0.00     0.198 HD
BRANCH  37  39
HETATM   39  N9  UNL     1      -0.582   4.248   0.498  1.00  0.00    -0.287 N 
ATOM     40  H9  UNL     1      -0.328   5.228   0.621  1.00  0.00     0.188 HD
BRANCH  39  41
HETATM   41  N10 UNL     1      -0.330   3.633  -0.725  1.00  0.00    -0.343 N 
ATOM     42 2H10 UNL     1      -0.590   2.652  -0.831  1.00  0.00     0.176 HD
ATOM     43 1H10 UNL     1       0.101   4.135  -1.501  1.00  0.00     0.176 HD
ENDBRANCH  39  41
ENDBRANCH  37  39
ENDBRANCH  31  32
ENDBRANCH   2  31
TORSDOF 10
