REMARK  8 active torsions:
REMARK  status: ('A' for Active; 'I' for Inactive)
REMARK    1  A    between atoms: C2_2  and  N1_3 
REMARK    2  A    between atoms: C5_8  and  C6_9 
REMARK    3  A    between atoms: C7_13  and  C8_14 
REMARK    4  A    between atoms: C8_14  and  C9_15 
REMARK       I    between atoms: C9_15  and  N4_17 
REMARK    5  A    between atoms: N4_17  and  N5_18 
REMARK    6  A    between atoms: N5_18  and  C10_20 
REMARK    7  A    between atoms: N6_22  and  N7_23 
REMARK    8  A    between atoms: N11_35  and  N12_36 
ROOT
HETATM    1  C6  UNL     1       2.274  -0.237  -0.673  1.00  0.00     0.159 A 
HETATM    2  N3  UNL     1       1.546  -1.303  -0.969  1.00  0.00    -0.241 N 
ATOM      3  H3  UNL     1       1.922  -2.243  -1.089  1.00  0.00     0.196 HD
HETATM    4  O2  UNL     1       0.316  -1.000  -1.084  1.00  0.00    -0.222 OA
HETATM    5  C7  UNL     1       0.159   0.322  -0.863  1.00  0.00     0.158 A 
HETATM    6  N10 UNL     1       1.356   0.780  -0.615  1.00  0.00    -0.321 N 
ATOM      7  H10 UNL     1       1.577   1.754  -0.408  1.00  0.00     0.169 HD
ENDROOT
BRANCH   5   8
HETATM    8  C8  UNL     1      -1.193   0.924  -0.928  1.00  0.00     0.207 C 
BRANCH   8   9
HETATM    9  C9  UNL     1      -1.572   1.278   0.436  1.00  0.00     0.320 C 
HETATM   10  O3  UNL     1      -0.745   1.874   1.128  1.00  0.00    -0.255 OA
HETATM   11  N4  UNL     1      -2.959   0.915   0.971  1.00  0.00    -0.286 NA
BRANCH  11  12
HETATM   12  N5  UNL     1      -3.962   0.655   1.363  1.00  0.00    -0.229 N 
ATOM     13  H5  UNL     1      -4.040   0.873   2.356  1.00  0.00     0.202 HD
BRANCH  12  14
HETATM   14  C10 UNL     1      -5.221   0.077   0.837  1.00  0.00     0.106 A 
HETATM   15  C11 UNL     1      -6.154  -0.395   1.759  1.00  0.00     0.149 A 
HETATM   16  N6  UNL     1      -7.317  -0.967   1.353  1.00  0.00    -0.281 N 
HETATM   17  C12 UNL     1      -7.560  -1.067  -0.011  1.00  0.00     0.144 A 
HETATM   18  C13 UNL     1      -6.688  -0.627  -0.919  1.00  0.00     0.092 A 
HETATM   19  N8  UNL     1      -6.914  -0.741  -2.336  1.00  0.00    -0.098 NA
HETATM   20  C14 UNL     1      -5.457  -0.025  -0.477  1.00  0.00     0.082 A 
HETATM   21  N9  UNL     1      -4.744   0.380  -1.362  1.00  0.00    -0.396 N 
ATOM     22  H92 UNL     1      -3.872   0.806  -1.049  1.00  0.00     0.156 HD
ATOM     23  H91 UNL     1      -4.924   0.302  -2.363  1.00  0.00     0.156 HD
BRANCH  16  24
HETATM   24  N7  UNL     1      -8.240  -1.436   2.245  1.00  0.00    -0.339 N 
ATOM     25  H72 UNL     1      -8.062  -1.363   3.247  1.00  0.00     0.177 HD
ATOM     26  H71 UNL     1      -9.113  -1.866   1.940  1.00  0.00     0.177 HD
ENDBRANCH  16  24
ENDBRANCH  12  14
ENDBRANCH  11  12
ENDBRANCH   8   9
ENDBRANCH   5   8
BRANCH   1  27
HETATM   27  C5  UNL     1       3.700  -0.196  -0.428  1.00  0.00     0.136 A 
HETATM   28  C4  UNL     1       4.285   1.062  -0.215  1.00  0.00     0.147 A 
HETATM   29  C3  UNL     1       5.620   1.220   0.023  1.00  0.00     0.278 A 
HETATM   30  N2  UNL     1       3.465   2.215  -0.243  1.00  0.00    -0.094 NA
HETATM   31  N1  UNL     1       6.405   0.154   0.056  1.00  0.00    -0.264 N 
HETATM   32  O1  UNL     1       6.098   2.369   0.214  1.00  0.00    -0.266 OA
HETATM   33  C15 UNL     1       5.855  -1.065  -0.145  1.00  0.00     0.350 A 
HETATM   34  N11 UNL     1       4.518  -1.241  -0.389  1.00  0.00    -0.206 N 
HETATM   35  O4  UNL     1       6.576  -2.081  -0.113  1.00  0.00    -0.244 OA
BRANCH  31  36
HETATM   36  C2  UNL     1       7.808   0.320   0.244  1.00  0.00     0.133 C 
HETATM   37  C1  UNL     1       8.249   0.469   1.681  1.00  0.00     0.027 C 
ENDBRANCH  31  36
BRANCH  34  38
HETATM   38  N12 UNL     1       4.064  -2.536  -0.614  1.00  0.00    -0.334 N 
ATOM     39 2H12 UNL     1       3.069  -2.667  -0.796  1.00  0.00     0.177 HD
ATOM     40 1H12 UNL     1       4.692  -3.339  -0.584  1.00  0.00     0.177 HD
ENDBRANCH  34  38
ENDBRANCH   1  27
TORSDOF 8
