REMARK  11 active torsions:
REMARK  status: ('A' for Active; 'I' for Inactive)
REMARK    1  A    between atoms: O1_2  and  C2_3 
REMARK    2  A    between atoms: C2_3  and  O2_4 
REMARK    3  A    between atoms: C2_3  and  C3_6 
REMARK    4  A    between atoms: C4_7  and  C5_8 
REMARK    5  A    between atoms: N1_10  and  N2_12 
REMARK    6  A    between atoms: N2_12  and  C7_14 
REMARK    7  A    between atoms: C11_21  and  O4_22 
REMARK    8  A    between atoms: C11_21  and  C12_24 
REMARK    9  A    between atoms: C12_24  and  O5_25 
REMARK   10  A    between atoms: C14_31  and  N6_32 
REMARK   11  A    between atoms: N7_35  and  N8_36 
ROOT
HETATM    1  C5  UNL     1      -1.007  -0.315  -0.734  1.00  0.00     0.050 C 
HETATM    2  C6  UNL     1      -0.309  -0.700   0.482  1.00  0.00     0.072 C 
HETATM    3  N1  UNL     1      -0.292  -0.306  -1.809  1.00  0.00    -0.301 N 
ATOM      4  H1  UNL     1      -0.869  -0.142  -2.634  1.00  0.00     0.186 HD
ENDROOT
BRANCH   1   5
HETATM    5  C4  UNL     1      -2.436  -0.101  -0.859  1.00  0.00     0.087 A 
HETATM    6  C3  UNL     1      -3.343   0.123   0.110  1.00  0.00     0.069 A 
HETATM    7  C15 UNL     1      -4.742   0.077  -0.197  1.00  0.00     0.169 A 
HETATM    8  N7  UNL     1      -5.160  -0.179  -1.442  1.00  0.00    -0.078 N 
HETATM    9  N9  UNL     1      -5.683   0.277   0.841  1.00  0.00    -0.079 NA
HETATM   10  C14 UNL     1      -4.245  -0.392  -2.395  1.00  0.00     0.698 A 
HETATM   11  N5  UNL     1      -2.937  -0.359  -2.133  1.00  0.00    -0.188 N 
ATOM     12  H5  UNL     1      -2.279  -0.529  -2.894  1.00  0.00     0.184 HD
BRANCH   6  13
HETATM   13  C2  UNL     1      -2.972   0.587   1.436  1.00  0.00     0.296 C 
BRANCH  13  14
HETATM   14  O1  UNL     1      -2.081   1.643   1.427  1.00  0.00    -0.362 OA
HETATM   15  C1  UNL     1      -1.436   1.873   2.646  1.00  0.00     0.205 C 
ENDBRANCH  13  14
BRANCH  13  16
HETATM   16  O2  UNL     1      -4.185   1.392   1.867  1.00  0.00    -0.367 OA
ATOM     17  H2  UNL     1      -4.798   0.666   1.873  1.00  0.00     0.213 HD
ENDBRANCH  13  16
ENDBRANCH   6  13
BRANCH   8  18
HETATM   18  N8  UNL     1      -6.528  -0.214  -1.717  1.00  0.00    -0.323 N 
ATOM     19  H82 UNL     1      -6.847  -0.409  -2.666  1.00  0.00     0.178 HD
ATOM     20  H81 UNL     1      -7.225  -0.052  -0.991  1.00  0.00     0.178 HD
ENDBRANCH   8  18
BRANCH  10  21
HETATM   21  N6  UNL     1      -4.684  -0.636  -3.601  1.00  0.00    -0.233 N 
ATOM     22  H62 UNL     1      -3.987  -0.798  -4.327  1.00  0.00     0.174 HD
ATOM     23  H61 UNL     1      -5.684  -0.661  -3.801  1.00  0.00     0.174 HD
ENDBRANCH  10  21
ENDBRANCH   1   5
BRANCH   3  24
HETATM   24  N2  UNL     1       0.977  -0.450  -2.135  1.00  0.00    -0.284 N 
ATOM     25  H2  UNL     1       1.295   0.201  -2.853  1.00  0.00     0.188 HD
BRANCH  24  26
HETATM   26  C7  UNL     1       1.998  -1.348  -1.672  1.00  0.00     0.147 A 
HETATM   27  C8  UNL     1       2.025  -2.685  -1.992  1.00  0.00     0.128 A 
HETATM   28  C9  UNL     1       3.158  -3.201  -1.394  1.00  0.00     0.276 A 
HETATM   29  O3  UNL     1       3.529  -4.418  -1.461  1.00  0.00    -0.266 OA
HETATM   30  N3  UNL     1       3.738  -2.182  -0.764  1.00  0.00    -0.184 N 
HETATM   31  N4  UNL     1       3.068  -1.066  -0.913  1.00  0.00    -0.235 N 
HETATM   32  S1  UNL     1       5.228  -2.164   0.178  1.00  0.00    -0.023 SA
HETATM   33  C10 UNL     1       3.427   0.209  -0.379  1.00  0.00     0.133 C 
HETATM   34  C11 UNL     1       4.751   0.438   0.151  1.00  0.00     0.123 C 
HETATM   35  C13 UNL     1       5.878  -0.473  -0.171  1.00  0.00     0.145 C 
BRANCH  34  36
HETATM   36  O4  UNL     1       4.691   0.501   1.571  1.00  0.00    -0.381 OA
ATOM     37  H4  UNL     1       5.562   0.652   1.920  1.00  0.00     0.211 HD
ENDBRANCH  34  36
BRANCH  34  38
HETATM   38  C12 UNL     1       5.252   1.845  -0.239  1.00  0.00     0.208 C 
BRANCH  38  39
HETATM   39  O5  UNL     1       4.407   2.841   0.180  1.00  0.00    -0.397 OA
ATOM     40  H5  UNL     1       4.715   3.707  -0.060  1.00  0.00     0.209 HD
ENDBRANCH  38  39
ENDBRANCH  34  38
ENDBRANCH  24  26
ENDBRANCH   3  24
TORSDOF 11
