REMARK  10 active torsions:
REMARK  status: ('A' for Active; 'I' for Inactive)
REMARK    1  A    between atoms: N1_1  and  C1_4 
REMARK    2  A    between atoms: C4_9  and  N3_10 
REMARK    3  A    between atoms: N3_10  and  C5_12 
REMARK    4  A    between atoms: C5_12  and  C6_13 
REMARK    5  A    between atoms: C5_12  and  C7_16 
REMARK    6  A    between atoms: C6_13  and  O1_14 
REMARK    7  A    between atoms: C7_16  and  N4_17 
REMARK    8  A    between atoms: C9_19  and  C10_20 
REMARK    9  A    between atoms: C11_24  and  N6_25 
REMARK   10  A    between atoms: C12_34  and  N10_35 
ROOT
HETATM    1  C1  UNL     1      -2.157   2.127   1.656  1.00  0.00     0.678 A 
HETATM    2  N2  UNL     1      -3.439   1.732   1.645  1.00  0.00    -0.188 N 
ATOM      3  H2  UNL     1      -4.150   2.245   2.167  1.00  0.00     0.184 HD
HETATM    4  C2  UNL     1      -3.761   0.642   0.927  1.00  0.00     0.104 A 
HETATM    5  C3  UNL     1      -2.793  -0.038   0.227  1.00  0.00     0.066 A 
HETATM    6  C4  UNL     1      -1.465   0.364   0.233  1.00  0.00     0.130 A 
HETATM    7  N9  UNL     1      -1.192   1.452   0.961  1.00  0.00    -0.176 N 
ATOM      8  H9  UNL     1      -0.230   1.790   0.999  1.00  0.00     0.186 HD
HETATM    9  C12 UNL     1      -2.955  -1.237  -0.605  1.00  0.00     0.324 C 
HETATM   10  N11 UNL     1      -3.987  -2.125  -0.188  1.00  0.00    -0.333 N 
ATOM     11  H11 UNL     1      -3.748  -3.095  -0.393  1.00  0.00     0.164 HD
HETATM   12  C13 UNL     1      -5.130  -2.036   0.373  1.00  0.00     0.191 C 
HETATM   13  N12 UNL     1      -5.859  -3.219   0.616  1.00  0.00    -0.063 NA
HETATM   14  N13 UNL     1      -5.736  -0.792   0.782  1.00  0.00    -0.317 N 
ATOM     15  H13 UNL     1      -6.749  -0.820   0.899  1.00  0.00     0.169 HD
HETATM   16  C14 UNL     1      -5.186   0.351   1.022  1.00  0.00     0.146 C 
HETATM   17  N14 UNL     1      -5.993   1.451   1.416  1.00  0.00    -0.080 NA
ENDROOT
BRANCH   6  18
HETATM   18  N3  UNL     1      -0.652  -0.271  -0.400  1.00  0.00    -0.367 N 
ATOM     19  H3  UNL     1      -1.171  -1.032  -0.839  1.00  0.00     0.161 HD
BRANCH  18  20
HETATM   20  C5  UNL     1       0.652  -0.430  -0.794  1.00  0.00     0.126 C 
BRANCH  20  21
HETATM   21  C6  UNL     1       1.414  -1.192   0.302  1.00  0.00     0.191 C 
BRANCH  21  22
HETATM   22  O1  UNL     1       1.377  -0.481   1.473  1.00  0.00    -0.399 OA
ATOM     23  H1  UNL     1       1.848  -0.952   2.150  1.00  0.00     0.209 HD
ENDBRANCH  21  22
ENDBRANCH  20  21
BRANCH  20  24
HETATM   24  C7  UNL     1       1.424   0.776  -1.269  1.00  0.00     0.176 C 
BRANCH  24  25
HETATM   25  N4  UNL     1       2.781   0.453  -1.655  1.00  0.00    -0.285 N 
HETATM   26  C8  UNL     1       3.906   0.456  -0.877  1.00  0.00     0.145 A 
HETATM   27  C9  UNL     1       5.002   0.092  -1.608  1.00  0.00     0.099 A 
HETATM   28  N7  UNL     1       4.495  -0.132  -2.857  1.00  0.00    -0.282 N 
HETATM   29  N8  UNL     1       3.198   0.089  -2.847  1.00  0.00    -0.240 N 
ATOM     30  H7  UNL     1       5.037  -0.425  -3.670  1.00  0.00     0.188 HD
ATOM     31  H8  UNL     1       2.592  -0.010  -3.662  1.00  0.00     0.208 HD
BRANCH  27  32
HETATM   32  C10 UNL     1       6.402  -0.070  -1.311  1.00  0.00     0.143 A 
HETATM   33  N5  UNL     1       7.515  -0.433  -2.024  1.00  0.00    -0.252 N 
HETATM   34  O2  UNL     1       8.273  -0.310  -1.009  1.00  0.00    -0.210 OA
ATOM     35  H5  UNL     1       7.675  -0.700  -2.996  1.00  0.00     0.195 HD
HETATM   36  C11 UNL     1       7.254   0.052  -0.239  1.00  0.00     0.266 A 
BRANCH  36  37
HETATM   37  N6  UNL     1       7.244   0.392   1.133  1.00  0.00    -0.086 N 
HETATM   38  O3  UNL     1       6.205   0.707   1.701  1.00  0.00    -0.530 OA
HETATM   39  O4  UNL     1       8.410   0.373   1.849  1.00  0.00    -0.530 OA
ENDBRANCH  36  37
ENDBRANCH  27  32
ENDBRANCH  24  25
ENDBRANCH  20  24
ENDBRANCH  18  20
ENDBRANCH   6  18
BRANCH   9  40
HETATM   40  N10 UNL     1      -3.196  -0.765  -1.979  1.00  0.00    -0.054 N 
ATOM     41 3H10 UNL     1      -3.979  -0.115  -2.051  1.00  0.00     0.277 HD
ATOM     42 2H10 UNL     1      -2.473  -0.132  -2.321  1.00  0.00     0.277 HD
ATOM     43 1H10 UNL     1      -3.309  -1.598  -2.557  1.00  0.00     0.277 HD
ENDBRANCH   9  40
BRANCH   1  44
HETATM   44  N1  UNL     1      -1.802   3.179   2.341  1.00  0.00    -0.234 N 
ATOM     45  H12 UNL     1      -2.522   3.682   2.859  1.00  0.00     0.174 HD
ATOM     46  H11 UNL     1      -0.827   3.479   2.349  1.00  0.00     0.174 HD
ENDBRANCH   1  44
TORSDOF 10
