REMARK  13 active torsions:
REMARK  status: ('A' for Active; 'I' for Inactive)
REMARK    1  A    between atoms: O1_3  and  C2_4 
REMARK    2  A    between atoms: C2_4  and  N2_5 
REMARK    3  A    between atoms: C2_4  and  C3_9 
REMARK    4  A    between atoms: N5_14  and  C4_15 
REMARK    5  A    between atoms: C5_18  and  C6_19 
REMARK    6  A    between atoms: C6_19  and  O3_21 
REMARK    7  A    between atoms: O3_21  and  C7_22 
REMARK    8  A    between atoms: C7_22  and  C8_23 
REMARK    9  A    between atoms: C10_31  and  C11_32 
REMARK   10  A    between atoms: C11_32  and  N9_33 
REMARK   11  A    between atoms: C11_32  and  N10_37 
REMARK   12  A    between atoms: C12_43  and  N12_44 
REMARK   13  A    between atoms: C13_47  and  O6_48 
ROOT
HETATM    1  N1  UNL     1      -7.729   1.917   2.189  1.00  0.00    -0.164 NA
HETATM    2  C1  UNL     1      -7.183   1.856   1.166  1.00  0.00     0.231 C 
HETATM    3  O1  UNL     1      -6.521   1.782  -0.031  1.00  0.00    -0.243 OA
ENDROOT
BRANCH   3   4
HETATM    4  C2  UNL     1      -5.179   2.255  -0.183  1.00  0.00     0.393 C 
BRANCH   4   5
HETATM    5  N2  UNL     1      -5.118   3.263  -1.224  1.00  0.00    -0.046 N 
ATOM      6  H23 UNL     1      -5.505   2.925  -2.105  1.00  0.00     0.277 HD
ATOM      7  H22 UNL     1      -5.774   4.026  -1.055  1.00  0.00     0.277 HD
ATOM      8  H21 UNL     1      -4.161   3.600  -1.332  1.00  0.00     0.277 HD
ENDBRANCH   4   5
BRANCH   4   9
HETATM    9  C3  UNL     1      -4.297   1.123  -0.588  1.00  0.00     0.137 A 
HETATM   10  N3  UNL     1      -4.507   0.178  -1.512  1.00  0.00    -0.281 N 
HETATM   11  N4  UNL     1      -3.461  -0.618  -1.534  1.00  0.00    -0.232 N 
ATOM     12  H3  UNL     1      -5.337   0.090  -2.099  1.00  0.00     0.188 HD
HETATM   13  N5  UNL     1      -2.547  -0.231  -0.645  1.00  0.00    -0.197 N 
ATOM     14  H4  UNL     1      -3.362  -1.425  -2.150  1.00  0.00     0.209 HD
HETATM   15  C13 UNL     1      -3.067   0.861  -0.048  1.00  0.00     0.194 A 
BRANCH  13  16
HETATM   16  C4  UNL     1      -1.302  -0.847  -0.392  1.00  0.00     0.175 A 
HETATM   17  N6  UNL     1      -0.276  -0.185   0.131  1.00  0.00    -0.331 N 
HETATM   18  C5  UNL     1       0.935  -0.743   0.387  1.00  0.00     0.136 A 
ATOM     19  H6  UNL     1      -0.406   0.802   0.354  1.00  0.00     0.168 HD
HETATM   20  C10 UNL     1       1.074  -2.065   0.078  1.00  0.00     0.102 A 
HETATM   21  N11 UNL     1       0.023  -2.762  -0.463  1.00  0.00    -0.338 N 
HETATM   22  C12 UNL     1      -1.138  -2.172  -0.695  1.00  0.00     0.146 A 
ATOM     23  H11 UNL     1       0.139  -3.750  -0.690  1.00  0.00     0.167 HD
BRANCH  18  24
HETATM   24  C6  UNL     1       2.004   0.051   0.948  1.00  0.00     0.312 C 
HETATM   25  O2  UNL     1       1.729   1.294   1.194  1.00  0.00    -0.258 OA
BRANCH  24  26
HETATM   26  O3  UNL     1       3.281  -0.326   1.259  1.00  0.00    -0.308 OA
BRANCH  26  27
HETATM   27  C7  UNL     1       4.272   0.514   1.802  1.00  0.00     0.265 C 
BRANCH  27  28
HETATM   28  C8  UNL     1       4.546   1.635   0.864  1.00  0.00     0.168 A 
HETATM   29  N7  UNL     1       5.292   2.744   1.103  1.00  0.00    -0.277 N 
HETATM   30  N8  UNL     1       5.248   3.444  -0.015  1.00  0.00    -0.243 N 
ATOM     31  H7  UNL     1       5.783   2.985   1.964  1.00  0.00     0.189 HD
HETATM   32  C9  UNL     1       4.504   2.816  -0.941  1.00  0.00     0.385 A 
ATOM     33  H8  UNL     1       5.715   4.340  -0.157  1.00  0.00     0.192 HD
HETATM   34  O4  UNL     1       4.242   3.180  -2.112  1.00  0.00    -0.236 OA
HETATM   35  O5  UNL     1       4.099   1.717  -0.355  1.00  0.00    -0.243 OA
ENDBRANCH  27  28
ENDBRANCH  26  27
ENDBRANCH  24  26
ENDBRANCH  18  24
BRANCH  20  36
HETATM   36  C11 UNL     1       2.285  -2.880   0.281  1.00  0.00     0.429 C 
BRANCH  36  37
HETATM   37  N9  UNL     1       1.818  -4.159   0.850  1.00  0.00    -0.045 N 
ATOM     38  H93 UNL     1       1.254  -4.049   1.693  1.00  0.00     0.277 HD
ATOM     39  H92 UNL     1       1.105  -4.621   0.285  1.00  0.00     0.277 HD
ATOM     40  H91 UNL     1       2.656  -4.723   0.990  1.00  0.00     0.277 HD
ENDBRANCH  36  37
BRANCH  36  41
HETATM   41  N10 UNL     1       2.834  -3.143  -1.040  1.00  0.00    -0.045 N 
ATOM     42 3H10 UNL     1       2.163  -3.570  -1.678  1.00  0.00     0.277 HD
ATOM     43 2H10 UNL     1       3.004  -2.296  -1.582  1.00  0.00     0.277 HD
ATOM     44 1H10 UNL     1       3.672  -3.707  -0.900  1.00  0.00     0.277 HD
ENDBRANCH  36  41
ENDBRANCH  20  36
BRANCH  22  45
HETATM   45  N12 UNL     1      -2.124  -2.873  -1.215  1.00  0.00    -0.382 N 
ATOM     46 2H12 UNL     1      -3.019  -2.418  -1.394  1.00  0.00     0.157 HD
ATOM     47 1H12 UNL     1      -2.002  -3.860  -1.441  1.00  0.00     0.157 HD
ENDBRANCH  22  45
ENDBRANCH  13  16
BRANCH  15  48
HETATM   48  O6  UNL     1      -2.415   1.569   0.949  1.00  0.00    -0.343 OA
ATOM     49  H6  UNL     1      -1.561   1.387   1.324  1.00  0.00     0.219 HD
ENDBRANCH  15  48
ENDBRANCH   4   9
ENDBRANCH   3   4
TORSDOF 13
