REMARK  5 active torsions:
REMARK  status: ('A' for Active; 'I' for Inactive)
REMARK    1  A    between atoms: C2_2  and  C3_3 
REMARK    2  A    between atoms: C5_9  and  N3_10 
REMARK    3  A    between atoms: N3_10  and  C6_12 
REMARK    4  A    between atoms: C6_12  and  C7_13 
REMARK    5  A    between atoms: C8_22  and  N8_23 
ROOT
HETATM    1  C3  UNL     1      -2.680  -1.005   0.476  1.00  0.00     0.018 A 
HETATM    2  N1  UNL     1      -1.366  -1.245   0.672  1.00  0.00    -0.344 N 
ATOM      3  H1  UNL     1      -1.097  -2.054   1.232  1.00  0.00     0.167 HD
HETATM    4  C4  UNL     1      -0.395  -0.464   0.161  1.00  0.00     0.136 A 
HETATM    5  N2  UNL     1       0.908  -0.713   0.362  1.00  0.00    -0.324 N 
ATOM      6  H2  UNL     1       1.178  -1.522   0.921  1.00  0.00     0.169 HD
HETATM    7  C5  UNL     1       1.861   0.069  -0.150  1.00  0.00     0.147 A 
HETATM    8  C8  UNL     1       1.443   1.160  -0.907  1.00  0.00     0.146 A 
HETATM    9  N9  UNL     1       0.143   1.429  -1.121  1.00  0.00    -0.335 N 
ATOM     10  H9  UNL     1      -0.130   2.238  -1.679  1.00  0.00     0.168 HD
HETATM   11  C10 UNL     1      -0.798   0.619  -0.590  1.00  0.00     0.103 A 
HETATM   12  C11 UNL     1      -2.150   0.902  -0.816  1.00  0.00     0.084 A 
HETATM   13  N10 UNL     1      -2.522   2.034  -1.599  1.00  0.00    -0.099 NA
HETATM   14  C12 UNL     1      -3.109   0.072  -0.272  1.00  0.00    -0.013 A 
HETATM   15  C13 UNL     1      -4.559   0.364  -0.506  1.00  0.00     0.052 C 
ENDROOT
BRANCH   7  16
HETATM   16  N3  UNL     1       3.136  -0.145   0.025  1.00  0.00    -0.366 N 
ATOM     17  H3  UNL     1       3.839   0.473  -0.381  1.00  0.00     0.161 HD
BRANCH  16  18
HETATM   18  C6  UNL     1       3.513  -1.298   0.820  1.00  0.00     0.200 C 
BRANCH  18  19
HETATM   19  C7  UNL     1       4.965  -1.458   0.906  1.00  0.00     0.131 A 
HETATM   20  N4  UNL     1       5.603  -2.438   1.567  1.00  0.00    -0.271 N 
HETATM   21  N5  UNL     1       6.917  -2.264   1.426  1.00  0.00    -0.227 N 
ATOM     22  H4  UNL     1       5.156  -3.191   2.090  1.00  0.00     0.190 HD
HETATM   23  N6  UNL     1       7.108  -1.190   0.686  1.00  0.00    -0.227 N 
ATOM     24  H5  UNL     1       7.646  -2.857   1.821  1.00  0.00     0.210 HD
HETATM   25  N7  UNL     1       5.914  -0.694   0.366  1.00  0.00    -0.271 N 
ATOM     26  H6  UNL     1       8.011  -0.806   0.407  1.00  0.00     0.210 HD
ATOM     27  H7  UNL     1       5.752   0.138  -0.202  1.00  0.00     0.190 HD
ENDBRANCH  18  19
ENDBRANCH  16  18
ENDBRANCH   7  16
BRANCH   8  28
HETATM   28  N8  UNL     1       2.350   1.937  -1.416  1.00  0.00    -0.378 N 
HETATM   29  C9  UNL     1       1.999   3.086  -2.211  1.00  0.00     0.148 C 
ATOM     30  H8  UNL     1       3.335   1.729  -1.249  1.00  0.00     0.160 HD
ENDBRANCH   8  28
BRANCH   1  31
HETATM   31  C2  UNL     1      -3.675  -1.928   1.084  1.00  0.00     0.053 C 
HETATM   32  C1  UNL     1      -4.331  -1.330   2.301  1.00  0.00     0.011 C 
ENDBRANCH   1  31
TORSDOF 5
