REMARK  5 active torsions:
REMARK  status: ('A' for Active; 'I' for Inactive)
REMARK    1  A    between atoms: N1_1  and  C1_4 
REMARK    2  A    between atoms: C5_11  and  C6_12 
REMARK    3  A    between atoms: C6_12  and  C7_13 
REMARK    4  A    between atoms: C7_13  and  C8_14 
REMARK    5  A    between atoms: C8_14  and  C9_15 
ROOT
HETATM    1  C1  UNL     1      -4.637  -1.540  -0.083  1.00  0.00     0.680 A 
HETATM    2  N2  UNL     1      -3.369  -1.963   0.071  1.00  0.00    -0.155 N 
ATOM      3  H2  UNL     1      -3.136  -2.947  -0.062  1.00  0.00     0.187 HD
HETATM    4  C2  UNL     1      -2.398  -1.066   0.406  1.00  0.00     0.276 A 
HETATM    5  O1  UNL     1      -1.253  -1.492   0.556  1.00  0.00    -0.267 OA
HETATM    6  C3  UNL     1      -2.703   0.262   0.583  1.00  0.00     0.104 A 
HETATM    7  C4  UNL     1      -1.797   1.198   0.970  1.00  0.00     0.052 A 
HETATM    8  C5  UNL     1      -0.370   1.061   0.922  1.00  0.00     0.030 C 
HETATM    9  N6  UNL     1      -2.245   2.506   1.198  1.00  0.00    -0.351 N 
ATOM     10  H6  UNL     1      -1.564   3.205   1.495  1.00  0.00     0.166 HD
HETATM   11  C12 UNL     1      -3.503   2.882   1.048  1.00  0.00     0.182 A 
HETATM   12  N7  UNL     1      -4.382   1.953   0.656  1.00  0.00    -0.337 N 
ATOM     13  H7  UNL     1      -5.357   2.224   0.530  1.00  0.00     0.168 HD
HETATM   14  C13 UNL     1      -4.034   0.690   0.424  1.00  0.00     0.140 A 
HETATM   15  N8  UNL     1      -4.944  -0.245   0.094  1.00  0.00    -0.176 N 
ATOM     16  H8  UNL     1      -5.915   0.044  -0.028  1.00  0.00     0.186 HD
ENDROOT
BRANCH   8  17
HETATM   17  C6  UNL     1       0.383   0.540   0.023  1.00  0.00     0.002 C 
BRANCH  17  18
HETATM   18  C7  UNL     1       1.863   0.500   0.196  1.00  0.00     0.002 C 
BRANCH  18  19
HETATM   19  C8  UNL     1       2.583  -0.032  -0.731  1.00  0.00     0.035 C 
BRANCH  19  20
HETATM   20  C9  UNL     1       4.014  -0.199  -0.819  1.00  0.00     0.103 A 
HETATM   21  N3  UNL     1       4.575  -0.801  -1.910  1.00  0.00    -0.347 N 
HETATM   22  C10 UNL     1       5.893  -0.973  -2.025  1.00  0.00     0.198 A 
ATOM     23  H3  UNL     1       3.967  -1.129  -2.660  1.00  0.00     0.167 HD
HETATM   24  N4  UNL     1       6.723  -0.554  -1.058  1.00  0.00    -0.293 N 
HETATM   25  N5  UNL     1       6.249   0.034   0.020  1.00  0.00    -0.264 N 
ATOM     26  H4  UNL     1       7.729  -0.692  -1.159  1.00  0.00     0.187 HD
HETATM   27  C11 UNL     1       4.889   0.212   0.141  1.00  0.00     0.286 A 
ATOM     28  H5  UNL     1       6.880   0.353   0.755  1.00  0.00     0.190 HD
HETATM   29  O2  UNL     1       4.500   0.778   1.191  1.00  0.00    -0.264 OA
ENDBRANCH  19  20
ENDBRANCH  18  19
ENDBRANCH  17  18
ENDBRANCH   8  17
BRANCH   1  30
HETATM   30  N1  UNL     1      -5.520  -2.425  -0.402  1.00  0.00    -0.234 N 
ATOM     31  H12 UNL     1      -5.287  -3.409  -0.536  1.00  0.00     0.174 HD
ATOM     32  H11 UNL     1      -6.481  -2.104  -0.519  1.00  0.00     0.174 HD
ENDBRANCH   1  30
TORSDOF 5
