REMARK  5 active torsions:
REMARK  status: ('A' for Active; 'I' for Inactive)
REMARK    1  A    between atoms: N1_1  and  C1_4 
REMARK    2  A    between atoms: C2_7  and  C3_8 
REMARK    3  A    between atoms: C4_17  and  N7_18 
REMARK    4  A    between atoms: C8_22  and  N8_23 
REMARK    5  A    between atoms: N8_23  and  C9_25 
ROOT
HETATM    1  C1  UNL     1       0.595   2.672  -1.456  1.00  0.00     0.678 A 
HETATM    2  N2  UNL     1       1.847   2.432  -1.100  1.00  0.00    -0.186 N 
ATOM      3  H2  UNL     1       2.562   3.134  -1.294  1.00  0.00     0.184 HD
HETATM    4  C2  UNL     1       2.211   1.256  -0.473  1.00  0.00     0.126 A 
HETATM    5  C4  UNL     1       1.228   0.340  -0.228  1.00  0.00     0.110 A 
HETATM    6  C8  UNL     1      -0.099   0.633  -0.623  1.00  0.00     0.146 A 
HETATM    7  N9  UNL     1      -0.381   1.794  -1.227  1.00  0.00    -0.175 N 
ATOM      8  H9  UNL     1      -1.338   2.005  -1.510  1.00  0.00     0.186 HD
ENDROOT
BRANCH   4   9
HETATM    9  C3  UNL     1       3.621   1.122  -0.127  1.00  0.00     0.167 A 
HETATM   10  N3  UNL     1       4.542   2.112  -0.414  1.00  0.00    -0.267 N 
HETATM   11  N4  UNL     1       5.704   1.717   0.013  1.00  0.00    -0.227 N 
ATOM     12  H3  UNL     1       4.344   2.998  -0.880  1.00  0.00     0.190 HD
HETATM   13  N5  UNL     1       5.601   0.507   0.572  1.00  0.00    -0.227 N 
ATOM     14  H4  UNL     1       6.569   2.252  -0.067  1.00  0.00     0.210 HD
HETATM   15  N6  UNL     1       4.341   0.223   0.451  1.00  0.00    -0.267 N 
ATOM     16  H5  UNL     1       6.338  -0.058   0.993  1.00  0.00     0.210 HD
ATOM     17  H6  UNL     1       3.946  -0.654   0.791  1.00  0.00     0.190 HD
ENDBRANCH   4   9
BRANCH   5  18
HETATM   18  N7  UNL     1       1.487  -0.933   0.403  1.00  0.00    -0.355 N 
HETATM   19  C5  UNL     1       2.399  -1.830   0.960  1.00  0.00     0.066 A 
HETATM   20  C6  UNL     1       1.362  -2.873   1.312  1.00  0.00     0.065 A 
HETATM   21  C7  UNL     1       0.427  -1.921   0.719  1.00  0.00     0.133 A 
ENDBRANCH   5  18
BRANCH   1  22
HETATM   22  N1  UNL     1       0.293   3.802  -2.050  1.00  0.00    -0.234 N 
ATOM     23  H12 UNL     1       1.040   4.474  -2.225  1.00  0.00     0.174 HD
ATOM     24  H11 UNL     1      -0.672   3.987  -2.324  1.00  0.00     0.174 HD
ENDBRANCH   1  22
BRANCH   6  25
HETATM   25  N8  UNL     1      -1.049  -0.167  -0.431  1.00  0.00    -0.369 N 
ATOM     26  H8  UNL     1      -0.810  -1.046   0.028  1.00  0.00     0.161 HD
BRANCH  25  27
HETATM   27  C9  UNL     1      -2.421   0.007  -0.778  1.00  0.00     0.087 C 
HETATM   28  C10 UNL     1      -3.056  -1.360  -0.867  1.00  0.00     0.051 C 
HETATM   29  C11 UNL     1      -3.748  -1.756   0.416  1.00  0.00     0.169 C 
HETATM   30  O1  UNL     1      -4.716  -0.785   0.669  1.00  0.00    -0.391 OA
HETATM   31  C12 UNL     1      -4.021   0.334   1.134  1.00  0.00     0.169 C 
HETATM   32  C13 UNL     1      -3.164   0.970   0.070  1.00  0.00     0.051 C 
ENDBRANCH  25  27
ENDBRANCH   6  25
TORSDOF 5
