REMARK  5 active torsions:
REMARK  status: ('A' for Active; 'I' for Inactive)
REMARK    1  A    between atoms: C2_4  and  S1_5 
REMARK    2  A    between atoms: C2_4  and  N6_19 
REMARK    3  A    between atoms: S1_5  and  C3_6 
REMARK    4  A    between atoms: C3_6  and  C4_7 
REMARK    5  A    between atoms: C6_11  and  N3_12 
REMARK       I    between atoms: N7_22  and  C9_23 
ROOT
HETATM    1  C1  UNL     1       0.381  -0.795  -3.538  1.00  0.00     0.148 C 
HETATM    2  N1  UNL     1      -0.595  -0.628  -2.498  1.00  0.00    -0.375 N 
ATOM      3  H1  UNL     1      -1.588  -0.686  -2.722  1.00  0.00     0.161 HD
HETATM    4  C2  UNL     1      -0.226  -0.406  -1.288  1.00  0.00     0.138 C 
ENDROOT
BRANCH   4   5
HETATM    5  S1  UNL     1      -1.447  -0.205  -0.030  1.00  0.00    -0.088 SA
BRANCH   5   6
HETATM    6  C3  UNL     1      -3.125  -0.354  -0.697  1.00  0.00     0.142 C 
BRANCH   6   7
HETATM    7  C4  UNL     1      -4.107  -0.177   0.402  1.00  0.00     0.052 A 
HETATM    8  C5  UNL     1      -4.618   1.059   0.746  1.00  0.00     0.133 A 
HETATM    9  N2  UNL     1      -5.507   1.174   1.750  1.00  0.00    -0.199 N 
HETATM   10  C6  UNL     1      -5.935   0.110   2.455  1.00  0.00     0.690 A 
ATOM     11  H2  UNL     1      -5.869   2.098   1.985  1.00  0.00     0.183 HD
HETATM   12  N4  UNL     1      -5.428  -1.088   2.107  1.00  0.00    -0.132 N 
HETATM   13  N5  UNL     1      -4.552  -1.230   1.125  1.00  0.00    -0.288 N 
ATOM     14  H4  UNL     1      -5.730  -1.917   2.619  1.00  0.00     0.205 HD
ATOM     15  H5  UNL     1      -4.202  -2.163   0.907  1.00  0.00     0.187 HD
BRANCH  10  16
HETATM   16  N3  UNL     1      -6.797   0.217   3.429  1.00  0.00    -0.233 N 
ATOM     17  H32 UNL     1      -7.181   1.124   3.693  1.00  0.00     0.174 HD
ATOM     18  H31 UNL     1      -7.121  -0.589   3.963  1.00  0.00     0.174 HD
ENDBRANCH  10  16
ENDBRANCH   6   7
ENDBRANCH   5   6
ENDBRANCH   4   5
BRANCH   4  19
HETATM   19  N6  UNL     1       1.159  -0.328  -0.992  1.00  0.00    -0.359 N 
HETATM   20  C7  UNL     1       1.964   0.740  -1.555  1.00  0.00     0.145 C 
HETATM   21  C8  UNL     1       2.907   1.303  -0.500  1.00  0.00     0.145 C 
HETATM   22  N7  UNL     1       3.464   0.229   0.283  1.00  0.00    -0.353 N 
HETATM   23  C9  UNL     1       4.232   0.514   1.443  1.00  0.00     0.184 C 
HETATM   24  C10 UNL     1       3.238  -1.148  -0.116  1.00  0.00     0.145 C 
HETATM   25  N8  UNL     1       4.025   1.586   2.107  1.00  0.00    -0.374 N 
HETATM   26  N9  UNL     1       5.235  -0.385   1.876  1.00  0.00    -0.064 NA
ATOM     27  H82 UNL     1       3.302   2.234   1.795  1.00  0.00     0.158 HD
ATOM     28  H81 UNL     1       4.577   1.791   2.940  1.00  0.00     0.158 HD
HETATM   29  C11 UNL     1       1.721  -1.342  -0.121  1.00  0.00     0.145 C 
ENDBRANCH   4  19
TORSDOF 5
