REMARK  7 active torsions:
REMARK  status: ('A' for Active; 'I' for Inactive)
REMARK    1  A    between atoms: N1_1  and  S1_4 
REMARK    2  A    between atoms: S1_4  and  N2_5 
REMARK    3  A    between atoms: S1_4  and  C1_9 
REMARK    4  A    between atoms: C3_13  and  O2_14 
REMARK    5  A    between atoms: O2_14  and  N4_15 
REMARK    6  A    between atoms: C5_21  and  S2_22 
REMARK    7  A    between atoms: S2_22  and  N6_23 
ROOT
HETATM    1  C1  UNL     1       5.186   0.107   0.549  1.00  0.00     0.203 A 
HETATM    2  N3  UNL     1       4.234  -0.598  -0.075  1.00  0.00    -0.327 N 
ATOM      3  H3  UNL     1       4.418  -1.385  -0.697  1.00  0.00     0.168 HD
HETATM    4  C2  UNL     1       3.013  -0.142   0.219  1.00  0.00     0.117 A 
HETATM    5  C3  UNL     1       1.738  -0.491  -0.139  1.00  0.00     0.159 A 
HETATM    6  C4  UNL     1       0.676   0.239   0.385  1.00  0.00     0.117 A 
HETATM    7  N5  UNL     1      -0.654   0.133   0.220  1.00  0.00    -0.330 N 
ATOM      8  H5  UNL     1      -1.127  -0.556  -0.364  1.00  0.00     0.168 HD
HETATM    9  C5  UNL     1      -1.257   1.086   0.952  1.00  0.00     0.162 A 
HETATM   10  N7  UNL     1      -0.291   1.773   1.563  1.00  0.00    -0.320 N 
ATOM     11  H7  UNL     1      -0.446   2.563   2.190  1.00  0.00     0.169 HD
HETATM   12  C11 UNL     1       0.913   1.279   1.237  1.00  0.00     0.139 A 
HETATM   13  N8  UNL     1       2.176   1.591   1.564  1.00  0.00    -0.325 N 
ATOM     14  H8  UNL     1       2.339   2.371   2.201  1.00  0.00     0.169 HD
HETATM   15  C12 UNL     1       3.236   0.917   1.085  1.00  0.00     0.139 A 
HETATM   16  N9  UNL     1       4.568   1.052   1.273  1.00  0.00    -0.317 N 
ATOM     17  H9  UNL     1       5.023   1.750   1.862  1.00  0.00     0.169 HD
ENDROOT
BRANCH   1  18
HETATM   18  S1  UNL     1       6.917  -0.124   0.467  1.00  0.00     0.163 S 
HETATM   19  O1  UNL     1       7.611   0.830   1.369  1.00  0.00    -0.221 OA
BRANCH  18  20
HETATM   20  N1  UNL     1       7.232  -1.569   0.955  1.00  0.00    -0.339 N 
ATOM     21  H12 UNL     1       7.720  -2.281   0.412  1.00  0.00     0.167 HD
ATOM     22  H11 UNL     1       6.865  -1.666   1.902  1.00  0.00     0.167 HD
ENDBRANCH  18  20
BRANCH  18  23
HETATM   23  N2  UNL     1       7.531   0.039  -1.118  1.00  0.00    -0.339 N 
ATOM     24  H22 UNL     1       8.016  -0.691  -1.640  1.00  0.00     0.167 HD
ATOM     25  H21 UNL     1       7.325   0.985  -1.438  1.00  0.00     0.167 HD
ENDBRANCH  18  23
ENDBRANCH   1  18
BRANCH   5  26
HETATM   26  O2  UNL     1       1.471  -1.530  -0.991  1.00  0.00    -0.240 OA
BRANCH  26  27
HETATM   27  N4  UNL     1       2.488  -2.266  -1.523  1.00  0.00    -0.305 N 
ATOM     28  H42 UNL     1       3.448  -2.028  -1.275  1.00  0.00     0.184 HD
ATOM     29  H41 UNL     1       2.289  -3.040  -2.157  1.00  0.00     0.184 HD
ENDBRANCH  26  27
ENDBRANCH   5  26
BRANCH   9  30
HETATM   30  S2  UNL     1      -3.034   1.372   1.075  1.00  0.00    -0.005 SA
BRANCH  30  31
HETATM   31  N6  UNL     1      -3.852   0.199   0.082  1.00  0.00    -0.252 NA
HETATM   32  C6  UNL     1      -4.716  -0.681   0.805  1.00  0.00     0.103 C 
HETATM   33  C7  UNL     1      -5.652  -1.367  -0.155  1.00  0.00     0.015 C 
HETATM   34  C8  UNL     1      -6.639  -0.327  -0.653  1.00  0.00     0.002 C 
HETATM   35  C9  UNL     1      -5.947   0.989  -0.923  1.00  0.00     0.015 C 
HETATM   36  C10 UNL     1      -4.462   0.769  -1.097  1.00  0.00     0.103 C 
ENDBRANCH  30  31
ENDBRANCH   9  30
TORSDOF 7
