REMARK  13 active torsions:
REMARK  status: ('A' for Active; 'I' for Inactive)
REMARK    1  A    between atoms: O1_2  and  C2_3 
REMARK    2  A    between atoms: C2_3  and  C3_4 
REMARK    3  A    between atoms: C2_3  and  N1_8 
REMARK    4  A    between atoms: C3_4  and  C4_5 
REMARK    5  A    between atoms: N1_8  and  C6_10 
REMARK    6  A    between atoms: C6_10  and  C7_11 
REMARK    7  A    between atoms: C7_11  and  O3_13 
REMARK    8  A    between atoms: C7_11  and  N2_15 
REMARK    9  A    between atoms: N2_15  and  C9_17 
REMARK   10  A    between atoms: N4_25  and  C12_27 
REMARK   11  A    between atoms: C12_27  and  N5_28 
REMARK   12  A    between atoms: C12_27  and  O6_32 
REMARK   13  A    between atoms: C13_38  and  N8_39 
ROOT
HETATM    1  C6  UNL     1      -0.952  -0.854  -0.252  1.00  0.00     0.248 C 
HETATM    2  N6  UNL     1      -1.817  -1.609  -1.220  1.00  0.00    -0.296 N 
ATOM      3  H6  UNL     1      -2.410  -1.135  -1.901  1.00  0.00     0.183 HD
HETATM    4  N7  UNL     1      -1.760  -2.945  -1.132  1.00  0.00    -0.291 N 
ATOM      5  H7  UNL     1      -1.477  -3.492  -1.945  1.00  0.00     0.184 HD
HETATM    6  C13 UNL     1      -2.089  -3.608   0.078  1.00  0.00     0.403 C 
HETATM    7  N9  UNL     1      -1.369  -2.901   1.143  1.00  0.00    -0.313 N 
ATOM      8  H9  UNL     1      -0.957  -3.407   1.927  1.00  0.00     0.166 HD
HETATM    9  C14 UNL     1      -1.263  -1.455   1.044  1.00  0.00     0.276 C 
HETATM   10  O7  UNL     1      -1.465  -0.871   2.128  1.00  0.00    -0.268 OA
ENDROOT
BRANCH   1  11
HETATM   11  N1  UNL     1      -1.471   0.519  -0.348  1.00  0.00    -0.358 N 
ATOM     12  H1  UNL     1      -0.870   1.307  -0.590  1.00  0.00     0.159 HD
BRANCH  11  13
HETATM   13  C2  UNL     1      -2.853   0.685  -0.085  1.00  0.00     0.225 C 
BRANCH  13  14
HETATM   14  O1  UNL     1      -3.690  -0.276  -0.677  1.00  0.00    -0.371 OA
HETATM   15  C1  UNL     1      -4.654  -0.693   0.189  1.00  0.00     0.204 C 
ENDBRANCH  13  14
BRANCH  13  16
HETATM   16  C3  UNL     1      -3.323   1.988  -0.759  1.00  0.00     0.131 C 
BRANCH  16  17
HETATM   17  C4  UNL     1      -2.648   3.191  -0.331  1.00  0.00     0.127 C 
HETATM   18  C5  UNL     1      -3.013   4.492  -0.984  1.00  0.00     0.091 C 
HETATM   19  O2  UNL     1      -1.805   3.213   0.526  1.00  0.00    -0.298 OA
ENDBRANCH  16  17
ENDBRANCH  13  16
ENDBRANCH  11  13
ENDBRANCH   1  11
BRANCH   1  20
HETATM   20  C7  UNL     1       0.421  -0.856  -0.786  1.00  0.00     0.180 C 
HETATM   21  C8  UNL     1       0.935  -2.299  -1.036  1.00  0.00     0.076 C 
BRANCH  20  22
HETATM   22  O3  UNL     1       0.174  -0.447  -2.201  1.00  0.00    -0.367 OA
ATOM     23  H3  UNL     1       1.059  -0.448  -2.545  1.00  0.00     0.212 HD
ENDBRANCH  20  22
BRANCH  20  24
HETATM   24  N2  UNL     1       1.470  -0.044  -0.424  1.00  0.00    -0.376 N 
ATOM     25  H2  UNL     1       1.779   0.572  -1.176  1.00  0.00     0.157 HD
BRANCH  24  26
HETATM   26  C9  UNL     1       2.184   0.112   0.724  1.00  0.00     0.163 C 
HETATM   27  C10 UNL     1       1.707   0.761   1.968  1.00  0.00     0.196 C 
HETATM   28  S1  UNL     1       3.200   0.445   2.971  1.00  0.00     0.234 S 
HETATM   29  O4  UNL     1       3.394   1.493   3.990  1.00  0.00    -0.206 OA
HETATM   30  O5  UNL     1       3.139  -0.942   3.516  1.00  0.00    -0.206 OA
HETATM   31  N3  UNL     1       4.319   0.556   1.651  1.00  0.00    -0.272 N 
HETATM   32  C11 UNL     1       3.529   0.811   0.500  1.00  0.00     0.113 C 
ATOM     33  H3  UNL     1       5.333   0.458   1.693  1.00  0.00     0.180 HD
HETATM   34  N4  UNL     1       3.800   1.468  -0.569  1.00  0.00    -0.329 N 
ATOM     35  H4  UNL     1       3.054   1.494  -1.264  1.00  0.00     0.165 HD
BRANCH  34  36
HETATM   36  C12 UNL     1       4.978   2.160  -0.926  1.00  0.00     0.424 C 
BRANCH  36  37
HETATM   37  N5  UNL     1       5.420   1.721  -2.245  1.00  0.00    -0.035 N 
ATOM     38  H53 UNL     1       5.537   0.709  -2.295  1.00  0.00     0.279 HD
ATOM     39  H52 UNL     1       4.688   1.818  -2.949  1.00  0.00     0.279 HD
ATOM     40  H51 UNL     1       6.271   2.221  -2.503  1.00  0.00     0.279 HD
ENDBRANCH  36  37
BRANCH  36  41
HETATM   41  O6  UNL     1       6.022   1.975  -0.028  1.00  0.00    -0.355 OA
ATOM     42  H6  UNL     1       6.815   2.441  -0.268  1.00  0.00     0.213 HD
ENDBRANCH  36  41
ENDBRANCH  34  36
ENDBRANCH  24  26
ENDBRANCH  20  24
ENDBRANCH   1  20
BRANCH   6  43
HETATM   43  N8  UNL     1      -1.515  -4.960   0.044  1.00  0.00    -0.039 N 
ATOM     44  H83 UNL     1      -1.804  -5.486  -0.781  1.00  0.00     0.279 HD
ATOM     45  H82 UNL     1      -0.511  -4.954  -0.137  1.00  0.00     0.279 HD
ATOM     46  H81 UNL     1      -1.752  -5.437   0.914  1.00  0.00     0.279 HD
ENDBRANCH   6  43
TORSDOF 13
