REMARK  17 active torsions:
REMARK  status: ('A' for Active; 'I' for Inactive)
REMARK    1  A    between atoms: C2_2  and  C4_4 
REMARK    2  A    between atoms: C4_4  and  N1_5 
REMARK    3  A    between atoms: C4_4  and  C5_9 
REMARK    4  A    between atoms: C5_9  and  C6_10 
REMARK    5  A    between atoms: C6_10  and  O1_11 
REMARK    6  A    between atoms: C6_10  and  N2_13 
REMARK    7  A    between atoms: N2_13  and  C7_15 
REMARK    8  A    between atoms: C8_17  and  O3_18 
REMARK    9  A    between atoms: O3_18  and  C9_19 
REMARK   10  A    between atoms: C10_20  and  N3_21 
REMARK   11  A    between atoms: C12_26  and  N4_27 
REMARK   12  A    between atoms: C13_31  and  N5_32 
REMARK   13  A    between atoms: C15_37  and  C16_38 
REMARK   14  A    between atoms: C16_38  and  N8_39 
REMARK   15  A    between atoms: C16_38  and  N9_43 
REMARK   16  A    between atoms: C17_47  and  N10_48 
REMARK   17  A    between atoms: C19_53  and  N11_54 
ROOT
HETATM    1  O3  UNL     1      -1.582  -0.822  -0.708  1.00  0.00    -0.351 OA
ENDROOT
BRANCH   1   2
HETATM    2  C8  UNL     1      -0.452  -0.060  -0.363  1.00  0.00     0.293 C 
HETATM    3  O2  UNL     1       0.558  -0.825   0.122  1.00  0.00    -0.333 OA
HETATM    4  C7  UNL     1       1.849  -0.499  -0.357  1.00  0.00     0.252 C 
HETATM    5  C19 UNL     1       2.072   0.979  -0.348  1.00  0.00     0.233 C 
HETATM    6  C18 UNL     1       1.011   1.767  -1.100  1.00  0.00     0.075 C 
HETATM    7  C17 UNL     1      -0.120   0.867  -1.485  1.00  0.00     0.240 C 
BRANCH   4   8
HETATM    8  N2  UNL     1       2.761  -1.238   0.371  1.00  0.00    -0.369 N 
ATOM      9  H2  UNL     1       2.372  -1.735   1.172  1.00  0.00     0.158 HD
BRANCH   8  10
HETATM   10  C6  UNL     1       4.107  -1.407   0.183  1.00  0.00     0.217 C 
BRANCH  10  11
HETATM   11  C5  UNL     1       5.013  -0.250   0.376  1.00  0.00     0.086 C 
BRANCH  11  12
HETATM   12  C4  UNL     1       6.483  -0.718   0.467  1.00  0.00     0.191 C 
BRANCH  12  13
HETATM   13  C2  UNL     1       7.413   0.449   0.673  1.00  0.00     0.008 C 
HETATM   14  C1  UNL     1       8.819  -0.118   0.756  1.00  0.00     0.011 C 
HETATM   15  C3  UNL     1       7.396   1.441  -0.447  1.00  0.00     0.011 C 
ENDBRANCH  12  13
BRANCH  12  16
HETATM   16  N1  UNL     1       6.627  -1.610   1.599  1.00  0.00    -0.075 N 
ATOM     17  H13 UNL     1       7.593  -1.898   1.754  1.00  0.00     0.274 HD
ATOM     18  H12 UNL     1       6.479  -1.141   2.493  1.00  0.00     0.274 HD
ATOM     19  H11 UNL     1       5.997  -2.400   1.460  1.00  0.00     0.274 HD
ENDBRANCH  12  16
ENDBRANCH  11  12
ENDBRANCH  10  11
BRANCH  10  20
HETATM   20  O1  UNL     1       4.431  -2.101  -1.020  1.00  0.00    -0.377 OA
ATOM     21  H1  UNL     1       3.850  -2.843  -1.144  1.00  0.00     0.212 HD
ENDBRANCH  10  20
ENDBRANCH   8  10
ENDBRANCH   4   8
BRANCH   5  22
HETATM   22  N11 UNL     1       2.104   1.432   1.035  1.00  0.00    -0.071 N 
ATOM     23 3H11 UNL     1       1.271   1.158   1.556  1.00  0.00     0.274 HD
ATOM     24 2H11 UNL     1       2.791   0.929   1.596  1.00  0.00     0.274 HD
ATOM     25 1H11 UNL     1       2.256   2.441   1.041  1.00  0.00     0.274 HD
ENDBRANCH   5  22
BRANCH   7  26
HETATM   26  N10 UNL     1      -0.001   0.265  -2.777  1.00  0.00    -0.070 N 
ATOM     27 3H10 UNL     1       0.677  -0.497  -2.744  1.00  0.00     0.274 HD
ATOM     28 2H10 UNL     1      -0.850  -0.256  -2.997  1.00  0.00     0.274 HD
ATOM     29 1H10 UNL     1       0.226   0.898  -3.544  1.00  0.00     0.274 HD
ENDBRANCH   7  26
ENDBRANCH   1   2
BRANCH   1  30
HETATM   30  C9  UNL     1      -2.703  -0.499   0.050  1.00  0.00     0.165 C 
HETATM   31  C10 UNL     1      -3.058  -1.624   0.975  1.00  0.00     0.215 C 
HETATM   32  C11 UNL     1      -4.461  -1.661   1.412  1.00  0.00     0.070 C 
HETATM   33  C12 UNL     1      -5.277  -0.435   1.166  1.00  0.00     0.208 C 
HETATM   34  C13 UNL     1      -5.017   0.347  -0.043  1.00  0.00     0.124 C 
HETATM   35  C15 UNL     1      -3.773   0.005  -0.834  1.00  0.00     0.099 C 
BRANCH  31  36
HETATM   36  N3  UNL     1      -2.599  -2.857   0.363  1.00  0.00    -0.072 N 
ATOM     37  H33 UNL     1      -2.961  -2.990  -0.581  1.00  0.00     0.274 HD
ATOM     38  H32 UNL     1      -1.607  -2.837   0.125  1.00  0.00     0.274 HD
ATOM     39  H31 UNL     1      -2.841  -3.622   0.992  1.00  0.00     0.274 HD
ENDBRANCH  31  36
BRANCH  33  40
HETATM   40  N4  UNL     1      -6.670  -0.905   1.158  1.00  0.00    -0.073 N 
ATOM     41  H43 UNL     1      -6.848  -1.661   0.497  1.00  0.00     0.274 HD
ATOM     42  H42 UNL     1      -6.938  -1.420   1.997  1.00  0.00     0.274 HD
ATOM     43  H41 UNL     1      -7.227  -0.067   0.990  1.00  0.00     0.274 HD
ENDBRANCH  33  40
BRANCH  34  44
HETATM   44  N5  UNL     1      -5.035   1.767   0.116  1.00  0.00    -0.360 N 
HETATM   45  C14 UNL     1      -5.726   2.543   0.800  1.00  0.00     0.197 C 
HETATM   46  N6  UNL     1      -5.450   3.951   0.703  1.00  0.00    -0.067 NA
HETATM   47  N7  UNL     1      -6.765   2.165   1.650  1.00  0.00    -0.067 NA
ATOM     48  H5  UNL     1      -4.334   2.245  -0.450  1.00  0.00     0.162 HD
ENDBRANCH  34  44
BRANCH  35  49
HETATM   49  C16 UNL     1      -4.037  -0.754  -2.094  1.00  0.00     0.386 C 
BRANCH  49  50
HETATM   50  N8  UNL     1      -5.121  -0.045  -2.798  1.00  0.00    -0.050 N 
ATOM     51  H83 UNL     1      -5.955   0.086  -2.225  1.00  0.00     0.276 HD
ATOM     52  H82 UNL     1      -4.919   0.942  -2.958  1.00  0.00     0.276 HD
ATOM     53  H81 UNL     1      -5.301  -0.563  -3.658  1.00  0.00     0.276 HD
ENDBRANCH  49  50
BRANCH  49  54
HETATM   54  N9  UNL     1      -4.477  -2.098  -1.952  1.00  0.00    -0.050 N 
ATOM     55  H93 UNL     1      -3.814  -2.615  -1.374  1.00  0.00     0.276 HD
ATOM     56  H92 UNL     1      -5.305  -2.125  -1.357  1.00  0.00     0.276 HD
ATOM     57  H91 UNL     1      -4.657  -2.616  -2.812  1.00  0.00     0.276 HD
ENDBRANCH  49  54
ENDBRANCH  35  49
ENDBRANCH   1  30
TORSDOF 17
