REMARK  13 active torsions:
REMARK  status: ('A' for Active; 'I' for Inactive)
REMARK    1  A    between atoms: C1_4  and  C2_6 
REMARK    2  A    between atoms: C3_8  and  O2_9 
REMARK    3  A    between atoms: O2_9  and  C4_10 
REMARK    4  A    between atoms: C5_11  and  N3_12 
REMARK    5  A    between atoms: C7_17  and  N4_18 
REMARK    6  A    between atoms: C8_22  and  O3_23 
REMARK    7  A    between atoms: O3_23  and  C9_24 
REMARK    8  A    between atoms: C10_26  and  C11_27 
REMARK    9  A    between atoms: C11_27  and  N5_28 
REMARK   10  A    between atoms: C14_34  and  N6_35 
REMARK   11  A    between atoms: C15_39  and  N7_40 
REMARK   12  A    between atoms: C16_44  and  N8_45 
REMARK   13  A    between atoms: C18_50  and  N9_51 
ROOT
HETATM    1  C4  UNL     1      -0.067  -0.103   0.868  1.00  0.00     0.188 C 
HETATM    2  C5  UNL     1      -1.007   0.169   2.047  1.00  0.00     0.216 C 
HETATM    3  C6  UNL     1      -2.127  -0.860   2.044  1.00  0.00     0.070 C 
HETATM    4  C7  UNL     1      -2.371  -1.378   0.617  1.00  0.00     0.216 C 
HETATM    5  C8  UNL     1      -2.282  -0.202  -0.299  1.00  0.00     0.188 C 
HETATM    6  C15 UNL     1      -0.769   0.072  -0.440  1.00  0.00     0.245 C 
ENDROOT
BRANCH   1   7
HETATM    7  O2  UNL     1       0.995   0.735   0.926  1.00  0.00    -0.350 OA
BRANCH   7   8
HETATM    8  C3  UNL     1       2.179   0.155   1.326  1.00  0.00     0.291 C 
HETATM    9  O1  UNL     1       3.089   0.037   0.256  1.00  0.00    -0.345 OA
HETATM   10  C2  UNL     1       3.975  -0.987   0.657  1.00  0.00     0.211 C 
HETATM   11  C18 UNL     1       4.841  -0.513   1.788  1.00  0.00     0.122 C 
HETATM   12  C17 UNL     1       3.995   0.021   2.940  1.00  0.00     0.066 C 
HETATM   13  C16 UNL     1       2.867   0.876   2.431  1.00  0.00     0.240 C 
BRANCH  10  14
HETATM   14  C1  UNL     1       4.803  -1.353  -0.489  1.00  0.00     0.118 C 
HETATM   15  N1  UNL     1       4.722  -0.696  -1.586  1.00  0.00    -0.389 N 
ATOM     16  H12 UNL     1       5.300  -0.952  -2.386  1.00  0.00     0.157 HD
ATOM     17  H11 UNL     1       4.068   0.084  -1.641  1.00  0.00     0.157 HD
HETATM   18  N2  UNL     1       5.712  -2.437  -0.412  1.00  0.00    -0.085 NA
ENDBRANCH  10  14
BRANCH  11  19
HETATM   19  N9  UNL     1       5.620  -1.597   2.321  1.00  0.00    -0.359 N 
HETATM   20  C19 UNL     1       6.904  -1.613   2.432  1.00  0.00     0.197 C 
HETATM   21  N10 UNL     1       7.766  -0.561   2.044  1.00  0.00    -0.067 NA
HETATM   22  N11 UNL     1       7.474  -2.783   2.996  1.00  0.00    -0.067 NA
ATOM     23  H9  UNL     1       5.114  -2.424   2.638  1.00  0.00     0.162 HD
ENDBRANCH  11  19
BRANCH  13  24
HETATM   24  N8  UNL     1       3.500   2.117   1.906  1.00  0.00    -0.070 N 
ATOM     25  H83 UNL     1       4.126   1.927   1.124  1.00  0.00     0.274 HD
ATOM     26  H82 UNL     1       2.831   2.712   1.418  1.00  0.00     0.274 HD
ATOM     27  H81 UNL     1       3.972   2.611   2.663  1.00  0.00     0.274 HD
ENDBRANCH  13  24
ENDBRANCH   7   8
ENDBRANCH   1   7
BRANCH   2  28
HETATM   28  N3  UNL     1      -1.454   1.529   2.088  1.00  0.00    -0.072 N 
ATOM     29  H33 UNL     1      -0.665   2.175   2.091  1.00  0.00     0.274 HD
ATOM     30  H32 UNL     1      -1.885   1.801   1.204  1.00  0.00     0.274 HD
ATOM     31  H31 UNL     1      -2.080   1.710   2.873  1.00  0.00     0.274 HD
ENDBRANCH   2  28
BRANCH   6  32
HETATM   32  N7  UNL     1      -0.297  -0.854  -1.453  1.00  0.00    -0.070 N 
ATOM     33  H73 UNL     1       0.714  -0.788  -1.568  1.00  0.00     0.274 HD
ATOM     34  H72 UNL     1      -0.363  -1.818  -1.128  1.00  0.00     0.274 HD
ATOM     35  H71 UNL     1      -0.776  -0.735  -2.346  1.00  0.00     0.274 HD
ENDBRANCH   6  32
BRANCH   5  36
HETATM   36  O3  UNL     1      -2.711  -0.478  -1.574  1.00  0.00    -0.350 OA
BRANCH  36  37
HETATM   37  C9  UNL     1      -3.773   0.367  -1.950  1.00  0.00     0.291 C 
HETATM   38  O4  UNL     1      -3.270   1.411  -2.783  1.00  0.00    -0.352 OA
HETATM   39  C10 UNL     1      -4.299   2.302  -2.951  1.00  0.00     0.150 C 
HETATM   40  C12 UNL     1      -5.387   1.706  -3.807  1.00  0.00     0.036 C 
HETATM   41  C13 UNL     1      -5.363   0.223  -3.886  1.00  0.00     0.040 C 
HETATM   42  C14 UNL     1      -4.829  -0.410  -2.622  1.00  0.00     0.238 C 
BRANCH  39  43
HETATM   43  C11 UNL     1      -4.877   2.864  -1.659  1.00  0.00     0.261 C 
BRANCH  43  44
HETATM   44  N5  UNL     1      -3.836   3.547  -0.942  1.00  0.00    -0.077 N 
ATOM     45  H53 UNL     1      -3.022   2.954  -0.779  1.00  0.00     0.274 HD
ATOM     46  H52 UNL     1      -3.379   4.262  -1.507  1.00  0.00     0.274 HD
ATOM     47  H51 UNL     1      -4.223   3.923  -0.077  1.00  0.00     0.274 HD
ENDBRANCH  43  44
ENDBRANCH  39  43
BRANCH  42  48
HETATM   48  N6  UNL     1      -5.963  -0.786  -1.793  1.00  0.00    -0.070 N 
ATOM     49  H63 UNL     1      -5.638  -1.285  -0.965  1.00  0.00     0.274 HD
ATOM     50  H62 UNL     1      -6.366   0.044  -1.358  1.00  0.00     0.274 HD
ATOM     51  H61 UNL     1      -6.694  -1.324  -2.258  1.00  0.00     0.274 HD
ENDBRANCH  42  48
ENDBRANCH  36  37
ENDBRANCH   5  36
BRANCH   4  52
HETATM   52  N4  UNL     1      -3.585  -2.136   0.536  1.00  0.00    -0.072 N 
ATOM     53  H43 UNL     1      -3.597  -2.896   1.217  1.00  0.00     0.274 HD
ATOM     54  H42 UNL     1      -4.383  -1.602   0.881  1.00  0.00     0.274 HD
ATOM     55  H41 UNL     1      -3.747  -2.480  -0.411  1.00  0.00     0.274 HD
ENDBRANCH   4  52
TORSDOF 13
