REMARK  13 active torsions:
REMARK  status: ('A' for Active; 'I' for Inactive)
REMARK    1  A    between atoms: C2_2  and  C3_4 
REMARK    2  A    between atoms: C3_4  and  N1_5 
REMARK    3  A    between atoms: C3_4  and  C4_9 
REMARK       I    between atoms: C4_9  and  N2_11 
REMARK    4  A    between atoms: N2_11  and  C5_13 
REMARK    5  A    between atoms: C11_25  and  C12_26 
REMARK    6  A    between atoms: C12_26  and  C13_27 
REMARK    7  A    between atoms: C13_27  and  C14_28 
REMARK    8  A    between atoms: C14_28  and  C15_29 
REMARK    9  A    between atoms: C15_29  and  N7_30 
REMARK   10  A    between atoms: C16_34  and  O3_35 
REMARK   11  A    between atoms: C16_34  and  C17_37 
REMARK   12  A    between atoms: C17_37  and  N8_38 
REMARK   13  A    between atoms: C18_48  and  O4_49 
ROOT
HETATM    1  C5  UNL     1      -0.544   0.262   0.818  1.00  0.00     0.069 C 
HETATM    2  C6  UNL     1      -0.307   0.178   2.094  1.00  0.00     0.058 A 
HETATM    3  C7  UNL     1      -1.062   0.288   3.213  1.00  0.00     0.101 A 
HETATM    4  C8  UNL     1      -2.488   0.228   3.335  1.00  0.00     0.104 C 
HETATM    5  N3  UNL     1      -3.652   0.141   3.514  1.00  0.00    -0.191 NA
HETATM    6  C9  UNL     1      -0.240   0.323   4.367  1.00  0.00     0.139 A 
HETATM    7  N4  UNL     1      -0.739   0.443   5.677  1.00  0.00    -0.081 NA
HETATM    8  N5  UNL     1       0.996   0.230   3.941  1.00  0.00    -0.329 N 
ATOM      9  H5  UNL     1       1.820   0.224   4.542  1.00  0.00     0.168 HD
HETATM   10  C10 UNL     1       1.023   0.143   2.578  1.00  0.00     0.117 A 
HETATM   11  N6  UNL     1       2.075   0.182   1.865  1.00  0.00    -0.367 N 
ATOM     12  H6  UNL     1       2.996   0.142   2.302  1.00  0.00     0.161 HD
HETATM   13  C11 UNL     1       1.952   0.284   0.419  1.00  0.00     0.128 C 
HETATM   14  C16 UNL     1       0.645  -0.233  -0.033  1.00  0.00     0.178 C 
ENDROOT
BRANCH   1  15
HETATM   15  N2  UNL     1      -1.698   0.543   0.127  1.00  0.00    -0.325 N 
HETATM   16  C4  UNL     1      -3.009   0.855  -0.056  1.00  0.00     0.260 C 
HETATM   17  O2  UNL     1      -3.985   1.105   0.687  1.00  0.00    -0.270 OA
ATOM     18  H2  UNL     1      -1.373   0.478  -0.838  1.00  0.00     0.169 HD
BRANCH  16  19
HETATM   19  C3  UNL     1      -3.588   0.964  -1.504  1.00  0.00     0.343 C 
BRANCH  19  20
HETATM   20  C2  UNL     1      -4.791   0.126  -1.628  1.00  0.00     0.162 C 
HETATM   21  C1  UNL     1      -5.951   0.312  -0.736  1.00  0.00     0.093 C 
HETATM   22  O1  UNL     1      -4.842  -0.740  -2.480  1.00  0.00    -0.296 OA
ENDBRANCH  19  20
BRANCH  19  23
HETATM   23  N1  UNL     1      -2.608   0.723  -2.490  1.00  0.00    -0.060 N 
ATOM     24  H13 UNL     1      -2.354  -0.265  -2.506  1.00  0.00     0.275 HD
ATOM     25  H12 UNL     1      -3.011   0.814  -3.423  1.00  0.00     0.275 HD
ATOM     26  H11 UNL     1      -1.774   1.304  -2.404  1.00  0.00     0.275 HD
ENDBRANCH  19  23
ENDBRANCH  16  19
ENDBRANCH   1  15
BRANCH  14  27
HETATM   27  O3  UNL     1       0.491   0.217  -1.362  1.00  0.00    -0.377 OA
ATOM     28  H3  UNL     1       1.223  -0.088  -1.886  1.00  0.00     0.211 HD
ENDBRANCH  14  27
BRANCH  14  29
HETATM   29  C17 UNL     1       0.688  -1.753  -0.094  1.00  0.00     0.289 C 
HETATM   30  N9  UNL     1       1.025  -2.393   1.130  1.00  0.00    -0.282 N 
HETATM   31  N10 UNL     1       0.696  -3.541   1.461  1.00  0.00    -0.232 N 
ATOM     32  H9  UNL     1       1.587  -1.860   1.794  1.00  0.00     0.184 HD
HETATM   33  N11 UNL     1      -0.075  -4.289   0.572  1.00  0.00    -0.013 NA
ATOM     34  H10 UNL     1       0.982  -3.929   2.360  1.00  0.00     0.205 HD
HETATM   35  N12 UNL     1      -1.043  -3.544  -0.103  1.00  0.00    -0.088 NA
HETATM   36  C18 UNL     1      -0.450  -2.398  -0.778  1.00  0.00     0.290 C 
BRANCH  29  37
HETATM   37  N8  UNL     1       1.878  -2.040  -0.964  1.00  0.00    -0.044 N 
ATOM     38  H83 UNL     1       1.854  -1.582  -1.875  1.00  0.00     0.277 HD
ATOM     39  H82 UNL     1       2.745  -1.606  -0.648  1.00  0.00     0.277 HD
ATOM     40  H81 UNL     1       1.907  -3.059  -1.005  1.00  0.00     0.277 HD
ENDBRANCH  29  37
BRANCH  36  41
HETATM   41  O4  UNL     1      -0.096  -2.918  -2.058  1.00  0.00    -0.374 OA
ATOM     42  H4  UNL     1      -0.828  -3.333  -2.498  1.00  0.00     0.212 HD
ENDBRANCH  36  41
ENDBRANCH  14  29
BRANCH  13  43
HETATM   43  C12 UNL     1       2.306   1.694   0.072  1.00  0.00     0.029 C 
BRANCH  43  44
HETATM   44  C13 UNL     1       2.324   2.125  -1.344  1.00  0.00     0.004 C 
BRANCH  44  45
HETATM   45  C14 UNL     1       3.317   1.373  -2.192  1.00  0.00     0.027 C 
BRANCH  45  46
HETATM   46  C15 UNL     1       4.733   1.549  -1.681  1.00  0.00     0.229 C 
BRANCH  46  47
HETATM   47  N7  UNL     1       5.107   2.959  -1.697  1.00  0.00    -0.079 N 
ATOM     48  H73 UNL     1       4.982   3.375  -2.620  1.00  0.00     0.274 HD
ATOM     49  H72 UNL     1       4.442   3.534  -1.180  1.00  0.00     0.274 HD
ATOM     50  H71 UNL     1       6.060   3.077  -1.353  1.00  0.00     0.274 HD
ENDBRANCH  46  47
ENDBRANCH  45  46
ENDBRANCH  44  45
ENDBRANCH  43  44
ENDBRANCH  13  43
TORSDOF 13
