REMARK  5 active torsions:
REMARK  status: ('A' for Active; 'I' for Inactive)
REMARK    1  A    between atoms: C5_5  and  C6_6 
REMARK       I    between atoms: C6_6  and  N1_8 
REMARK    2  A    between atoms: N2_17  and  C13_18 
REMARK    3  A    between atoms: C13_18  and  C14_19 
REMARK       I    between atoms: C14_19  and  N3_21 
REMARK    4  A    between atoms: N3_21  and  C15_23 
REMARK    5  A    between atoms: C15_23  and  C16_24 
ROOT
HETATM    1  C1  UNL     1      -0.017   5.064  -0.938  1.00  0.00     0.015 C 
HETATM    2  C2  UNL     1       0.165   3.548  -0.992  1.00  0.00     0.020 C 
HETATM    3  C3  UNL     1      -0.952   2.885  -1.736  1.00  0.00     0.012 C 
HETATM    4  C4  UNL     1      -1.844   2.030  -0.884  1.00  0.00     0.036 C 
HETATM    5  C5  UNL     1      -1.047   0.995  -0.072  1.00  0.00     0.180 C 
HETATM    6  N2  UNL     1      -0.061   1.712   0.661  1.00  0.00    -0.351 N 
HETATM    7  C20 UNL     1       0.169   3.059   0.416  1.00  0.00     0.069 C 
ENDROOT
BRANCH   5   8
HETATM    8  C6  UNL     1      -1.989   0.343   0.850  1.00  0.00     0.243 C 
HETATM    9  O1  UNL     1      -1.947   0.770   2.059  1.00  0.00    -0.271 OA
HETATM   10  N1  UNL     1      -2.926  -0.687   0.573  1.00  0.00    -0.340 N 
HETATM   11  C7  UNL     1      -3.755  -1.118   1.682  1.00  0.00     0.127 C 
HETATM   12  C11 UNL     1      -3.099  -1.333  -0.691  1.00  0.00     0.155 C 
HETATM   13  C8  UNL     1      -5.202  -1.257   1.326  1.00  0.00     0.026 C 
HETATM   14  C9  UNL     1      -5.402  -1.866  -0.037  1.00  0.00     0.083 C 
HETATM   15  C10 UNL     1      -4.120  -2.435  -0.581  1.00  0.00     0.263 C 
HETATM   16  F1  UNL     1      -4.413  -2.815  -1.905  1.00  0.00    -0.204 F 
HETATM   17  F2  UNL     1      -3.670  -3.550   0.047  1.00  0.00    -0.204 F 
HETATM   18  C12 UNL     1      -1.843  -2.002  -1.214  1.00  0.00     0.038 C 
ENDBRANCH   5   8
BRANCH   6  19
HETATM   19  C13 UNL     1       1.004   0.926   1.103  1.00  0.00     0.165 C 
BRANCH  19  20
HETATM   20  C14 UNL     1       1.937   0.382   0.122  1.00  0.00     0.256 C 
HETATM   21  O2  UNL     1       1.800   0.616  -1.092  1.00  0.00    -0.267 OA
HETATM   22  N3  UNL     1       3.023  -0.428   0.539  1.00  0.00    -0.356 N 
ATOM     23  H3  UNL     1       3.145  -0.624   1.533  1.00  0.00     0.162 HD
BRANCH  22  24
HETATM   24  C15 UNL     1       3.960  -0.982  -0.408  1.00  0.00     0.132 C 
BRANCH  24  25
HETATM   25  C16 UNL     1       5.027  -1.808   0.249  1.00  0.00    -0.028 A 
HETATM   26  C17 UNL     1       4.537  -3.009   1.044  1.00  0.00     0.016 C 
HETATM   27  C18 UNL     1       6.365  -1.310   0.569  1.00  0.00     0.011 A 
HETATM   28  C19 UNL     1       6.221  -2.067  -0.681  1.00  0.00     0.011 A 
ENDBRANCH  24  25
ENDBRANCH  22  24
ENDBRANCH  19  20
ENDBRANCH   6  19
TORSDOF 5
