REMARK  6 active torsions:
REMARK  status: ('A' for Active; 'I' for Inactive)
REMARK    1  A    between atoms: C2_2  and  C3_4 
REMARK    2  A    between atoms: C3_4  and  N1_5 
REMARK       I    between atoms: N1_5  and  C4_7 
REMARK    3  A    between atoms: C4_7  and  C5_9 
REMARK    4  A    between atoms: N2_13  and  C9_14 
REMARK       I    between atoms: N3_17  and  C12_18 
REMARK    5  A    between atoms: C12_18  and  C13_20 
REMARK    6  A    between atoms: C13_20  and  C14_21 
ROOT
HETATM    1  C5  UNL     1       3.587  -0.908   0.089  1.00  0.00     0.116 C 
HETATM    2  C6  UNL     1       3.416  -0.836   1.592  1.00  0.00     0.024 C 
HETATM    3  C7  UNL     1       2.382  -1.877   1.959  1.00  0.00     0.046 C 
HETATM    4  C8  UNL     1       1.262  -1.977   0.960  1.00  0.00     0.063 C 
HETATM    5  N2  UNL     1       1.146  -0.922   0.057  1.00  0.00    -0.365 N 
HETATM    6  C20 UNL     1       2.307  -0.400  -0.530  1.00  0.00     0.077 C 
ENDROOT
BRANCH   5   7
HETATM    7  C9  UNL     1      -0.051  -0.223  -0.085  1.00  0.00     0.125 C 
HETATM    8  C10 UNL     1      -1.118  -1.204  -0.590  1.00  0.00     0.048 C 
HETATM    9  C11 UNL     1      -2.358  -0.498  -1.021  1.00  0.00     0.128 C 
HETATM   10  N3  UNL     1      -2.820   0.421  -0.007  1.00  0.00    -0.349 N 
HETATM   11  C12 UNL     1      -4.215   0.635   0.103  1.00  0.00     0.220 C 
HETATM   12  C18 UNL     1      -1.923   1.098   0.856  1.00  0.00     0.165 C 
HETATM   13  O2  UNL     1      -4.631   1.429   0.981  1.00  0.00    -0.273 OA
HETATM   14  C19 UNL     1      -0.616   0.413   1.134  1.00  0.00     0.211 C 
HETATM   15  F2  UNL     1       0.275   1.414   1.545  1.00  0.00    -0.245 F 
BRANCH  11  16
HETATM   16  C13 UNL     1      -5.194  -0.045  -0.784  1.00  0.00     0.111 C 
BRANCH  16  17
HETATM   17  C14 UNL     1      -6.608   0.338  -0.481  1.00  0.00    -0.043 C 
HETATM   18  C15 UNL     1      -7.485  -0.438  -1.474  1.00  0.00     0.015 C 
HETATM   19  C16 UNL     1      -7.054  -0.106   0.897  1.00  0.00     0.015 C 
HETATM   20  C17 UNL     1      -6.893   1.795  -0.693  1.00  0.00     0.015 C 
ENDBRANCH  16  17
ENDBRANCH  11  16
ENDBRANCH   5   7
BRANCH   1  21
HETATM   21  C4  UNL     1       4.767  -0.135  -0.379  1.00  0.00     0.226 C 
HETATM   22  N1  UNL     1       6.041  -0.478   0.068  1.00  0.00    -0.358 N 
ATOM     23  H1  UNL     1       6.088  -1.274   0.705  1.00  0.00     0.162 HD
HETATM   24  O1  UNL     1       4.561   0.803  -1.164  1.00  0.00    -0.273 OA
BRANCH  22  25
HETATM   25  C3  UNL     1       7.290   0.138  -0.248  1.00  0.00     0.159 C 
BRANCH  25  26
HETATM   26  C2  UNL     1       7.476   1.543   0.185  1.00  0.00     0.183 C 
HETATM   27  C1  UNL     1       8.878   2.014  -0.230  1.00  0.00     0.046 C 
HETATM   28  F1  UNL     1       6.606   2.421  -0.397  1.00  0.00    -0.248 F 
ENDBRANCH  25  26
ENDBRANCH  22  25
ENDBRANCH   1  21
TORSDOF 6
