REMARK  3 active torsions:
REMARK  status: ('A' for Active; 'I' for Inactive)
REMARK    1  A    between atoms: O1_1  and  N1_3 
REMARK    2  A    between atoms: C7_12  and  N3_13 
REMARK    3  A    between atoms: N3_13  and  O2_14 
ROOT
HETATM    1  N1  UNL     1       1.685  -1.285   1.115  1.00  0.00    -0.273 N 
ATOM      2  H1  UNL     1       2.401  -0.764   1.621  1.00  0.00     0.193 HD
HETATM    3  C1  UNL     1       0.852  -0.624   0.435  1.00  0.00     0.066 C 
HETATM    4  C2  UNL     1      -0.255  -1.161  -0.365  1.00  0.00     0.065 C 
HETATM    5  C3  UNL     1      -1.523  -0.991   0.415  1.00  0.00     0.014 C 
HETATM    6  C4  UNL     1      -1.961   0.430   0.577  1.00  0.00     0.031 C 
HETATM    7  C5  UNL     1      -1.420   1.377  -0.431  1.00  0.00     0.275 C 
HETATM    8  N2  UNL     1      -0.073   1.068  -0.878  1.00  0.00     0.116 N 
HETATM    9  C6  UNL     1      -0.200  -0.212  -1.567  1.00  0.00     0.285 C 
HETATM   10  C7  UNL     1       0.775   0.829   0.271  1.00  0.00     0.389 C 
ENDROOT
BRANCH   1  11
HETATM   11  O1  UNL     1       1.698  -2.651   1.224  1.00  0.00    -0.290 OA
ATOM     12  H1  UNL     1       2.325  -3.148   1.736  1.00  0.00     0.244 HD
ENDBRANCH   1  11
BRANCH  10  13
HETATM   13  N3  UNL     1       2.047   1.477   0.142  1.00  0.00    -0.061 NA
BRANCH  13  14
HETATM   14  O2  UNL     1       2.770   1.077  -0.893  1.00  0.00    -0.294 OA
ATOM     15  H2  UNL     1       3.613   1.506  -0.978  1.00  0.00     0.238 HD
ENDBRANCH  13  14
ENDBRANCH  10  13
TORSDOF 3
