REMARK  5 active torsions:
REMARK  status: ('A' for Active; 'I' for Inactive)
REMARK    1  A    between atoms: N1_2  and  O1_3 
REMARK       I    between atoms: N1_2  and  C2_5 
REMARK    2  A    between atoms: C2_5  and  S1_7 
REMARK    3  A    between atoms: S1_7  and  C3_8 
REMARK    4  A    between atoms: C3_8  and  O3_9 
REMARK    5  A    between atoms: N2_11  and  O4_13 
ROOT
HETATM    1  S1  UNL     1      -0.513   0.932   0.086  1.00  0.00     0.018 SA
ENDROOT
BRANCH   1   2
HETATM    2  C2  UNL     1       0.325  -0.617   0.059  1.00  0.00     0.313 C 
HETATM    3  N1  UNL     1       1.774  -0.628   0.099  1.00  0.00    -0.224 N 
HETATM    4  C1  UNL     1       2.470   0.638   0.158  1.00  0.00     0.189 C 
HETATM    5  O2  UNL     1      -0.293  -1.712   0.007  1.00  0.00    -0.258 OA
BRANCH   3   6
HETATM    6  O1  UNL     1       2.400  -1.799   0.078  1.00  0.00    -0.285 OA
ATOM      7  H1  UNL     1       1.943  -2.631   0.039  1.00  0.00     0.245 HD
ENDBRANCH   3   6
ENDBRANCH   1   2
BRANCH   1   8
HETATM    8  C3  UNL     1      -2.268   0.863   0.036  1.00  0.00     0.209 C 
HETATM    9  N2  UNL     1      -3.048  -0.098  -0.017  1.00  0.00    -0.241 N 
ATOM     10  H2  UNL     1      -4.012   0.236  -0.034  1.00  0.00     0.197 HD
BRANCH   8  11
HETATM   11  O3  UNL     1      -2.925   2.146   0.059  1.00  0.00    -0.339 OA
ATOM     12  H3  UNL     1      -3.874   2.109   0.032  1.00  0.00     0.220 HD
ENDBRANCH   8  11
BRANCH   9  13
HETATM   13  O4  UNL     1      -3.027  -1.410  -0.058  1.00  0.00    -0.287 OA
ATOM     14  H4  UNL     1      -3.625  -2.147  -0.099  1.00  0.00     0.244 HD
ENDBRANCH   9  13
ENDBRANCH   1   8
TORSDOF 5
