REMARK  1 active torsions:
REMARK  status: ('A' for Active; 'I' for Inactive)
REMARK    1  A    between atoms: N1_4  and  O1_5 
ROOT
HETATM    1  C1  UNL     1      -2.481  -0.377  -0.360  1.00  0.00     0.024 C 
HETATM    2  C2  UNL     1      -1.096  -0.324   0.270  1.00  0.00     0.075 C 
HETATM    3  C3  UNL     1      -0.218   0.401  -0.716  1.00  0.00     0.174 C 
HETATM    4  N1  UNL     1       1.122   0.644  -0.337  1.00  0.00    -0.237 N 
HETATM    5  C4  UNL     1       2.079  -0.295   0.141  1.00  0.00     0.170 C 
HETATM    6  N2  UNL     1       3.355  -0.140  -0.114  1.00  0.00    -0.378 N 
ATOM      7  H21 UNL     1       4.041  -0.813   0.229  1.00  0.00     0.158 HD
ATOM      8  H22 UNL     1       3.658   0.665  -0.663  1.00  0.00     0.158 HD
HETATM    9  S1  UNL     1       1.551  -1.696   1.096  1.00  0.00    -0.019 SA
HETATM   10  S2  UNL     1      -0.485  -2.026   0.556  1.00  0.00    -0.083 SA
ENDROOT
BRANCH   4  11
HETATM   11  O1  UNL     1       1.610   1.918  -0.427  1.00  0.00    -0.285 OA
ATOM     12  H1  UNL     1       2.511   2.081  -0.172  1.00  0.00     0.245 HD
ENDBRANCH   4  11
TORSDOF 1
