REMARK  15 active torsions:
REMARK  status: ('A' for Active; 'I' for Inactive)
REMARK    1  A    between atoms: C2_2  and  C3_3 
REMARK    2  A    between atoms: C5_6  and  N1_7 
REMARK    3  A    between atoms: N1_7  and  C6_8 
REMARK    4  A    between atoms: C6_8  and  O1_9 
REMARK    5  A    between atoms: C6_8  and  C7_11 
REMARK    6  A    between atoms: C7_11  and  C8_12 
REMARK    7  A    between atoms: C8_12  and  C9_13 
REMARK       I    between atoms: C9_13  and  N2_15 
REMARK    8  A    between atoms: N2_15  and  C10_17 
REMARK    9  A    between atoms: C11_22  and  C12_23 
REMARK   10  A    between atoms: C12_23  and  C13_24 
REMARK   11  A    between atoms: C13_24  and  C14_25 
REMARK   12  A    between atoms: C14_25  and  C15_26 
REMARK   13  A    between atoms: C15_26  and  C16_27 
REMARK       I    between atoms: N7_33  and  C18_35 
REMARK   14  A    between atoms: C18_35  and  C19_37 
REMARK   15  A    between atoms: C19_37  and  C20_38 
ROOT
HETATM    1  C10 UNL     1      -2.878   2.920   0.830  1.00  0.00     0.167 A 
HETATM    2  N3  UNL     1      -2.425   3.669   1.872  1.00  0.00    -0.279 N 
ATOM      3  H3  UNL     1      -2.869   4.557   2.106  1.00  0.00     0.189 HD
HETATM    4  N4  UNL     1      -1.451   3.246   2.539  1.00  0.00    -0.296 N 
ATOM      5  H4  UNL     1      -1.102   3.800   3.322  1.00  0.00     0.187 HD
HETATM    6  C11 UNL     1      -0.864   2.090   2.246  1.00  0.00     0.069 A 
HETATM    7  S3  UNL     1      -1.798   1.592   0.908  1.00  0.00    -0.038 SA
ENDROOT
BRANCH   6   8
HETATM    8  C12 UNL     1       0.299   1.450   2.963  1.00  0.00     0.066 C 
BRANCH   8   9
HETATM    9  C13 UNL     1       1.587   1.935   2.375  1.00  0.00     0.007 C 
BRANCH   9  10
HETATM   10  C14 UNL     1       1.703   1.558   0.932  1.00  0.00     0.007 C 
BRANCH  10  11
HETATM   11  C15 UNL     1       2.987   2.083   0.366  1.00  0.00     0.066 C 
BRANCH  11  12
HETATM   12  C16 UNL     1       4.132   1.525   1.131  1.00  0.00     0.069 A 
HETATM   13  N5  UNL     1       4.738   2.066   2.183  1.00  0.00    -0.296 N 
HETATM   14  N6  UNL     1       5.706   1.479   2.743  1.00  0.00    -0.279 N 
ATOM     15  H5  UNL     1       4.418   2.965   2.542  1.00  0.00     0.187 HD
HETATM   16  C17 UNL     1       6.116   0.299   2.260  1.00  0.00     0.167 A 
ATOM     17  H6  UNL     1       6.168   1.897   3.550  1.00  0.00     0.189 HD
HETATM   18  N7  UNL     1       7.102  -0.441   2.720  1.00  0.00    -0.306 N 
HETATM   19  S2  UNL     1       5.038   0.074   0.955  1.00  0.00    -0.038 SA
HETATM   20  C18 UNL     1       7.361  -1.658   2.047  1.00  0.00     0.224 C 
ATOM     21  H7  UNL     1       7.655  -0.150   3.526  1.00  0.00     0.171 HD
HETATM   22  O3  UNL     1       6.373  -2.413   1.836  1.00  0.00    -0.273 OA
BRANCH  20  23
HETATM   23  C19 UNL     1       8.738  -2.026   1.610  1.00  0.00     0.107 C 
BRANCH  23  24
HETATM   24  C20 UNL     1       8.987  -1.794   0.151  1.00  0.00    -0.014 C 
HETATM   25  C21 UNL     1       8.806  -0.344  -0.237  1.00  0.00     0.010 C 
HETATM   26  C22 UNL     1      10.470  -2.100  -0.079  1.00  0.00     0.010 C 
ENDBRANCH  23  24
ENDBRANCH  20  23
ENDBRANCH  11  12
ENDBRANCH  10  11
ENDBRANCH   9  10
ENDBRANCH   8   9
ENDBRANCH   6   8
BRANCH   1  27
HETATM   27  N2  UNL     1      -3.865   3.221   0.056  1.00  0.00    -0.306 N 
HETATM   28  C9  UNL     1      -4.288   2.408  -0.999  1.00  0.00     0.224 C 
HETATM   29  O2  UNL     1      -5.531   2.154  -1.122  1.00  0.00    -0.273 OA
ATOM     30  H2  UNL     1      -4.362   4.096   0.222  1.00  0.00     0.171 HD
BRANCH  28  31
HETATM   31  C8  UNL     1      -3.369   1.817  -1.993  1.00  0.00     0.112 C 
BRANCH  31  32
HETATM   32  C7  UNL     1      -4.198   1.007  -3.022  1.00  0.00     0.109 C 
BRANCH  32  33
HETATM   33  C6  UNL     1      -4.947  -0.096  -2.273  1.00  0.00     0.193 C 
BRANCH  33  34
HETATM   34  N1  UNL     1      -6.050  -0.666  -2.587  1.00  0.00    -0.360 NA
BRANCH  34  35
HETATM   35  C5  UNL     1      -7.096  -1.199  -2.837  1.00  0.00     0.225 A 
HETATM   36  S1  UNL     1      -7.760  -1.751  -4.357  1.00  0.00    -0.049 SA
HETATM   37  C4  UNL     1      -9.253  -2.336  -3.797  1.00  0.00     0.079 A 
HETATM   38  C3  UNL     1      -9.173  -2.079  -2.455  1.00  0.00     0.018 A 
HETATM   39  N8  UNL     1      -8.118  -1.524  -1.991  1.00  0.00    -0.328 N 
ATOM     40  H8  UNL     1      -8.040  -1.325  -0.994  1.00  0.00     0.169 HD
BRANCH  38  41
HETATM   41  C2  UNL     1     -10.364  -2.461  -1.573  1.00  0.00     0.053 C 
HETATM   42  C1  UNL     1     -10.217  -3.865  -1.087  1.00  0.00     0.011 C 
ENDBRANCH  38  41
ENDBRANCH  34  35
ENDBRANCH  33  34
BRANCH  33  43
HETATM   43  O1  UNL     1      -4.295  -0.431  -1.196  1.00  0.00    -0.339 OA
ATOM     44  H1  UNL     1      -3.477  -0.008  -0.963  1.00  0.00     0.220 HD
ENDBRANCH  33  43
ENDBRANCH  32  33
ENDBRANCH  31  32
ENDBRANCH  28  31
ENDBRANCH   1  27
TORSDOF 15
