REMARK  12 active torsions:
REMARK  status: ('A' for Active; 'I' for Inactive)
REMARK    1  A    between atoms: C2_2  and  C3_3 
REMARK    2  A    between atoms: C3_3  and  C4_4 
REMARK    3  A    between atoms: C4_4  and  C5_5 
REMARK    4  A    between atoms: C5_5  and  C6_6 
REMARK    5  A    between atoms: C6_6  and  C7_7 
REMARK    6  A    between atoms: C7_7  and  C8_8 
REMARK    7  A    between atoms: C8_8  and  O1_9 
REMARK    8  A    between atoms: O1_9  and  C9_10 
REMARK    9  A    between atoms: C16_22  and  C17_23 
REMARK   10  A    between atoms: N5_31  and  C21_32 
REMARK   11  A    between atoms: C22_33  and  O4_34 
REMARK   12  A    between atoms: C22_33  and  N6_36 
ROOT
HETATM    1  C9  UNL     1       1.475  -2.324   0.432  1.00  0.00     0.108 A 
HETATM    2  C10 UNL     1       2.373  -3.298   0.080  1.00  0.00     0.095 A 
HETATM    3  N1  UNL     1       3.636  -3.328  -0.386  1.00  0.00    -0.297 N 
ATOM      4  H1  UNL     1       4.120  -2.446  -0.557  1.00  0.00     0.187 HD
HETATM    5  N2  UNL     1       4.272  -4.466  -0.630  1.00  0.00    -0.309 N 
ATOM      6  H2  UNL     1       5.227  -4.412  -0.984  1.00  0.00     0.186 HD
HETATM    7  C11 UNL     1       3.741  -5.684  -0.442  1.00  0.00     0.134 A 
HETATM    8  C12 UNL     1       2.443  -5.794   0.039  1.00  0.00     0.076 A 
HETATM    9  N3  UNL     1       1.836  -7.057   0.254  1.00  0.00    -0.100 NA
HETATM   10  C13 UNL     1       1.763  -4.632   0.299  1.00  0.00     0.027 A 
HETATM   11  C14 UNL     1       0.504  -4.364   0.783  1.00  0.00    -0.034 A 
HETATM   12  C15 UNL     1      -0.494  -5.395   1.168  1.00  0.00     0.050 C 
HETATM   13  C16 UNL     1       0.331  -2.985   0.863  1.00  0.00     0.008 A 
ENDROOT
BRANCH  13  14
HETATM   14  C17 UNL     1      -0.863  -2.339   1.363  1.00  0.00     0.037 C 
HETATM   15  C18 UNL     1      -1.914  -2.087   0.599  1.00  0.00     0.101 A 
HETATM   16  C19 UNL     1      -1.994  -2.418  -0.814  1.00  0.00     0.265 A 
HETATM   17  C28 UNL     1      -3.109  -1.461   1.170  1.00  0.00     0.271 A 
HETATM   18  O2  UNL     1      -1.030  -2.951  -1.402  1.00  0.00    -0.267 OA
HETATM   19  N4  UNL     1      -3.203  -2.125  -1.552  1.00  0.00    -0.274 N 
HETATM   20  C20 UNL     1      -4.326  -1.519  -0.942  1.00  0.00     0.336 A 
ATOM     21  H4  UNL     1      -3.247  -2.363  -2.543  1.00  0.00     0.173 HD
HETATM   22  O3  UNL     1      -5.378  -1.262  -1.579  1.00  0.00    -0.246 OA
HETATM   23  N5  UNL     1      -4.300  -1.165   0.469  1.00  0.00    -0.236 N 
HETATM   24  O5  UNL     1      -3.060  -1.165   2.398  1.00  0.00    -0.266 OA
BRANCH  23  25
HETATM   25  C21 UNL     1      -5.458  -0.607   1.087  1.00  0.00     0.160 C 
HETATM   26  C22 UNL     1      -5.729   0.777   1.160  1.00  0.00     0.154 C 
BRANCH  26  27
HETATM   27  O4  UNL     1      -6.891   1.039   1.785  1.00  0.00    -0.345 OA
ATOM     28  H4  UNL     1      -7.073   1.970   1.834  1.00  0.00     0.219 HD
ENDBRANCH  26  27
BRANCH  26  29
HETATM   29  N6  UNL     1      -5.050   1.907   0.722  1.00  0.00    -0.358 N 
HETATM   30  C23 UNL     1      -3.787   1.922   0.062  1.00  0.00     0.155 C 
HETATM   31  C24 UNL     1      -3.443   3.400  -0.232  1.00  0.00     0.291 C 
HETATM   32  N7  UNL     1      -3.420   4.189   0.959  1.00  0.00     0.087 N 
HETATM   33  C25 UNL     1      -2.243   4.063   1.764  1.00  0.00     0.310 C 
HETATM   34  C26 UNL     1      -4.653   4.043   1.726  1.00  0.00     0.291 C 
HETATM   35  C27 UNL     1      -5.670   3.254   0.923  1.00  0.00     0.155 C 
ENDBRANCH  26  29
ENDBRANCH  23  25
ENDBRANCH  13  14
BRANCH   1  36
HETATM   36  O1  UNL     1       1.607  -0.986   0.390  1.00  0.00    -0.348 OA
BRANCH  36  37
HETATM   37  C8  UNL     1       1.260  -0.030  -0.528  1.00  0.00     0.176 C 
BRANCH  37  38
HETATM   38  C7  UNL     1       1.815  -0.008  -1.887  1.00  0.00     0.027 C 
BRANCH  38  39
HETATM   39  C6  UNL     1       3.257   0.227  -2.078  1.00  0.00     0.002 C 
BRANCH  39  40
HETATM   40  C5  UNL     1       3.749   1.544  -1.541  1.00  0.00     0.000 C 
BRANCH  40  41
HETATM   41  C4  UNL     1       5.236   1.702  -1.763  1.00  0.00     0.000 C 
BRANCH  41  42
HETATM   42  C3  UNL     1       5.726   3.028  -1.225  1.00  0.00    -0.000 C 
BRANCH  42  43
HETATM   43  C2  UNL     1       5.066   4.199  -1.881  1.00  0.00    -0.005 C 
HETATM   44  C1  UNL     1       5.619   5.473  -1.276  1.00  0.00     0.005 C 
ENDBRANCH  42  43
ENDBRANCH  41  42
ENDBRANCH  40  41
ENDBRANCH  39  40
ENDBRANCH  38  39
ENDBRANCH  37  38
ENDBRANCH  36  37
ENDBRANCH   1  36
TORSDOF 12
