REMARK  1 active torsions:
REMARK  status: ('A' for Active; 'I' for Inactive)
REMARK    1  A    between atoms: O1_1  and  C1_3 
ROOT
HETATM    1  C1  UNL     1       1.844  -0.341   0.097  1.00  0.00     0.122 C 
HETATM    2  C2  UNL     1       0.686  -1.173   0.542  1.00  0.00     0.032 C 
HETATM    3  C3  UNL     1      -0.185  -1.650  -0.588  1.00  0.00     0.002 C 
HETATM    4  C4  UNL     1      -1.655  -1.518  -0.305  1.00  0.00     0.002 C 
HETATM    5  C5  UNL     1      -2.049  -0.234   0.330  1.00  0.00     0.020 C 
HETATM    6  C6  UNL     1      -1.416   0.978  -0.345  1.00  0.00     0.118 C 
HETATM    7  N1  UNL     1      -0.545   1.644   0.544  1.00  0.00    -0.402 N 
ATOM      8  H1  UNL     1      -0.861   1.917   1.475  1.00  0.00     0.158 HD
HETATM    9  C7  UNL     1       0.759   1.923   0.125  1.00  0.00     0.058 C 
HETATM   10  C8  UNL     1       1.481   0.894  -0.656  1.00  0.00     0.075 C 
ENDROOT
BRANCH   1  11
HETATM   11  O1  UNL     1       2.659  -0.058   1.168  1.00  0.00    -0.395 OA
ATOM     12  H1  UNL     1       3.395   0.471   0.885  1.00  0.00     0.210 HD
ENDBRANCH   1  11
TORSDOF 1
