REMARK  1 active torsions:
REMARK  status: ('A' for Active; 'I' for Inactive)
REMARK    1  A    between atoms: N2_4  and  N3_6 
ROOT
HETATM    1  N3  UNL     1       1.266  -0.044   0.306  1.00  0.00    -0.262 N 
HETATM    2  C1  UNL     1       0.568   1.184   0.234  1.00  0.00     0.098 C 
HETATM    3  N4  UNL     1       1.050   2.332   0.459  1.00  0.00    -0.387 N 
ATOM      4  H41 UNL     1       0.547   3.218   0.407  1.00  0.00     0.157 HD
ATOM      5  H42 UNL     1       2.023   2.487   0.723  1.00  0.00     0.157 HD
HETATM    6  C2  UNL     1      -0.879   0.954  -0.159  1.00  0.00     0.054 C 
HETATM    7  C3  UNL     1      -0.775   0.087  -1.399  1.00  0.00     0.014 C 
HETATM    8  C4  UNL     1      -0.415  -1.308  -0.957  1.00  0.00     0.028 C 
HETATM    9  C5  UNL     1       0.422  -1.211   0.303  1.00  0.00     0.111 C 
HETATM   10  C6  UNL     1      -0.590  -0.920   1.424  1.00  0.00     0.028 C 
HETATM   11  C7  UNL     1      -1.502   0.179   0.981  1.00  0.00     0.014 C 
ENDROOT
BRANCH   1  12
HETATM   12  N2  UNL     1       2.629  -0.151   0.374  1.00  0.00    -0.245 N 
HETATM   13  N1  UNL     1       3.355   0.241  -0.582  1.00  0.00    -0.331 N 
ATOM     14  H12 UNL     1       2.905   0.639  -1.406  1.00  0.00     0.178 HD
ATOM     15  H11 UNL     1       4.371   0.161  -0.531  1.00  0.00     0.178 HD
ATOM     16  H2  UNL     1       3.063  -0.552   1.206  1.00  0.00     0.208 HD
ENDBRANCH   1  12
TORSDOF 1
