REMARK  1 active torsions:
REMARK  status: ('A' for Active; 'I' for Inactive)
REMARK    1  A    between atoms: O1_1  and  C1_3 
ROOT
HETATM    1  C1  UNL     1       2.305  -0.081   0.343  1.00  0.00     0.321 C 
HETATM    2  C2  UNL     1       1.178   0.913   0.025  1.00  0.00     0.100 C 
HETATM    3  C3  UNL     1       0.425  -0.365  -0.288  1.00  0.00     0.132 C 
HETATM    4  C4  UNL     1      -0.550  -0.288  -1.408  1.00  0.00     0.039 C 
HETATM    5  C5  UNL     1      -1.727   0.566  -1.083  1.00  0.00     0.002 C 
HETATM    6  C6  UNL     1      -2.016   0.565   0.406  1.00  0.00     0.000 C 
HETATM    7  C7  UNL     1      -1.632  -0.777   1.030  1.00  0.00     0.002 C 
HETATM    8  C8  UNL     1      -0.141  -0.955   0.960  1.00  0.00     0.039 C 
HETATM    9  N1  UNL     1       1.721  -0.927  -0.699  1.00  0.00    -0.040 N 
ATOM     10  H11 UNL     1       1.885  -1.933  -0.727  1.00  0.00     0.281 HD
ATOM     11  H12 UNL     1       2.041  -0.885  -1.666  1.00  0.00     0.281 HD
ENDROOT
BRANCH   1  12
HETATM   12  O1  UNL     1       3.545   0.437   0.036  1.00  0.00    -0.370 OA
ATOM     13  H1  UNL     1       4.242  -0.178   0.233  1.00  0.00     0.212 HD
ENDBRANCH   1  12
TORSDOF 1
