REMARK  1 active torsions:
REMARK  status: ('A' for Active; 'I' for Inactive)
REMARK       I    between atoms: C1_4  and  N3_6 
REMARK    1  A    between atoms: N3_6  and  C2_8 
ROOT
HETATM    1  N1  UNL     1       4.256   0.738   0.378  1.00  0.00    -0.374 N 
ATOM      2  H11 UNL     1       4.007   1.716   0.525  1.00  0.00     0.158 HD
ATOM      3  H12 UNL     1       5.206   0.417   0.566  1.00  0.00     0.158 HD
HETATM    4  C1  UNL     1       3.337  -0.057  -0.047  1.00  0.00     0.185 C 
HETATM    5  N2  UNL     1       3.683  -1.417  -0.251  1.00  0.00    -0.064 NA
HETATM    6  N3  UNL     1       2.033   0.383  -0.305  1.00  0.00    -0.341 N 
ATOM      7  H3  UNL     1       1.812   0.740  -1.234  1.00  0.00     0.167 HD
ENDROOT
BRANCH   6   8
HETATM    8  C2  UNL     1       1.002   0.352   0.680  1.00  0.00     0.093 C 
HETATM    9  C3  UNL     1      -0.267   0.362   0.377  1.00  0.00    -0.065 C 
HETATM   10  C4  UNL     1      -1.272   0.327   1.471  1.00  0.00     0.035 C 
HETATM   11  C8  UNL     1      -0.639   0.408  -1.055  1.00  0.00     0.035 C 
HETATM   12  C5  UNL     1      -2.410  -0.557   1.008  1.00  0.00     0.004 C 
HETATM   13  C6  UNL     1      -2.997   0.132  -0.232  1.00  0.00     0.001 C 
HETATM   14  C7  UNL     1      -2.009  -0.086  -1.345  1.00  0.00     0.004 C 
ENDBRANCH   6   8
TORSDOF 1
