REMARK  1 active torsions:
REMARK  status: ('A' for Active; 'I' for Inactive)
REMARK    1  A    between atoms: O1_1  and  C1_3 
ROOT
HETATM    1  C1  UNL     1       0.904   1.159  -0.072  1.00  0.00     0.152 C 
HETATM    2  C2  UNL     1       1.768   0.121   0.492  1.00  0.00     0.021 A 
HETATM    3  C3  UNL     1       2.606  -0.874  -0.046  1.00  0.00     0.012 A 
HETATM    4  C4  UNL     1       1.239  -1.159  -0.247  1.00  0.00    -0.007 A 
HETATM    5  C5  UNL     1       0.129  -1.551   0.623  1.00  0.00     0.012 C 
HETATM    6  C6  UNL     1      -0.935  -0.490   0.531  1.00  0.00     0.019 C 
HETATM    7  C7  UNL     1      -1.741  -0.577  -0.746  1.00  0.00     0.033 C 
HETATM    8  C8  UNL     1      -2.369   0.825  -0.706  1.00  0.00     0.168 C 
HETATM    9  O2  UNL     1      -1.444   1.654  -0.130  1.00  0.00    -0.383 OA
HETATM   10  C9  UNL     1      -0.493   0.915   0.519  1.00  0.00     0.154 C 
ENDROOT
BRANCH   1  11
HETATM   11  O1  UNL     1       1.316   2.431   0.237  1.00  0.00    -0.393 OA
ATOM     12  H1  UNL     1       0.755   3.105  -0.129  1.00  0.00     0.210 HD
ENDBRANCH   1  11
TORSDOF 1
