REMARK  1 active torsions:
REMARK  status: ('A' for Active; 'I' for Inactive)
REMARK    1  A    between atoms: O1_1  and  C1_3 
ROOT
HETATM    1  C1  UNL     1       1.507   0.376  -0.502  1.00  0.00     0.127 C 
HETATM    2  C2  UNL     1       1.469  -0.901   0.288  1.00  0.00     0.064 C 
HETATM    3  C3  UNL     1       0.129  -1.549   0.030  1.00  0.00     0.128 C 
HETATM    4  O2  UNL     1      -0.080  -1.421  -1.359  1.00  0.00    -0.380 OA
HETATM    5  C4  UNL     1      -0.752  -0.180  -1.461  1.00  0.00     0.129 C 
HETATM    6  C5  UNL     1      -1.891  -0.484  -0.474  1.00  0.00     0.039 C 
HETATM    7  C6  UNL     1      -1.009  -0.882   0.722  1.00  0.00     0.017 C 
HETATM    8  C7  UNL     1      -0.638   0.421   1.393  1.00  0.00     0.008 C 
HETATM    9  C8  UNL     1      -0.456   1.523   0.361  1.00  0.00     0.010 C 
HETATM   10  C9  UNL     1       0.138   0.869  -0.889  1.00  0.00     0.043 C 
ENDROOT
BRANCH   1  11
HETATM   11  O1  UNL     1       2.103   1.343   0.317  1.00  0.00    -0.395 OA
ATOM     12  H1  UNL     1       2.127   2.151  -0.183  1.00  0.00     0.210 HD
ENDBRANCH   1  11
TORSDOF 1
