REMARK  1 active torsions:
REMARK  status: ('A' for Active; 'I' for Inactive)
REMARK    1  A    between atoms: O1_1  and  C1_3 
ROOT
HETATM    1  C1  UNL     1      -2.213   0.260   0.145  1.00  0.00     0.118 C 
HETATM    2  C2  UNL     1      -1.362  -0.200   1.291  1.00  0.00     0.032 C 
HETATM    3  C3  UNL     1      -0.026   0.480   1.203  1.00  0.00     0.014 C 
HETATM    4  C4  UNL     1       0.624   0.084  -0.088  1.00  0.00    -0.017 C 
HETATM    5  C5  UNL     1       1.860   0.964  -0.279  1.00  0.00     0.038 C 
HETATM    6  C6  UNL     1       2.940   0.067   0.285  1.00  0.00     0.168 C 
HETATM    7  O2  UNL     1       2.567  -1.202  -0.196  1.00  0.00    -0.390 OA
HETATM    8  C7  UNL     1       1.200  -1.307  -0.006  1.00  0.00     0.177 C 
HETATM    9  C8  UNL     1      -0.248   0.285  -1.291  1.00  0.00     0.014 C 
HETATM   10  C9  UNL     1      -1.627  -0.286  -1.142  1.00  0.00     0.032 C 
ENDROOT
BRANCH   1  11
HETATM   11  O1  UNL     1      -3.507  -0.228   0.303  1.00  0.00    -0.396 OA
ATOM     12  H1  UNL     1      -4.046   0.063  -0.423  1.00  0.00     0.210 HD
ENDBRANCH   1  11
TORSDOF 1
