REMARK  1 active torsions:
REMARK  status: ('A' for Active; 'I' for Inactive)
REMARK    1  A    between atoms: O1_1  and  C1_3 
ROOT
HETATM    1  C1  UNL     1       1.484  -0.631  -0.119  1.00  0.00     0.151 C 
HETATM    2  C2  UNL     1       1.066   0.739   0.321  1.00  0.00     0.020 C 
HETATM    3  C3  UNL     1       0.058   0.550   1.459  1.00  0.00     0.012 C 
HETATM    4  C4  UNL     1      -1.136  -0.219   0.977  1.00  0.00    -0.009 C 
HETATM    5  C5  UNL     1      -1.802   0.471  -0.206  1.00  0.00     0.036 C 
HETATM    6  C6  UNL     1      -0.769   0.657  -1.282  1.00  0.00     0.122 C 
HETATM    7  C7  UNL     1       0.347   1.516  -0.756  1.00  0.00     0.039 C 
HETATM    8  O2  UNL     1      -0.317  -0.567  -1.726  1.00  0.00    -0.378 OA
HETATM    9  C8  UNL     1       0.277  -1.313  -0.724  1.00  0.00     0.151 C 
HETATM   10  C9  UNL     1      -0.693  -1.579   0.427  1.00  0.00     0.039 C 
ENDROOT
BRANCH   1  11
HETATM   11  O1  UNL     1       2.572  -0.607  -0.971  1.00  0.00    -0.393 OA
ATOM     12  H1  UNL     1       2.837  -1.476  -1.250  1.00  0.00     0.210 HD
ENDBRANCH   1  11
TORSDOF 1
