REMARK  0 active torsions:
REMARK  status: ('A' for Active; 'I' for Inactive)
ROOT
HETATM    1  N1  UNL     1      -2.798   1.153   0.060  1.00  0.00    -0.404 N 
ATOM      2  H11 UNL     1      -2.828   2.160  -0.099  1.00  0.00     0.155 HD
ATOM      3  H12 UNL     1      -3.521   0.468   0.283  1.00  0.00     0.155 HD
HETATM    4  C1  UNL     1      -1.618   0.638  -0.039  1.00  0.00    -0.003 C 
HETATM    5  C2  UNL     1      -1.575  -0.828   0.192  1.00  0.00     0.053 C 
HETATM    6  C3  UNL     1      -0.373  -1.416  -0.517  1.00  0.00     0.006 C 
HETATM    7  C4  UNL     1       0.808  -1.326   0.416  1.00  0.00     0.005 C 
HETATM    8  C5  UNL     1       1.920  -0.478  -0.107  1.00  0.00     0.044 C 
HETATM    9  C6  UNL     1       1.735   0.984   0.019  1.00  0.00     0.056 C 
HETATM   10  N2  UNL     1       0.519   1.443   0.533  1.00  0.00    -0.397 N 
ATOM     11  H2  UNL     1       0.409   1.628   1.530  1.00  0.00     0.159 HD
HETATM   12  C7  UNL     1      -0.556   1.644  -0.366  1.00  0.00     0.170 C 
ENDROOT
TORSDOF 0
