REMARK  1 active torsions:
REMARK  status: ('A' for Active; 'I' for Inactive)
REMARK    1  A    between atoms: O1_1  and  C1_3 
ROOT
HETATM    1  C1  UNL     1      -1.417   0.597   0.255  1.00  0.00     0.256 C 
HETATM    2  C2  UNL     1      -1.264  -0.889  -0.067  1.00  0.00     0.060 C 
HETATM    3  C3  UNL     1       0.045  -1.329   0.536  1.00  0.00     0.005 C 
HETATM    4  C4  UNL     1       1.131  -0.989  -0.443  1.00  0.00     0.002 C 
HETATM    5  C5  UNL     1       1.735   0.360  -0.242  1.00  0.00     0.026 C 
HETATM    6  C6  UNL     1       0.755   1.403   0.228  1.00  0.00     0.171 C 
HETATM    7  O2  UNL     1      -0.465   1.330  -0.408  1.00  0.00    -0.361 OA
ENDROOT
BRANCH   1   8
HETATM    8  O1  UNL     1      -2.677   0.952  -0.273  1.00  0.00    -0.371 OA
ATOM      9  H1  UNL     1      -2.772   1.876  -0.073  1.00  0.00     0.212 HD
ENDBRANCH   1   8
TORSDOF 1
