REMARK  1 active torsions:
REMARK  status: ('A' for Active; 'I' for Inactive)
REMARK    1  A    between atoms: N1_1  and  C1_5 
ROOT
HETATM    1  C1  UNL     1       1.406   0.413   0.253  1.00  0.00     0.278 C 
HETATM    2  C2  UNL     1       0.994  -0.954  -0.312  1.00  0.00     0.054 C 
HETATM    3  C3  UNL     1      -0.200  -1.534   0.381  1.00  0.00     0.004 C 
HETATM    4  C4  UNL     1      -1.573  -1.394  -0.117  1.00  0.00     0.011 C 
HETATM    5  C5  UNL     1      -2.250  -0.000   0.108  1.00  0.00     0.081 C 
HETATM    6  C6  UNL     1      -1.208   0.931  -0.038  1.00  0.00    -0.164 C 
HETATM    7  C7  UNL     1      -0.403   2.081  -0.035  1.00  0.00     0.196 C 
HETATM    8  N2  UNL     1       0.985   1.605  -0.326  1.00  0.00    -0.387 N 
ATOM      9  H2  UNL     1       1.606   2.140  -0.933  1.00  0.00     0.156 HD
ENDROOT
BRANCH   1  10
HETATM   10  N1  UNL     1       2.892   0.480   0.166  1.00  0.00    -0.059 N 
ATOM     11  H13 UNL     1       3.358  -0.303   0.625  1.00  0.00     0.276 HD
ATOM     12  H12 UNL     1       3.249   0.308  -0.774  1.00  0.00     0.276 HD
ATOM     13  H11 UNL     1       3.166   1.388   0.541  1.00  0.00     0.276 HD
ENDBRANCH   1  10
TORSDOF 1
