REMARK  0 active torsions:
REMARK  status: ('A' for Active; 'I' for Inactive)
ROOT
HETATM    1  S1  UNL     1       1.785  -1.028   1.056  1.00  0.00    -0.091 SA
HETATM    2  C1  UNL     1       1.004  -0.550  -0.519  1.00  0.00     0.076 C 
HETATM    3  C2  UNL     1      -0.344  -1.272  -0.553  1.00  0.00     0.019 C 
HETATM    4  C3  UNL     1      -1.139  -0.647   0.601  1.00  0.00     0.020 C 
HETATM    5  C4  UNL     1      -1.424   0.773   0.130  1.00  0.00     0.113 C 
HETATM    6  N1  UNL     1      -0.203   1.495   0.133  1.00  0.00    -0.420 N 
ATOM      7  H1  UNL     1      -0.108   2.382   0.627  1.00  0.00     0.153 HD
HETATM    8  C5  UNL     1       0.875   0.925  -0.582  1.00  0.00     0.129 C 
ENDROOT
TORSDOF 0
