REMARK  0 active torsions:
REMARK  status: ('A' for Active; 'I' for Inactive)
ROOT
HETATM    1  C1  UNL     1       2.007  -0.204   1.000  1.00  0.00     0.002 C 
HETATM    2  C2  UNL     1       2.184   0.157  -0.480  1.00  0.00     0.002 C 
HETATM    3  C3  UNL     1       0.834   0.840  -0.730  1.00  0.00     0.028 C 
HETATM    4  C4  UNL     1      -0.123  -0.093  -0.050  1.00  0.00     0.048 C 
HETATM    5  C5  UNL     1       0.655  -0.910   0.943  1.00  0.00     0.028 C 
HETATM    6  C6  UNL     1      -1.193   0.686   0.657  1.00  0.00     0.045 C 
HETATM    7  C7  UNL     1      -2.456   0.127   0.062  1.00  0.00     0.132 C 
HETATM    8  N1  UNL     1      -2.104  -0.886  -0.875  1.00  0.00    -0.148 NA
HETATM    9  N2  UNL     1      -0.745  -0.915  -1.042  1.00  0.00    -0.138 NA
ENDROOT
TORSDOF 0
