REMARK  1 active torsions:
REMARK  status: ('A' for Active; 'I' for Inactive)
REMARK    1  A    between atoms: O1_1  and  C1_3 
ROOT
HETATM    1  C1  UNL     1       1.204   0.040  -0.096  1.00  0.00     0.265 C 
HETATM    2  C2  UNL     1       0.807   1.520   0.003  1.00  0.00     0.134 C 
HETATM    3  S1  UNL     1      -0.893   1.481   0.638  1.00  0.00    -0.162 SA
HETATM    4  C3  UNL     1      -1.575  -0.117   0.242  1.00  0.00     0.100 C 
HETATM    5  C4  UNL     1      -0.824  -0.900  -0.776  1.00  0.00     0.181 C 
HETATM    6  O2  UNL     1       0.453  -0.617  -1.002  1.00  0.00    -0.360 OA
ENDROOT
BRANCH   1   7
HETATM    7  O1  UNL     1       1.264  -0.542   1.167  1.00  0.00    -0.370 OA
ATOM      8  H1  UNL     1       1.510  -1.458   1.106  1.00  0.00     0.212 HD
ENDBRANCH   1   7
TORSDOF 1
