REMARK  1 active torsions:
REMARK  status: ('A' for Active; 'I' for Inactive)
REMARK    1  A    between atoms: C5_6  and  O1_7 
ROOT
HETATM    1  N1  UNL     1       3.114  -0.496   0.589  1.00  0.00    -0.195 NA
HETATM    2  C1  UNL     1       2.168  -0.097   0.027  1.00  0.00     0.091 C 
HETATM    3  C2  UNL     1       0.978   0.401  -0.673  1.00  0.00     0.231 C 
HETATM    4  C3  UNL     1       0.042  -0.799  -0.778  1.00  0.00     0.052 C 
HETATM    5  C4  UNL     1      -0.686  -0.687   0.546  1.00  0.00     0.064 C 
HETATM    6  C5  UNL     1      -0.672   0.787   0.791  1.00  0.00     0.258 C 
HETATM    7  O2  UNL     1       0.306   1.363   0.031  1.00  0.00    -0.342 OA
ENDROOT
BRANCH   6   8
HETATM    8  O1  UNL     1      -1.958   1.269   0.451  1.00  0.00    -0.371 OA
ATOM      9  H1  UNL     1      -1.949   2.206   0.607  1.00  0.00     0.212 HD
ENDBRANCH   6   8
TORSDOF 1
