REMARK  1 active torsions:
REMARK  status: ('A' for Active; 'I' for Inactive)
REMARK    1  A    between atoms: O1_1  and  C1_3 
ROOT
HETATM    1  C1  UNL     1      -1.016   0.069  -0.455  1.00  0.00     0.191 C 
HETATM    2  C2  UNL     1       0.079  -0.496   0.304  1.00  0.00     0.054 C 
HETATM    3  C3  UNL     1       1.437  -0.128  -0.105  1.00  0.00     0.089 C 
HETATM    4  S1  UNL     1       1.482   1.588  -0.656  1.00  0.00    -0.095 SA
HETATM    5  S2  UNL     1      -0.650   1.776  -0.939  1.00  0.00    -0.066 SA
ENDROOT
BRANCH   1   6
HETATM    6  O1  UNL     1      -2.160   0.163   0.373  1.00  0.00    -0.384 OA
ATOM      7  H1  UNL     1      -2.879   0.534  -0.125  1.00  0.00     0.211 HD
ENDBRANCH   1   6
TORSDOF 1
