REMARK  0 active torsions:
REMARK  status: ('A' for Active; 'I' for Inactive)
ROOT
HETATM    1  C1  UNL     1      -1.239  -0.546   0.660  1.00  0.00     0.086 C 
HETATM    2  C2  UNL     1      -1.063   0.860   0.157  1.00  0.00     0.103 C 
HETATM    3  S1  UNL     1       0.565   1.542   0.512  1.00  0.00    -0.064 SA
HETATM    4  N1  UNL     1       1.862   0.553  -0.135  1.00  0.00    -0.169 NA
HETATM    5  C3  UNL     1       1.263  -0.567  -0.843  1.00  0.00     0.196 C 
HETATM    6  S2  UNL     1       0.303  -1.497   0.411  1.00  0.00    -0.151 SA
ENDROOT
TORSDOF 0
