REMARK  0 active torsions:
REMARK  status: ('A' for Active; 'I' for Inactive)
ROOT
HETATM    1  C1  UNL     1       1.414   0.297   0.169  1.00  0.00     0.238 C 
HETATM    2  C2  UNL     1       0.816  -1.078   0.168  1.00  0.00     0.062 C 
HETATM    3  C3  UNL     1      -0.518  -1.037  -0.554  1.00  0.00     0.166 C 
HETATM    4  C4  UNL     1      -1.401  -0.076   0.255  1.00  0.00     0.099 C 
HETATM    5  C5  UNL     1      -0.705   1.216  -0.201  1.00  0.00     0.360 C 
HETATM    6  N1  UNL     1       0.514   1.332   0.575  1.00  0.00    -0.046 N 
ATOM      7  H11 UNL     1       0.931   2.260   0.510  1.00  0.00     0.280 HD
ATOM      8  H12 UNL     1       0.340   1.326   1.580  1.00  0.00     0.280 HD
HETATM    9  O1  UNL     1      -0.372   0.929  -1.490  1.00  0.00    -0.206 OA
HETATM   10  O2  UNL     1      -0.351  -0.325  -1.709  1.00  0.00    -0.233 OA
ENDROOT
TORSDOF 0
