REMARK  0 active torsions:
REMARK  status: ('A' for Active; 'I' for Inactive)
ROOT
HETATM    1  N1  UNL     1       1.632   2.287   1.739  1.00  0.00    -0.193 NA
HETATM    2  C1  UNL     1       1.261   1.436   1.059  1.00  0.00     0.115 C 
HETATM    3  C2  UNL     1       0.807   0.342   0.201  1.00  0.00     0.298 C 
HETATM    4  C3  UNL     1       2.003  -0.373  -0.264  1.00  0.00     0.115 C 
HETATM    5  N2  UNL     1       2.958  -0.939  -0.622  1.00  0.00    -0.193 NA
HETATM    6  C4  UNL     1      -0.117  -0.608   0.913  1.00  0.00     0.072 C 
HETATM    7  C5  UNL     1      -1.113  -0.933  -0.209  1.00  0.00     0.032 C 
HETATM    8  C6  UNL     1      -1.322   0.495  -0.726  1.00  0.00     0.236 C 
HETATM    9  N3  UNL     1       0.075   0.880  -0.930  1.00  0.00    -0.040 N 
ATOM     10  H31 UNL     1       0.450   0.589  -1.833  1.00  0.00     0.280 HD
ATOM     11  H32 UNL     1       0.206   1.883  -1.060  1.00  0.00     0.280 HD
ENDROOT
TORSDOF 0
