REMARK  2 active torsions:
REMARK  status: ('A' for Active; 'I' for Inactive)
REMARK    1  A    between atoms: C3_3  and  O1_4 
REMARK    2  A    between atoms: C3_3  and  C4_6 
ROOT
HETATM    1  C1  UNL     1       3.114   0.620   1.661  1.00  0.00     0.015 C 
HETATM    2  C2  UNL     1       2.413   0.051   0.856  1.00  0.00    -0.084 C 
HETATM    3  C3  UNL     1       1.560  -0.613  -0.126  1.00  0.00     0.219 C 
ENDROOT
BRANCH   3   4
HETATM    4  O1  UNL     1       2.211  -0.911  -1.297  1.00  0.00    -0.381 OA
ATOM      5  H1  UNL     1       1.656  -1.343  -1.936  1.00  0.00     0.211 HD
ENDBRANCH   3   4
BRANCH   3   6
HETATM    6  C4  UNL     1       0.347   0.265  -0.328  1.00  0.00     0.149 C 
HETATM    7  S1  UNL     1      -0.804  -0.456  -1.538  1.00  0.00    -0.149 SA
HETATM    8  C5  UNL     1      -2.403   0.061  -0.871  1.00  0.00     0.085 C 
HETATM    9  C6  UNL     1      -2.359  -0.103   0.602  1.00  0.00     0.085 C 
HETATM   10  S2  UNL     1      -0.687   0.271   1.163  1.00  0.00    -0.149 SA
ENDBRANCH   3   6
TORSDOF 2
