REMARK  3 active torsions:
REMARK  status: ('A' for Active; 'I' for Inactive)
REMARK    1  A    between atoms: C2_2  and  N2_5 
REMARK    2  A    between atoms: C4_7  and  C5_8 
REMARK    3  A    between atoms: C6_9  and  C7_10 
ROOT
HETATM    1  C1  UNL     1      -3.196  -0.346   0.249  1.00  0.00     0.048 C 
HETATM    2  C2  UNL     1      -2.381   0.283  -0.845  1.00  0.00     0.185 C 
HETATM    3  C3  UNL     1      -2.604   1.723  -0.860  1.00  0.00     0.084 C 
HETATM    4  N1  UNL     1      -2.774   2.856  -0.871  1.00  0.00    -0.195 NA
ENDROOT
BRANCH   2   5
HETATM    5  N2  UNL     1      -1.007  -0.056  -0.698  1.00  0.00    -0.376 N 
HETATM    6  C4  UNL     1      -0.183   0.477   0.124  1.00  0.00     0.150 C 
ATOM      7  H2  UNL     1      -0.645  -0.792  -1.304  1.00  0.00     0.160 HD
BRANCH   6   8
HETATM    8  C5  UNL     1       1.178   0.019   0.146  1.00  0.00    -0.054 C 
HETATM    9  C6  UNL     1       2.330  -0.359   0.178  1.00  0.00    -0.034 C 
BRANCH   9  10
HETATM   10  C7  UNL     1       3.695  -0.802   0.238  1.00  0.00     0.166 C 
HETATM   11  N3  UNL     1       4.503  -0.636  -0.918  1.00  0.00    -0.080 NA
HETATM   12  S1  UNL     1       4.345  -1.481   1.574  1.00  0.00    -0.054 SA
ENDBRANCH   9  10
ENDBRANCH   6   8
ENDBRANCH   2   5
TORSDOF 3
