REMARK  2 active torsions:
REMARK  status: ('A' for Active; 'I' for Inactive)
REMARK    1  A    between atoms: C5_5  and  O1_6 
REMARK    2  A    between atoms: C6_8  and  C7_9 
ROOT
HETATM    1  C1  UNL     1      -1.830  -1.921   0.473  1.00  0.00     0.039 C 
HETATM    2  C2  UNL     1      -1.729  -0.705  -0.459  1.00  0.00     0.118 C 
HETATM    3  C3  UNL     1      -2.316   0.495   0.152  1.00  0.00     0.034 C 
HETATM    4  C4  UNL     1      -1.415   1.614   0.484  1.00  0.00     0.037 C 
HETATM    5  C5  UNL     1      -0.038   1.528  -0.095  1.00  0.00     0.147 C 
HETATM    6  C6  UNL     1       0.400   0.094  -0.016  1.00  0.00     0.154 C 
HETATM    7  O2  UNL     1      -0.430  -0.622  -0.870  1.00  0.00    -0.378 OA
ENDROOT
BRANCH   6   8
HETATM    8  C7  UNL     1       1.808  -0.130  -0.470  1.00  0.00     0.009 C 
HETATM    9  C8  UNL     1       2.838   0.613   0.306  1.00  0.00     0.012 C 
HETATM   10  C9  UNL     1       2.064  -1.637  -0.321  1.00  0.00     0.012 C 
ENDBRANCH   6   8
BRANCH   5  11
HETATM   11  O1  UNL     1      -0.077   1.934  -1.440  1.00  0.00    -0.393 OA
ATOM     12  H1  UNL     1       0.797   1.879  -1.808  1.00  0.00     0.210 HD
ENDBRANCH   5  11
TORSDOF 2
