REMARK  1 active torsions:
REMARK  status: ('A' for Active; 'I' for Inactive)
REMARK    1  A    between atoms: C2_2  and  C3_3 
ROOT
HETATM    1  C3  UNL     1       1.072   0.315   0.464  1.00  0.00     0.176 C 
HETATM    2  S1  UNL     1       0.797   0.049   2.268  1.00  0.00    -0.066 SA
HETATM    3  S2  UNL     1      -1.346  -0.189   2.056  1.00  0.00    -0.064 SA
HETATM    4  C4  UNL     1      -1.269   0.206   0.256  1.00  0.00     0.080 C 
HETATM    5  C5  UNL     1      -1.306   1.731   0.189  1.00  0.00     0.051 C 
HETATM    6  C6  UNL     1      -2.444  -0.312  -0.455  1.00  0.00     0.051 C 
HETATM    7  N1  UNL     1      -0.012  -0.206  -0.219  1.00  0.00    -0.382 N 
HETATM    8  C7  UNL     1       0.103  -1.402  -0.926  1.00  0.00     0.146 C 
ENDROOT
BRANCH   1   9
HETATM    9  C2  UNL     1       2.304  -0.463   0.133  1.00  0.00    -0.001 C 
HETATM   10  C1  UNL     1       3.134  -0.015  -0.791  1.00  0.00     0.010 C 
ENDBRANCH   1   9
TORSDOF 1
