REMARK  1 active torsions:
REMARK  status: ('A' for Active; 'I' for Inactive)
REMARK    1  A    between atoms: C2_2  and  C3_3 
ROOT
HETATM    1  C3  UNL     1      -1.397  -0.465   0.107  1.00  0.00     0.196 C 
HETATM    2  C4  UNL     1      -1.494  -1.945  -0.275  1.00  0.00     0.082 C 
HETATM    3  O1  UNL     1      -0.922  -0.394   1.398  1.00  0.00    -0.198 OA
HETATM    4  O2  UNL     1       0.327  -0.799   1.249  1.00  0.00    -0.197 OA
HETATM    5  C5  UNL     1       0.740  -0.113   0.110  1.00  0.00     0.200 C 
HETATM    6  C6  UNL     1       1.745  -0.889  -0.702  1.00  0.00     0.071 C 
HETATM    7  C7  UNL     1       3.105  -0.321  -0.372  1.00  0.00     0.006 C 
HETATM    8  C8  UNL     1       2.833   1.107  -0.015  1.00  0.00     0.006 C 
HETATM    9  C9  UNL     1       1.450   1.145   0.553  1.00  0.00     0.071 C 
HETATM   10  O3  UNL     1      -0.420   0.179  -0.619  1.00  0.00    -0.314 OA
ENDROOT
BRANCH   1  11
HETATM   11  C2  UNL     1      -2.772   0.115  -0.069  1.00  0.00     0.066 C 
HETATM   12  C1  UNL     1      -2.863   1.570   0.263  1.00  0.00     0.010 C 
ENDBRANCH   1  11
TORSDOF 1
