REMARK  1 active torsions:
REMARK  status: ('A' for Active; 'I' for Inactive)
REMARK    1  A    between atoms: N1_4  and  C4_5 
ROOT
HETATM    1  C4  UNL     1       0.689  -0.065   0.912  1.00  0.00     0.261 C 
HETATM    2  C5  UNL     1       1.784  -0.876   0.267  1.00  0.00     0.064 C 
HETATM    3  C6  UNL     1       2.676  -0.071  -0.624  1.00  0.00     0.024 A 
HETATM    4  C7  UNL     1       4.042   0.307  -0.123  1.00  0.00     0.043 A 
HETATM    5  C8  UNL     1       2.883   1.278  -0.087  1.00  0.00     0.165 A 
HETATM    6  O1  UNL     1       2.330   1.451   1.177  1.00  0.00    -0.233 OA
HETATM    7  O2  UNL     1       1.043   1.230   1.201  1.00  0.00    -0.214 OA
ENDROOT
BRANCH   1   8
HETATM    8  N1  UNL     1      -0.529  -0.048   0.135  1.00  0.00    -0.365 N 
HETATM    9  C3  UNL     1      -1.164  -1.280  -0.058  1.00  0.00     0.060 C 
HETATM   10  C2  UNL     1      -2.645  -1.331  -0.008  1.00  0.00     0.044 C 
HETATM   11  C1  UNL     1      -3.352  -0.032  -0.193  1.00  0.00     0.007 C 
HETATM   12  C10 UNL     1      -2.424   1.041  -0.773  1.00  0.00     0.020 C 
HETATM   13  C9  UNL     1      -1.294   1.131   0.264  1.00  0.00     0.124 C 
ENDBRANCH   1   8
TORSDOF 1
