REMARK  1 active torsions:
REMARK  status: ('A' for Active; 'I' for Inactive)
REMARK    1  A    between atoms: C2_2  and  C4_4 
ROOT
HETATM    1  C4  UNL     1      -0.362  -0.656   0.711  1.00  0.00     0.180 C 
HETATM    2  S1  UNL     1      -0.185   0.184   2.317  1.00  0.00    -0.068 SA
HETATM    3  S2  UNL     1       1.815   0.921   2.413  1.00  0.00    -0.094 SA
HETATM    4  C5  UNL     1       2.412   1.196   0.711  1.00  0.00     0.105 C 
HETATM    5  C6  UNL     1       1.284   0.846  -0.280  1.00  0.00     0.129 C 
HETATM    6  N1  UNL     1       0.774  -0.446  -0.077  1.00  0.00    -0.399 N 
HETATM    7  C7  UNL     1       1.091  -1.430  -1.050  1.00  0.00     0.144 C 
ENDROOT
BRANCH   1   8
HETATM    8  C2  UNL     1      -1.673  -0.305   0.136  1.00  0.00    -0.060 C 
HETATM    9  C1  UNL     1      -2.579  -1.206  -0.166  1.00  0.00     0.017 C 
HETATM   10  C3  UNL     1      -2.000   1.125  -0.119  1.00  0.00     0.045 C 
ENDBRANCH   1   8
TORSDOF 1
