REMARK  1 active torsions:
REMARK  status: ('A' for Active; 'I' for Inactive)
REMARK    1  A    between atoms: C5_7  and  C6_8 
ROOT
HETATM    1  N1  UNL     1       3.914   0.209  -1.465  1.00  0.00    -0.194 NA
HETATM    2  C1  UNL     1       3.121   0.093  -0.623  1.00  0.00     0.096 C 
HETATM    3  C2  UNL     1       2.127  -0.064   0.456  1.00  0.00     0.186 C 
HETATM    4  C3  UNL     1       2.646   0.128   1.796  1.00  0.00     0.096 C 
HETATM    5  N2  UNL     1       3.048   0.285   2.861  1.00  0.00    -0.194 NA
HETATM    6  C4  UNL     1       0.957   0.841   0.205  1.00  0.00     0.067 C 
HETATM    7  C5  UNL     1      -0.074  -0.206   0.506  1.00  0.00     0.057 C 
HETATM    8  S1  UNL     1       1.089  -1.557   0.257  1.00  0.00    -0.124 SA
ENDROOT
BRANCH   7   9
HETATM    9  C6  UNL     1      -1.246  -0.164  -0.426  1.00  0.00    -0.001 A 
HETATM   10  C7  UNL     1      -2.381  -1.083  -0.336  1.00  0.00     0.006 A 
HETATM   11  C8  UNL     1      -2.594   0.298   0.154  1.00  0.00     0.006 A 
ENDBRANCH   7   9
TORSDOF 1
