REMARK  2 active torsions:
REMARK  status: ('A' for Active; 'I' for Inactive)
REMARK    1  A    between atoms: S1_3  and  C2_4 
REMARK    2  A    between atoms: C6_8  and  C7_9 
ROOT
HETATM    1  N1  UNL     1       4.137   0.829   0.794  1.00  0.00    -0.184 NA
HETATM    2  C1  UNL     1       3.411  -0.056   0.737  1.00  0.00     0.134 C 
HETATM    3  S1  UNL     1       2.304  -1.405   0.800  1.00  0.00    -0.045 SA
ENDROOT
BRANCH   3   4
HETATM    4  C2  UNL     1       0.618  -0.994   0.391  1.00  0.00     0.068 C 
HETATM    5  C3  UNL     1       0.332  -1.059  -1.106  1.00  0.00     0.021 C 
HETATM    6  C4  UNL     1      -0.345   0.255  -1.370  1.00  0.00    -0.012 C 
HETATM    7  C5  UNL     1      -1.675   0.231  -0.674  1.00  0.00     0.024 C 
HETATM    8  C9  UNL     1       0.458   1.169  -0.446  1.00  0.00     0.012 C 
HETATM    9  C6  UNL     1      -1.341   0.466   0.796  1.00  0.00     0.098 C 
HETATM   10  C8  UNL     1       0.169   0.363   0.822  1.00  0.00     0.018 C 
BRANCH   9  11
HETATM   11  C7  UNL     1      -2.002  -0.493   1.647  1.00  0.00     0.064 C 
HETATM   12  N2  UNL     1      -2.590  -1.050   2.455  1.00  0.00    -0.197 NA
ENDBRANCH   9  11
ENDBRANCH   3   4
TORSDOF 2
