REMARK  3 active torsions:
REMARK  status: ('A' for Active; 'I' for Inactive)
REMARK    1  A    between atoms: C2_2  and  O2_4 
REMARK    2  A    between atoms: O2_4  and  C3_5 
REMARK    3  A    between atoms: C3_5  and  C4_7 
ROOT
HETATM    1  C4  UNL     1      -0.557  -0.687   0.836  1.00  0.00     0.086 C 
HETATM    2  C5  UNL     1      -0.979  -0.896  -0.600  1.00  0.00     0.014 C 
HETATM    3  C6  UNL     1      -2.311  -0.314  -0.898  1.00  0.00     0.001 C 
HETATM    4  C7  UNL     1      -2.522   1.075  -0.391  1.00  0.00     0.000 C 
HETATM    5  C8  UNL     1      -2.241   1.043   1.119  1.00  0.00     0.001 C 
HETATM    6  C9  UNL     1      -0.756   0.778   1.250  1.00  0.00     0.014 C 
ENDROOT
BRANCH   1   7
HETATM    7  C3  UNL     1       0.889  -0.953   1.022  1.00  0.00     0.270 C 
HETATM    8  O3  UNL     1       1.214  -1.859   1.828  1.00  0.00    -0.264 OA
BRANCH   7   9
HETATM    9  O2  UNL     1       1.882  -0.264   0.363  1.00  0.00    -0.245 OA
BRANCH   9  10
HETATM   10  C2  UNL     1       3.237  -0.497   0.523  1.00  0.00     0.262 C 
HETATM   11  C1  UNL     1       4.280   0.271  -0.209  1.00  0.00     0.126 C 
HETATM   12  O1  UNL     1       3.592  -1.392   1.317  1.00  0.00    -0.265 OA
ENDBRANCH   9  10
ENDBRANCH   7   9
ENDBRANCH   1   7
TORSDOF 3
