REMARK  2 active torsions:
REMARK  status: ('A' for Active; 'I' for Inactive)
REMARK    1  A    between atoms: O1_2  and  C2_3 
REMARK    2  A    between atoms: C2_3  and  C3_5 
ROOT
HETATM    1  C3  UNL     1      -0.233   0.145   0.565  1.00  0.00     0.126 C 
HETATM    2  C4  UNL     1      -1.231   1.147   0.049  1.00  0.00     0.023 C 
HETATM    3  C5  UNL     1      -0.893   2.562   0.322  1.00  0.00     0.012 C 
HETATM    4  C6  UNL     1      -1.305   0.791  -1.415  1.00  0.00     0.238 C 
HETATM    5  N1  UNL     1      -1.149  -0.627  -1.473  1.00  0.00    -0.066 N 
ATOM      6  H11 UNL     1      -0.599  -0.925  -2.278  1.00  0.00     0.278 HD
ATOM      7  H12 UNL     1      -2.018  -1.105  -1.710  1.00  0.00     0.278 HD
HETATM    8  C7  UNL     1      -0.594  -1.085  -0.230  1.00  0.00     0.131 C 
HETATM    9  C8  UNL     1       0.575  -1.980  -0.499  1.00  0.00     0.046 C 
HETATM   10  C9  UNL     1      -1.682  -1.815   0.527  1.00  0.00     0.046 C 
ENDROOT
BRANCH   1  11
HETATM   11  C2  UNL     1       1.159   0.563   0.399  1.00  0.00     0.265 C 
HETATM   12  O2  UNL     1       1.533   1.642  -0.125  1.00  0.00    -0.265 OA
BRANCH  11  13
HETATM   13  O1  UNL     1       2.152  -0.295   0.852  1.00  0.00    -0.326 OA
HETATM   14  C1  UNL     1       3.533   0.064   0.714  1.00  0.00     0.213 C 
ENDBRANCH  11  13
ENDBRANCH   1  11
TORSDOF 2
