REMARK  1 active torsions:
REMARK  status: ('A' for Active; 'I' for Inactive)
REMARK    1  A    between atoms: C5_7  and  C6_8 
ROOT
HETATM    1  N1  UNL     1      -2.157   0.130  -3.076  1.00  0.00    -0.172 NA
HETATM    2  C1  UNL     1      -1.964   0.127  -1.929  1.00  0.00     0.180 C 
HETATM    3  N2  UNL     1      -1.717   0.123  -0.555  1.00  0.00    -0.314 N 
HETATM    4  C2  UNL     1      -2.376   0.986   0.406  1.00  0.00     0.135 C 
HETATM    5  C3  UNL     1      -2.301   0.128   1.667  1.00  0.00     0.023 C 
HETATM    6  C4  UNL     1      -0.824  -0.261   1.593  1.00  0.00     0.029 C 
HETATM    7  C5  UNL     1      -0.780  -0.718   0.168  1.00  0.00     0.109 C 
ENDROOT
BRANCH   7   8
HETATM    8  C6  UNL     1       0.564  -0.771  -0.452  1.00  0.00     0.071 C 
HETATM    9  C7  UNL     1       1.318   0.468  -0.604  1.00  0.00     0.018 C 
HETATM   10  C8  UNL     1       2.503   0.540   0.279  1.00  0.00     0.011 C 
HETATM   11  C9  UNL     1       3.079  -0.802   0.536  1.00  0.00     0.074 C 
HETATM   12  S1  UNL     1       1.628  -1.882   0.513  1.00  0.00    -0.162 SA
ENDBRANCH   7   8
TORSDOF 1
