REMARK  1 active torsions:
REMARK  status: ('A' for Active; 'I' for Inactive)
REMARK    1  A    between atoms: C2_2  and  N1_3 
ROOT
HETATM    1  N1  UNL     1      -0.911  -0.453   0.149  1.00  0.00    -0.363 N 
HETATM    2  C3  UNL     1      -0.439  -1.538   1.000  1.00  0.00     0.200 C 
HETATM    3  S1  UNL     1       1.360  -1.585   0.857  1.00  0.00    -0.119 SA
HETATM    4  C4  UNL     1       2.016  -0.059   0.152  1.00  0.00     0.074 C 
HETATM    5  C5  UNL     1       3.059   0.543   1.102  1.00  0.00     0.050 C 
HETATM    6  C6  UNL     1       2.770  -0.334  -1.130  1.00  0.00     0.050 C 
HETATM    7  N2  UNL     1       1.041   0.947  -0.049  1.00  0.00    -0.362 N 
ATOM      8  H2  UNL     1       1.377   1.897  -0.206  1.00  0.00     0.162 HD
HETATM    9  C7  UNL     1      -0.223   0.766  -0.050  1.00  0.00     0.072 C 
HETATM   10  C8  UNL     1      -1.069   2.005  -0.267  1.00  0.00     0.088 C 
ENDROOT
BRANCH   1  11
HETATM   11  C2  UNL     1      -2.191  -0.661  -0.492  1.00  0.00     0.120 C 
HETATM   12  C1  UNL     1      -3.326  -0.552   0.512  1.00  0.00     0.026 C 
ENDBRANCH   1  11
TORSDOF 1
