REMARK  2 active torsions:
REMARK  status: ('A' for Active; 'I' for Inactive)
REMARK    1  A    between atoms: C2_2  and  O1_4 
REMARK    2  A    between atoms: O1_4  and  C4_5 
ROOT
HETATM    1  C4  UNL     1       0.472   0.004   0.020  1.00  0.00     0.217 C 
HETATM    2  N1  UNL     1       0.232  -1.180   0.459  1.00  0.00    -0.356 N 
ATOM      3  H1  UNL     1       0.940  -1.913   0.428  1.00  0.00     0.163 HD
HETATM    4  C5  UNL     1      -1.090  -1.427   1.000  1.00  0.00     0.129 C 
HETATM    5  C6  UNL     1      -2.166  -0.860   0.098  1.00  0.00     0.022 C 
HETATM    6  C7  UNL     1      -3.500  -1.073   0.807  1.00  0.00     0.014 C 
HETATM    7  C8  UNL     1      -1.934   0.604  -0.129  1.00  0.00     0.088 C 
HETATM    8  C9  UNL     1      -2.283   1.027  -1.542  1.00  0.00     0.033 C 
HETATM    9  N2  UNL     1      -0.562   0.969   0.097  1.00  0.00    -0.347 N 
HETATM   10  C10 UNL     1      -0.184   2.360   0.409  1.00  0.00     0.153 C 
ENDROOT
BRANCH   1  11
HETATM   11  O1  UNL     1       1.724   0.315  -0.515  1.00  0.00    -0.318 OA
BRANCH  11  12
HETATM   12  C2  UNL     1       2.792  -0.598  -0.500  1.00  0.00     0.123 C 
HETATM   13  C1  UNL     1       3.974   0.100  -1.167  1.00  0.00     0.040 C 
HETATM   14  C3  UNL     1       3.207  -0.965   0.907  1.00  0.00     0.040 C 
ENDBRANCH  11  12
ENDBRANCH   1  11
TORSDOF 2
