REMARK  2 active torsions:
REMARK  status: ('A' for Active; 'I' for Inactive)
REMARK    1  A    between atoms: N2_6  and  O1_8 
REMARK    2  A    between atoms: O1_8  and  C5_9 
ROOT
HETATM    1  C1  UNL     1       4.557   0.267   0.182  1.00  0.00     0.148 C 
HETATM    2  N1  UNL     1       3.168   0.022   0.210  1.00  0.00    -0.397 N 
HETATM    3  C2  UNL     1       2.708  -1.178   0.741  1.00  0.00     0.063 C 
HETATM    4  C3  UNL     1       1.280  -1.036   1.229  1.00  0.00     0.099 C 
HETATM    5  C4  UNL     1       0.474  -0.513   0.113  1.00  0.00     0.016 C 
HETATM    6  N2  UNL     1      -0.753  -0.840   0.021  1.00  0.00    -0.274 N 
ATOM      7  H2  UNL     1      -1.141  -1.460   0.732  1.00  0.00     0.193 HD
HETATM    8  C9  UNL     1       1.089   0.380  -0.884  1.00  0.00     0.074 C 
HETATM    9  C10 UNL     1       2.290   1.030  -0.181  1.00  0.00     0.127 C 
ENDROOT
BRANCH   6  10
HETATM   10  O1  UNL     1      -1.579  -0.406  -0.977  1.00  0.00    -0.271 OA
BRANCH  10  11
HETATM   11  C5  UNL     1      -2.875   0.053  -0.584  1.00  0.00     0.078 C 
HETATM   12  C6  UNL     1      -2.642   1.214   0.358  1.00  0.00     0.048 C 
HETATM   13  C7  UNL     1      -3.599   0.459  -1.830  1.00  0.00     0.048 C 
HETATM   14  C8  UNL     1      -3.584  -1.036   0.187  1.00  0.00     0.048 C 
ENDBRANCH  10  11
ENDBRANCH   6  10
TORSDOF 2
