REMARK  1 active torsions:
REMARK  status: ('A' for Active; 'I' for Inactive)
REMARK    1  A    between atoms: N1_4  and  C4_5 
ROOT
HETATM    1  C1  UNL     1       2.791   0.070  -0.696  1.00  0.00     0.007 C 
HETATM    2  C2  UNL     1       2.140   0.874   0.399  1.00  0.00     0.044 C 
HETATM    3  C3  UNL     1       0.628   0.850   0.308  1.00  0.00     0.058 C 
HETATM    4  N1  UNL     1       0.055  -0.401   0.167  1.00  0.00    -0.388 N 
HETATM    5  C8  UNL     1       0.918  -1.402  -0.361  1.00  0.00     0.122 C 
HETATM    6  C9  UNL     1       1.751  -0.758  -1.449  1.00  0.00     0.020 C 
ENDROOT
BRANCH   4   7
HETATM    7  C4  UNL     1      -1.307  -0.633   0.145  1.00  0.00     0.093 C 
HETATM    8  C5  UNL     1      -2.129  -0.307   1.327  1.00  0.00     0.036 C 
HETATM    9  C6  UNL     1      -2.525   1.109   1.376  1.00  0.00     0.076 C 
HETATM   10  S1  UNL     1      -2.535   1.577  -0.398  1.00  0.00    -0.167 SA
HETATM   11  C7  UNL     1      -1.945  -0.013  -1.087  1.00  0.00     0.099 C 
ENDBRANCH   4   7
TORSDOF 1
