REMARK  1 active torsions:
REMARK  status: ('A' for Active; 'I' for Inactive)
REMARK    1  A    between atoms: C3_3  and  N1_4 
ROOT
HETATM    1  C1  UNL     1      -0.160   2.000  -1.192  1.00  0.00     0.052 C 
HETATM    2  C2  UNL     1      -0.396   0.760  -0.440  1.00  0.00    -0.010 A 
HETATM    3  C3  UNL     1       0.578  -0.083   0.055  1.00  0.00     0.075 A 
HETATM    4  C6  UNL     1      -0.100  -1.126   0.696  1.00  0.00     0.143 A 
HETATM    5  C7  UNL     1       0.577  -2.213   1.344  1.00  0.00     0.120 C 
HETATM    6  N2  UNL     1       1.122  -3.091   1.871  1.00  0.00    -0.190 NA
HETATM    7  N3  UNL     1      -1.424  -0.918   0.590  1.00  0.00    -0.344 N 
HETATM    8  C8  UNL     1      -2.425  -1.806   1.142  1.00  0.00     0.157 C 
HETATM    9  C9  UNL     1      -1.631   0.220  -0.095  1.00  0.00     0.016 A 
HETATM   10  C10 UNL     1      -2.929   0.841  -0.451  1.00  0.00     0.069 C 
ENDROOT
BRANCH   3  11
HETATM   11  N1  UNL     1       1.984   0.088  -0.068  1.00  0.00    -0.387 N 
HETATM   12  C4  UNL     1       2.674  -0.484  -1.220  1.00  0.00     0.149 C 
HETATM   13  C5  UNL     1       2.763   0.811   0.907  1.00  0.00     0.149 C 
ENDBRANCH   3  11
TORSDOF 1
