REMARK  1 active torsions:
REMARK  status: ('A' for Active; 'I' for Inactive)
REMARK    1  A    between atoms: O1_1  and  C1_3 
ROOT
HETATM    1  C1  UNL     1       1.545  -0.328   0.700  1.00  0.00     0.158 C 
HETATM    2  C2  UNL     1       1.706   0.997  -0.071  1.00  0.00     0.152 C 
HETATM    3  C3  UNL     1       1.055   0.205  -1.221  1.00  0.00     0.049 C 
HETATM    4  C4  UNL     1       0.299  -0.369  -0.051  1.00  0.00     0.017 C 
HETATM    5  C5  UNL     1      -0.699  -1.331  -0.150  1.00  0.00     0.015 C 
HETATM    6  C6  UNL     1      -2.007  -0.531  -0.308  1.00  0.00     0.004 C 
HETATM    7  C7  UNL     1      -1.561   0.942  -0.351  1.00  0.00     0.033 C 
HETATM    8  C8  UNL     1      -0.374   0.898   0.514  1.00  0.00     0.133 C 
HETATM    9  O2  UNL     1       0.637   1.793   0.285  1.00  0.00    -0.377 OA
ENDROOT
BRANCH   1  10
HETATM   10  O1  UNL     1       1.420  -0.143   2.069  1.00  0.00    -0.392 OA
ATOM     11  H1  UNL     1       1.321  -0.960   2.544  1.00  0.00     0.210 HD
ENDBRANCH   1  10
TORSDOF 1
