REMARK  2 active torsions:
REMARK  status: ('A' for Active; 'I' for Inactive)
REMARK    1  A    between atoms: C3_3  and  C4_4 
REMARK    2  A    between atoms: C4_4  and  O1_5 
ROOT
HETATM    1  C1  UNL     1       3.347  -0.420  -0.189  1.00  0.00     0.112 C 
HETATM    2  C2  UNL     1       1.915  -0.342   0.131  1.00  0.00    -0.108 C 
HETATM    3  C3  UNL     1       0.746  -0.275   0.414  1.00  0.00    -0.068 C 
ENDROOT
BRANCH   3   4
HETATM    4  C4  UNL     1      -0.687  -0.195   0.787  1.00  0.00     0.130 C 
HETATM    5  C5  UNL     1      -1.269   1.131   0.603  1.00  0.00     0.062 C 
HETATM    6  C6  UNL     1      -1.748   1.333  -0.796  1.00  0.00     0.078 C 
HETATM    7  S1  UNL     1      -2.048  -0.358  -1.420  1.00  0.00    -0.165 SA
HETATM    8  C7  UNL     1      -1.410  -1.247   0.053  1.00  0.00     0.125 C 
BRANCH   4   9
HETATM    9  O1  UNL     1      -0.737  -0.520   2.165  1.00  0.00    -0.377 OA
ATOM     10  H1  UNL     1      -1.655  -0.469   2.404  1.00  0.00     0.211 HD
ENDBRANCH   4   9
ENDBRANCH   3   4
TORSDOF 2
