REMARK  1 active torsions:
REMARK  status: ('A' for Active; 'I' for Inactive)
REMARK    1  A    between atoms: O1_1  and  C1_3 
ROOT
HETATM    1  C1  UNL     1       0.224  -0.850   0.235  1.00  0.00     0.258 C 
HETATM    2  C2  UNL     1      -0.878  -1.013  -0.779  1.00  0.00     0.071 C 
HETATM    3  C3  UNL     1      -2.140  -0.420  -0.141  1.00  0.00     0.007 C 
HETATM    4  C4  UNL     1      -1.860   1.078  -0.028  1.00  0.00     0.030 C 
HETATM    5  C5  UNL     1      -0.735   1.256   0.934  1.00  0.00     0.276 C 
HETATM    6  N1  UNL     1       0.401   0.455   0.727  1.00  0.00     0.123 N 
HETATM    7  C6  UNL     1       1.438   1.119  -0.017  1.00  0.00     0.276 C 
HETATM    8  C7  UNL     1       2.295   0.053  -0.644  1.00  0.00     0.035 C 
HETATM    9  C8  UNL     1       1.566  -1.234  -0.380  1.00  0.00     0.073 C 
ENDROOT
BRANCH   1  10
HETATM   10  O1  UNL     1      -0.013  -1.793   1.248  1.00  0.00    -0.363 OA
ATOM     11  H1  UNL     1       0.682  -1.690   1.887  1.00  0.00     0.212 HD
ENDBRANCH   1  10
TORSDOF 1
