REMARK  1 active torsions:
REMARK  status: ('A' for Active; 'I' for Inactive)
REMARK    1  A    between atoms: O1_1  and  C1_3 
ROOT
HETATM    1  C1  UNL     1       1.256   0.482  -0.636  1.00  0.00     0.126 C 
HETATM    2  C2  UNL     1       1.174  -0.903  -0.062  1.00  0.00     0.064 C 
HETATM    3  C3  UNL     1       0.211  -1.069   1.042  1.00  0.00     0.123 C 
HETATM    4  C4  UNL     1      -1.154  -1.394   0.442  1.00  0.00     0.032 C 
HETATM    5  C5  UNL     1      -1.471  -0.526  -0.719  1.00  0.00     0.003 C 
HETATM    6  C6  UNL     1      -1.215   0.926  -0.523  1.00  0.00     0.009 C 
HETATM    7  C7  UNL     1       0.136   1.291  -0.057  1.00  0.00     0.038 C 
HETATM    8  C8  UNL     1       0.261   1.212   1.450  1.00  0.00     0.175 C 
HETATM    9  O2  UNL     1       0.105  -0.055   1.939  1.00  0.00    -0.385 OA
ENDROOT
BRANCH   1  10
HETATM   10  O1  UNL     1       1.345   0.525  -2.003  1.00  0.00    -0.395 OA
ATOM     11  H1  UNL     1       1.397   1.401  -2.366  1.00  0.00     0.210 HD
ENDBRANCH   1  10
TORSDOF 1
