REMARK  10 active torsions:
REMARK  status: ('A' for Active; 'I' for Inactive)
REMARK    1  A    between atoms: C2_3  and  C3_4 
REMARK    2  A    between atoms: C3_4  and  N2_5 
REMARK    3  A    between atoms: C3_4  and  O1_9 
REMARK    4  A    between atoms: C3_4  and  C4_11 
REMARK    5  A    between atoms: C4_11  and  O2_12 
REMARK    6  A    between atoms: C4_11  and  O3_14 
REMARK    7  A    between atoms: C9_28  and  O5_29 
REMARK    8  A    between atoms: C10_31  and  C11_32 
REMARK    9  A    between atoms: C11_32  and  O6_33 
REMARK   10  A    between atoms: C11_32  and  O7_35 
ROOT
HETATM    1  C1  UNL     1       0.170  -0.530   1.693  1.00  0.00     0.156 C 
HETATM    2  N1  UNL     1       0.062   0.159   0.479  1.00  0.00    -0.345 N 
HETATM    3  C2  UNL     1      -1.213   0.539   0.153  1.00  0.00     0.126 C 
HETATM    4  C5  UNL     1      -1.425   1.789  -0.466  1.00  0.00     0.160 A 
HETATM    5  N3  UNL     1      -2.638   2.400  -0.321  1.00  0.00    -0.334 N 
ATOM      6  H3  UNL     1      -3.439   2.048   0.203  1.00  0.00     0.168 HD
HETATM    7  C6  UNL     1      -2.570   3.556  -1.003  1.00  0.00     0.199 A 
HETATM    8  N4  UNL     1      -1.325   3.647  -1.558  1.00  0.00    -0.285 N 
ATOM      9  H4  UNL     1      -0.983   4.418  -2.132  1.00  0.00     0.188 HD
HETATM   10  N5  UNL     1      -0.643   2.576  -1.228  1.00  0.00    -0.199 N 
HETATM   11  C7  UNL     1       0.601   2.332  -1.608  1.00  0.00     0.297 C 
HETATM   12  O4  UNL     1       1.151   3.104  -2.449  1.00  0.00    -0.264 OA
HETATM   13  C8  UNL     1       1.429   1.306  -1.202  1.00  0.00     0.133 A 
HETATM   14  N6  UNL     1       2.646   1.069  -1.705  1.00  0.00    -0.330 N 
ATOM     15  H6  UNL     1       3.084   1.606  -2.453  1.00  0.00     0.168 HD
HETATM   16  C9  UNL     1       3.199   0.035  -1.089  1.00  0.00     0.154 A 
HETATM   17  C10 UNL     1       2.320  -0.486  -0.091  1.00  0.00     0.076 A 
HETATM   18  C12 UNL     1       1.232   0.335  -0.206  1.00  0.00     0.083 A 
ENDROOT
BRANCH   3  19
HETATM   19  C3  UNL     1      -2.327  -0.313   0.452  1.00  0.00     0.318 C 
BRANCH  19  20
HETATM   20  N2  UNL     1      -3.356   0.174   1.360  1.00  0.00    -0.036 N 
ATOM     21  H23 UNL     1      -2.916   0.461   2.234  1.00  0.00     0.278 HD
ATOM     22  H22 UNL     1      -3.707   1.067   1.013  1.00  0.00     0.278 HD
ATOM     23  H21 UNL     1      -4.148  -0.432   1.573  1.00  0.00     0.278 HD
ENDBRANCH  19  20
BRANCH  19  24
HETATM   24  O1  UNL     1      -3.174   0.054  -0.739  1.00  0.00    -0.356 OA
ATOM     25  H1  UNL     1      -3.912  -0.510  -0.541  1.00  0.00     0.213 HD
ENDBRANCH  19  24
BRANCH  19  26
HETATM   26  C4  UNL     1      -2.340  -1.771   0.204  1.00  0.00     0.324 C 
BRANCH  26  27
HETATM   27  O2  UNL     1      -2.253  -2.609   1.310  1.00  0.00    -0.367 OA
ATOM     28  H2  UNL     1      -2.261  -3.546   1.151  1.00  0.00     0.212 HD
ENDBRANCH  26  27
BRANCH  26  29
HETATM   29  O3  UNL     1      -1.425  -2.133  -0.797  1.00  0.00    -0.367 OA
ATOM     30  H3  UNL     1      -1.433  -3.070  -0.956  1.00  0.00     0.212 HD
ENDBRANCH  26  29
ENDBRANCH  19  26
ENDBRANCH   3  19
BRANCH  17  31
HETATM   31  C11 UNL     1       2.564  -1.635   0.712  1.00  0.00     0.295 C 
BRANCH  31  32
HETATM   32  O6  UNL     1       2.796  -1.500   2.092  1.00  0.00    -0.367 OA
ATOM     33  H6  UNL     1       2.959  -2.267   2.628  1.00  0.00     0.213 HD
ENDBRANCH  31  32
BRANCH  31  34
HETATM   34  O7  UNL     1       3.797  -2.168   0.335  1.00  0.00    -0.367 OA
ATOM     35  H7  UNL     1       3.960  -2.935   0.871  1.00  0.00     0.213 HD
ENDBRANCH  31  34
ENDBRANCH  17  31
BRANCH  16  36
HETATM   36  O5  UNL     1       4.447  -0.513  -1.329  1.00  0.00    -0.345 OA
ATOM     37  H5  UNL     1       4.844  -1.255  -0.887  1.00  0.00     0.219 HD
ENDBRANCH  16  36
TORSDOF 10
