REMARK  10 active torsions:
REMARK  status: ('A' for Active; 'I' for Inactive)
REMARK    1  A    between atoms: N1_1  and  N2_4 
REMARK       I    between atoms: N2_4  and  C1_6 
REMARK    2  A    between atoms: C1_6  and  C2_8 
REMARK    3  A    between atoms: C2_8  and  O3_10 
REMARK    4  A    between atoms: O3_10  and  C3_11 
REMARK    5  A    between atoms: C5_15  and  C6_16 
REMARK    6  A    between atoms: C7_19  and  C8_20 
REMARK    7  A    between atoms: C8_20  and  O5_21 
REMARK    8  A    between atoms: C8_20  and  O6_23 
REMARK    9  A    between atoms: C9_28  and  O7_29 
REMARK   10  A    between atoms: C10_31  and  O8_32 
ROOT
HETATM    1  C3  UNL     1       0.624  -0.742   1.092  1.00  0.00     0.234 C 
HETATM    2  C4  UNL     1      -0.582  -0.152   0.447  1.00  0.00     0.136 A 
HETATM    3  N3  UNL     1      -0.910   1.129   0.372  1.00  0.00    -0.336 N 
ATOM      4  H3  UNL     1      -0.356   1.893   0.758  1.00  0.00     0.167 HD
HETATM    5  C5  UNL     1      -2.101   1.287  -0.299  1.00  0.00     0.129 A 
HETATM    6  C7  UNL     1      -2.504   0.042  -0.642  1.00  0.00     0.121 A 
HETATM    7  N5  UNL     1      -1.544  -0.824  -0.165  1.00  0.00    -0.240 N 
HETATM    8  N6  UNL     1      -1.448  -2.215  -0.231  1.00  0.00    -0.297 N 
ATOM      9  H6  UNL     1      -2.278  -2.795  -0.355  1.00  0.00     0.183 HD
HETATM   10  C9  UNL     1      -0.129  -2.808  -0.117  1.00  0.00     0.265 C 
HETATM   11  C10 UNL     1       0.671  -2.216   1.001  1.00  0.00     0.205 C 
ENDROOT
BRANCH   1  12
HETATM   12  O3  UNL     1       1.755  -0.134   0.477  1.00  0.00    -0.298 OA
BRANCH  12  13
HETATM   13  C2  UNL     1       2.665   0.639   1.185  1.00  0.00     0.354 C 
HETATM   14  O2  UNL     1       2.435   0.778   2.420  1.00  0.00    -0.254 OA
BRANCH  13  15
HETATM   15  C1  UNL     1       3.823   1.261   0.555  1.00  0.00     0.334 C 
HETATM   16  N2  UNL     1       4.715   2.034   1.311  1.00  0.00    -0.268 N 
ATOM     17  H2  UNL     1       4.559   2.166   2.310  1.00  0.00     0.190 HD
HETATM   18  O1  UNL     1       4.000   1.089  -0.677  1.00  0.00    -0.260 OA
BRANCH  16  19
HETATM   19  N1  UNL     1       5.826   2.626   0.684  1.00  0.00    -0.342 N 
ATOM     20  H12 UNL     1       5.967   2.484  -0.316  1.00  0.00     0.176 HD
ATOM     21  H11 UNL     1       6.475   3.189   1.234  1.00  0.00     0.176 HD
ENDBRANCH  16  19
ENDBRANCH  13  15
ENDBRANCH  12  13
ENDBRANCH   1  12
BRANCH  11  22
HETATM   22  O8  UNL     1       2.004  -2.634   0.840  1.00  0.00    -0.388 OA
ATOM     23  H8  UNL     1       2.034  -3.582   0.781  1.00  0.00     0.210 HD
ENDBRANCH  11  22
BRANCH  10  24
HETATM   24  O7  UNL     1      -0.297  -4.164   0.101  1.00  0.00    -0.373 OA
ATOM     25  H7  UNL     1       0.567  -4.552   0.176  1.00  0.00     0.212 HD
ENDBRANCH  10  24
BRANCH   5  26
HETATM   26  C6  UNL     1      -2.715   2.593  -0.522  1.00  0.00     0.283 C 
HETATM   27  N4  UNL     1      -1.919   3.745  -0.153  1.00  0.00    -0.056 NA
HETATM   28  O4  UNL     1      -3.847   2.744  -0.996  1.00  0.00    -0.269 OA
ENDBRANCH   5  26
BRANCH   6  29
HETATM   29  C8  UNL     1      -3.664  -0.452  -1.401  1.00  0.00     0.309 C 
BRANCH  29  30
HETATM   30  O5  UNL     1      -3.178  -1.495  -2.254  1.00  0.00    -0.366 OA
ATOM     31  H5  UNL     1      -3.927  -1.814  -2.744  1.00  0.00     0.213 HD
ENDBRANCH  29  30
BRANCH  29  32
HETATM   32  O6  UNL     1      -4.217   0.494  -2.244  1.00  0.00    -0.366 OA
ATOM     33  H6  UNL     1      -4.966   0.175  -2.734  1.00  0.00     0.213 HD
ENDBRANCH  29  32
ENDBRANCH   6  29
TORSDOF 10
