REMARK  9 active torsions:
REMARK  status: ('A' for Active; 'I' for Inactive)
REMARK    1  A    between atoms: N1_1  and  C1_4 
REMARK    2  A    between atoms: N4_12  and  C5_13 
REMARK    3  A    between atoms: C5_13  and  C6_14 
REMARK    4  A    between atoms: C7_18  and  C8_19 
REMARK    5  A    between atoms: C8_19  and  N5_20 
REMARK    6  A    between atoms: C8_19  and  C9_24 
REMARK    7  A    between atoms: C9_24  and  O4_25 
REMARK    8  A    between atoms: C10_27  and  O5_28 
REMARK    9  A    between atoms: N6_32  and  N7_33 
ROOT
HETATM    1  C1  UNL     1       3.612   0.962   0.960  1.00  0.00     0.701 A 
HETATM    2  N2  UNL     1       2.345   0.507   0.951  1.00  0.00    -0.172 N 
ATOM      3  H2  UNL     1       1.729   0.684   1.745  1.00  0.00     0.186 HD
HETATM    4  C2  UNL     1       1.892  -0.192  -0.128  1.00  0.00     0.160 A 
HETATM    5  C3  UNL     1       2.746  -0.414  -1.183  1.00  0.00     0.149 A 
HETATM    6  N3  UNL     1       2.096  -1.113  -2.121  1.00  0.00    -0.344 N 
ATOM      7  H3  UNL     1       2.468  -1.427  -3.017  1.00  0.00     0.167 HD
HETATM    8  C4  UNL     1       0.869  -1.316  -1.652  1.00  0.00     0.189 A 
HETATM    9  N4  UNL     1       0.728  -0.764  -0.444  1.00  0.00    -0.282 N 
HETATM   10  C11 UNL     1       4.038   0.060  -1.154  1.00  0.00     0.312 A 
HETATM   11  O6  UNL     1       4.802  -0.153  -2.129  1.00  0.00    -0.263 OA
HETATM   12  N6  UNL     1       4.462   0.753  -0.066  1.00  0.00    -0.052 N 
ENDROOT
BRANCH   9  13
HETATM   13  C5  UNL     1      -0.480  -0.807   0.332  1.00  0.00     0.262 C 
HETATM   14  O3  UNL     1      -0.913   0.367   0.880  1.00  0.00    -0.339 OA
HETATM   15  C7  UNL     1      -2.221  -0.018   0.611  1.00  0.00     0.192 C 
HETATM   16  C10 UNL     1      -1.692  -0.805  -0.566  1.00  0.00     0.217 C 
BRANCH  13  17
HETATM   17  C6  UNL     1      -0.541  -1.916   1.325  1.00  0.00     0.235 C 
HETATM   18  O1  UNL     1      -0.928  -1.789   2.513  1.00  0.00    -0.644 OA
HETATM   19  O2  UNL     1      -0.144  -3.167   0.902  1.00  0.00    -0.644 OA
ENDBRANCH  13  17
BRANCH  15  20
HETATM   20  C8  UNL     1      -3.124   1.102   0.147  1.00  0.00     0.238 C 
BRANCH  20  21
HETATM   21  N5  UNL     1      -3.246   2.162   1.106  1.00  0.00    -0.070 N 
ATOM     22  H53 UNL     1      -3.551   1.801   2.010  1.00  0.00     0.274 HD
ATOM     23  H52 UNL     1      -2.328   2.521   1.370  1.00  0.00     0.274 HD
ATOM     24  H51 UNL     1      -3.855   2.918   0.793  1.00  0.00     0.274 HD
ENDBRANCH  20  21
BRANCH  20  25
HETATM   25  C9  UNL     1      -4.488   0.543  -0.169  1.00  0.00     0.199 C 
BRANCH  25  26
HETATM   26  O4  UNL     1      -4.404  -0.492  -1.100  1.00  0.00    -0.399 OA
ATOM     27  H4  UNL     1      -5.264  -0.844  -1.299  1.00  0.00     0.209 HD
ENDBRANCH  25  26
ENDBRANCH  20  25
ENDBRANCH  15  20
BRANCH  16  28
HETATM   28  O5  UNL     1      -1.615   0.010  -1.674  1.00  0.00    -0.387 OA
ATOM     29  H5  UNL     1      -2.378   0.011  -2.240  1.00  0.00     0.210 HD
ENDBRANCH  16  28
ENDBRANCH   9  13
BRANCH   1  30
HETATM   30  N1  UNL     1       4.036   1.628   1.993  1.00  0.00    -0.233 N 
ATOM     31  H12 UNL     1       3.393   1.786   2.769  1.00  0.00     0.174 HD
ATOM     32  H11 UNL     1       4.996   1.973   2.000  1.00  0.00     0.174 HD
ENDBRANCH   1  30
BRANCH  12  33
HETATM   33  N7  UNL     1       5.768   1.212  -0.079  1.00  0.00    -0.321 N 
ATOM     34  H72 UNL     1       6.087   1.733   0.738  1.00  0.00     0.178 HD
ATOM     35  H71 UNL     1       6.411   1.054  -0.855  1.00  0.00     0.178 HD
ENDBRANCH  12  33
TORSDOF 9
