REMARK  6 active torsions:
REMARK  status: ('A' for Active; 'I' for Inactive)
REMARK    1  A    between atoms: N3_9  and  N4_10 
REMARK    2  A    between atoms: N4_10  and  C3_12 
REMARK    3  A    between atoms: C3_12  and  C4_13 
REMARK    4  A    between atoms: C5_15  and  N5_16 
REMARK    5  A    between atoms: C6_21  and  N8_22 
REMARK    6  A    between atoms: C9_33  and  N11_34 
ROOT
HETATM    1  C4  UNL     1       0.188  -1.575  -0.479  1.00  0.00     0.237 C 
HETATM    2  O2  UNL     1       1.062  -0.501  -0.191  1.00  0.00    -0.331 OA
HETATM    3  C5  UNL     1       2.324  -1.173  -0.258  1.00  0.00     0.361 C 
HETATM    4  N10 UNL     1       2.117  -2.250   0.637  1.00  0.00    -0.314 N 
ATOM      5  H10 UNL     1       2.805  -2.685   1.252  1.00  0.00     0.167 HD
HETATM    6  C8  UNL     1       0.713  -2.604   0.491  1.00  0.00     0.251 C 
HETATM    7  O4  UNL     1       0.115  -3.547   1.052  1.00  0.00    -0.270 OA
ENDROOT
BRANCH   1   8
HETATM    8  C3  UNL     1      -1.239  -1.242  -0.229  1.00  0.00     0.181 C 
BRANCH   8   9
HETATM    9  N4  UNL     1      -1.702  -0.135  -1.000  1.00  0.00    -0.325 N 
ATOM     10  H4  UNL     1      -1.087   0.383  -1.628  1.00  0.00     0.180 HD
BRANCH   9  11
HETATM   11  N3  UNL     1      -3.027   0.190  -0.844  1.00  0.00    -0.208 N 
HETATM   12  C2  UNL     1      -3.910   0.297  -1.992  1.00  0.00     0.344 C 
HETATM   13  N2  UNL     1      -4.977   1.170  -1.656  1.00  0.00    -0.294 N 
HETATM   14  O1  UNL     1      -3.765  -0.283  -3.109  1.00  0.00    -0.245 OA
HETATM   15  C1  UNL     1      -4.738   1.587  -0.311  1.00  0.00     0.131 C 
ATOM     16  H2  UNL     1      -5.757   1.444  -2.254  1.00  0.00     0.172 HD
HETATM   17  N1  UNL     1      -5.165   2.663   0.262  1.00  0.00    -0.386 N 
HETATM   18  C9  UNL     1      -3.889   0.482   0.264  1.00  0.00     0.375 C 
ATOM     19  H12 UNL     1      -5.739   3.411  -0.127  1.00  0.00     0.157 HD
ATOM     20  H11 UNL     1      -4.994   2.961   1.223  1.00  0.00     0.157 HD
BRANCH  18  21
HETATM   21  N11 UNL     1      -3.275   0.849   1.482  1.00  0.00    -0.049 N 
ATOM     22 3H11 UNL     1      -2.736   1.709   1.377  1.00  0.00     0.277 HD
ATOM     23 2H11 UNL     1      -3.967   1.171   2.159  1.00  0.00     0.277 HD
ATOM     24 1H11 UNL     1      -2.701   0.101   1.871  1.00  0.00     0.277 HD
ENDBRANCH  18  21
ENDBRANCH   9  11
ENDBRANCH   8   9
ENDBRANCH   1   8
BRANCH   3  25
HETATM   25  N5  UNL     1       3.357  -0.241  -0.001  1.00  0.00    -0.179 N 
HETATM   26  N6  UNL     1       3.358   0.854  -0.795  1.00  0.00    -0.218 N 
HETATM   27  N7  UNL     1       4.258   1.780  -0.675  1.00  0.00    -0.117 N 
ATOM     28  H6  UNL     1       2.633   0.954  -1.506  1.00  0.00     0.209 HD
HETATM   29  C6  UNL     1       5.252   1.758   0.215  1.00  0.00     0.695 A 
ATOM     30  H7  UNL     1       4.202   2.581  -1.305  1.00  0.00     0.207 HD
HETATM   31  N9  UNL     1       5.290   0.674   1.037  1.00  0.00    -0.139 N 
HETATM   32  C7  UNL     1       4.333  -0.294   0.897  1.00  0.00     0.360 A 
ATOM     33  H9  UNL     1       6.019   0.585   1.745  1.00  0.00     0.189 HD
HETATM   34  O3  UNL     1       4.439  -1.249   1.685  1.00  0.00    -0.244 OA
BRANCH  29  35
HETATM   35  N8  UNL     1       6.139   2.705   0.307  1.00  0.00    -0.233 N 
ATOM     36  H82 UNL     1       6.111   3.517  -0.309  1.00  0.00     0.174 HD
ATOM     37  H81 UNL     1       6.899   2.688   0.987  1.00  0.00     0.174 HD
ENDBRANCH  29  35
ENDBRANCH   3  25
TORSDOF 6
