REMARK  11 active torsions:
REMARK  status: ('A' for Active; 'I' for Inactive)
REMARK    1  A    between atoms: N1_1  and  N2_4 
REMARK       I    between atoms: N2_4  and  C1_6 
REMARK    2  A    between atoms: C1_6  and  O2_8 
REMARK    3  A    between atoms: O2_8  and  N3_9 
REMARK    4  A    between atoms: C3_13  and  N4_14 
REMARK    5  A    between atoms: C4_18  and  O4_19 
REMARK    6  A    between atoms: C4_18  and  C5_21 
REMARK    7  A    between atoms: C8_26  and  O7_27 
REMARK    8  A    between atoms: C8_26  and  C9_29 
REMARK    9  A    between atoms: C9_29  and  O8_30 
REMARK   10  A    between atoms: C9_29  and  C10_32 
REMARK   11  A    between atoms: C10_32  and  O9_33 
ROOT
HETATM    1  N3  UNL     1       1.577   0.438   0.091  1.00  0.00    -0.235 N 
ATOM      2  H3  UNL     1       2.037   1.020  -0.609  1.00  0.00     0.197 HD
HETATM    3  C2  UNL     1       0.298   0.350   0.027  1.00  0.00     0.178 C 
HETATM    4  O3  UNL     1      -0.390  -0.411   0.927  1.00  0.00    -0.298 OA
HETATM    5  C3  UNL     1      -1.619  -1.076   0.925  1.00  0.00     0.371 C 
HETATM    6  C4  UNL     1      -1.979  -1.703  -0.394  1.00  0.00     0.198 C 
HETATM    7  C6  UNL     1      -1.450  -0.940  -1.581  1.00  0.00     0.057 C 
HETATM    8  C7  UNL     1      -1.635   0.546  -1.473  1.00  0.00     0.053 C 
HETATM    9  C8  UNL     1      -0.303   1.130  -1.080  1.00  0.00     0.152 C 
ENDROOT
BRANCH   1  10
HETATM   10  O2  UNL     1       2.369  -0.170   1.000  1.00  0.00    -0.178 OA
BRANCH  10  11
HETATM   11  C1  UNL     1       3.646  -0.579   0.646  1.00  0.00     0.401 C 
HETATM   12  N2  UNL     1       4.540  -1.220   1.526  1.00  0.00    -0.250 N 
ATOM     13  H2  UNL     1       4.266  -1.411   2.490  1.00  0.00     0.191 HD
HETATM   14  O1  UNL     1       3.984  -0.336  -0.563  1.00  0.00    -0.235 OA
BRANCH  12  15
HETATM   15  N1  UNL     1       5.799  -1.589   1.067  1.00  0.00    -0.341 N 
ATOM     16  H12 UNL     1       6.057  -1.391   0.100  1.00  0.00     0.177 HD
ATOM     17  H11 UNL     1       6.446  -2.053   1.704  1.00  0.00     0.177 HD
ENDBRANCH  12  15
ENDBRANCH  10  11
ENDBRANCH   1  10
BRANCH   9  18
HETATM   18  O7  UNL     1       0.549   0.922  -2.194  1.00  0.00    -0.379 OA
ATOM     19  H7  UNL     1       0.164   1.422  -2.904  1.00  0.00     0.211 HD
ENDBRANCH   9  18
BRANCH   9  20
HETATM   20  C9  UNL     1      -0.331   2.593  -0.837  1.00  0.00     0.184 C 
BRANCH  20  21
HETATM   21  O8  UNL     1       0.968   3.019  -0.569  1.00  0.00    -0.390 OA
ATOM     22  H8  UNL     1       0.950   3.956  -0.413  1.00  0.00     0.210 HD
ENDBRANCH  20  21
BRANCH  20  23
HETATM   23  C10 UNL     1      -1.189   3.011   0.324  1.00  0.00     0.199 C 
BRANCH  23  24
HETATM   24  O9  UNL     1      -1.195   4.382   0.515  1.00  0.00    -0.398 OA
ATOM     25  H9  UNL     1      -1.737   4.646   1.249  1.00  0.00     0.209 HD
ENDBRANCH  23  24
ENDBRANCH  20  23
ENDBRANCH   9  20
BRANCH   5  26
HETATM   26  N4  UNL     1      -2.705  -0.286   1.447  1.00  0.00    -0.049 N 
ATOM     27  H43 UNL     1      -2.483   0.058   2.381  1.00  0.00     0.277 HD
ATOM     28  H42 UNL     1      -2.775   0.602   0.950  1.00  0.00     0.277 HD
ATOM     29  H41 UNL     1      -3.602  -0.771   1.446  1.00  0.00     0.277 HD
ENDBRANCH   5  26
BRANCH   6  30
HETATM   30  O4  UNL     1      -3.372  -1.737  -0.528  1.00  0.00    -0.375 OA
ATOM     31  H4  UNL     1      -3.599  -2.133  -1.361  1.00  0.00     0.211 HD
ENDBRANCH   6  30
BRANCH   6  32
HETATM   32  C5  UNL     1      -1.467  -3.085  -0.496  1.00  0.00     0.213 C 
HETATM   33  O5  UNL     1      -2.236  -4.050  -0.673  1.00  0.00    -0.646 OA
HETATM   34  O6  UNL     1      -0.109  -3.296  -0.392  1.00  0.00    -0.646 OA
ENDBRANCH   6  32
TORSDOF 11
