REMARK  8 active torsions:
REMARK  status: ('A' for Active; 'I' for Inactive)
REMARK    1  A    between atoms: N1_1  and  C1_4 
REMARK    2  A    between atoms: C4_8  and  O2_9 
REMARK    3  A    between atoms: C4_8  and  C5_11 
REMARK    4  A    between atoms: C7_14  and  O4_15 
REMARK    5  A    between atoms: C7_14  and  C8_17 
REMARK    6  A    between atoms: C8_17  and  O5_18 
REMARK    7  A    between atoms: C9_20  and  O6_21 
REMARK    8  A    between atoms: N3_27  and  N4_28 
ROOT
HETATM    1  C1  UNL     1       1.227   0.333   0.412  1.00  0.00     0.143 A 
HETATM    2  C2  UNL     1       0.070   0.441  -0.380  1.00  0.00     0.093 A 
HETATM    3  C3  UNL     1      -1.145  -0.271  -0.049  1.00  0.00     0.105 C 
HETATM    4  O1  UNL     1      -1.200  -1.113   1.022  1.00  0.00    -0.307 OA
HETATM    5  C4  UNL     1      -2.438  -1.768   0.742  1.00  0.00     0.225 C 
HETATM    6  C6  UNL     1      -3.336  -0.530   0.731  1.00  0.00     0.123 C 
HETATM    7  C7  UNL     1      -2.465   0.382  -0.216  1.00  0.00     0.134 C 
HETATM    8  C9  UNL     1       0.151   1.132  -1.564  1.00  0.00     0.160 A 
HETATM    9  N2  UNL     1       1.334   1.699  -1.963  1.00  0.00    -0.287 N 
ATOM     10  H2  UNL     1       1.387   2.208  -2.846  1.00  0.00     0.172 HD
HETATM   11  C10 UNL     1       2.412   1.582  -1.193  1.00  0.00     0.349 A 
HETATM   12  O7  UNL     1       3.522   2.098  -1.533  1.00  0.00    -0.244 OA
HETATM   13  N3  UNL     1       2.360   0.907  -0.018  1.00  0.00    -0.186 N 
ENDROOT
BRANCH   1  14
HETATM   14  N1  UNL     1       1.207  -0.293   1.549  1.00  0.00    -0.383 N 
ATOM     15  H12 UNL     1       0.345  -0.730   1.876  1.00  0.00     0.157 HD
ATOM     16  H11 UNL     1       2.046  -0.371   2.123  1.00  0.00     0.157 HD
ENDBRANCH   1  14
BRANCH   8  17
HETATM   17  O6  UNL     1      -0.863   1.340  -2.474  1.00  0.00    -0.345 OA
ATOM     18  H6  UNL     1      -0.807   1.818  -3.293  1.00  0.00     0.219 HD
ENDBRANCH   8  17
BRANCH  13  19
HETATM   19  N4  UNL     1       3.520   0.869   0.778  1.00  0.00    -0.264 N 
HETATM   20  C11 UNL     1       4.381  -0.061   0.802  1.00  0.00     0.216 C 
HETATM   21  N5  UNL     1       5.530  -0.022   1.633  1.00  0.00    -0.065 NA
HETATM   22  N6  UNL     1       4.231  -1.228  -0.031  1.00  0.00    -0.065 NA
ATOM     23  H4  UNL     1       3.683   1.665   1.394  1.00  0.00     0.190 HD
ENDBRANCH  13  19
BRANCH   7  24
HETATM   24  O4  UNL     1      -3.044   0.379  -1.426  1.00  0.00    -0.381 OA
ATOM     25  H4  UNL     1      -3.890   0.798  -1.533  1.00  0.00     0.211 HD
ENDBRANCH   7  24
BRANCH   7  26
HETATM   26  C8  UNL     1      -2.503   1.767   0.422  1.00  0.00     0.209 C 
BRANCH  26  27
HETATM   27  O5  UNL     1      -1.904   1.712   1.688  1.00  0.00    -0.397 OA
ATOM     28  H5  UNL     1      -1.928   2.575   2.085  1.00  0.00     0.209 HD
ENDBRANCH  26  27
ENDBRANCH   7  26
BRANCH   5  29
HETATM   29  O2  UNL     1      -2.467  -2.367  -0.511  1.00  0.00    -0.359 OA
ATOM     30  H2  UNL     1      -3.290  -2.803  -0.697  1.00  0.00     0.213 HD
ENDBRANCH   5  29
BRANCH   5  31
HETATM   31  C5  UNL     1      -2.825  -2.705   1.801  1.00  0.00     0.299 C 
HETATM   32  O3  UNL     1      -3.129  -3.852   1.448  1.00  0.00    -0.301 OA
ENDBRANCH   5  31
TORSDOF 8
