REMARK  5 active torsions:
REMARK  status: ('A' for Active; 'I' for Inactive)
REMARK    1  A    between atoms: N1_1  and  N2_4 
REMARK       I    between atoms: N2_4  and  C1_6 
REMARK       I    between atoms: C1_6  and  N3_8 
REMARK    2  A    between atoms: N3_8  and  C2_10 
REMARK    3  A    between atoms: C2_10  and  C3_11 
REMARK    4  A    between atoms: C5_14  and  N4_15 
REMARK    5  A    between atoms: C9_24  and  N8_25 
REMARK       I    between atoms: N8_25  and  C10_27 
REMARK       I    between atoms: C10_27  and  N9_28 
REMARK       I    between atoms: C10_27  and  N10_32 
ROOT
HETATM    1  N4  UNL     1      -1.202  -1.002  -0.039  1.00  0.00    -0.232 N 
HETATM    2  C6  UNL     1      -1.037  -2.339  -0.048  1.00  0.00     0.333 A 
HETATM    3  O3  UNL     1      -0.069  -2.885  -0.678  1.00  0.00    -0.246 OA
HETATM    4  N5  UNL     1      -1.860  -3.165   0.588  1.00  0.00    -0.295 N 
ATOM      5  H5  UNL     1      -1.714  -4.174   0.564  1.00  0.00     0.172 HD
HETATM    6  C7  UNL     1      -2.900  -2.626   1.269  1.00  0.00     0.148 A 
HETATM    7  N6  UNL     1      -3.807  -3.470   1.965  1.00  0.00    -0.080 NA
HETATM    8  C8  UNL     1      -3.096  -1.241   1.296  1.00  0.00     0.131 A 
HETATM    9  N7  UNL     1      -4.218  -0.792   2.040  1.00  0.00    -0.095 NA
HETATM   10  C9  UNL     1      -2.231  -0.415   0.630  1.00  0.00     0.142 A 
ENDROOT
BRANCH   1  11
HETATM   11  C5  UNL     1      -0.272  -0.163  -0.751  1.00  0.00     0.383 C 
HETATM   12  O2  UNL     1       0.382   0.679   0.144  1.00  0.00    -0.341 OA
HETATM   13  C4  UNL     1       1.646   0.919  -0.495  1.00  0.00     0.210 C 
HETATM   14  C3  UNL     1       1.950  -0.440  -0.979  1.00  0.00     0.189 C 
HETATM   15  O4  UNL     1       0.671  -0.887  -1.432  1.00  0.00    -0.331 OA
BRANCH  14  16
HETATM   16  C2  UNL     1       2.974  -0.659  -2.004  1.00  0.00     0.099 C 
BRANCH  16  17
HETATM   17  N3  UNL     1       4.296  -0.328  -1.689  1.00  0.00    -0.319 N 
HETATM   18  C1  UNL     1       4.875   0.916  -1.461  1.00  0.00     0.338 C 
HETATM   19  N2  UNL     1       6.292   0.998  -1.118  1.00  0.00    -0.258 N 
HETATM   20  O1  UNL     1       4.220   1.977  -1.540  1.00  0.00    -0.245 OA
ATOM     21  H2  UNL     1       6.875   0.165  -1.040  1.00  0.00     0.191 HD
ATOM     22  H3  UNL     1       4.934  -1.121  -1.615  1.00  0.00     0.169 HD
BRANCH  19  23
HETATM   23  N1  UNL     1       6.804   2.272  -0.903  1.00  0.00    -0.341 N 
ATOM     24  H12 UNL     1       6.208   3.096  -0.984  1.00  0.00     0.177 HD
ATOM     25  H11 UNL     1       7.794   2.329  -0.663  1.00  0.00     0.177 HD
ENDBRANCH  19  23
ENDBRANCH  16  17
ENDBRANCH  14  16
ENDBRANCH   1  11
BRANCH  10  26
HETATM   26  N8  UNL     1      -2.334   0.814   0.605  1.00  0.00    -0.325 N 
HETATM   27  C10 UNL     1      -3.170   1.805   1.109  1.00  0.00     0.481 C 
HETATM   28  N9  UNL     1      -2.615   3.153   1.052  1.00  0.00    -0.033 N 
HETATM   29  N10 UNL     1      -4.467   1.913   0.457  1.00  0.00    -0.033 N 
ATOM     30  H93 UNL     1      -1.708   3.183   1.518  1.00  0.00     0.278 HD
ATOM     31  H92 UNL     1      -2.331   3.380   0.099  1.00  0.00     0.278 HD
ATOM     32  H91 UNL     1      -3.228   3.880   1.422  1.00  0.00     0.278 HD
ATOM     33 3H10 UNL     1      -4.345   2.035  -0.548  1.00  0.00     0.278 HD
ATOM     34 2H10 UNL     1      -4.943   1.011   0.472  1.00  0.00     0.278 HD
ATOM     35 1H10 UNL     1      -5.080   2.640   0.827  1.00  0.00     0.278 HD
ATOM     36  H8  UNL     1      -1.584   1.226   0.050  1.00  0.00     0.165 HD
ENDBRANCH  10  26
TORSDOF 5
