REMARK  5 active torsions:
REMARK  status: ('A' for Active; 'I' for Inactive)
REMARK    1  A    between atoms: O1_2  and  C2_3 
REMARK    2  A    between atoms: C2_3  and  C3_5 
REMARK    3  A    between atoms: C5_7  and  C6_8 
REMARK    4  A    between atoms: N1_9  and  N2_11 
REMARK       I    between atoms: N2_11  and  C7_13 
REMARK       I    between atoms: C7_13  and  N3_15 
REMARK    5  A    between atoms: C12_21  and  O4_22 
ROOT
HETATM    1  C3  UNL     1       3.251   0.189   0.242  1.00  0.00     0.074 A 
HETATM    2  C4  UNL     1       1.870   0.341   0.133  1.00  0.00     0.033 A 
HETATM    3  C5  UNL     1       0.973  -0.590   0.619  1.00  0.00    -0.017 A 
HETATM    4  C10 UNL     1       1.467  -1.712   1.236  1.00  0.00     0.034 A 
HETATM    5  C11 UNL     1       2.825  -1.889   1.358  1.00  0.00     0.046 A 
HETATM    6 BR1  UNL     1       3.482  -3.454   2.217  1.00  0.00    -0.048 Br
HETATM    7  C12 UNL     1       3.730  -0.943   0.864  1.00  0.00     0.099 A 
ENDROOT
BRANCH   3   8
HETATM    8  C6  UNL     1      -0.452  -0.338   0.456  1.00  0.00     0.118 C 
HETATM    9  N1  UNL     1      -1.348  -1.175   0.891  1.00  0.00    -0.307 N 
ATOM     10  H1  UNL     1      -1.043  -2.029   1.359  1.00  0.00     0.186 HD
BRANCH   9  11
HETATM   11  N2  UNL     1      -2.700  -0.940   0.737  1.00  0.00    -0.252 N 
HETATM   12  C7  UNL     1      -3.292  -0.566  -0.488  1.00  0.00     0.336 C 
HETATM   13  O3  UNL     1      -2.583  -0.429  -1.520  1.00  0.00    -0.245 OA
HETATM   14  N3  UNL     1      -4.681  -0.333  -0.609  1.00  0.00    -0.342 N 
HETATM   15  C8  UNL     1      -5.509  -0.488   0.574  1.00  0.00     0.154 C 
HETATM   16  C9  UNL     1      -5.283   0.050  -1.866  1.00  0.00     0.154 C 
ATOM     17  H2  UNL     1      -3.303  -1.042   1.553  1.00  0.00     0.191 HD
ENDBRANCH   9  11
ENDBRANCH   3   8
BRANCH   1  18
HETATM   18  C2  UNL     1       4.171   1.176  -0.274  1.00  0.00     0.295 C 
HETATM   19  O2  UNL     1       5.410   0.999  -0.154  1.00  0.00    -0.259 OA
BRANCH  18  20
HETATM   20  O1  UNL     1       3.769   2.339  -0.910  1.00  0.00    -0.322 OA
HETATM   21  C1  UNL     1       4.720   3.272  -1.397  1.00  0.00     0.213 C 
ENDBRANCH  18  20
ENDBRANCH   1  18
BRANCH   7  22
HETATM   22  O4  UNL     1       5.093  -1.161   1.008  1.00  0.00    -0.358 OA
ATOM     23  H4  UNL     1       5.423  -1.942   1.437  1.00  0.00     0.217 HD
ENDBRANCH   7  22
TORSDOF 5
