REMARK  3 active torsions:
REMARK  status: ('A' for Active; 'I' for Inactive)
REMARK    1  A    between atoms: C3_3  and  N1_4 
REMARK    2  A    between atoms: C6_13  and  N3_14 
REMARK       I    between atoms: N3_14  and  C7_16 
REMARK    3  A    between atoms: C7_16  and  C8_18 
ROOT
HETATM    1  C1  UNL     1      -2.150   3.752   2.342  1.00  0.00     0.103 C 
HETATM    2  C2  UNL     1      -2.597   2.738   1.648  1.00  0.00    -0.143 C 
HETATM    3  C3  UNL     1      -2.922   1.673   0.964  1.00  0.00     0.140 C 
ENDROOT
BRANCH   3   4
HETATM    4  N1  UNL     1      -1.971   0.661   0.859  1.00  0.00    -0.347 N 
HETATM    5  C4  UNL     1      -2.027  -0.326   0.021  1.00  0.00     0.115 C 
HETATM    6  N2  UNL     1      -3.066  -0.484  -0.886  1.00  0.00    -0.271 N 
HETATM    7  C6  UNL     1      -0.975  -1.340  -0.016  1.00  0.00     0.168 C 
HETATM    8  S1  UNL     1      -2.886  -2.043  -1.603  1.00  0.00     0.234 S 
ATOM      9  H2  UNL     1      -3.799   0.195  -1.090  1.00  0.00     0.180 HD
HETATM   10  O1  UNL     1      -3.926  -2.988  -1.075  1.00  0.00    -0.206 OA
HETATM   11  O2  UNL     1      -2.887  -1.991  -3.097  1.00  0.00    -0.206 OA
HETATM   12  C5  UNL     1      -1.306  -2.450  -0.922  1.00  0.00     0.196 C 
ATOM     13  H1  UNL     1      -1.170   0.700   1.489  1.00  0.00     0.167 HD
BRANCH   7  14
HETATM   14  N3  UNL     1       0.315  -0.765  -0.447  1.00  0.00    -0.344 N 
HETATM   15  C7  UNL     1       1.412  -0.914   0.397  1.00  0.00     0.253 C 
HETATM   16  O3  UNL     1       1.222  -1.559   1.494  1.00  0.00    -0.268 OA
ATOM     17  H3  UNL     1       0.400  -0.273  -1.337  1.00  0.00     0.163 HD
BRANCH  15  18
HETATM   18  C8  UNL     1       2.789  -0.389   0.128  1.00  0.00     0.046 A 
HETATM   19  C9  UNL     1       3.897  -0.983   0.665  1.00  0.00     0.049 A 
HETATM   20  C10 UNL     1       5.108  -0.477   0.338  1.00  0.00     0.076 A 
HETATM   21 CL1  UNL     1       6.699  -1.049   0.883  1.00  0.00    -0.076 Cl
HETATM   22  S2  UNL     1       4.735   0.812  -0.705  1.00  0.00    -0.082 SA
HETATM   23  C11 UNL     1       3.027   0.673  -0.697  1.00  0.00    -0.004 A 
HETATM   24  C12 UNL     1       2.081   1.581  -1.439  1.00  0.00     0.057 C 
ENDBRANCH  15  18
ENDBRANCH   7  14
ENDBRANCH   3   4
TORSDOF 3
