REMARK  5 active torsions:
REMARK  status: ('A' for Active; 'I' for Inactive)
REMARK    1  A    between atoms: C2_2  and  C3_3 
REMARK    2  A    between atoms: C3_3  and  N1_4 
REMARK    3  A    between atoms: N1_4  and  C4_6 
REMARK    4  A    between atoms: C4_6  and  N2_8 
REMARK    5  A    between atoms: N2_8  and  C5_10 
ROOT
HETATM    1  C5  UNL     1      -0.115   0.013  -1.439  1.00  0.00     0.059 A 
HETATM    2  C6  UNL     1      -0.793  -0.143  -0.269  1.00  0.00     0.070 A 
HETATM    3  C7  UNL     1      -2.035   0.449   0.015  1.00  0.00     0.102 A 
HETATM    4  C8  UNL     1      -2.562   1.228  -0.980  1.00  0.00     0.115 A 
HETATM    5  C9  UNL     1      -1.887   1.402  -2.183  1.00  0.00     0.054 A 
HETATM    6  C10 UNL     1      -0.684   0.821  -2.445  1.00  0.00     0.062 A 
HETATM    7 CL1  UNL     1       0.133   1.083  -3.983  1.00  0.00    -0.082 Cl
HETATM    8  S2  UNL     1      -4.114   2.001  -0.721  1.00  0.00     0.266 S 
HETATM    9  O1  UNL     1      -5.099   1.537  -1.769  1.00  0.00    -0.200 OA
HETATM   10  O2  UNL     1      -3.917   3.486  -0.871  1.00  0.00    -0.200 OA
HETATM   11  N3  UNL     1      -4.631   1.553   0.858  1.00  0.00    -0.270 N 
ATOM     12  H3  UNL     1      -5.520   1.895   1.223  1.00  0.00     0.180 HD
HETATM   13  C11 UNL     1      -3.901   0.796   1.565  1.00  0.00     0.244 A 
HETATM   14  O3  UNL     1      -2.696   0.272   1.198  1.00  0.00    -0.304 OA
ENDROOT
BRANCH   1  15
HETATM   15  N2  UNL     1       1.069  -0.640  -1.804  1.00  0.00    -0.332 N 
ATOM     16  H2  UNL     1       1.206  -0.763  -2.807  1.00  0.00     0.168 HD
BRANCH  15  17
HETATM   17  C4  UNL     1       2.078  -1.142  -1.007  1.00  0.00     0.172 C 
HETATM   18  S1  UNL     1       3.317  -1.931  -1.834  1.00  0.00    -0.041 SA
BRANCH  17  19
HETATM   19  N1  UNL     1       2.249  -1.104   0.399  1.00  0.00    -0.364 N 
ATOM     20  H1  UNL     1       1.568  -0.632   0.994  1.00  0.00     0.162 HD
BRANCH  19  21
HETATM   21  C3  UNL     1       3.428  -1.759   0.981  1.00  0.00     0.148 C 
BRANCH  21  22
HETATM   22  C2  UNL     1       3.705  -1.362   2.354  1.00  0.00    -0.018 C 
HETATM   23  C1  UNL     1       3.033  -0.467   3.091  1.00  0.00     0.008 C 
ENDBRANCH  21  22
ENDBRANCH  19  21
ENDBRANCH  17  19
ENDBRANCH  15  17
ENDBRANCH   1  15
TORSDOF 5
