REMARK  4 active torsions:
REMARK  status: ('A' for Active; 'I' for Inactive)
REMARK    1  A    between atoms: C4_4  and  N1_5 
REMARK    2  A    between atoms: N1_5  and  C5_7 
REMARK    3  A    between atoms: C8_15  and  C9_16 
REMARK       I    between atoms: C9_16  and  N4_18 
REMARK    4  A    between atoms: N4_18  and  C10_20 
ROOT
HETATM    1  C10 UNL     1       4.264   0.642  -0.070  1.00  0.00     0.115 C 
HETATM    2  C11 UNL     1       4.297   0.279  -1.555  1.00  0.00     0.055 C 
HETATM    3  C12 UNL     1       3.961   2.112   0.032  1.00  0.00     0.055 C 
HETATM    4  C13 UNL     1       5.617   0.417   0.432  1.00  0.00     0.090 C 
HETATM    5  N5  UNL     1       6.696   0.250   0.821  1.00  0.00    -0.195 NA
ENDROOT
BRANCH   1   6
HETATM    6  N4  UNL     1       3.327  -0.175   0.650  1.00  0.00    -0.334 N 
HETATM    7  C9  UNL     1       1.934  -0.211   0.346  1.00  0.00     0.273 C 
HETATM    8  O1  UNL     1       1.434   0.477  -0.579  1.00  0.00    -0.266 OA
ATOM      9  H4  UNL     1       3.674  -0.756   1.413  1.00  0.00     0.164 HD
BRANCH   7  10
HETATM   10  C8  UNL     1       1.037  -1.058   1.110  1.00  0.00     0.146 A 
HETATM   11  C5  UNL     1      -0.345  -1.117   0.836  1.00  0.00     0.134 A 
HETATM   12  N2  UNL     1      -1.141  -1.923   1.577  1.00  0.00    -0.347 N 
HETATM   13  C6  UNL     1      -0.614  -2.663   2.570  1.00  0.00     0.132 A 
ATOM     14  H2  UNL     1      -2.141  -1.970   1.383  1.00  0.00     0.167 HD
HETATM   15  C7  UNL     1       0.732  -2.618   2.852  1.00  0.00     0.119 A 
HETATM   16 CL1  UNL     1       1.408  -3.583   4.144  1.00  0.00    -0.063 Cl
HETATM   17  N3  UNL     1       1.520  -1.802   2.097  1.00  0.00    -0.338 N 
ATOM     18  H3  UNL     1       2.519  -1.762   2.298  1.00  0.00     0.167 HD
BRANCH  11  19
HETATM   19  N1  UNL     1      -0.778  -0.427  -0.076  1.00  0.00    -0.367 N 
ATOM     20  H1  UNL     1       0.035   0.064  -0.447  1.00  0.00     0.161 HD
BRANCH  19  21
HETATM   21  C4  UNL     1      -1.826   0.000  -0.833  1.00  0.00     0.114 C 
HETATM   22  C3  UNL     1      -2.250   1.428  -0.392  1.00  0.00     0.059 C 
HETATM   23  C2  UNL     1      -3.712   1.415  -0.755  1.00  0.00     0.120 C 
HETATM   24  C1  UNL     1      -4.114   2.606  -1.591  1.00  0.00     0.039 C 
HETATM   25  O2  UNL     1      -3.941   0.255  -1.492  1.00  0.00    -0.379 OA
HETATM   26  C14 UNL     1      -3.168  -0.679  -0.732  1.00  0.00     0.140 C 
HETATM   27  C15 UNL     1      -3.267  -1.967  -1.487  1.00  0.00     0.041 C 
ENDBRANCH  19  21
ENDBRANCH  11  19
ENDBRANCH   7  10
ENDBRANCH   1   6
TORSDOF 4
