REMARK  4 active torsions:
REMARK  status: ('A' for Active; 'I' for Inactive)
REMARK    1  A    between atoms: C2_2  and  C3_4 
REMARK    2  A    between atoms: C4_5  and  O2_6 
REMARK    3  A    between atoms: C5_10  and  N2_11 
REMARK    4  A    between atoms: C13_21  and  C14_22 
ROOT
HETATM    1  C3  UNL     1       3.568  -0.527  -0.008  1.00  0.00     0.111 A 
HETATM    2  C4  UNL     1       2.896   0.569  -0.533  1.00  0.00     0.159 A 
HETATM    3  N1  UNL     1       1.560   0.643  -0.495  1.00  0.00    -0.321 N 
ATOM      4  H1  UNL     1       1.104   1.465  -0.891  1.00  0.00     0.169 HD
HETATM    5  C5  UNL     1       0.780  -0.341   0.055  1.00  0.00     0.128 A 
HETATM    6  C13 UNL     1       1.434  -1.449   0.587  1.00  0.00     0.097 A 
HETATM    7  C15 UNL     1       2.813  -1.539   0.554  1.00  0.00     0.207 A 
HETATM    8  O4  UNL     1       3.399  -2.533   1.030  1.00  0.00    -0.286 OA
ENDROOT
BRANCH   5   9
HETATM    9  N2  UNL     1      -0.600  -0.172   0.108  1.00  0.00    -0.315 N 
HETATM   10  C6  UNL     1      -1.678  -1.133   0.179  1.00  0.00     0.162 C 
HETATM   11  C7  UNL     1      -2.971  -0.399  -0.104  1.00  0.00     0.043 C 
HETATM   12  C8  UNL     1      -3.696  -0.892  -1.321  1.00  0.00     0.040 C 
HETATM   13  C9  UNL     1      -3.921  -0.407   1.056  1.00  0.00     0.040 C 
HETATM   14  N3  UNL     1      -2.580   0.971  -0.357  1.00  0.00    -0.360 N 
HETATM   15  C10 UNL     1      -3.440   1.932  -1.018  1.00  0.00     0.152 C 
HETATM   16  C11 UNL     1      -1.266   1.111   0.163  1.00  0.00     0.118 C 
HETATM   17  C12 UNL     1      -0.800   2.253   0.633  1.00  0.00     0.133 C 
HETATM   18 CL1  UNL     1      -1.799   3.686   0.590  1.00  0.00    -0.093 Cl
ENDBRANCH   5   9
BRANCH   6  19
HETATM   19  C14 UNL     1       0.687  -2.534   1.183  1.00  0.00     0.277 C 
HETATM   20  O3  UNL     1       0.335  -3.506   0.476  1.00  0.00    -0.301 OA
ENDBRANCH   6  19
BRANCH   2  21
HETATM   21  O2  UNL     1       3.631   1.596  -1.102  1.00  0.00    -0.345 OA
ATOM     22  H2  UNL     1       3.171   2.346  -1.461  1.00  0.00     0.219 HD
ENDBRANCH   2  21
BRANCH   1  23
HETATM   23  C2  UNL     1       5.011  -0.630  -0.037  1.00  0.00     0.164 C 
HETATM   24  C1  UNL     1       5.901   0.398  -0.614  1.00  0.00     0.097 C 
HETATM   25  O1  UNL     1       5.565  -1.657   0.458  1.00  0.00    -0.292 OA
ENDBRANCH   1  23
TORSDOF 4
