REMARK  10 active torsions:
REMARK  status: ('A' for Active; 'I' for Inactive)
REMARK    1  A    between atoms: C1_4  and  S1_6 
REMARK    2  A    between atoms: S1_6  and  C2_7 
REMARK    3  A    between atoms: C2_7  and  C3_8 
REMARK    4  A    between atoms: C3_8  and  C4_10 
REMARK    5  A    between atoms: C7_13  and  N3_14 
REMARK    6  A    between atoms: N3_14  and  C8_15 
REMARK    7  A    between atoms: N3_14  and  N5_21 
REMARK    8  A    between atoms: C8_15  and  C9_16 
REMARK    9  A    between atoms: C9_16  and  N4_17 
REMARK   10  A    between atoms: N5_21  and  O2_23 
ROOT
HETATM    1  C4  UNL     1       1.001   0.761   0.187  1.00  0.00     0.011 A 
HETATM    2  C5  UNL     1       0.067   0.568   1.176  1.00  0.00     0.017 A 
HETATM    3  C6  UNL     1      -1.234   0.155   0.887  1.00  0.00     0.032 A 
HETATM    4  C7  UNL     1      -1.636  -0.075  -0.412  1.00  0.00     0.052 A 
HETATM    5  C10 UNL     1      -0.660   0.131  -1.397  1.00  0.00     0.032 A 
HETATM    6  C11 UNL     1       0.619   0.536  -1.119  1.00  0.00     0.017 A 
ENDROOT
BRANCH   4   7
HETATM    7  N3  UNL     1      -2.942  -0.513  -0.777  1.00  0.00    -0.272 N 
BRANCH   7   8
HETATM    8  C8  UNL     1      -4.113   0.328  -0.801  1.00  0.00     0.178 C 
BRANCH   8   9
HETATM    9  C9  UNL     1      -4.579   0.733   0.577  1.00  0.00     0.251 C 
BRANCH   9  10
HETATM   10  N4  UNL     1      -4.931  -0.425   1.385  1.00  0.00    -0.078 N 
ATOM     11  H43 UNL     1      -5.621  -1.011   0.915  1.00  0.00     0.274 HD
ATOM     12  H42 UNL     1      -4.162  -1.093   1.433  1.00  0.00     0.274 HD
ATOM     13  H41 UNL     1      -5.246  -0.151   2.316  1.00  0.00     0.274 HD
ENDBRANCH   9  10
ENDBRANCH   8   9
ENDBRANCH   7   8
BRANCH   7  14
HETATM   14  N5  UNL     1      -3.112  -1.850  -1.149  1.00  0.00    -0.207 N 
ATOM     15  H5  UNL     1      -3.887  -2.087  -1.769  1.00  0.00     0.216 HD
BRANCH  14  16
HETATM   16  O2  UNL     1      -2.365  -2.763  -0.761  1.00  0.00    -0.274 OA
ATOM     17  H2  UNL     1      -2.481  -3.671  -1.014  1.00  0.00     0.246 HD
ENDBRANCH  14  16
ENDBRANCH   7  14
ENDBRANCH   4   7
BRANCH   1  18
HETATM   18  C3  UNL     1       2.349   1.191   0.544  1.00  0.00     0.169 C 
HETATM   19  O1  UNL     1       2.637   1.379   1.750  1.00  0.00    -0.291 OA
BRANCH  18  20
HETATM   20  C2  UNL     1       3.412   1.419  -0.455  1.00  0.00     0.165 C 
BRANCH  20  21
HETATM   21  S1  UNL     1       4.182  -0.028  -1.126  1.00  0.00    -0.090 SA
BRANCH  21  22
HETATM   22  C1  UNL     1       5.187  -0.972  -0.020  1.00  0.00     0.148 C 
HETATM   23  N1  UNL     1       5.479  -0.640   1.182  1.00  0.00    -0.382 N 
ATOM     24  H12 UNL     1       6.059  -1.185   1.820  1.00  0.00     0.157 HD
ATOM     25  H11 UNL     1       5.111   0.234   1.556  1.00  0.00     0.157 HD
HETATM   26  N2  UNL     1       5.709  -2.211  -0.550  1.00  0.00    -0.075 NA
ENDBRANCH  21  22
ENDBRANCH  20  21
ENDBRANCH  18  20
ENDBRANCH   1  18
TORSDOF 10
