REMARK  8 active torsions:
REMARK  status: ('A' for Active; 'I' for Inactive)
REMARK    1  A    between atoms: C1_2  and  C2_4 
REMARK    2  A    between atoms: C2_4  and  C3_5 
REMARK    3  A    between atoms: C2_4  and  C10_17 
REMARK    4  A    between atoms: C3_5  and  N2_6 
REMARK    5  A    between atoms: N2_6  and  C4_8 
REMARK    6  A    between atoms: C7_11  and  N3_12 
REMARK    7  A    between atoms: C10_17  and  N4_18 
REMARK    8  A    between atoms: C10_17  and  C11_22 
ROOT
HETATM    1  C2  UNL     1      -2.058  -0.125   0.222  1.00  0.00     0.133 C 
ENDROOT
BRANCH   1   2
HETATM    2  C1  UNL     1      -2.177   1.223   0.840  1.00  0.00     0.239 C 
HETATM    3  N1  UNL     1      -2.005   2.403   0.102  1.00  0.00    -0.062 NA
HETATM    4  O1  UNL     1      -2.438   1.296   2.056  1.00  0.00    -0.276 OA
ENDBRANCH   1   2
BRANCH   1   5
HETATM    5  C3  UNL     1      -0.645  -0.191  -0.326  1.00  0.00     0.136 C 
BRANCH   5   6
HETATM    6  N2  UNL     1       0.296  -0.006   0.758  1.00  0.00    -0.389 N 
ATOM      7  H2  UNL     1      -0.060   0.137   1.703  1.00  0.00     0.159 HD
BRANCH   6   8
HETATM    8  C4  UNL     1       1.695  -0.018   0.547  1.00  0.00     0.028 A 
HETATM    9  C5  UNL     1       2.218  -0.209  -0.707  1.00  0.00     0.031 A 
HETATM   10  C6  UNL     1       3.583  -0.219  -0.898  1.00  0.00     0.038 A 
HETATM   11  C7  UNL     1       4.486  -0.040   0.147  1.00  0.00     0.103 A 
HETATM   12  C8  UNL     1       3.950   0.150   1.403  1.00  0.00     0.038 A 
HETATM   13  C9  UNL     1       2.566   0.160   1.596  1.00  0.00     0.031 A 
BRANCH  11  14
HETATM   14  N3  UNL     1       5.882  -0.058  -0.092  1.00  0.00    -0.116 N 
HETATM   15  O2  UNL     1       6.659   0.104   0.862  1.00  0.00    -0.532 OA
HETATM   16  O3  UNL     1       6.376  -0.249  -1.350  1.00  0.00    -0.532 OA
ENDBRANCH  11  14
ENDBRANCH   6   8
ENDBRANCH   5   6
ENDBRANCH   1   5
BRANCH   1  17
HETATM   17  C10 UNL     1      -3.110  -0.315  -0.852  1.00  0.00     0.297 C 
BRANCH  17  18
HETATM   18  N4  UNL     1      -4.412  -0.154  -0.176  1.00  0.00    -0.064 N 
ATOM     19  H43 UNL     1      -4.533  -0.771   0.627  1.00  0.00     0.275 HD
ATOM     20  H42 UNL     1      -4.502   0.726   0.331  1.00  0.00     0.275 HD
ATOM     21  H41 UNL     1      -5.120  -0.282  -0.899  1.00  0.00     0.275 HD
ENDBRANCH  17  18
BRANCH  17  22
HETATM   22  C11 UNL     1      -3.077  -1.679  -1.391  1.00  0.00     0.205 C 
HETATM   23  O4  UNL     1      -2.156  -2.113  -2.140  1.00  0.00    -0.646 OA
HETATM   24  O5  UNL     1      -4.098  -2.570  -1.081  1.00  0.00    -0.646 OA
ENDBRANCH  17  22
ENDBRANCH   1  17
TORSDOF 8
