REMARK  9 active torsions:
REMARK  status: ('A' for Active; 'I' for Inactive)
REMARK    1  A    between atoms: C2_2  and  C4_4 
REMARK    2  A    between atoms: C4_4  and  C5_5 
REMARK    3  A    between atoms: C4_4  and  C6_10 
REMARK    4  A    between atoms: C6_10  and  N3_11 
REMARK    5  A    between atoms: C6_10  and  C7_15 
REMARK    6  A    between atoms: C7_15  and  O1_16 
REMARK    7  A    between atoms: C7_15  and  C8_18 
REMARK    8  A    between atoms: C8_18  and  C9_20 
REMARK    9  A    between atoms: C9_20  and  N4_21 
ROOT
HETATM    1  C6  UNL     1      -1.216  -0.181   0.668  1.00  0.00     0.234 C 
ENDROOT
BRANCH   1   2
HETATM    2  C4  UNL     1      -2.681  -0.111   0.684  1.00  0.00     0.111 C 
BRANCH   2   3
HETATM    3  C2  UNL     1      -3.449  -1.325   0.397  1.00  0.00    -0.080 C 
HETATM    4  C1  UNL     1      -2.995  -2.530   0.132  1.00  0.00     0.015 C 
HETATM    5  C3  UNL     1      -4.942  -1.149   0.405  1.00  0.00     0.043 C 
ENDBRANCH   2   3
BRANCH   2   6
HETATM    6  C5  UNL     1      -3.167   1.049  -0.102  1.00  0.00     0.097 C 
HETATM    7  N1  UNL     1      -4.055   0.995  -1.001  1.00  0.00    -0.390 N 
ATOM      8  H12 UNL     1      -4.468   0.084  -1.200  1.00  0.00     0.157 HD
ATOM      9  H11 UNL     1      -4.389   1.793  -1.542  1.00  0.00     0.157 HD
HETATM   10  N2  UNL     1      -2.582   2.338   0.179  1.00  0.00    -0.087 NA
ENDBRANCH   2   6
ENDBRANCH   1   2
BRANCH   1  11
HETATM   11  N3  UNL     1      -0.771  -1.142   1.657  1.00  0.00    -0.071 N 
ATOM     12  H33 UNL     1      -1.138  -0.938   2.587  1.00  0.00     0.274 HD
ATOM     13  H32 UNL     1      -1.203  -2.057   1.528  1.00  0.00     0.274 HD
ATOM     14  H31 UNL     1       0.248  -1.191   1.646  1.00  0.00     0.274 HD
ENDBRANCH   1  11
BRANCH   1  15
HETATM   15  C7  UNL     1      -0.524  -0.331  -0.646  1.00  0.00     0.220 C 
BRANCH  15  16
HETATM   16  O1  UNL     1      -0.952   0.588  -1.591  1.00  0.00    -0.386 OA
ATOM     17  H1  UNL     1      -0.512   0.493  -2.427  1.00  0.00     0.210 HD
ENDBRANCH  15  16
BRANCH  15  18
HETATM   18  C8  UNL     1       0.938  -0.208  -0.376  1.00  0.00     0.176 C 
HETATM   19  O2  UNL     1       1.420  -1.014   0.427  1.00  0.00    -0.293 OA
BRANCH  18  20
HETATM   20  C9  UNL     1       1.743   0.820  -1.039  1.00  0.00     0.229 C 
BRANCH  20  21
HETATM   21  N4  UNL     1       3.152   0.679  -0.637  1.00  0.00    -0.296 N 
HETATM   22  C10 UNL     1       3.734   1.276   0.413  1.00  0.00     0.112 A 
HETATM   23  C11 UNL     1       5.065   0.911   0.480  1.00  0.00     0.045 A 
HETATM   24  C12 UNL     1       5.246   0.061  -0.592  1.00  0.00     0.023 A 
HETATM   25  C13 UNL     1       6.547  -0.608  -0.948  1.00  0.00     0.070 C 
HETATM   26  N5  UNL     1       4.084  -0.045  -1.223  1.00  0.00    -0.303 N 
ATOM     27  H5  UNL     1       3.931  -0.614  -2.056  1.00  0.00     0.186 HD
ENDBRANCH  20  21
ENDBRANCH  18  20
ENDBRANCH  15  18
ENDBRANCH   1  15
TORSDOF 9
