REMARK  10 active torsions:
REMARK  status: ('A' for Active; 'I' for Inactive)
REMARK    1  A    between atoms: C1_2  and  C2_4 
REMARK    2  A    between atoms: C2_4  and  O2_5 
REMARK    3  A    between atoms: C2_4  and  C3_7 
REMARK    4  A    between atoms: C3_7  and  N2_8 
REMARK    5  A    between atoms: C3_7  and  C4_12 
REMARK    6  A    between atoms: C4_12  and  N3_13 
REMARK    7  A    between atoms: C4_12  and  C5_17 
REMARK    8  A    between atoms: C5_17  and  C6_18 
REMARK    9  A    between atoms: C6_18  and  C7_19 
REMARK   10  A    between atoms: C7_19  and  C8_21 
ROOT
HETATM    1  C4  UNL     1       0.801   1.015   0.154  1.00  0.00     0.217 C 
ENDROOT
BRANCH   1   2
HETATM    2  C3  UNL     1       1.930   0.102  -0.268  1.00  0.00     0.251 C 
BRANCH   2   3
HETATM    3  C2  UNL     1       3.071   0.297   0.722  1.00  0.00     0.239 C 
BRANCH   3   4
HETATM    4  C1  UNL     1       4.150  -0.667   0.457  1.00  0.00     0.262 C 
HETATM    5  N1  UNL     1       3.871  -2.046   0.419  1.00  0.00    -0.060 NA
HETATM    6  O1  UNL     1       5.310  -0.261   0.265  1.00  0.00    -0.274 OA
ENDBRANCH   3   4
BRANCH   3   7
HETATM    7  O2  UNL     1       3.523   1.616   0.711  1.00  0.00    -0.384 OA
ATOM      8  H2  UNL     1       2.826   2.239   0.882  1.00  0.00     0.210 HD
ENDBRANCH   3   7
ENDBRANCH   2   3
BRANCH   2   9
HETATM    9  N2  UNL     1       2.394   0.423  -1.592  1.00  0.00    -0.070 N 
ATOM     10  H23 UNL     1       2.798   1.358  -1.645  1.00  0.00     0.274 HD
ATOM     11  H22 UNL     1       3.226  -0.107  -1.850  1.00  0.00     0.274 HD
ATOM     12  H21 UNL     1       1.630   0.292  -2.255  1.00  0.00     0.274 HD
ENDBRANCH   2   9
ENDBRANCH   1   2
BRANCH   1  13
HETATM   13  N3  UNL     1       1.241   2.397   0.140  1.00  0.00    -0.073 N 
ATOM     14  H33 UNL     1       2.076   2.536   0.709  1.00  0.00     0.274 HD
ATOM     15  H32 UNL     1       1.629   2.664  -0.765  1.00  0.00     0.274 HD
ATOM     16  H31 UNL     1       0.479   3.013   0.425  1.00  0.00     0.274 HD
ENDBRANCH   1  13
BRANCH   1  17
HETATM   17  C5  UNL     1      -0.464   0.828  -0.619  1.00  0.00     0.043 C 
BRANCH  17  18
HETATM   18  C6  UNL     1      -1.009  -0.562  -0.489  1.00  0.00     0.086 C 
BRANCH  18  19
HETATM   19  C7  UNL     1      -2.266  -0.746  -1.253  1.00  0.00     0.166 C 
HETATM   20  O3  UNL     1      -2.214  -0.960  -2.467  1.00  0.00    -0.292 OA
BRANCH  19  21
HETATM   21  C8  UNL     1      -3.560  -0.674  -0.569  1.00  0.00     0.050 A 
HETATM   22  C9  UNL     1      -4.809  -0.817  -1.099  1.00  0.00     0.023 A 
HETATM   23  C10 UNL     1      -5.853  -0.708  -0.267  1.00  0.00     0.009 A 
HETATM   24  C11 UNL     1      -5.583  -0.461   1.054  1.00  0.00     0.050 A 
HETATM   25  S1  UNL     1      -3.877  -0.391   1.082  1.00  0.00    -0.098 SA
ENDBRANCH  19  21
ENDBRANCH  18  19
ENDBRANCH  17  18
ENDBRANCH   1  17
TORSDOF 10
