REMARK  13 active torsions:
REMARK  status: ('A' for Active; 'I' for Inactive)
REMARK    1  A    between atoms: C2_2  and  C3_3 
REMARK    2  A    between atoms: C3_3  and  C4_4 
REMARK    3  A    between atoms: C3_3  and  C15_33 
REMARK       I    between atoms: C4_4  and  N1_6 
REMARK    4  A    between atoms: N1_6  and  N2_8 
REMARK       I    between atoms: N2_8  and  C5_10 
REMARK    5  A    between atoms: C5_10  and  C6_12 
REMARK    6  A    between atoms: C7_13  and  C8_14 
REMARK    7  A    between atoms: N3_16  and  O3_17 
REMARK    8  A    between atoms: C9_19  and  O4_20 
REMARK    9  A    between atoms: C9_19  and  C10_22 
REMARK   10  A    between atoms: N4_25  and  C11_26 
REMARK   11  A    between atoms: C11_26  and  O7_27 
REMARK   12  A    between atoms: C11_26  and  C12_29 
REMARK   13  A    between atoms: C19_37  and  C20_38 
ROOT
HETATM    1  N2  UNL     1      -1.545  -0.682   0.610  1.00  0.00    -0.265 N 
ATOM      2  H2  UNL     1      -1.987  -0.602  -0.306  1.00  0.00     0.190 HD
HETATM    3  C5  UNL     1      -2.293  -0.325   1.742  1.00  0.00     0.265 C 
HETATM    4  O2  UNL     1      -1.737  -0.428   2.868  1.00  0.00    -0.269 OA
ENDROOT
BRANCH   3   5
HETATM    5  C6  UNL     1      -3.667   0.158   1.716  1.00  0.00     0.234 C 
HETATM    6  C7  UNL     1      -3.819   1.546   2.171  1.00  0.00     0.060 C 
HETATM    7  N3  UNL     1      -4.346   2.227   1.249  1.00  0.00    -0.201 N 
HETATM    8  C9  UNL     1      -4.627   1.426   0.060  1.00  0.00     0.336 C 
HETATM    9  N4  UNL     1      -4.335   0.084   0.419  1.00  0.00    -0.283 N 
BRANCH   6  10
HETATM   10  C8  UNL     1      -3.385   1.978   3.536  1.00  0.00     0.143 C 
HETATM   11 BR1  UNL     1      -4.313   0.923   4.857  1.00  0.00    -0.090 Br
ENDBRANCH   6  10
BRANCH   7  12
HETATM   12  O3  UNL     1      -4.652   3.577   1.290  1.00  0.00    -0.283 OA
ATOM     13  H3  UNL     1      -5.049   4.090   0.596  1.00  0.00     0.245 HD
ENDBRANCH   7  12
BRANCH   8  14
HETATM   14  O4  UNL     1      -6.018   1.615  -0.136  1.00  0.00    -0.344 OA
ATOM     15  H4  UNL     1      -6.201   1.094  -0.909  1.00  0.00     0.215 HD
ENDBRANCH   8  14
BRANCH   8  16
HETATM   16  C10 UNL     1      -3.941   1.976  -1.112  1.00  0.00     0.258 C 
HETATM   17  O5  UNL     1      -2.705   2.012  -1.307  1.00  0.00    -0.643 OA
HETATM   18  O6  UNL     1      -4.716   2.528  -2.139  1.00  0.00    -0.643 OA
ENDBRANCH   8  16
BRANCH   9  19
HETATM   19  C11 UNL     1      -4.590  -1.177  -0.176  1.00  0.00     0.159 C 
BRANCH  19  20
HETATM   20  O7  UNL     1      -4.223  -2.213   0.523  1.00  0.00    -0.347 OA
ATOM     21  H7  UNL     1      -4.394  -3.058   0.124  1.00  0.00     0.219 HD
ENDBRANCH  19  20
BRANCH  19  22
HETATM   22  C12 UNL     1      -5.202  -1.503  -1.458  1.00  0.00     0.160 C 
HETATM   23  C13 UNL     1      -4.366  -1.063  -2.616  1.00  0.00     0.060 C 
HETATM   24  C14 UNL     1      -6.625  -1.012  -1.639  1.00  0.00     0.060 C 
HETATM   25  F1  UNL     1      -5.246  -2.925  -1.545  1.00  0.00    -0.235 F 
ENDBRANCH  19  22
ENDBRANCH   9  19
ENDBRANCH   3   5
BRANCH   1  26
HETATM   26  N1  UNL     1      -0.216  -1.145   0.671  1.00  0.00    -0.263 N 
HETATM   27  C4  UNL     1       0.873  -0.401   1.173  1.00  0.00     0.267 C 
HETATM   28  O1  UNL     1       0.513   0.777   1.585  1.00  0.00    -0.266 OA
ATOM     29  H1  UNL     1      -0.027  -2.087   0.327  1.00  0.00     0.190 HD
BRANCH  27  30
HETATM   30  C3  UNL     1       2.281  -0.824   1.260  1.00  0.00     0.021 C 
BRANCH  30  31
HETATM   31  C2  UNL     1       2.517  -1.919   2.204  1.00  0.00     0.003 C 
HETATM   32  C1  UNL     1       1.621  -2.756   2.710  1.00  0.00     0.012 C 
ENDBRANCH  30  31
BRANCH  30  33
HETATM   33  C15 UNL     1       3.019  -0.875  -0.035  1.00  0.00     0.010 C 
HETATM   34  C16 UNL     1       2.789  -2.126  -0.854  1.00  0.00     0.022 C 
HETATM   35  C17 UNL     1       2.350   0.240  -0.912  1.00  0.00     0.017 C 
HETATM   36  C18 UNL     1       3.521   0.768  -1.730  1.00  0.00     0.012 C 
HETATM   37  C19 UNL     1       4.556   0.859  -0.586  1.00  0.00     0.037 C 
HETATM   38  C23 UNL     1       4.465  -0.513  -0.037  1.00  0.00     0.052 C 
HETATM   39  C24 UNL     1       5.189  -0.655   1.275  1.00  0.00     0.034 C 
HETATM   40 CL1  UNL     1       5.263  -1.655  -1.176  1.00  0.00    -0.118 Cl
BRANCH  37  41
HETATM   41  C20 UNL     1       5.785   1.381  -1.120  1.00  0.00    -0.087 C 
HETATM   42  C21 UNL     1       6.982   0.895  -1.245  1.00  0.00     0.014 C 
HETATM   43  C22 UNL     1       5.673   2.824  -1.652  1.00  0.00     0.043 C 
ENDBRANCH  37  41
ENDBRANCH  30  33
ENDBRANCH  27  30
ENDBRANCH   1  26
TORSDOF 13
