REMARK  9 active torsions:
REMARK  status: ('A' for Active; 'I' for Inactive)
REMARK    1  A    between atoms: C2_2  and  C4_4 
REMARK    2  A    between atoms: C4_4  and  S1_5 
REMARK    3  A    between atoms: S1_5  and  N1_8 
REMARK    4  A    between atoms: C8_15  and  C9_16 
REMARK       I    between atoms: C9_16  and  N3_18 
REMARK    5  A    between atoms: N3_18  and  C10_20 
REMARK    6  A    between atoms: C10_20  and  C11_21 
REMARK    7  A    between atoms: C10_20  and  C12_23 
REMARK    8  A    between atoms: C16_29  and  C17_30 
REMARK    9  A    between atoms: C17_30  and  O5_31 
ROOT
HETATM    1  N1  UNL     1       1.017  -0.393  -0.178  1.00  0.00    -0.180 NA
HETATM    2  C5  UNL     1       2.266  -0.869  -0.776  1.00  0.00     0.135 C 
HETATM    3  C6  UNL     1       2.060  -2.333  -0.956  1.00  0.00     0.107 C 
HETATM    4  N2  UNL     1       1.956  -2.972   0.314  1.00  0.00    -0.352 N 
ATOM      5  H2  UNL     1       2.617  -3.639   0.712  1.00  0.00     0.163 HD
HETATM    6  C7  UNL     1       0.744  -2.501   0.930  1.00  0.00     0.252 C 
HETATM    7  O3  UNL     1       0.244  -2.788   2.030  1.00  0.00    -0.271 OA
HETATM    8  C8  UNL     1       0.166  -1.550  -0.050  1.00  0.00     0.196 C 
HETATM    9  C16 UNL     1       0.561  -2.275  -1.354  1.00  0.00     0.076 C 
ENDROOT
BRANCH   8  10
HETATM   10  C9  UNL     1      -1.243  -1.279   0.080  1.00  0.00     0.252 C 
HETATM   11  O4  UNL     1      -2.000  -2.272   0.362  1.00  0.00    -0.271 OA
HETATM   12  N3  UNL     1      -1.882  -0.023  -0.075  1.00  0.00    -0.353 N 
ATOM     13  H3  UNL     1      -1.300   0.786  -0.292  1.00  0.00     0.163 HD
BRANCH  12  14
HETATM   14  C10 UNL     1      -3.296   0.182   0.054  1.00  0.00     0.098 C 
BRANCH  14  15
HETATM   15  C11 UNL     1      -3.726   0.939   1.273  1.00  0.00     0.110 C 
HETATM   16 BR1  UNL     1      -3.226   0.051   2.917  1.00  0.00    -0.094 Br
ENDBRANCH  14  15
BRANCH  14  17
HETATM   17  C12 UNL     1      -3.904   0.700  -1.213  1.00  0.00     0.014 C 
HETATM   18  C13 UNL     1      -3.373   2.019  -1.711  1.00  0.00     0.039 C 
HETATM   19  C14 UNL     1      -3.565   1.464  -3.128  1.00  0.00     0.076 C 
HETATM   20 BR2  UNL     1      -2.164   1.935  -4.345  1.00  0.00    -0.073 Br
HETATM   21 BR3  UNL     1      -5.337   1.816  -3.793  1.00  0.00    -0.073 Br
HETATM   22  C15 UNL     1      -3.408   0.076  -2.487  1.00  0.00     0.039 C 
ENDBRANCH  14  17
ENDBRANCH  12  14
ENDBRANCH   8  10
BRANCH   1  23
HETATM   23  S1  UNL     1       1.467   0.341   1.305  1.00  0.00     0.213 S 
HETATM   24  O1  UNL     1       2.173  -0.648   2.208  1.00  0.00    -0.211 OA
HETATM   25  O2  UNL     1       0.339   0.907   2.085  1.00  0.00    -0.211 OA
BRANCH  23  26
HETATM   26  C4  UNL     1       2.547   1.695   0.894  1.00  0.00     0.161 C 
BRANCH  26  27
HETATM   27  C2  UNL     1       3.022   2.434   2.120  1.00  0.00    -0.007 C 
HETATM   28  C1  UNL     1       3.925   3.553   1.642  1.00  0.00     0.010 C 
HETATM   29  C3  UNL     1       3.817   1.575   3.059  1.00  0.00     0.010 C 
ENDBRANCH  26  27
ENDBRANCH  23  26
ENDBRANCH   1  23
BRANCH   9  30
HETATM   30  C17 UNL     1       0.096  -3.679  -1.436  1.00  0.00     0.173 C 
BRANCH  30  31
HETATM   31  O5  UNL     1      -1.230  -3.830  -1.808  1.00  0.00    -0.400 OA
ATOM     32  H5  UNL     1      -1.528  -4.730  -1.861  1.00  0.00     0.209 HD
ENDBRANCH  30  31
ENDBRANCH   9  30
TORSDOF 9
