REMARK  11 active torsions:
REMARK  status: ('A' for Active; 'I' for Inactive)
REMARK    1  A    between atoms: N1_1  and  S1_4 
REMARK    2  A    between atoms: S1_4  and  C1_6 
REMARK    3  A    between atoms: S1_4  and  N2_9 
REMARK    4  A    between atoms: C5_12  and  C6_13 
REMARK    5  A    between atoms: C6_13  and  O2_14 
REMARK    6  A    between atoms: C6_13  and  C7_16 
REMARK    7  A    between atoms: C7_16  and  C8_17 
REMARK    8  A    between atoms: C18_27  and  C19_28 
REMARK       I    between atoms: C19_28  and  N4_30 
REMARK    9  A    between atoms: C22_33  and  C23_34 
REMARK   10  A    between atoms: N5_40  and  C26_41 
REMARK   11  A    between atoms: C26_41  and  C27_42 
ROOT
HETATM    1  N2  UNL     1       1.061  -2.379   0.019  1.00  0.00    -0.105 NA
HETATM    2  N3  UNL     1       0.027  -3.329  -0.041  1.00  0.00    -0.146 NA
HETATM    3  C4  UNL     1      -0.495  -3.503   1.295  1.00  0.00     0.143 C 
HETATM    4  C5  UNL     1      -0.396  -2.020   1.779  1.00  0.00     0.083 C 
HETATM    5  C18 UNL     1       1.023  -1.825   1.319  1.00  0.00     0.097 C 
ENDROOT
BRANCH   5   6
HETATM    6  C19 UNL     1       1.679  -0.588   1.632  1.00  0.00     0.282 C 
HETATM    7  O3  UNL     1       1.747  -0.386   2.911  1.00  0.00    -0.265 OA
HETATM    8  N4  UNL     1       2.241   0.399   0.818  1.00  0.00    -0.251 N 
HETATM    9  C20 UNL     1       2.164   0.397  -0.666  1.00  0.00     0.159 C 
HETATM   10  N5  UNL     1       2.996   1.475   1.397  1.00  0.00    -0.247 N 
HETATM   11  C21 UNL     1       3.563   0.519  -1.097  1.00  0.00     0.035 A 
HETATM   12  C22 UNL     1       4.305   1.352  -1.974  1.00  0.00     0.107 A 
HETATM   13  C24 UNL     1       3.776   2.061  -0.853  1.00  0.00     0.101 A 
HETATM   14  C25 UNL     1       4.014   2.092   0.560  1.00  0.00     0.244 C 
HETATM   15  O6  UNL     1       5.039   2.620   1.053  1.00  0.00    -0.271 OA
BRANCH  12  16
HETATM   16  C23 UNL     1       3.791   1.654  -3.325  1.00  0.00     0.178 C 
HETATM   17  O4  UNL     1       4.572   1.747  -4.285  1.00  0.00    -0.648 OA
HETATM   18  O5  UNL     1       2.439   1.832  -3.511  1.00  0.00    -0.648 OA
ENDBRANCH  12  16
BRANCH  10  19
HETATM   19  C26 UNL     1       2.816   1.968   2.730  1.00  0.00     0.269 C 
BRANCH  19  20
HETATM   20  C27 UNL     1       1.801   3.098   2.829  1.00  0.00     0.405 C 
HETATM   21  F1  UNL     1       0.549   2.745   2.404  1.00  0.00    -0.169 F 
HETATM   22  F2  UNL     1       1.788   3.604   4.115  1.00  0.00    -0.169 F 
HETATM   23  F3  UNL     1       2.203   4.171   2.019  1.00  0.00    -0.169 F 
ENDBRANCH  19  20
ENDBRANCH  10  19
ENDBRANCH   5   6
BRANCH   1  24
HETATM   24  S1  UNL     1       2.500  -3.351  -0.238  1.00  0.00     0.108 S 
HETATM   25  O1  UNL     1       3.669  -2.829   0.505  1.00  0.00    -0.232 OA
BRANCH  24  26
HETATM   26  N1  UNL     1       2.258  -4.814   0.243  1.00  0.00    -0.347 N 
ATOM     27  H12 UNL     1       2.812  -5.307   0.943  1.00  0.00     0.166 HD
ATOM     28  H11 UNL     1       1.452  -5.174  -0.269  1.00  0.00     0.166 HD
ENDBRANCH  24  26
BRANCH  24  29
HETATM   29  C1  UNL     1       2.931  -3.316  -1.967  1.00  0.00     0.104 A 
HETATM   30  C2  UNL     1       3.848  -4.418  -2.398  1.00  0.00     0.021 A 
HETATM   31  C3  UNL     1       2.413  -4.338  -2.894  1.00  0.00     0.021 A 
ENDBRANCH  24  29
ENDBRANCH   1  24
BRANCH   4  32
HETATM   32  C6  UNL     1      -1.481  -1.349   1.026  1.00  0.00     0.130 C 
BRANCH  32  33
HETATM   33  O2  UNL     1      -2.643  -2.067   1.455  1.00  0.00    -0.395 OA
ATOM     34  H2  UNL     1      -3.339  -1.637   0.972  1.00  0.00     0.210 HD
ENDBRANCH  32  33
BRANCH  32  35
HETATM   35  C7  UNL     1      -1.696   0.094   1.270  1.00  0.00     0.042 C 
BRANCH  35  36
HETATM   36  C8  UNL     1      -2.800   0.735   0.490  1.00  0.00    -0.037 C 
HETATM   37  C9  UNL     1      -2.776   2.207   0.950  1.00  0.00     0.014 C 
HETATM   38  C10 UNL     1      -3.781   3.049   0.244  1.00  0.00    -0.013 C 
HETATM   39  C11 UNL     1      -5.178   2.539   0.628  1.00  0.00     0.009 C 
HETATM   40  C15 UNL     1      -3.685   2.983  -1.249  1.00  0.00     0.009 C 
HETATM   41  C12 UNL     1      -5.227   1.119   0.171  1.00  0.00    -0.013 C 
HETATM   42  C13 UNL     1      -5.030   0.962  -1.321  1.00  0.00     0.009 C 
HETATM   43  C17 UNL     1      -4.170   0.234   0.829  1.00  0.00     0.014 C 
HETATM   44  C14 UNL     1      -3.670   1.526  -1.655  1.00  0.00    -0.013 C 
HETATM   45  C16 UNL     1      -2.543   0.790  -0.992  1.00  0.00     0.014 C 
ENDBRANCH  35  36
ENDBRANCH  32  35
ENDBRANCH   4  32
TORSDOF 11
