REMARK  8 active torsions:
REMARK  status: ('A' for Active; 'I' for Inactive)
REMARK    1  A    between atoms: C2_2  and  C16_28 
REMARK    2  A    between atoms: N1_3  and  N2_5 
REMARK    3  A    between atoms: N2_5  and  C3_7 
REMARK    4  A    between atoms: C3_7  and  N3_9 
REMARK    5  A    between atoms: N3_9  and  N4_11 
REMARK    6  A    between atoms: C4_13  and  C5_14 
REMARK    7  A    between atoms: C6_16  and  C7_17 
REMARK    8  A    between atoms: C15_25  and  O2_26 
ROOT
HETATM    1  N3  UNL     1       0.943  -1.297  -0.107  1.00  0.00    -0.275 N 
ATOM      2  H3  UNL     1      -0.019  -1.581  -0.294  1.00  0.00     0.189 HD
ENDROOT
BRANCH   1   3
HETATM    3  C3  UNL     1       1.734  -2.186   0.635  1.00  0.00     0.205 C 
HETATM    4  S1  UNL     1       0.916  -3.543   1.214  1.00  0.00    -0.038 SA
BRANCH   3   5
HETATM    5  N2  UNL     1       3.062  -2.061   0.964  1.00  0.00    -0.275 N 
ATOM      6  H2  UNL     1       3.388  -2.835   1.542  1.00  0.00     0.189 HD
BRANCH   5   7
HETATM    7  N1  UNL     1       4.067  -1.146   0.706  1.00  0.00    -0.301 N 
HETATM    8  C2  UNL     1       4.693  -1.165  -0.431  1.00  0.00     0.050 C 
HETATM    9  C1  UNL     1       4.270  -2.193  -1.427  1.00  0.00     0.072 C 
ATOM     10  H1  UNL     1       4.317  -0.454   1.412  1.00  0.00     0.186 HD
BRANCH   8  11
HETATM   11  C16 UNL     1       5.794  -0.269  -0.672  1.00  0.00     0.082 A 
HETATM   12  N5  UNL     1       6.563  -0.296  -1.823  1.00  0.00    -0.305 N 
HETATM   13  C17 UNL     1       7.528   0.648  -1.705  1.00  0.00     0.325 A 
ATOM     14  H5  UNL     1       6.427  -0.918  -2.620  1.00  0.00     0.171 HD
HETATM   15  O3  UNL     1       8.401   0.887  -2.589  1.00  0.00    -0.247 OA
HETATM   16  N6  UNL     1       7.410   1.269  -0.545  1.00  0.00    -0.310 N 
HETATM   17  C18 UNL     1       6.332   0.701   0.098  1.00  0.00     0.038 A 
ATOM     18  H6  UNL     1       8.002   2.022  -0.194  1.00  0.00     0.170 HD
HETATM   19  C19 UNL     1       5.883   1.175   1.434  1.00  0.00     0.071 C 
ENDBRANCH   8  11
ENDBRANCH   5   7
ENDBRANCH   3   5
ENDBRANCH   1   3
BRANCH   1  20
HETATM   20  N4  UNL     1       1.337  -0.093  -0.600  1.00  0.00    -0.307 N 
HETATM   21  C4  UNL     1       0.708   0.963  -0.776  1.00  0.00     0.147 C 
ATOM     22  H4  UNL     1       2.319  -0.050  -0.872  1.00  0.00     0.186 HD
BRANCH  21  23
HETATM   23  C5  UNL     1      -0.715   1.120  -0.449  1.00  0.00     0.126 A 
HETATM   24  O1  UNL     1      -1.455   0.178   0.021  1.00  0.00    -0.306 OA
HETATM   25  C6  UNL     1      -2.716   0.570   0.238  1.00  0.00     0.087 A 
HETATM   26  C13 UNL     1      -2.799   1.885  -0.134  1.00  0.00     0.008 A 
HETATM   27  C14 UNL     1      -3.962   2.779  -0.219  1.00  0.00     0.054 C 
HETATM   28  C15 UNL     1      -1.530   2.227  -0.567  1.00  0.00     0.109 A 
BRANCH  25  29
HETATM   29  C7  UNL     1      -3.796  -0.259   0.789  1.00  0.00    -0.045 C 
HETATM   30  C8  UNL     1      -4.168  -1.469  -0.046  1.00  0.00     0.037 C 
HETATM   31  C9  UNL     1      -5.575  -1.327  -0.616  1.00  0.00     0.004 C 
HETATM   32  C10 UNL     1      -6.522  -0.560   0.267  1.00  0.00     0.001 C 
HETATM   33  C11 UNL     1      -6.049  -0.573   1.704  1.00  0.00     0.004 C 
HETATM   34  C12 UNL     1      -4.788   0.328   1.682  1.00  0.00     0.037 C 
ENDBRANCH  25  29
BRANCH  28  35
HETATM   35  O2  UNL     1      -1.163   3.469  -1.029  1.00  0.00    -0.357 OA
ATOM     36  H2  UNL     1      -1.724   4.231  -1.110  1.00  0.00     0.217 HD
ENDBRANCH  28  35
ENDBRANCH  21  23
ENDBRANCH   1  20
TORSDOF 8
