REMARK  10 active torsions:
REMARK  status: ('A' for Active; 'I' for Inactive)
REMARK    1  A    between atoms: C2_2  and  C4_4 
REMARK    2  A    between atoms: C7_7  and  C8_8 
REMARK    3  A    between atoms: C8_8  and  O1_9 
REMARK    4  A    between atoms: C9_11  and  O2_12 
REMARK    5  A    between atoms: C9_11  and  C10_14 
REMARK    6  A    between atoms: C10_14  and  O3_15 
REMARK    7  A    between atoms: O3_15  and  C11_16 
REMARK    8  A    between atoms: C12_19  and  O5_20 
REMARK    9  A    between atoms: C15_24  and  C16_25 
REMARK   10  A    between atoms: C16_25  and  O6_26 
ROOT
HETATM    1  C4  UNL     1      -1.549   1.789  -0.104  1.00  0.00     0.021 C 
HETATM    2  C5  UNL     1      -0.077   1.762  -0.368  1.00  0.00     0.037 C 
HETATM    3  C6  UNL     1       0.807   1.636   0.774  1.00  0.00    -0.018 C 
HETATM    4  C7  UNL     1       1.881   0.866   0.971  1.00  0.00    -0.022 C 
HETATM    5  C9  UNL     1       2.363  -0.132  -0.028  1.00  0.00     0.131 C 
HETATM    6  C12 UNL     1       1.650  -1.446   0.325  1.00  0.00     0.167 C 
HETATM    7  C13 UNL     1       0.809  -2.060  -0.683  1.00  0.00     0.044 C 
HETATM    8  C14 UNL     1       1.589  -3.145  -1.404  1.00  0.00     0.017 C 
HETATM    9  C15 UNL     1      -0.537  -2.576  -0.270  1.00  0.00    -0.054 C 
HETATM   10  C17 UNL     1      -1.689  -1.951  -0.279  1.00  0.00    -0.016 C 
HETATM   11  C18 UNL     1      -2.029  -0.584  -0.686  1.00  0.00     0.021 C 
HETATM   12  C19 UNL     1      -2.122   0.451   0.371  1.00  0.00     0.003 C 
HETATM   13  C20 UNL     1      -3.647   0.397   0.216  1.00  0.00     0.015 C 
HETATM   14  C21 UNL     1      -3.509  -0.385  -1.043  1.00  0.00    -0.040 C 
HETATM   15  C22 UNL     1      -3.792   0.280  -2.338  1.00  0.00     0.015 C 
HETATM   16  C23 UNL     1      -4.299  -1.698  -0.960  1.00  0.00     0.015 C 
ENDROOT
BRANCH   5  17
HETATM   17  O2  UNL     1       2.202   0.211  -1.334  1.00  0.00    -0.380 OA
ATOM     18  H2  UNL     1       2.509  -0.424  -1.970  1.00  0.00     0.211 HD
ENDBRANCH   5  17
BRANCH   5  19
HETATM   19  C10 UNL     1       3.858  -0.276   0.128  1.00  0.00     0.225 C 
BRANCH  19  20
HETATM   20  O3  UNL     1       4.686   0.748  -0.117  1.00  0.00    -0.303 OA
BRANCH  20  21
HETATM   21  C11 UNL     1       5.010   1.413  -1.223  1.00  0.00     0.372 C 
HETATM   22  N1  UNL     1       5.941   2.521  -1.229  1.00  0.00    -0.032 NA
HETATM   23  O4  UNL     1       4.540   1.136  -2.338  1.00  0.00    -0.242 OA
ENDBRANCH  20  21
ENDBRANCH  19  20
ENDBRANCH   5  19
BRANCH   4  24
HETATM   24  C8  UNL     1       2.565   0.986   2.273  1.00  0.00     0.201 C 
BRANCH  24  25
HETATM   25  O1  UNL     1       3.868   1.388   2.281  1.00  0.00    -0.397 OA
ATOM     26  H1  UNL     1       4.308   1.465   3.119  1.00  0.00     0.209 HD
ENDBRANCH  24  25
ENDBRANCH   4  24
BRANCH   6  27
HETATM   27  O5  UNL     1       1.093  -1.399   1.605  1.00  0.00    -0.391 OA
ATOM     28  H5  UNL     1       0.652  -2.212   1.823  1.00  0.00     0.210 HD
ENDBRANCH   6  27
BRANCH   9  29
HETATM   29  C16 UNL     1      -0.451  -3.998   0.198  1.00  0.00     0.198 C 
BRANCH  29  30
HETATM   30  O6  UNL     1       0.387  -4.167   1.283  1.00  0.00    -0.397 OA
ATOM     31  H6  UNL     1       0.441  -5.068   1.579  1.00  0.00     0.209 HD
ENDBRANCH  29  30
ENDBRANCH   9  29
BRANCH   1  32
HETATM   32  C2  UNL     1      -2.024   2.950   0.634  1.00  0.00    -0.088 C 
HETATM   33  C1  UNL     1      -2.655   3.964   0.031  1.00  0.00     0.014 C 
HETATM   34  C3  UNL     1      -1.863   3.064   2.101  1.00  0.00     0.043 C 
ENDBRANCH   1  32
TORSDOF 10
