REMARK  12 active torsions:
REMARK  status: ('A' for Active; 'I' for Inactive)
REMARK    1  A    between atoms: O1_2  and  C2_3 
REMARK    2  A    between atoms: C2_3  and  O2_4 
REMARK    3  A    between atoms: C4_6  and  N1_7 
REMARK       I    between atoms: N1_7  and  C5_9 
REMARK    4  A    between atoms: C5_9  and  C6_11 
REMARK    5  A    between atoms: C6_11  and  N2_13 
REMARK    6  A    between atoms: C8_17  and  C9_18 
REMARK    7  A    between atoms: C9_18  and  O4_19 
REMARK    8  A    between atoms: C9_18  and  C10_21 
REMARK    9  A    between atoms: C10_21  and  O5_22 
REMARK   10  A    between atoms: C12_26  and  O6_27 
REMARK   11  A    between atoms: C14_30  and  O7_31 
REMARK   12  A    between atoms: C14_30  and  C15_33 
REMARK       I    between atoms: C15_33  and  N4_35 
ROOT
HETATM    1  C2  UNL     1      -0.546  -1.679   0.058  1.00  0.00     0.213 C 
HETATM    2  C4  UNL     1      -1.104  -0.270  -0.264  1.00  0.00     0.201 C 
HETATM    3  C8  UNL     1       0.057   0.526   0.348  1.00  0.00     0.070 C 
HETATM    4  N3  UNL     1       1.174  -0.155   0.064  1.00  0.00    -0.328 N 
HETATM    5  C11 UNL     1       0.815  -1.527  -0.416  1.00  0.00     0.181 C 
HETATM    6  C12 UNL     1       1.096  -1.292  -1.866  1.00  0.00     0.151 C 
HETATM    7  C13 UNL     1       2.500  -0.655  -1.727  1.00  0.00     0.105 C 
HETATM    8  C14 UNL     1       2.405   0.140  -0.396  1.00  0.00     0.223 C 
ENDROOT
BRANCH   8   9
HETATM    9  O7  UNL     1       2.809   1.407  -0.751  1.00  0.00    -0.363 OA
ATOM     10  H7  UNL     1       3.677   1.615  -1.075  1.00  0.00     0.213 HD
ENDBRANCH   8   9
BRANCH   8  11
HETATM   11  C15 UNL     1       3.491  -0.437   0.443  1.00  0.00     0.313 C 
HETATM   12  O8  UNL     1       3.350  -1.454   1.177  1.00  0.00    -0.264 OA
HETATM   13  N4  UNL     1       4.781   0.150   0.453  1.00  0.00    -0.127 N 
HETATM   14  N5  UNL     1       5.894  -0.288   1.226  1.00  0.00    -0.207 N 
HETATM   15  N8  UNL     1       5.276   1.235  -0.271  1.00  0.00     0.020 NA
HETATM   16  N6  UNL     1       6.832   0.578   1.155  1.00  0.00    -0.212 N 
ATOM     17  H5  UNL     1       5.936  -1.159   1.755  1.00  0.00     0.211 HD
HETATM   18  N7  UNL     1       6.446   1.637   0.356  1.00  0.00     0.010 NA
ATOM     19  H6  UNL     1       7.736   0.498   1.621  1.00  0.00     0.207 HD
ENDBRANCH   8  11
BRANCH   3  20
HETATM   20  C9  UNL     1      -0.264   1.939   0.201  1.00  0.00     0.091 C 
BRANCH  20  21
HETATM   21  O4  UNL     1       0.494   2.852   0.940  1.00  0.00    -0.361 OA
ATOM     22  H4  UNL     1       0.285   3.774   0.844  1.00  0.00     0.217 HD
ENDBRANCH  20  21
BRANCH  20  23
HETATM   23  C10 UNL     1      -0.511   2.450  -1.205  1.00  0.00     0.230 C 
BRANCH  23  24
HETATM   24  O5  UNL     1      -1.211   3.683  -1.147  1.00  0.00    -0.394 OA
ATOM     25  H5  UNL     1      -1.366   4.003  -2.028  1.00  0.00     0.209 HD
ENDBRANCH  23  24
ENDBRANCH  20  23
ENDBRANCH   3  20
BRANCH   6  26
HETATM   26  O6  UNL     1       1.332  -2.430  -2.617  1.00  0.00    -0.393 OA
ATOM     27  H6  UNL     1       1.510  -2.281  -3.538  1.00  0.00     0.210 HD
ENDBRANCH   6  26
BRANCH   2  28
HETATM   28  N1  UNL     1      -2.287  -0.021   0.520  1.00  0.00    -0.344 N 
HETATM   29  C5  UNL     1      -3.540   0.332  -0.015  1.00  0.00     0.248 C 
HETATM   30  O3  UNL     1      -3.670   0.444  -1.255  1.00  0.00    -0.271 OA
ATOM     31  H1  UNL     1      -2.211  -0.107   1.534  1.00  0.00     0.163 HD
BRANCH  29  32
HETATM   32  C6  UNL     1      -4.747   0.585   0.806  1.00  0.00     0.270 C 
HETATM   33  C7  UNL     1      -5.231   1.986   0.462  1.00  0.00     0.050 C 
BRANCH  32  34
HETATM   34  N2  UNL     1      -4.500   0.432   2.217  1.00  0.00    -0.067 N 
ATOM     35  H23 UNL     1      -4.103  -0.485   2.422  1.00  0.00     0.275 HD
ATOM     36  H22 UNL     1      -3.722   1.019   2.518  1.00  0.00     0.275 HD
ATOM     37  H21 UNL     1      -5.331   0.606   2.782  1.00  0.00     0.275 HD
ENDBRANCH  32  34
ENDBRANCH  29  32
ENDBRANCH   2  28
BRANCH   1  38
HETATM   38  O1  UNL     1      -0.482  -1.596   1.489  1.00  0.00    -0.356 OA
HETATM   39  C1  UNL     1      -0.028  -2.749   2.063  1.00  0.00     0.205 C 
ENDBRANCH   1  38
BRANCH   1  40
HETATM   40  O2  UNL     1      -1.363  -2.665  -0.176  1.00  0.00    -0.356 OA
HETATM   41  C3  UNL     1      -1.788  -3.184  -1.307  1.00  0.00     0.205 C 
ENDBRANCH   1  40
TORSDOF 12
