REMARK  11 active torsions:
REMARK  status: ('A' for Active; 'I' for Inactive)
REMARK    1  A    between atoms: C3_4  and  C4_5 
REMARK    2  A    between atoms: C4_5  and  C5_6 
REMARK    3  A    between atoms: C4_5  and  N5_15 
REMARK    4  A    between atoms: C5_6  and  N3_10 
REMARK    5  A    between atoms: N3_10  and  N4_12 
REMARK    6  A    between atoms: C6_18  and  C7_19 
REMARK    7  A    between atoms: C7_19  and  N7_20 
REMARK    8  A    between atoms: C7_19  and  C8_24 
REMARK    9  A    between atoms: C11_29  and  N8_30 
REMARK   10  A    between atoms: N11_38  and  C14_39 
REMARK   11  A    between atoms: C14_39  and  O3_40 
ROOT
HETATM    1  N5  UNL     1       0.353  -0.624  -0.151  1.00  0.00    -0.271 N 
HETATM    2  N6  UNL     1       0.224   0.335   0.863  1.00  0.00    -0.297 N 
ATOM      3  H6  UNL     1       1.001   0.662   1.437  1.00  0.00     0.187 HD
HETATM    4  C6  UNL     1      -1.000   0.762   0.990  1.00  0.00     0.084 A 
HETATM    5  C9  UNL     1      -1.547   0.049   0.090  1.00  0.00     0.082 A 
HETATM    6  C10 UNL     1      -0.800  -0.880  -0.745  1.00  0.00     0.113 A 
HETATM    7  C11 UNL     1      -1.214  -1.607  -1.812  1.00  0.00     0.132 C 
HETATM    8  N9  UNL     1      -2.611  -1.797  -2.428  1.00  0.00    -0.300 N 
ATOM      9  H9  UNL     1      -2.738  -2.226  -3.345  1.00  0.00     0.171 HD
HETATM   10  C12 UNL     1      -3.712  -1.348  -1.660  1.00  0.00     0.266 A 
HETATM   11  N10 UNL     1      -3.142  -0.869  -0.935  1.00  0.00    -0.351 NA
HETATM   12  C13 UNL     1      -2.821  -0.200   0.118  1.00  0.00     0.205 A 
HETATM   13  N11 UNL     1      -3.828   0.167   0.858  1.00  0.00    -0.251 N 
HETATM   14  C15 UNL     1      -5.080  -0.284   0.152  1.00  0.00     0.334 A 
HETATM   15  O4  UNL     1      -6.046   0.024   0.689  1.00  0.00    -0.246 OA
HETATM   16  N12 UNL     1      -4.959  -1.056  -1.133  1.00  0.00    -0.268 N 
ATOM     17  H12 UNL     1      -5.800  -1.366  -1.619  1.00  0.00     0.174 HD
ENDROOT
BRANCH   1  18
HETATM   18  C4  UNL     1       1.528  -1.297  -0.575  1.00  0.00     0.212 C 
BRANCH  18  19
HETATM   19  C3  UNL     1       2.500  -0.378  -1.209  1.00  0.00     0.008 A 
HETATM   20  C2  UNL     1       3.325   0.501  -0.532  1.00  0.00     0.120 A 
HETATM   21  N1  UNL     1       4.085   1.186  -1.398  1.00  0.00    -0.307 N 
HETATM   22  C1  UNL     1       5.054   2.183  -1.051  1.00  0.00     0.177 C 
HETATM   23  N13 UNL     1       3.787   0.788  -2.611  1.00  0.00    -0.310 N 
HETATM   24  C16 UNL     1       2.835  -0.156  -2.528  1.00  0.00     0.118 A 
ATOM     25  H13 UNL     1       4.207   1.136  -3.473  1.00  0.00     0.186 HD
ENDBRANCH  18  19
BRANCH  18  26
HETATM   26  C5  UNL     1       2.195  -1.617   0.766  1.00  0.00     0.119 C 
HETATM   27  N2  UNL     1       1.626  -1.463   1.891  1.00  0.00    -0.386 N 
ATOM     28  H22 UNL     1       0.674  -1.096   1.893  1.00  0.00     0.157 HD
ATOM     29  H21 UNL     1       2.070  -1.676   2.784  1.00  0.00     0.157 HD
BRANCH  26  30
HETATM   30  N3  UNL     1       3.532  -2.132   0.763  1.00  0.00    -0.294 N 
ATOM     31  H3  UNL     1       4.042  -2.147  -0.120  1.00  0.00     0.187 HD
BRANCH  30  32
HETATM   32  N4  UNL     1       4.163  -2.607   1.889  1.00  0.00    -0.344 N 
ATOM     33  H42 UNL     1       3.638  -2.584   2.763  1.00  0.00     0.176 HD
ATOM     34  H41 UNL     1       5.115  -2.974   1.887  1.00  0.00     0.176 HD
ENDBRANCH  30  32
ENDBRANCH  26  30
ENDBRANCH  18  26
ENDBRANCH   1  18
BRANCH   4  35
HETATM   35  C7  UNL     1      -1.581   2.054   1.495  1.00  0.00     0.335 C 
BRANCH  35  36
HETATM   36  N7  UNL     1      -2.404   2.864   0.581  1.00  0.00    -0.060 N 
ATOM     37  H73 UNL     1      -1.869   3.052  -0.267  1.00  0.00     0.275 HD
ATOM     38  H72 UNL     1      -3.158   2.284   0.214  1.00  0.00     0.275 HD
ATOM     39  H71 UNL     1      -2.798   3.740   0.923  1.00  0.00     0.275 HD
ENDBRANCH  35  36
BRANCH  35  40
HETATM   40  C8  UNL     1      -0.283   2.905   1.356  1.00  0.00     0.210 C 
HETATM   41  O1  UNL     1       0.689   2.459   1.973  1.00  0.00    -0.646 OA
HETATM   42  O2  UNL     1      -0.284   4.011   0.620  1.00  0.00    -0.646 OA
ENDBRANCH  35  40
ENDBRANCH   4  35
BRANCH   7  43
HETATM   43  N8  UNL     1      -0.259  -2.296  -2.526  1.00  0.00    -0.383 N 
ATOM     44  H82 UNL     1       0.667  -2.170  -2.118  1.00  0.00     0.157 HD
ATOM     45  H81 UNL     1      -0.570  -2.843  -3.329  1.00  0.00     0.157 HD
ENDBRANCH   7  43
BRANCH  13  46
HETATM   46  C14 UNL     1      -3.587   0.437   2.129  1.00  0.00     0.303 C 
BRANCH  46  47
HETATM   47  O3  UNL     1      -3.520  -1.033   2.602  1.00  0.00    -0.382 OA
ATOM     48  H3  UNL     1      -3.347  -0.839   3.516  1.00  0.00     0.211 HD
ENDBRANCH  46  47
ENDBRANCH  13  46
TORSDOF 11
