REMARK  11 active torsions:
REMARK  status: ('A' for Active; 'I' for Inactive)
REMARK    1  A    between atoms: O1_2  and  N1_3 
REMARK       I    between atoms: C2_5  and  N3_7 
REMARK    2  A    between atoms: N3_7  and  C3_9 
REMARK    3  A    between atoms: N5_13  and  N6_14 
REMARK    4  A    between atoms: C6_17  and  O2_18 
REMARK    5  A    between atoms: C8_24  and  C9_25 
REMARK    6  A    between atoms: C9_25  and  O3_27 
REMARK    7  A    between atoms: C11_29  and  O4_30 
REMARK    8  A    between atoms: O4_30  and  C12_31 
REMARK    9  A    between atoms: C12_31  and  O5_32 
REMARK   10  A    between atoms: O5_32  and  C13_33 
REMARK   11  A    between atoms: N9_36  and  O7_37 
ROOT
HETATM    1  C3  UNL     1       2.357  -0.622  -0.047  1.00  0.00     0.219 C 
HETATM    2  C4  UNL     1       1.222  -1.183  -0.920  1.00  0.00     0.154 C 
HETATM    3  C5  UNL     1       0.223  -0.031  -0.727  1.00  0.00     0.171 C 
HETATM    4  N4  UNL     1       0.305   0.121   0.685  1.00  0.00    -0.132 NA
HETATM    5  N5  UNL     1       1.707   0.302   0.843  1.00  0.00    -0.125 NA
HETATM    6  C6  UNL     1      -1.104  -0.290  -1.322  1.00  0.00     0.180 C 
HETATM    7  S1  UNL     1      -0.908  -1.909  -2.202  1.00  0.00    -0.080 SA
HETATM    8  C7  UNL     1      -0.440  -2.936  -0.778  1.00  0.00     0.250 C 
HETATM    9  N7  UNL     1      -1.422  -2.705   0.256  1.00  0.00    -0.362 N 
ATOM     10  H7  UNL     1      -1.466  -3.396   1.005  1.00  0.00     0.162 HD
HETATM   11  C8  UNL     1      -2.319  -1.636   0.340  1.00  0.00     0.069 C 
HETATM   12  C11 UNL     1      -2.207  -0.521  -0.363  1.00  0.00     0.120 C 
HETATM   13  N9  UNL     1       0.809  -2.394  -0.276  1.00  0.00    -0.157 NA
ENDROOT
BRANCH   1  14
HETATM   14  N3  UNL     1       3.259   0.105  -0.945  1.00  0.00    -0.342 N 
HETATM   15  C2  UNL     1       4.426   0.753  -0.455  1.00  0.00     0.209 C 
HETATM   16  N1  UNL     1       5.057   0.269   0.559  1.00  0.00    -0.239 N 
HETATM   17  N2  UNL     1       4.939   1.939  -1.049  1.00  0.00    -0.062 NA
ATOM     18  H1  UNL     1       4.696  -0.582   0.990  1.00  0.00     0.197 HD
ATOM     19  H3  UNL     1       3.045   0.147  -1.941  1.00  0.00     0.164 HD
BRANCH  16  20
HETATM   20  O1  UNL     1       6.172   0.828   1.083  1.00  0.00    -0.283 OA
HETATM   21  C1  UNL     1       7.436   0.876   0.491  1.00  0.00     0.237 C 
ENDBRANCH  16  20
ENDBRANCH   1  14
BRANCH   5  22
HETATM   22  N6  UNL     1       2.106   0.220   2.154  1.00  0.00    -0.347 NA
ATOM     23  H62 UNL     1       3.111   0.350   2.267  1.00  0.00     0.172 HD
ATOM     24  H61 UNL     1       1.645   0.875   2.785  1.00  0.00     0.172 HD
ENDBRANCH   5  22
BRANCH  13  25
HETATM   25  O7  UNL     1       0.832  -2.302   1.054  1.00  0.00    -0.310 OA
ATOM     26  H7  UNL     1       0.558  -3.105   1.481  1.00  0.00     0.237 HD
ENDBRANCH  13  25
BRANCH   6  27
HETATM   27  O2  UNL     1      -1.378   0.631  -2.295  1.00  0.00    -0.371 OA
ATOM     28  H2  UNL     1      -2.231   0.464  -2.678  1.00  0.00     0.212 HD
ENDBRANCH   6  27
BRANCH  12  29
HETATM   29  O4  UNL     1      -3.135   0.456  -0.206  1.00  0.00    -0.324 OA
BRANCH  29  30
HETATM   30  C12 UNL     1      -2.921   1.821  -0.025  1.00  0.00     0.356 C 
BRANCH  30  31
HETATM   31  O5  UNL     1      -4.127   2.549   0.106  1.00  0.00    -0.280 OA
BRANCH  31  32
HETATM   32  C13 UNL     1      -5.111   2.605  -0.846  1.00  0.00     0.374 C 
HETATM   33  N8  UNL     1      -6.320   3.338  -0.710  1.00  0.00    -0.032 NA
HETATM   34  O6  UNL     1      -4.938   1.962  -1.924  1.00  0.00    -0.242 OA
ENDBRANCH  31  32
ENDBRANCH  30  31
ENDBRANCH  29  30
ENDBRANCH  12  29
BRANCH  11  35
HETATM   35  C9  UNL     1      -3.482  -1.771   1.291  1.00  0.00     0.166 C 
HETATM   36  C10 UNL     1      -4.260  -2.981   0.816  1.00  0.00     0.046 C 
BRANCH  35  37
HETATM   37  O3  UNL     1      -4.240  -0.632   1.341  1.00  0.00    -0.390 OA
ATOM     38  H3  UNL     1      -4.972  -0.717   1.940  1.00  0.00     0.210 HD
ENDBRANCH  35  37
ENDBRANCH  11  35
TORSDOF 11
