REMARK  8 active torsions:
REMARK  status: ('A' for Active; 'I' for Inactive)
REMARK    1  A    between atoms: N1_1  and  N2_4 
REMARK       I    between atoms: N2_4  and  C1_5 
REMARK       I    between atoms: C1_5  and  N3_6 
REMARK       I    between atoms: C1_5  and  N4_10 
REMARK    2  A    between atoms: N4_10  and  C2_12 
REMARK    3  A    between atoms: N5_13  and  C3_14 
REMARK    4  A    between atoms: C3_14  and  C4_15 
REMARK    5  A    between atoms: N8_22  and  C5_23 
REMARK    6  A    between atoms: C5_23  and  C6_24 
REMARK    7  A    between atoms: C9_31  and  O3_32 
REMARK    8  A    between atoms: C10_34  and  S1_35 
ROOT
HETATM    1  C2  UNL     1      -1.857   0.522  -0.360  1.00  0.00     0.717 A 
HETATM    2  N5  UNL     1      -2.205   1.797  -0.176  1.00  0.00    -0.097 N 
HETATM    3  N6  UNL     1      -1.197   2.556  -0.584  1.00  0.00    -0.210 N 
ATOM      4  H6  UNL     1      -1.187   3.576  -0.559  1.00  0.00     0.210 HD
HETATM    5  N7  UNL     1      -0.223   1.814  -1.021  1.00  0.00    -0.211 N 
ATOM      6  H7  UNL     1       0.664   2.156  -1.390  1.00  0.00     0.210 HD
HETATM    7  N8  UNL     1      -0.564   0.570  -0.911  1.00  0.00    -0.101 N 
ENDROOT
BRANCH   7   8
HETATM    8  C5  UNL     1       0.133  -0.677  -1.261  1.00  0.00     0.229 C 
BRANCH   8   9
HETATM    9  C6  UNL     1       0.911  -1.248  -0.160  1.00  0.00     0.060 A 
HETATM   10  N9  UNL     1       0.432  -2.140   0.773  1.00  0.00    -0.302 N 
HETATM   11  N10 UNL     1       1.366  -2.400   1.666  1.00  0.00    -0.300 N 
ATOM     12  H9  UNL     1      -0.506  -2.540   0.773  1.00  0.00     0.186 HD
HETATM   13  C7  UNL     1       2.478  -1.708   1.367  1.00  0.00     0.065 A 
ATOM     14  H10 UNL     1       1.261  -3.030   2.462  1.00  0.00     0.187 HD
HETATM   15  C8  UNL     1       3.727  -1.617   1.942  1.00  0.00     0.070 A 
HETATM   16  C12 UNL     1       2.192  -0.975   0.205  1.00  0.00     0.044 A 
HETATM   17  C9  UNL     1       4.728  -0.829   1.418  1.00  0.00     0.094 A 
HETATM   18  C10 UNL     1       4.438  -0.113   0.270  1.00  0.00     0.138 A 
HETATM   19  C11 UNL     1       3.194  -0.186  -0.323  1.00  0.00     0.088 A 
HETATM   20  N11 UNL     1       3.008   0.543  -1.507  1.00  0.00    -0.100 NA
BRANCH  17  21
HETATM   21  O3  UNL     1       5.974  -0.757   2.016  1.00  0.00    -0.359 OA
ATOM     22  H3  UNL     1       6.664  -0.214   1.655  1.00  0.00     0.217 HD
ENDBRANCH  17  21
BRANCH  18  23
HETATM   23  S1  UNL     1       5.665   0.885  -0.422  1.00  0.00     0.142 S 
HETATM   24  O4  UNL     1       5.133   2.146  -1.040  1.00  0.00    -0.591 OA
HETATM   25  O5  UNL     1       6.600   1.322   0.697  1.00  0.00    -0.591 OA
HETATM   26  O6  UNL     1       6.606   0.052  -1.557  1.00  0.00    -0.591 OA
ENDBRANCH  18  23
ENDBRANCH   8   9
ENDBRANCH   7   8
BRANCH   1  27
HETATM   27  N4  UNL     1      -2.427  -0.561  -0.128  1.00  0.00    -0.178 N 
HETATM   28  C1  UNL     1      -3.501  -1.249   0.340  1.00  0.00     0.410 C 
HETATM   29  N2  UNL     1      -4.732  -0.980  -0.395  1.00  0.00    -0.093 NA
HETATM   30  N3  UNL     1      -3.818  -1.090   1.758  1.00  0.00    -0.042 N 
ATOM     31  H33 UNL     1      -4.230  -0.184   1.980  1.00  0.00     0.278 HD
ATOM     32  H32 UNL     1      -4.603  -1.665   2.063  1.00  0.00     0.278 HD
ATOM     33  H31 UNL     1      -2.957  -1.278   2.272  1.00  0.00     0.278 HD
ATOM     34  H4  UNL     1      -1.771  -1.277  -0.440  1.00  0.00     0.181 HD
BRANCH  29  35
HETATM   35  N1  UNL     1      -4.535  -1.109  -1.776  1.00  0.00    -0.345 N 
ATOM     36  H12 UNL     1      -3.641  -1.359  -2.197  1.00  0.00     0.172 HD
ATOM     37  H11 UNL     1      -5.396  -0.921  -2.290  1.00  0.00     0.172 HD
ENDBRANCH  29  35
ENDBRANCH   1  27
BRANCH   2  38
HETATM   38  C3  UNL     1      -3.424   2.359   0.333  1.00  0.00     0.282 C 
BRANCH  38  39
HETATM   39  C4  UNL     1      -4.385   2.682  -0.764  1.00  0.00     0.194 C 
HETATM   40  O1  UNL     1      -4.099   2.466  -1.963  1.00  0.00    -0.647 OA
HETATM   41  O2  UNL     1      -5.604   3.227  -0.416  1.00  0.00    -0.647 OA
ENDBRANCH  38  39
ENDBRANCH   2  38
TORSDOF 8
