REMARK  3 active torsions:
REMARK  status: ('A' for Active; 'I' for Inactive)
REMARK    1  A    between atoms: C4_9  and  C5_10 
REMARK    2  A    between atoms: C5_10  and  C6_11 
REMARK    3  A    between atoms: C11_16  and  N3_17 
ROOT
HETATM    1  C1  UNL     1      -3.127  -1.926  -2.200  1.00  0.00     0.091 C 
HETATM    2  C2  UNL     1      -1.763  -2.457  -2.416  1.00  0.00     0.102 A 
HETATM    3  N1  UNL     1      -1.502  -3.396  -3.376  1.00  0.00    -0.287 N 
ATOM      4  H1  UNL     1      -2.190  -3.804  -4.010  1.00  0.00     0.188 HD
HETATM    5  N2  UNL     1      -0.227  -3.686  -3.349  1.00  0.00    -0.278 N 
ATOM      6  H2  UNL     1       0.263  -4.351  -3.947  1.00  0.00     0.189 HD
HETATM    7  C3  UNL     1       0.319  -2.914  -2.353  1.00  0.00     0.173 A 
HETATM    8  S1  UNL     1       1.755  -2.524  -1.535  1.00  0.00    -0.053 SA
HETATM    9  C4  UNL     1       1.119  -1.364  -0.433  1.00  0.00     0.031 A 
HETATM   10  C11 UNL     1      -0.209  -1.352  -0.780  1.00  0.00     0.127 A 
HETATM   11  N4  UNL     1      -0.595  -2.150  -1.762  1.00  0.00    -0.263 N 
ENDROOT
BRANCH  10  12
HETATM   12  N3  UNL     1      -1.113  -0.472  -0.034  1.00  0.00    -0.361 N 
HETATM   13  C12 UNL     1      -1.605  -0.865   1.264  1.00  0.00     0.156 C 
HETATM   14  C13 UNL     1      -2.122   0.237   2.108  1.00  0.00     0.136 C 
HETATM   15  C14 UNL     1      -1.054   0.583   3.153  1.00  0.00     0.041 C 
HETATM   16  O1  UNL     1      -2.457   1.408   1.486  1.00  0.00    -0.378 OA
HETATM   17  C15 UNL     1      -2.860   1.109   0.186  1.00  0.00     0.136 C 
HETATM   18  C16 UNL     1      -3.649   2.189  -0.473  1.00  0.00     0.041 C 
HETATM   19  C17 UNL     1      -1.562   0.792  -0.561  1.00  0.00     0.156 C 
ENDBRANCH  10  12
BRANCH   9  20
HETATM   20  C5  UNL     1       1.895  -0.602   0.595  1.00  0.00     0.055 C 
BRANCH  20  21
HETATM   21  C6  UNL     1       2.282   0.771   0.211  1.00  0.00    -0.010 C 
HETATM   22  C7  UNL     1       3.145   0.846  -1.023  1.00  0.00     0.005 C 
HETATM   23  C8  UNL     1       4.581   0.825  -0.539  1.00  0.00     0.000 C 
HETATM   24  C9  UNL     1       4.561   1.168   0.922  1.00  0.00     0.000 C 
HETATM   25  C10 UNL     1       3.139   1.391   1.328  1.00  0.00     0.005 C 
ENDBRANCH  20  21
ENDBRANCH   9  20
TORSDOF 3
