REMARK  3 active torsions:
REMARK  status: ('A' for Active; 'I' for Inactive)
REMARK    1  A    between atoms: N1_2  and  C3_4 
REMARK    2  A    between atoms: C4_7  and  C5_8 
REMARK    3  A    between atoms: C6_11  and  C7_12 
ROOT
HETATM    1  C3  UNL     1      -2.785  -0.147  -0.244  1.00  0.00     0.113 A 
HETATM    2  N2  UNL     1      -1.478   0.166  -0.200  1.00  0.00    -0.326 N 
ATOM      3  H2  UNL     1      -1.191   1.099  -0.495  1.00  0.00     0.169 HD
HETATM    4  C4  UNL     1      -0.536  -0.689   0.213  1.00  0.00     0.136 A 
HETATM    5  N5  UNL     1      -0.951  -1.896   0.590  1.00  0.00    -0.343 N 
ATOM      6  H5  UNL     1      -0.253  -2.568   0.910  1.00  0.00     0.167 HD
HETATM    7  C15 UNL     1      -2.265  -2.285   0.572  1.00  0.00     0.031 A 
HETATM    8  C16 UNL     1      -3.190  -1.430   0.161  1.00  0.00     0.018 A 
HETATM    9  C17 UNL     1      -4.594  -1.896   0.160  1.00  0.00     0.118 C 
HETATM   10  S1  UNL     1      -4.409  -3.695   0.339  1.00  0.00    -0.158 SA
HETATM   11  C18 UNL     1      -2.712  -3.626   0.994  1.00  0.00     0.132 C 
ENDROOT
BRANCH   4  12
HETATM   12  C5  UNL     1       0.884  -0.341   0.257  1.00  0.00     0.101 A 
HETATM   13  N3  UNL     1       1.874  -1.157   0.662  1.00  0.00    -0.341 N 
HETATM   14  C6  UNL     1       3.057  -0.530   0.580  1.00  0.00     0.088 A 
ATOM     15  H3  UNL     1       1.744  -2.116   0.985  1.00  0.00     0.167 HD
HETATM   16  N4  UNL     1       2.797   0.716   0.109  1.00  0.00    -0.338 N 
HETATM   17  C10 UNL     1       1.495   0.845  -0.090  1.00  0.00     0.043 A 
HETATM   18  C14 UNL     1       3.729   1.816  -0.169  1.00  0.00     0.130 C 
HETATM   19  C11 UNL     1       0.874   2.075  -0.597  1.00  0.00     0.060 C 
HETATM   20  C12 UNL     1       1.833   3.130  -1.048  1.00  0.00     0.008 C 
HETATM   21  C13 UNL     1       3.204   2.577  -1.368  1.00  0.00     0.021 C 
BRANCH  14  22
HETATM   22  C7  UNL     1       4.403  -1.042   0.920  1.00  0.00     0.054 A 
HETATM   23  C8  UNL     1       4.665  -2.507   0.919  1.00  0.00     0.013 A 
HETATM   24  C9  UNL     1       4.473  -1.873   2.230  1.00  0.00     0.013 A 
ENDBRANCH  14  22
ENDBRANCH   4  12
BRANCH   1  25
HETATM   25  N1  UNL     1      -3.745   0.821  -0.699  1.00  0.00    -0.375 N 
HETATM   26  C1  UNL     1      -4.825   1.278   0.154  1.00  0.00     0.150 C 
HETATM   27  C2  UNL     1      -3.663   1.375  -2.037  1.00  0.00     0.150 C 
ENDBRANCH   1  25
TORSDOF 3
