REMARK  5 active torsions:
REMARK  status: ('A' for Active; 'I' for Inactive)
REMARK    1  A    between atoms: C5_7  and  C6_8 
REMARK    2  A    between atoms: C6_8  and  N2_9 
REMARK    3  A    between atoms: N2_9  and  C8_11 
REMARK       I    between atoms: N3_14  and  C11_15 
REMARK    4  A    between atoms: C11_15  and  O2_17 
REMARK    5  A    between atoms: O2_17  and  C12_18 
ROOT
HETATM    1  C12 UNL     1      -5.682   1.021  -0.335  1.00  0.00     0.235 C 
HETATM    2  C13 UNL     1      -6.731   0.960   0.750  1.00  0.00     0.056 C 
HETATM    3  C14 UNL     1      -5.474   2.430  -0.667  1.00  0.00     0.091 C 
HETATM    4  N4  UNL     1      -5.297   3.540  -0.941  1.00  0.00    -0.195 NA
ENDROOT
BRANCH   1   5
HETATM    5  O2  UNL     1      -4.430   0.521   0.132  1.00  0.00    -0.284 OA
BRANCH   5   6
HETATM    6  C11 UNL     1      -3.840  -0.528  -0.540  1.00  0.00     0.364 C 
HETATM    7  N3  UNL     1      -2.597  -1.075  -0.133  1.00  0.00    -0.328 N 
HETATM    8  C10 UNL     1      -1.938  -0.508   1.025  1.00  0.00     0.130 C 
HETATM    9  C15 UNL     1      -1.965  -2.162  -0.814  1.00  0.00     0.130 C 
HETATM   10  C9  UNL     1      -0.480  -0.243   0.713  1.00  0.00     0.045 C 
HETATM   11  C8  UNL     1       0.185  -1.467   0.111  1.00  0.00     0.086 C 
HETATM   12  C16 UNL     1      -0.522  -1.844  -1.166  1.00  0.00     0.045 C 
HETATM   13  O1  UNL     1      -4.423  -1.006  -1.536  1.00  0.00    -0.238 OA
BRANCH  11  14
HETATM   14  N2  UNL     1       1.567  -1.213   0.006  1.00  0.00    -0.388 N 
HETATM   15  C7  UNL     1       2.458  -2.290   0.238  1.00  0.00     0.149 C 
BRANCH  14  16
HETATM   16  C6  UNL     1       2.015  -0.169  -0.821  1.00  0.00     0.106 C 
BRANCH  16  17
HETATM   17  C5  UNL     1       3.243   0.429  -0.175  1.00  0.00     0.044 A 
HETATM   18  C3  UNL     1       4.017   1.472  -0.626  1.00  0.00     0.024 A 
HETATM   19  N1  UNL     1       5.030   1.818   0.100  1.00  0.00    -0.357 N 
HETATM   20  C4  UNL     1       3.652   2.157  -1.935  1.00  0.00     0.069 C 
HETATM   21  C2  UNL     1       5.285   1.173   1.228  1.00  0.00     0.048 A 
ATOM     22  H1  UNL     1       5.632   2.587  -0.196  1.00  0.00     0.166 HD
HETATM   23  C1  UNL     1       6.409   1.421   2.211  1.00  0.00     0.076 C 
HETATM   24  S1  UNL     1       4.034   0.011   1.281  1.00  0.00    -0.074 SA
ENDBRANCH  16  17
ENDBRANCH  14  16
ENDBRANCH  11  14
ENDBRANCH   5   6
ENDBRANCH   1   5
TORSDOF 5
