REMARK  10 active torsions:
REMARK  status: ('A' for Active; 'I' for Inactive)
REMARK    1  A    between atoms: C2_2  and  C3_3 
REMARK    2  A    between atoms: C3_3  and  C4_4 
REMARK    3  A    between atoms: C4_4  and  C5_5 
REMARK    4  A    between atoms: C6_6  and  C7_7 
REMARK    5  A    between atoms: C8_9  and  C9_10 
REMARK    6  A    between atoms: C9_10  and  C10_11 
REMARK    7  A    between atoms: C10_11  and  C11_12 
REMARK    8  A    between atoms: C13_14  and  O2_15 
REMARK    9  A    between atoms: C18_22  and  O4_23 
REMARK   10  A    between atoms: C23_29  and  C24_30 
ROOT
HETATM    1  C7  UNL     1       0.398   0.292   0.861  1.00  0.00     0.151 C 
HETATM    2  O1  UNL     1      -0.817   0.831   0.598  1.00  0.00    -0.374 OA
HETATM    3  C8  UNL     1      -0.908   1.935  -0.187  1.00  0.00     0.151 C 
HETATM    4  C13 UNL     1      -2.046   1.665  -1.196  1.00  0.00     0.154 C 
HETATM    5  C14 UNL     1      -1.566   1.231  -2.524  1.00  0.00     0.113 C 
HETATM    6  C15 UNL     1      -1.816  -0.142  -2.936  1.00  0.00     0.135 C 
HETATM    7  O3  UNL     1      -1.155  -0.528  -3.919  1.00  0.00    -0.297 OA
HETATM    8  C16 UNL     1      -2.727  -1.138  -2.370  1.00  0.00     0.080 C 
HETATM    9  C17 UNL     1      -3.840  -1.359  -3.412  1.00  0.00     0.020 C 
HETATM   10  C18 UNL     1      -2.012  -2.449  -2.212  1.00  0.00     0.132 C 
HETATM   11  C19 UNL     1      -2.160  -3.023  -0.820  1.00  0.00     0.011 C 
HETATM   12  C20 UNL     1      -2.513  -4.505  -0.921  1.00  0.00     0.012 C 
HETATM   13  C21 UNL     1      -0.901  -2.908   0.007  1.00  0.00     0.007 C 
HETATM   14  C22 UNL     1      -1.078  -1.751   0.994  1.00  0.00     0.010 C 
HETATM   15  C23 UNL     1       0.224  -1.136   1.402  1.00  0.00     0.048 C 
ENDROOT
BRANCH  15  16
HETATM   16  C24 UNL     1       0.378  -1.126   2.930  1.00  0.00     0.143 C 
HETATM   17  C25 UNL     1       0.227  -2.486   3.497  1.00  0.00     0.066 C 
HETATM   18  C26 UNL     1       1.459  -3.191   3.864  1.00  0.00    -0.075 C 
HETATM   19  C27 UNL     1       1.411  -4.637   4.167  1.00  0.00     0.043 C 
HETATM   20  C28 UNL     1       2.609  -2.570   3.930  1.00  0.00     0.084 C 
HETATM   21  C29 UNL     1       2.691  -1.152   3.639  1.00  0.00     0.283 C 
HETATM   22  O5  UNL     1       3.826  -0.611   3.720  1.00  0.00    -0.260 OA
HETATM   23  O6  UNL     1       1.567  -0.463   3.295  1.00  0.00    -0.312 OA
ENDBRANCH  15  16
BRANCH   1  24
HETATM   24  C6  UNL     1       1.329   0.178  -0.292  1.00  0.00     0.001 C 
HETATM   25  C5  UNL     1       2.326   1.026  -0.500  1.00  0.00    -0.028 C 
BRANCH  25  26
HETATM   26  C4  UNL     1       3.282   0.985  -1.602  1.00  0.00     0.027 C 
BRANCH  26  27
HETATM   27  C3  UNL     1       3.152   2.278  -2.384  1.00  0.00     0.003 C 
BRANCH  27  28
HETATM   28  C2  UNL     1       4.126   2.310  -3.545  1.00  0.00    -0.004 C 
HETATM   29  C1  UNL     1       5.546   2.218  -3.101  1.00  0.00     0.005 C 
ENDBRANCH  27  28
ENDBRANCH  26  27
ENDBRANCH  25  26
ENDBRANCH   1  24
BRANCH   3  30
HETATM   30  C9  UNL     1      -1.313   3.195   0.557  1.00  0.00     0.034 C 
BRANCH  30  31
HETATM   31  C10 UNL     1      -0.372   3.589   1.644  1.00  0.00     0.002 C 
BRANCH  31  32
HETATM   32  C11 UNL     1      -0.830   4.866   2.349  1.00  0.00    -0.004 C 
HETATM   33  C12 UNL     1      -2.187   4.628   2.945  1.00  0.00     0.005 C 
ENDBRANCH  31  32
ENDBRANCH  30  31
ENDBRANCH   3  30
BRANCH   4  34
HETATM   34  O2  UNL     1      -2.790   2.859  -1.392  1.00  0.00    -0.393 OA
ATOM     35  H2  UNL     1      -3.490   2.693  -2.013  1.00  0.00     0.210 HD
ENDBRANCH   4  34
BRANCH  10  36
HETATM   36  O4  UNL     1      -0.649  -2.298  -2.456  1.00  0.00    -0.394 OA
ATOM     37  H4  UNL     1      -0.197  -3.127  -2.356  1.00  0.00     0.210 HD
ENDBRANCH  10  36
TORSDOF 10
