REMARK  9 active torsions:
REMARK  status: ('A' for Active; 'I' for Inactive)
REMARK    1  A    between atoms: C2_2  and  O2_4 
REMARK    2  A    between atoms: O2_4  and  C3_5 
REMARK    3  A    between atoms: C16_19  and  C17_20 
REMARK    4  A    between atoms: C18_21  and  C19_22 
REMARK    5  A    between atoms: C19_22  and  C21_24 
REMARK    6  A    between atoms: C21_24  and  C22_25 
REMARK    7  A    between atoms: C22_25  and  C23_26 
REMARK    8  A    between atoms: C25_32  and  C27_34 
REMARK    9  A    between atoms: C27_34  and  C28_35 
ROOT
HETATM    1  C3  UNL     1      -4.872  -0.818  -1.100  1.00  0.00     0.177 C 
HETATM    2  C4  UNL     1      -4.684   0.370  -2.007  1.00  0.00     0.063 C 
HETATM    3  C5  UNL     1      -5.460   1.506  -1.458  1.00  0.00    -0.022 C 
HETATM    4  C6  UNL     1      -5.253   2.371  -0.485  1.00  0.00    -0.087 C 
HETATM    5  C7  UNL     1      -6.376   3.327  -0.350  1.00  0.00     0.043 C 
HETATM    6  C8  UNL     1      -4.156   2.584   0.483  1.00  0.00     0.041 C 
HETATM    7  C9  UNL     1      -4.048   1.521   1.521  1.00  0.00     0.086 C 
HETATM    8  C10 UNL     1      -4.368   0.166   1.048  1.00  0.00     0.164 C 
HETATM    9  O3  UNL     1      -5.332  -0.322   1.639  1.00  0.00    -0.295 OA
HETATM   10  C11 UNL     1      -3.870  -0.825   0.044  1.00  0.00     0.148 C 
HETATM   11  C12 UNL     1      -3.928  -2.239   0.616  1.00  0.00     0.049 C 
HETATM   12  C13 UNL     1      -3.008  -2.405   1.798  1.00  0.00     0.010 C 
HETATM   13  C14 UNL     1      -1.779  -1.588   1.553  1.00  0.00     0.014 C 
HETATM   14  C15 UNL     1      -0.576  -2.412   2.010  1.00  0.00     0.012 C 
HETATM   15  C16 UNL     1      -1.664  -1.385   0.037  1.00  0.00     0.149 C 
HETATM   16  O5  UNL     1      -2.617  -0.488  -0.393  1.00  0.00    -0.360 OA
ENDROOT
BRANCH  15  17
HETATM   17  C17 UNL     1      -0.282  -0.895  -0.208  1.00  0.00     0.001 C 
HETATM   18  C18 UNL     1      -0.012   0.256  -0.785  1.00  0.00    -0.024 C 
BRANCH  18  19
HETATM   19  C19 UNL     1       1.374   0.725  -1.020  1.00  0.00     0.004 C 
HETATM   20  C20 UNL     1       1.586   1.083  -2.470  1.00  0.00     0.014 C 
BRANCH  19  21
HETATM   21  C21 UNL     1       2.356  -0.277  -0.514  1.00  0.00     0.009 C 
BRANCH  21  22
HETATM   22  C22 UNL     1       3.791   0.149  -0.730  1.00  0.00     0.016 C 
BRANCH  22  23
HETATM   23  C23 UNL     1       4.777  -0.848  -0.227  1.00  0.00     0.095 C 
HETATM   24  C24 UNL     1       4.717  -1.159   1.212  1.00  0.00     0.119 C 
HETATM   25  N1  UNL     1       4.198  -2.003   2.039  1.00  0.00    -0.383 N 
HETATM   26  O4  UNL     1       5.548  -0.056   1.431  1.00  0.00    -0.328 OA
ATOM     27  H12 UNL     1       3.592  -2.808   1.879  1.00  0.00     0.158 HD
ATOM     28  H11 UNL     1       4.156  -2.218   3.035  1.00  0.00     0.158 HD
HETATM   29  C25 UNL     1       6.131  -0.332   0.174  1.00  0.00     0.076 C 
HETATM   30  C26 UNL     1       7.159  -1.422   0.295  1.00  0.00     0.047 C 
BRANCH  29  31
HETATM   31  C27 UNL     1       6.597   0.898  -0.572  1.00  0.00     0.043 C 
BRANCH  31  32
HETATM   32  C28 UNL     1       7.970   1.273  -0.043  1.00  0.00    -0.020 C 
HETATM   33  C29 UNL     1       7.976   1.579   1.417  1.00  0.00     0.009 C 
HETATM   34  C30 UNL     1       8.371   2.550  -0.780  1.00  0.00     0.009 C 
ENDBRANCH  31  32
ENDBRANCH  29  31
ENDBRANCH  22  23
ENDBRANCH  21  22
ENDBRANCH  19  21
ENDBRANCH  18  19
ENDBRANCH  15  17
BRANCH   1  35
HETATM   35  O2  UNL     1      -6.172  -0.735  -0.549  1.00  0.00    -0.312 OA
BRANCH  35  36
HETATM   36  C2  UNL     1      -7.160  -1.663  -0.726  1.00  0.00     0.255 C 
HETATM   37  C1  UNL     1      -8.513  -1.528  -0.122  1.00  0.00     0.126 C 
HETATM   38  O1  UNL     1      -6.924  -2.677  -1.428  1.00  0.00    -0.266 OA
ENDBRANCH  35  36
ENDBRANCH   1  35
TORSDOF 9
