REMARK  11 active torsions:
REMARK  status: ('A' for Active; 'I' for Inactive)
REMARK    1  A    between atoms: C2_2  and  C4_4 
REMARK    2  A    between atoms: C4_4  and  O2_6 
REMARK    3  A    between atoms: O2_6  and  C5_7 
REMARK    4  A    between atoms: C5_7  and  C6_8 
REMARK    5  A    between atoms: C22_24  and  O3_25 
REMARK    6  A    between atoms: C22_24  and  C23_27 
REMARK    7  A    between atoms: C23_27  and  C24_28 
REMARK    8  A    between atoms: C24_28  and  C25_29 
REMARK    9  A    between atoms: C25_29  and  O4_32 
REMARK   10  A    between atoms: C28_34  and  C30_36 
REMARK   11  A    between atoms: C30_36  and  O5_37 
ROOT
HETATM    1  C6  UNL     1       2.842  -0.220  -0.671  1.00  0.00    -0.012 C 
HETATM    2  C7  UNL     1       2.796   0.666  -1.892  1.00  0.00     0.018 C 
HETATM    3  C8  UNL     1       2.097   0.557   0.428  1.00  0.00     0.013 C 
HETATM    4  C9  UNL     1       0.603   0.417   0.309  1.00  0.00     0.011 C 
HETATM    5  C10 UNL     1       0.117  -0.955   0.507  1.00  0.00    -0.029 C 
HETATM    6  C11 UNL     1       0.706  -1.461   1.826  1.00  0.00     0.016 C 
HETATM    7  C12 UNL     1       0.795  -1.772  -0.585  1.00  0.00     0.005 C 
HETATM    8  C13 UNL     1      -0.174  -1.581  -1.730  1.00  0.00     0.007 C 
HETATM    9  C14 UNL     1      -1.491  -1.846  -0.971  1.00  0.00     0.014 C 
HETATM   10  C15 UNL     1      -1.303  -1.307   0.400  1.00  0.00    -0.001 C 
HETATM   11  C16 UNL     1      -1.483  -2.559   1.287  1.00  0.00     0.013 C 
HETATM   12  C17 UNL     1      -2.824  -3.215   1.072  1.00  0.00     0.002 C 
HETATM   13  C18 UNL     1      -3.910  -2.251   0.812  1.00  0.00     0.012 C 
HETATM   14  C19 UNL     1      -3.532  -0.921   1.456  1.00  0.00    -0.016 C 
HETATM   15  C20 UNL     1      -4.838  -0.181   1.440  1.00  0.00     0.018 C 
HETATM   16  C21 UNL     1      -3.324  -1.237   2.938  1.00  0.00     0.018 C 
HETATM   17  C22 UNL     1      -2.347  -0.250   0.822  1.00  0.00     0.073 C 
HETATM   18  C28 UNL     1       2.209  -1.543  -0.879  1.00  0.00    -0.009 C 
HETATM   19  C29 UNL     1       2.348  -1.773  -2.416  1.00  0.00     0.018 C 
ENDROOT
BRANCH  17  20
HETATM   20  O3  UNL     1      -1.807   0.443   1.949  1.00  0.00    -0.388 OA
ATOM     21  H3  UNL     1      -2.449   1.093   2.209  1.00  0.00     0.210 HD
ENDBRANCH  17  20
BRANCH  17  22
HETATM   22  C23 UNL     1      -2.620   0.719  -0.231  1.00  0.00     0.042 C 
BRANCH  22  23
HETATM   23  C24 UNL     1      -3.500   1.881  -0.136  1.00  0.00     0.040 C 
BRANCH  23  24
HETATM   24  C25 UNL     1      -3.428   2.687  -1.493  1.00  0.00     0.051 C 
HETATM   25  C26 UNL     1      -4.344   3.883  -1.372  1.00  0.00     0.045 C 
HETATM   26  C27 UNL     1      -3.750   1.810  -2.652  1.00  0.00     0.045 C 
BRANCH  24  27
HETATM   27  O4  UNL     1      -2.141   3.186  -1.673  1.00  0.00    -0.391 OA
ATOM     28  H4  UNL     1      -2.098   3.671  -2.489  1.00  0.00     0.210 HD
ENDBRANCH  24  27
ENDBRANCH  23  24
ENDBRANCH  22  23
ENDBRANCH  17  22
BRANCH  18  29
HETATM   29  C30 UNL     1       3.027  -2.701  -0.305  1.00  0.00     0.174 C 
BRANCH  29  30
HETATM   30  O5  UNL     1       4.278  -2.858  -0.870  1.00  0.00    -0.400 OA
ATOM     31  H5  UNL     1       4.786  -3.577  -0.513  1.00  0.00     0.209 HD
ENDBRANCH  29  30
ENDBRANCH  18  29
BRANCH   1  32
HETATM   32  C5  UNL     1       4.244  -0.271  -0.136  1.00  0.00     0.189 C 
BRANCH  32  33
HETATM   33  O2  UNL     1       4.867   0.850   0.318  1.00  0.00    -0.317 OA
BRANCH  33  34
HETATM   34  C4  UNL     1       5.416   1.967  -0.195  1.00  0.00     0.288 C 
HETATM   35  O1  UNL     1       5.452   2.153  -1.420  1.00  0.00    -0.260 OA
BRANCH  34  36
HETATM   36  C2  UNL     1       6.005   3.034   0.644  1.00  0.00     0.004 C 
HETATM   37  C1  UNL     1       6.535   4.113   0.130  1.00  0.00     0.024 C 
HETATM   38  C3  UNL     1       5.976   2.841   2.104  1.00  0.00     0.054 C 
ENDBRANCH  34  36
ENDBRANCH  33  34
ENDBRANCH  32  33
ENDBRANCH   1  32
TORSDOF 11
