REMARK  10 active torsions:
REMARK  status: ('A' for Active; 'I' for Inactive)
REMARK    1  A    between atoms: O1_1  and  C1_3 
REMARK    2  A    between atoms: N1_7  and  C5_8 
REMARK    3  A    between atoms: C5_8  and  C6_9 
REMARK    4  A    between atoms: N2_11  and  C8_12 
REMARK    5  A    between atoms: C8_12  and  C9_13 
REMARK    6  A    between atoms: C9_13  and  C10_14 
REMARK    7  A    between atoms: C10_14  and  C11_15 
REMARK    8  A    between atoms: C11_15  and  C12_16 
REMARK    9  A    between atoms: C12_16  and  C13_17 
REMARK   10  A    between atoms: C18_29  and  O2_30 
ROOT
HETATM    1  C6  UNL     1      -2.990  -0.197   0.872  1.00  0.00     0.061 A 
HETATM    2  C7  UNL     1      -1.926   0.212   0.095  1.00  0.00     0.139 A 
HETATM    3  N2  UNL     1      -0.866  -0.569   0.351  1.00  0.00    -0.287 N 
HETATM    4  N4  UNL     1      -1.245  -1.438   1.256  1.00  0.00    -0.241 N 
ATOM      5  H4  UNL     1      -0.649  -2.166   1.651  1.00  0.00     0.208 HD
HETATM    6  N5  UNL     1      -2.510  -1.237   1.584  1.00  0.00    -0.287 N 
ATOM      7  H5  UNL     1      -3.038  -1.781   2.266  1.00  0.00     0.188 HD
ENDROOT
BRANCH   3   8
HETATM    8  C8  UNL     1       0.414  -0.392  -0.311  1.00  0.00     0.150 C 
BRANCH   8   9
HETATM    9  C9  UNL     1       1.215   0.575   0.544  1.00  0.00     0.022 C 
BRANCH   9  10
HETATM   10  C10 UNL     1       2.575   0.747  -0.183  1.00  0.00     0.002 C 
BRANCH  10  11
HETATM   11  C11 UNL     1       3.367   1.690   0.640  1.00  0.00     0.002 C 
BRANCH  11  12
HETATM   12  C12 UNL     1       4.710   2.083   0.192  1.00  0.00     0.033 C 
BRANCH  12  13
HETATM   13  C13 UNL     1       5.781   1.092   0.040  1.00  0.00     0.185 C 
HETATM   14  C14 UNL     1       5.473   0.015  -0.956  1.00  0.00     0.033 C 
HETATM   15  C15 UNL     1       6.869  -0.413  -1.476  1.00  0.00     0.004 C 
HETATM   16  C16 UNL     1       7.638  -0.882  -0.299  1.00  0.00     0.027 C 
HETATM   17  C17 UNL     1       7.093  -0.652   1.046  1.00  0.00     0.232 C 
HETATM   18  N3  UNL     1       6.338   0.551   1.258  1.00  0.00    -0.071 N 
ATOM     19  H32 UNL     1       6.898   1.251   1.744  1.00  0.00     0.277 HD
ATOM     20  H31 UNL     1       5.610   0.405   1.957  1.00  0.00     0.277 HD
ENDBRANCH  12  13
ENDBRANCH  11  12
ENDBRANCH  10  11
ENDBRANCH   9  10
ENDBRANCH   8   9
ENDBRANCH   3   8
BRANCH   1  21
HETATM   21  C5  UNL     1      -4.342   0.364   0.924  1.00  0.00     0.179 C 
BRANCH  21  22
HETATM   22  N1  UNL     1      -5.254  -0.201  -0.018  1.00  0.00    -0.380 N 
HETATM   23  C4  UNL     1      -5.480  -1.605   0.102  1.00  0.00     0.120 C 
HETATM   24  C3  UNL     1      -6.055  -2.095  -1.233  1.00  0.00     0.022 C 
HETATM   25  C2  UNL     1      -7.228  -1.255  -1.653  1.00  0.00     0.038 C 
HETATM   26  C1  UNL     1      -7.620  -0.308  -0.550  1.00  0.00     0.166 C 
HETATM   27  C18 UNL     1      -6.428   0.583  -0.241  1.00  0.00     0.245 C 
BRANCH  26  28
HETATM   28  O1  UNL     1      -8.647   0.502  -1.020  1.00  0.00    -0.391 OA
ATOM     29  H1  UNL     1      -8.894   1.100  -0.324  1.00  0.00     0.210 HD
ENDBRANCH  26  28
BRANCH  27  30
HETATM   30  O2  UNL     1      -6.212   1.386  -1.360  1.00  0.00    -0.374 OA
ATOM     31  H2  UNL     1      -5.467   1.943  -1.167  1.00  0.00     0.212 HD
ENDBRANCH  27  30
ENDBRANCH  21  22
ENDBRANCH   1  21
TORSDOF 10
