REMARK  12 active torsions:
REMARK  status: ('A' for Active; 'I' for Inactive)
REMARK    1  A    between atoms: C2_2  and  C3_3 
REMARK    2  A    between atoms: C3_3  and  C4_4 
REMARK    3  A    between atoms: C4_4  and  O1_5 
REMARK    4  A    between atoms: O1_5  and  C5_6 
REMARK    5  A    between atoms: C5_6  and  C6_7 
REMARK    6  A    between atoms: C8_9  and  O2_10 
REMARK    7  A    between atoms: C9_12  and  O3_13 
REMARK    8  A    between atoms: C10_15  and  S1_16 
REMARK    9  A    between atoms: C12_19  and  C13_20 
REMARK   10  A    between atoms: C13_20  and  O5_21 
REMARK   11  A    between atoms: C14_23  and  N1_24 
REMARK   12  A    between atoms: N1_24  and  N2_26 
ROOT
HETATM    1  C5  UNL     1      -0.091  -0.695   0.017  1.00  0.00     0.131 C 
HETATM    2  C8  UNL     1       1.071  -1.100   0.888  1.00  0.00     0.190 C 
HETATM    3  C9  UNL     1       2.402  -1.176   0.317  1.00  0.00     0.189 C 
HETATM    4  C10 UNL     1       2.867   0.209  -0.105  1.00  0.00     0.214 C 
HETATM    5  O4  UNL     1       2.248   0.503  -1.261  1.00  0.00    -0.360 OA
HETATM    6  C12 UNL     1       1.078   1.150  -1.298  1.00  0.00     0.197 C 
HETATM    7  C14 UNL     1      -0.031   0.764  -0.383  1.00  0.00     0.073 C 
ENDROOT
BRANCH   1   8
HETATM    8  O1  UNL     1      -1.127  -0.831   0.820  1.00  0.00    -0.371 OA
BRANCH   8   9
HETATM    9  C4  UNL     1      -2.376  -0.705   0.858  1.00  0.00     0.169 C 
BRANCH   9  10
HETATM   10  C3  UNL     1      -3.220   0.490   0.638  1.00  0.00     0.026 C 
BRANCH  10  11
HETATM   11  C2  UNL     1      -4.682   0.013   0.818  1.00  0.00    -0.002 C 
HETATM   12  C1  UNL     1      -5.644   1.142   0.619  1.00  0.00     0.005 C 
ENDBRANCH  10  11
ENDBRANCH   9  10
ENDBRANCH   8   9
ENDBRANCH   1   8
BRANCH   1  13
HETATM   13  C6  UNL     1      -0.153  -1.474  -1.275  1.00  0.00     0.043 C 
HETATM   14  C7  UNL     1      -0.270  -2.927  -1.228  1.00  0.00     0.009 C 
ENDBRANCH   1  13
BRANCH   2  15
HETATM   15  O2  UNL     1       0.756  -2.277   1.551  1.00  0.00    -0.389 OA
ATOM     16  H2  UNL     1       1.488  -2.532   2.100  1.00  0.00     0.210 HD
ENDBRANCH   2  15
BRANCH   7  17
HETATM   17  N1  UNL     1      -0.287   1.726   0.587  1.00  0.00    -0.289 N 
ATOM     18  H1  UNL     1      -0.975   2.405   0.261  1.00  0.00     0.188 HD
BRANCH  17  19
HETATM   19  N2  UNL     1       0.073   1.975   1.687  1.00  0.00    -0.249 N 
HETATM   20  N3  UNL     1       0.645   2.530   2.596  1.00  0.00    -0.331 N 
ATOM     21  H32 UNL     1       1.116   3.236   2.030  1.00  0.00     0.178 HD
ATOM     22  H31 UNL     1       0.955   2.745   3.544  1.00  0.00     0.178 HD
ATOM     23  H2  UNL     1      -0.421   1.248   2.205  1.00  0.00     0.207 HD
ENDBRANCH  17  19
ENDBRANCH   7  17
BRANCH   3  24
HETATM   24  O3  UNL     1       2.660  -2.137  -0.627  1.00  0.00    -0.389 OA
ATOM     25  H3  UNL     1       3.532  -2.187  -1.001  1.00  0.00     0.210 HD
ENDBRANCH   3  24
BRANCH   6  26
HETATM   26  C13 UNL     1       1.361   2.637  -1.123  1.00  0.00     0.202 C 
BRANCH  26  27
HETATM   27  O5  UNL     1       0.170   3.355  -1.173  1.00  0.00    -0.398 OA
ATOM     28  H5  UNL     1       0.346   4.282  -1.064  1.00  0.00     0.209 HD
ENDBRANCH  26  27
ENDBRANCH   6  26
BRANCH   4  29
HETATM   29  S1  UNL     1       4.657   0.230  -0.414  1.00  0.00    -0.139 SA
HETATM   30  C11 UNL     1       5.608  -0.053   1.078  1.00  0.00     0.092 C 
ENDBRANCH   4  29
TORSDOF 12
