REMARK  11 active torsions:
REMARK  status: ('A' for Active; 'I' for Inactive)
REMARK    1  A    between atoms: O1_2  and  C2_3 
REMARK    2  A    between atoms: C2_3  and  C3_5 
REMARK    3  A    between atoms: N2_7  and  N3_9 
REMARK    4  A    between atoms: N3_9  and  C4_11 
REMARK    5  A    between atoms: C5_12  and  O3_13 
REMARK    6  A    between atoms: C6_16  and  C7_17 
REMARK    7  A    between atoms: C7_17  and  C8_19 
REMARK    8  A    between atoms: C8_19  and  O6_21 
REMARK    9  A    between atoms: C8_19  and  C10_23 
REMARK   10  A    between atoms: C10_23  and  O8_25 
REMARK   11  A    between atoms: C12_27  and  N4_28 
REMARK       I    between atoms: N4_28  and  C13_30 
ROOT
HETATM    1  C4  UNL     1       0.351  -1.107  -0.245  1.00  0.00     0.136 A 
HETATM    2  C5  UNL     1      -0.648  -2.019  -0.041  1.00  0.00     0.215 A 
HETATM    3  O4  UNL     1      -1.798  -1.387   0.001  1.00  0.00    -0.280 OA
HETATM    4  C6  UNL     1      -1.612  -0.101  -0.167  1.00  0.00     0.157 A 
HETATM    5  C12 UNL     1      -0.264   0.136  -0.326  1.00  0.00     0.106 A 
ENDROOT
BRANCH   1   6
HETATM    6  N3  UNL     1       1.744  -1.358  -0.356  1.00  0.00    -0.293 N 
ATOM      7  H3  UNL     1       2.081  -1.808  -1.207  1.00  0.00     0.187 HD
BRANCH   6   8
HETATM    8  N2  UNL     1       2.680  -1.029   0.623  1.00  0.00    -0.282 N 
HETATM    9  C3  UNL     1       3.890  -0.738   0.303  1.00  0.00     0.206 C 
HETATM   10  N1  UNL     1       4.234  -0.769  -1.097  1.00  0.00    -0.075 NA
ATOM     11  H2  UNL     1       2.401  -1.019   1.604  1.00  0.00     0.188 HD
BRANCH   9  12
HETATM   12  C2  UNL     1       4.941  -0.384   1.235  1.00  0.00     0.325 C 
HETATM   13  O2  UNL     1       4.707  -0.341   2.474  1.00  0.00    -0.256 OA
BRANCH  12  14
HETATM   14  O1  UNL     1       6.231  -0.079   0.811  1.00  0.00    -0.321 OA
HETATM   15  C1  UNL     1       7.291   0.278   1.673  1.00  0.00     0.213 C 
ENDBRANCH  12  14
ENDBRANCH   9  12
ENDBRANCH   6   8
ENDBRANCH   1   6
BRANCH   2  16
HETATM   16  O3  UNL     1      -0.540  -3.411   0.109  1.00  0.00    -0.339 OA
ATOM     17  H3  UNL     1      -1.234  -4.044   0.251  1.00  0.00     0.220 HD
ENDBRANCH   2  16
BRANCH   5  18
HETATM   18  N4  UNL     1       0.368   1.374  -0.502  1.00  0.00    -0.323 N 
HETATM   19  C13 UNL     1       0.693   2.008  -1.718  1.00  0.00     0.218 C 
HETATM   20  C14 UNL     1       1.377   3.344  -1.726  1.00  0.00     0.117 C 
HETATM   21  O9  UNL     1       0.400   1.432  -2.808  1.00  0.00    -0.274 OA
ATOM     22  H4  UNL     1       0.623   1.875   0.349  1.00  0.00     0.169 HD
ENDBRANCH   5  18
BRANCH   4  23
HETATM   23  C7  UNL     1      -2.694   0.898  -0.181  1.00  0.00     0.229 C 
HETATM   24  O5  UNL     1      -2.352   2.110  -0.368  1.00  0.00    -0.286 OA
BRANCH  23  25
HETATM   25  C8  UNL     1      -4.115   0.592   0.002  1.00  0.00     0.209 C 
HETATM   26  C9  UNL     1      -4.740   1.749   0.774  1.00  0.00     0.066 C 
BRANCH  25  27
HETATM   27  O6  UNL     1      -4.698   0.570  -1.270  1.00  0.00    -0.372 OA
ATOM     28  H6  UNL     1      -5.619   0.372  -1.151  1.00  0.00     0.211 HD
ENDBRANCH  25  27
BRANCH  25  29
HETATM   29  C10 UNL     1      -4.367  -0.694   0.654  1.00  0.00     0.301 C 
HETATM   30  O7  UNL     1      -3.957  -0.962   1.835  1.00  0.00    -0.261 OA
BRANCH  29  31
HETATM   31  O8  UNL     1      -5.061  -1.682   0.027  1.00  0.00    -0.324 OA
HETATM   32  C11 UNL     1      -5.371  -2.949   0.539  1.00  0.00     0.213 C 
ENDBRANCH  29  31
ENDBRANCH  25  29
ENDBRANCH  23  25
ENDBRANCH   4  23
TORSDOF 11
