REMARK  10 active torsions:
REMARK  status: ('A' for Active; 'I' for Inactive)
REMARK    1  A    between atoms: C2_2  and  C5_5 
REMARK    2  A    between atoms: C8_10  and  O1_11 
REMARK    3  A    between atoms: C9_13  and  C10_14 
REMARK    4  A    between atoms: N1_15  and  N2_17 
REMARK    5  A    between atoms: N2_17  and  C11_19 
REMARK    6  A    between atoms: C11_19  and  N3_21 
REMARK    7  A    between atoms: N3_21  and  C12_23 
REMARK    8  A    between atoms: C12_23  and  C13_24 
REMARK    9  A    between atoms: C13_24  and  N4_25 
REMARK   10  A    between atoms: C18_30  and  C19_31 
ROOT
HETATM    1  C5  UNL     1      -4.406   0.561  -0.573  1.00  0.00    -0.023 A 
HETATM    2  C6  UNL     1      -4.330   1.593  -1.566  1.00  0.00     0.038 A 
HETATM    3 BR1  UNL     1      -5.894   2.599  -1.933  1.00  0.00    -0.049 Br
HETATM    4  C7  UNL     1      -3.211   1.873  -2.283  1.00  0.00     0.062 A 
HETATM    5 BR2  UNL     1      -3.213   3.276  -3.592  1.00  0.00    -0.047 Br
HETATM    6  C8  UNL     1      -2.092   1.143  -2.052  1.00  0.00     0.096 A 
HETATM    7  C9  UNL     1      -2.093   0.103  -1.084  1.00  0.00     0.024 A 
HETATM    8  C18 UNL     1      -3.237  -0.197  -0.359  1.00  0.00    -0.013 A 
ENDROOT
BRANCH   7   9
HETATM    9  C10 UNL     1      -0.794  -0.425  -0.834  1.00  0.00     0.122 C 
HETATM   10  N1  UNL     1       0.234   0.094  -1.546  1.00  0.00    -0.309 N 
ATOM     11  H1  UNL     1       0.025   0.831  -2.219  1.00  0.00     0.186 HD
BRANCH  10  12
HETATM   12  N2  UNL     1       1.529  -0.307  -1.419  1.00  0.00    -0.277 N 
ATOM     13  H2  UNL     1       2.000  -0.729  -2.220  1.00  0.00     0.189 HD
BRANCH  12  14
HETATM   14  C11 UNL     1       2.234  -0.154  -0.212  1.00  0.00     0.186 C 
HETATM   15  S1  UNL     1       1.464   0.524   1.065  1.00  0.00    -0.040 SA
BRANCH  14  16
HETATM   16  N3  UNL     1       3.596  -0.584  -0.104  1.00  0.00    -0.364 N 
ATOM     17  H3  UNL     1       4.077  -1.007  -0.898  1.00  0.00     0.162 HD
BRANCH  16  18
HETATM   18  C12 UNL     1       4.260  -0.404   1.146  1.00  0.00     0.152 C 
BRANCH  18  19
HETATM   19  C13 UNL     1       5.675  -0.879   1.167  1.00  0.00     0.292 C 
BRANCH  19  20
HETATM   20  N4  UNL     1       6.528  -0.224   0.215  1.00  0.00     0.090 N 
HETATM   21  C14 UNL     1       7.850  -0.769   0.338  1.00  0.00     0.272 C 
HETATM   22  C15 UNL     1       8.825   0.358   0.412  1.00  0.00     0.032 C 
HETATM   23  C16 UNL     1       8.054   1.573   0.014  1.00  0.00     0.032 C 
HETATM   24  C17 UNL     1       6.626   1.199   0.417  1.00  0.00     0.272 C 
ENDBRANCH  19  20
ENDBRANCH  18  19
ENDBRANCH  16  18
ENDBRANCH  14  16
ENDBRANCH  12  14
ENDBRANCH  10  12
ENDBRANCH   7   9
BRANCH   6  25
HETATM   25  O1  UNL     1      -0.958   1.453  -2.796  1.00  0.00    -0.358 OA
ATOM     26  H1  UNL     1      -0.174   0.942  -2.634  1.00  0.00     0.217 HD
ENDBRANCH   6  25
BRANCH   8  27
HETATM   27  C19 UNL     1      -3.283  -1.385   0.396  1.00  0.00     0.058 C 
HETATM   28  C20 UNL     1      -4.363  -2.304  -0.304  1.00  0.00     0.037 C 
HETATM   29  C21 UNL     1      -2.155  -2.450   0.085  1.00  0.00     0.037 C 
HETATM   30 CL1  UNL     1      -3.353  -1.689   2.054  1.00  0.00    -0.115 Cl
ENDBRANCH   8  27
BRANCH   1  31
HETATM   31  C2  UNL     1      -5.626   0.505   0.126  1.00  0.00    -0.022 C 
HETATM   32  C1  UNL     1      -5.758   2.021   0.697  1.00  0.00     0.019 C 
HETATM   33  C3  UNL     1      -5.882  -0.120   1.486  1.00  0.00     0.019 C 
HETATM   34  C4  UNL     1      -6.929   0.398  -0.670  1.00  0.00     0.019 C 
ENDBRANCH   1  31
TORSDOF 10
