REMARK  7 active torsions:
REMARK  status: ('A' for Active; 'I' for Inactive)
REMARK    1  A    between atoms: C13_14  and  C14_15 
REMARK    2  A    between atoms: C17_20  and  C18_21 
REMARK    3  A    between atoms: C18_21  and  C19_24 
REMARK    4  A    between atoms: C19_24  and  O3_25 
REMARK    5  A    between atoms: C21_29  and  C22_30 
REMARK    6  A    between atoms: C22_30  and  C23_31 
REMARK    7  A    between atoms: C23_31  and  C24_32 
ROOT
HETATM    1  C1  UNL     1       4.003  -1.500   1.366  1.00  0.00     0.016 C 
HETATM    2  C2  UNL     1       3.698  -0.099   0.808  1.00  0.00    -0.031 C 
HETATM    3  C3  UNL     1       4.841   0.774   1.190  1.00  0.00     0.037 C 
HETATM    4  C4  UNL     1       5.873   0.338   0.173  1.00  0.00    -0.029 C 
HETATM    5  C5  UNL     1       5.252  -0.214  -0.858  1.00  0.00    -0.021 C 
HETATM    6  C6  UNL     1       3.771  -0.214  -0.659  1.00  0.00     0.038 C 
HETATM    7  C7  UNL     1       3.152   0.807  -1.511  1.00  0.00    -0.020 C 
HETATM    8  C8  UNL     1       1.968   1.558  -1.194  1.00  0.00    -0.005 C 
HETATM    9  C9  UNL     1       0.574   1.097  -1.083  1.00  0.00     0.074 C 
HETATM   10  C10 UNL     1      -0.162   2.422  -1.109  1.00  0.00     0.074 C 
HETATM   11  N1  UNL     1      -0.711   3.463  -1.135  1.00  0.00    -0.196 NA
HETATM   12  C11 UNL     1       0.258   0.384  -2.334  1.00  0.00     0.031 C 
HETATM   13  C12 UNL     1      -0.181  -1.016  -2.195  1.00  0.00     0.023 C 
HETATM   14  C13 UNL     1      -1.211  -1.273  -1.119  1.00  0.00     0.058 C 
HETATM   15  C15 UNL     1      -2.503  -1.389  -1.891  1.00  0.00     0.022 C 
HETATM   16  C16 UNL     1      -3.722  -0.771  -1.378  1.00  0.00     0.011 C 
HETATM   17  C17 UNL     1      -3.284   0.641  -1.047  1.00  0.00     0.058 C 
HETATM   18  C20 UNL     1      -2.453   0.486   0.165  1.00  0.00     0.101 C 
HETATM   19 CL1  UNL     1      -3.707  -0.254   1.269  1.00  0.00    -0.124 Cl
HETATM   20  C21 UNL     1      -1.191  -0.346   0.078  1.00  0.00     0.004 C 
HETATM   21  C25 UNL     1       0.100   0.463   0.206  1.00  0.00    -0.010 C 
HETATM   22  C26 UNL     1       0.072   1.562   1.199  1.00  0.00     0.018 C 
HETATM   23  C27 UNL     1       1.267  -0.383   0.678  1.00  0.00     0.013 C 
HETATM   24  C28 UNL     1       2.365   0.302   1.396  1.00  0.00     0.011 C 
ENDROOT
BRANCH  20  25
HETATM   25  C22 UNL     1      -1.351  -1.278   1.266  1.00  0.00     0.024 C 
BRANCH  25  26
HETATM   26  C23 UNL     1      -1.363  -0.846   2.642  1.00  0.00     0.114 C 
BRANCH  26  27
HETATM   27  C24 UNL     1      -1.610  -2.088   3.495  1.00  0.00     0.172 C 
HETATM   28  O4  UNL     1      -1.751  -3.189   2.925  1.00  0.00    -0.648 OA
HETATM   29  O5  UNL     1      -1.672  -1.966   4.866  1.00  0.00    -0.648 OA
ENDBRANCH  26  27
ENDBRANCH  25  26
ENDBRANCH  20  25
BRANCH  14  30
HETATM   30  C14 UNL     1      -0.946  -2.726  -0.782  1.00  0.00     0.182 C 
HETATM   31  O1  UNL     1      -1.885  -3.564  -0.642  1.00  0.00    -0.647 OA
HETATM   32  O2  UNL     1       0.295  -3.290  -0.594  1.00  0.00    -0.647 OA
ENDBRANCH  14  30
BRANCH  17  33
HETATM   33  C18 UNL     1      -4.499   1.468  -0.964  1.00  0.00     0.186 C 
HETATM   34  F1  UNL     1      -5.099   1.412  -2.260  1.00  0.00    -0.228 F 
HETATM   35 BR1  UNL     1      -5.938   0.684   0.116  1.00  0.00    -0.046 Br
BRANCH  33  36
HETATM   36  C19 UNL     1      -4.361   2.911  -0.666  1.00  0.00     0.220 C 
BRANCH  36  37
HETATM   37  O3  UNL     1      -5.637   3.476  -0.640  1.00  0.00    -0.397 OA
ATOM     38  H3  UNL     1      -5.548   4.402  -0.449  1.00  0.00     0.209 HD
ENDBRANCH  36  37
ENDBRANCH  33  36
ENDBRANCH  17  33
TORSDOF 7
