REMARK  10 active torsions:
REMARK  status: ('A' for Active; 'I' for Inactive)
REMARK    1  A    between atoms: C2_2  and  C5_6 
REMARK    2  A    between atoms: C3_3  and  C4_4 
REMARK    3  A    between atoms: C5_6  and  C6_7 
REMARK    4  A    between atoms: C7_8  and  C8_9 
REMARK    5  A    between atoms: C10_11  and  O2_12 
REMARK    6  A    between atoms: C12_15  and  C13_16 
REMARK    7  A    between atoms: C13_16  and  C14_17 
REMARK    8  A    between atoms: C14_17  and  O3_18 
REMARK    9  A    between atoms: C14_17  and  C15_20 
REMARK   10  A    between atoms: C15_20  and  O4_21 
ROOT
HETATM    1  C8  UNL     1       0.392   1.486  -0.745  1.00  0.00     0.014 C 
HETATM    2  C9  UNL     1       0.253   2.151   0.608  1.00  0.00     0.040 C 
HETATM    3  C10 UNL     1       1.495   3.042   0.604  1.00  0.00     0.119 C 
HETATM    4  C11 UNL     1       2.534   2.077   0.069  1.00  0.00     0.037 C 
HETATM    5  C12 UNL     1       1.826   1.000  -0.666  1.00  0.00    -0.002 C 
ENDROOT
BRANCH   1   6
HETATM    6  C7  UNL     1      -0.521   0.319  -0.884  1.00  0.00    -0.025 C 
HETATM    7  C6  UNL     1      -1.460   0.056  -0.004  1.00  0.00    -0.026 C 
BRANCH   7   8
HETATM    8  C5  UNL     1      -2.340  -1.135  -0.211  1.00  0.00     0.060 C 
BRANCH   8   9
HETATM    9  C2  UNL     1      -3.756  -0.757  -0.322  1.00  0.00    -0.077 C 
HETATM   10  C1  UNL     1      -4.130   0.158  -1.427  1.00  0.00     0.044 C 
HETATM   11  C3  UNL     1      -4.657  -1.200   0.508  1.00  0.00     0.044 C 
BRANCH  11  12
HETATM   12  C4  UNL     1      -4.421  -2.093   1.622  1.00  0.00     0.259 C 
HETATM   13  O1  UNL     1      -5.389  -2.445   2.348  1.00  0.00    -0.302 OA
ENDBRANCH  11  12
ENDBRANCH   8   9
ENDBRANCH   7   8
ENDBRANCH   1   6
BRANCH   5  14
HETATM   14  C13 UNL     1       1.812  -0.333   0.008  1.00  0.00     0.039 C 
BRANCH  14  15
HETATM   15  C14 UNL     1       3.169  -0.958   0.166  1.00  0.00     0.142 C 
BRANCH  15  16
HETATM   16  O3  UNL     1       3.760  -1.150  -1.056  1.00  0.00    -0.393 OA
ATOM     17  H3  UNL     1       4.618  -1.545  -0.956  1.00  0.00     0.210 HD
ENDBRANCH  15  16
BRANCH  15  18
HETATM   18  C15 UNL     1       2.949  -2.297   0.884  1.00  0.00     0.195 C 
BRANCH  18  19
HETATM   19  O4  UNL     1       4.141  -2.953   1.090  1.00  0.00    -0.398 OA
ATOM     20  H4  UNL     1       4.005  -3.782   1.534  1.00  0.00     0.209 HD
ENDBRANCH  18  19
ENDBRANCH  15  18
ENDBRANCH  14  15
ENDBRANCH   5  14
BRANCH   3  21
HETATM   21  O2  UNL     1       1.267   4.092  -0.283  1.00  0.00    -0.396 OA
ATOM     22  H2  UNL     1       2.039   4.646  -0.285  1.00  0.00     0.210 HD
ENDBRANCH   3  21
TORSDOF 10
