REMARK  10 active torsions:
REMARK  status: ('A' for Active; 'I' for Inactive)
REMARK    1  A    between atoms: C2_2  and  C4_4 
REMARK    2  A    between atoms: C4_4  and  C5_5 
REMARK    3  A    between atoms: C5_5  and  C7_7 
REMARK    4  A    between atoms: C7_7  and  C8_8 
REMARK    5  A    between atoms: C8_8  and  N1_9 
REMARK    6  A    between atoms: C8_8  and  C9_13 
REMARK    7  A    between atoms: C9_13  and  N2_14 
REMARK    8  A    between atoms: N2_14  and  C10_17 
REMARK    9  A    between atoms: C10_17  and  C11_18 
REMARK   10  A    between atoms: C11_18  and  O1_19 
ROOT
HETATM    1  C8  UNL     1       0.235  -1.539   1.299  1.00  0.00     0.209 C 
ENDROOT
BRANCH   1   2
HETATM    2  C7  UNL     1       0.996  -0.349   1.668  1.00  0.00     0.038 C 
BRANCH   2   3
HETATM    3  C5  UNL     1       1.940   0.300   0.732  1.00  0.00    -0.016 C 
HETATM    4  C6  UNL     1       2.517   1.496   1.520  1.00  0.00     0.010 C 
BRANCH   3   5
HETATM    5  C4  UNL     1       3.036  -0.579   0.311  1.00  0.00     0.008 C 
BRANCH   5   6
HETATM    6  C2  UNL     1       4.104  -0.049  -0.571  1.00  0.00    -0.023 C 
HETATM    7  C1  UNL     1       4.936   1.075  -0.104  1.00  0.00     0.009 C 
HETATM    8  C3  UNL     1       3.598   0.308  -1.960  1.00  0.00     0.009 C 
ENDBRANCH   5   6
ENDBRANCH   3   5
ENDBRANCH   2   3
ENDBRANCH   1   2
BRANCH   1   9
HETATM    9  N1  UNL     1       0.929  -2.734   0.967  1.00  0.00    -0.073 N 
ATOM     10  H13 UNL     1       1.595  -2.529   0.222  1.00  0.00     0.274 HD
ATOM     11  H12 UNL     1       1.555  -2.972   1.736  1.00  0.00     0.274 HD
ATOM     12  H11 UNL     1       0.397  -3.565   0.709  1.00  0.00     0.274 HD
ENDBRANCH   1   9
BRANCH   1  13
HETATM   13  C9  UNL     1      -0.792  -1.289   0.190  1.00  0.00     0.266 C 
BRANCH  13  14
HETATM   14  N2  UNL     1      -1.725  -0.304   0.629  1.00  0.00    -0.062 N 
ATOM     15  H22 UNL     1      -2.126  -0.551   1.534  1.00  0.00     0.278 HD
ATOM     16  H21 UNL     1      -1.253   0.561   0.893  1.00  0.00     0.278 HD
BRANCH  14  17
HETATM   17  C10 UNL     1      -2.768  -0.058  -0.364  1.00  0.00     0.146 C 
HETATM   18  C12 UNL     1      -3.680   0.993   0.222  1.00  0.00     0.041 C 
HETATM   19  C13 UNL     1      -4.991   0.261   0.428  1.00  0.00     0.003 C 
HETATM   20  C14 UNL     1      -4.989  -0.731  -0.743  1.00  0.00     0.003 C 
HETATM   21  C15 UNL     1      -3.580  -1.278  -0.645  1.00  0.00     0.041 C 
BRANCH  17  22
HETATM   22  C11 UNL     1      -2.204   0.487  -1.646  1.00  0.00     0.203 C 
BRANCH  22  23
HETATM   23  O1  UNL     1      -1.539   1.679  -1.483  1.00  0.00    -0.398 OA
ATOM     24  H1  UNL     1      -1.182   2.024  -2.293  1.00  0.00     0.209 HD
ENDBRANCH  22  23
ENDBRANCH  17  22
ENDBRANCH  14  17
ENDBRANCH  13  14
ENDBRANCH   1  13
TORSDOF 10
