REMARK  10 active torsions:
REMARK  status: ('A' for Active; 'I' for Inactive)
REMARK    1  A    between atoms: C2_2  and  C4_4 
REMARK    2  A    between atoms: C4_4  and  C5_5 
REMARK    3  A    between atoms: C5_5  and  C6_6 
REMARK    4  A    between atoms: C8_8  and  C9_9 
REMARK    5  A    between atoms: C10_10  and  C11_11 
REMARK    6  A    between atoms: C11_11  and  O1_12 
REMARK    7  A    between atoms: C11_11  and  C12_14 
REMARK    8  A    between atoms: C12_14  and  C14_16 
REMARK    9  A    between atoms: C14_16  and  C15_17 
REMARK   10  A    between atoms: N2_19  and  O2_21 
ROOT
HETATM    1  C11 UNL     1      -2.339   0.465  -1.202  1.00  0.00     0.144 C 
ENDROOT
BRANCH   1   2
HETATM    2  C10 UNL     1      -0.954   0.304  -0.730  1.00  0.00     0.001 C 
HETATM    3  C9  UNL     1      -0.637  -0.521   0.231  1.00  0.00    -0.023 C 
BRANCH   3   4
HETATM    4  C8  UNL     1       0.730  -0.734   0.757  1.00  0.00     0.012 A 
HETATM    5  C6  UNL     1       1.866  -1.040  -0.135  1.00  0.00    -0.006 A 
HETATM    6  C7  UNL     1       1.204  -2.187   0.606  1.00  0.00     0.014 A 
BRANCH   5   7
HETATM    7  C5  UNL     1       3.259  -0.736   0.361  1.00  0.00     0.005 C 
BRANCH   7   8
HETATM    8  C4  UNL     1       3.894   0.409  -0.395  1.00  0.00     0.004 C 
BRANCH   8   9
HETATM    9  C2  UNL     1       5.289   0.597   0.215  1.00  0.00    -0.023 C 
HETATM   10  C1  UNL     1       6.013   1.740  -0.487  1.00  0.00     0.009 C 
HETATM   11  C3  UNL     1       6.119  -0.650  -0.031  1.00  0.00     0.009 C 
ENDBRANCH   8   9
ENDBRANCH   7   8
ENDBRANCH   5   7
ENDBRANCH   3   4
ENDBRANCH   1   2
BRANCH   1  12
HETATM   12  O1  UNL     1      -2.503  -0.387  -2.306  1.00  0.00    -0.391 OA
ATOM     13  H1  UNL     1      -3.397  -0.283  -2.611  1.00  0.00     0.210 HD
ENDBRANCH   1  12
BRANCH   1  14
HETATM   14  C12 UNL     1      -3.383   0.102  -0.198  1.00  0.00     0.021 C 
HETATM   15  C13 UNL     1      -3.313   0.921   1.059  1.00  0.00     0.013 C 
BRANCH  14  16
HETATM   16  C14 UNL     1      -4.740   0.380  -0.835  1.00  0.00     0.082 C 
BRANCH  16  17
HETATM   17  C15 UNL     1      -5.848   0.046   0.098  1.00  0.00     0.113 C 
HETATM   18  N1  UNL     1      -5.958  -1.294   0.565  1.00  0.00    -0.086 NA
HETATM   19  N2  UNL     1      -6.712   0.895   0.509  1.00  0.00    -0.260 N 
ATOM     20  H2  UNL     1      -7.431   0.559   1.149  1.00  0.00     0.195 HD
BRANCH  19  21
HETATM   21  O2  UNL     1      -6.749   2.210   0.161  1.00  0.00    -0.289 OA
ATOM     22  H2  UNL     1      -7.391   2.841   0.466  1.00  0.00     0.244 HD
ENDBRANCH  19  21
ENDBRANCH  16  17
ENDBRANCH  14  16
ENDBRANCH   1  14
TORSDOF 10
