REMARK  7 active torsions:
REMARK  status: ('A' for Active; 'I' for Inactive)
REMARK    1  A    between atoms: C2_2  and  O1_3 
REMARK    2  A    between atoms: O1_3  and  C3_4 
REMARK    3  A    between atoms: C4_5  and  O2_6 
REMARK    4  A    between atoms: C6_9  and  C7_10 
REMARK    5  A    between atoms: C7_10  and  C8_11 
REMARK    6  A    between atoms: C19_22  and  O3_23 
REMARK    7  A    between atoms: C21_26  and  O4_27 
ROOT
HETATM    1  C8  UNL     1      -0.989   1.411   0.190  1.00  0.00     0.016 C 
HETATM    2  C9  UNL     1      -2.012   2.384   0.617  1.00  0.00    -0.025 C 
HETATM    3  C10 UNL     1      -3.114   2.241   1.526  1.00  0.00    -0.029 C 
HETATM    4  C11 UNL     1      -4.206   1.172   1.337  1.00  0.00     0.038 C 
HETATM    5  C12 UNL     1      -3.515   0.280   0.354  1.00  0.00    -0.015 C 
HETATM    6  C13 UNL     1      -3.684   0.875  -0.929  1.00  0.00     0.018 C 
HETATM    7  C14 UNL     1      -2.392  -0.119   1.175  1.00  0.00     0.017 C 
HETATM    8  C15 UNL     1      -1.181  -0.023   0.275  1.00  0.00    -0.002 C 
HETATM    9  C16 UNL     1      -1.600  -0.937  -0.810  1.00  0.00    -0.012 C 
HETATM   10  C17 UNL     1      -0.525  -2.074  -0.866  1.00  0.00     0.010 C 
HETATM   11  C18 UNL     1      -2.864  -1.697  -0.707  1.00  0.00     0.037 C 
HETATM   12  C19 UNL     1      -4.059  -1.129   0.085  1.00  0.00     0.127 C 
ENDROOT
BRANCH   1  13
HETATM   13  C7  UNL     1       0.346   1.796   0.808  1.00  0.00     0.047 C 
BRANCH  13  14
HETATM   14  C6  UNL     1       1.505   0.980   0.508  1.00  0.00    -0.052 A 
HETATM   15  C5  UNL     1       2.045  -0.030   1.279  1.00  0.00     0.046 A 
HETATM   16  C4  UNL     1       3.151  -0.768   0.918  1.00  0.00     0.102 A 
HETATM   17  C3  UNL     1       3.796  -0.527  -0.274  1.00  0.00     0.135 A 
HETATM   18  C21 UNL     1       3.292   0.473  -1.077  1.00  0.00     0.102 A 
HETATM   19  C20 UNL     1       2.189   1.201  -0.705  1.00  0.00     0.046 A 
BRANCH  16  20
HETATM   20  O2  UNL     1       3.607  -1.764   1.778  1.00  0.00    -0.358 OA
ATOM     21  H2  UNL     1       3.162  -1.930   2.601  1.00  0.00     0.217 HD
ENDBRANCH  16  20
BRANCH  17  22
HETATM   22  O1  UNL     1       4.921  -1.269  -0.653  1.00  0.00    -0.346 OA
BRANCH  22  23
HETATM   23  C2  UNL     1       6.229  -0.855  -0.302  1.00  0.00     0.171 C 
HETATM   24  C1  UNL     1       7.270  -1.820  -0.825  1.00  0.00     0.034 C 
ENDBRANCH  22  23
ENDBRANCH  17  22
BRANCH  18  25
HETATM   25  O4  UNL     1       3.951   0.708  -2.278  1.00  0.00    -0.358 OA
ATOM     26  H4  UNL     1       3.604   1.397  -2.832  1.00  0.00     0.217 HD
ENDBRANCH  18  25
ENDBRANCH  13  14
ENDBRANCH   1  13
BRANCH  12  27
HETATM   27  O3  UNL     1      -4.260  -1.820   1.262  1.00  0.00    -0.395 OA
ATOM     28  H3  UNL     1      -4.597  -2.693   1.095  1.00  0.00     0.210 HD
ENDBRANCH  12  27
TORSDOF 7
