REMARK  6 active torsions:
REMARK  status: ('A' for Active; 'I' for Inactive)
REMARK    1  A    between atoms: C7_7  and  O1_8 
REMARK    2  A    between atoms: C12_14  and  C13_15 
REMARK    3  A    between atoms: C14_16  and  C15_17 
REMARK    4  A    between atoms: C16_18  and  C17_19 
REMARK    5  A    between atoms: C18_20  and  C19_21 
REMARK    6  A    between atoms: C21_26  and  O5_27 
ROOT
HETATM    1  C1  UNL     1      -1.232   0.581  -3.472  1.00  0.00     0.015 C 
HETATM    2  C2  UNL     1      -1.326  -0.183  -2.389  1.00  0.00    -0.081 C 
HETATM    3  C3  UNL     1      -1.833  -1.587  -2.473  1.00  0.00     0.034 C 
HETATM    4  C4  UNL     1      -2.854  -1.868  -1.397  1.00  0.00     0.010 C 
HETATM    5  C5  UNL     1      -3.190  -0.529  -0.754  1.00  0.00    -0.003 C 
HETATM    6  C6  UNL     1      -4.465  -0.636   0.015  1.00  0.00     0.037 C 
HETATM    7  C7  UNL     1      -4.581   0.227   1.204  1.00  0.00     0.118 C 
HETATM    8  C8  UNL     1      -3.749   1.452   1.223  1.00  0.00     0.032 C 
HETATM    9  C9  UNL     1      -2.449   1.390   0.539  1.00  0.00     0.013 C 
HETATM   10  C10 UNL     1      -2.049   0.067  -0.010  1.00  0.00    -0.030 C 
HETATM   11  C11 UNL     1      -1.470  -0.838   1.046  1.00  0.00     0.016 C 
HETATM   12  C12 UNL     1      -0.932   0.312  -1.027  1.00  0.00     0.044 C 
ENDROOT
BRANCH  12  13
HETATM   13  C13 UNL     1       0.308  -0.368  -0.675  1.00  0.00    -0.017 C 
HETATM   14  C14 UNL     1       1.400   0.347  -0.478  1.00  0.00    -0.003 C 
BRANCH  14  15
HETATM   15  C15 UNL     1       2.678  -0.259  -0.123  1.00  0.00     0.001 C 
HETATM   16  C16 UNL     1       3.729   0.483   0.062  1.00  0.00     0.017 C 
BRANCH  16  17
HETATM   17  C17 UNL     1       5.061  -0.002   0.419  1.00  0.00     0.041 A 
HETATM   18  C18 UNL     1       6.185   0.769   0.618  1.00  0.00     0.078 A 
HETATM   19  C20 UNL     1       7.204  -0.114   0.936  1.00  0.00     0.164 A 
HETATM   20  O4  UNL     1       6.734  -1.325   0.929  1.00  0.00    -0.299 OA
HETATM   21  C21 UNL     1       5.445  -1.311   0.623  1.00  0.00     0.194 A 
BRANCH  18  22
HETATM   22  C19 UNL     1       6.363   2.206   0.537  1.00  0.00     0.212 C 
HETATM   23  O2  UNL     1       7.531   2.694   0.771  1.00  0.00    -0.644 OA
HETATM   24  O3  UNL     1       5.331   3.049   0.220  1.00  0.00    -0.644 OA
ENDBRANCH  18  22
BRANCH  21  25
HETATM   25  O5  UNL     1       4.667  -2.457   0.538  1.00  0.00    -0.340 OA
ATOM     26  H5  UNL     1       4.931  -3.359   0.679  1.00  0.00     0.220 HD
ENDBRANCH  21  25
ENDBRANCH  16  17
ENDBRANCH  14  15
ENDBRANCH  12  13
BRANCH   7  27
HETATM   27  O1  UNL     1      -5.932   0.643   1.304  1.00  0.00    -0.396 OA
ATOM     28  H1  UNL     1      -6.007   1.199   2.070  1.00  0.00     0.210 HD
ENDBRANCH   7  27
TORSDOF 6
