REMARK  9 active torsions:
REMARK  status: ('A' for Active; 'I' for Inactive)
REMARK    1  A    between atoms: C2_2  and  N1_5 
REMARK    2  A    between atoms: N1_5  and  C5_7 
REMARK    3  A    between atoms: C5_7  and  C6_8 
REMARK    4  A    between atoms: C5_7  and  N2_26 
REMARK    5  A    between atoms: C7_9  and  C8_10 
REMARK    6  A    between atoms: C8_10  and  C9_11 
REMARK    7  A    between atoms: C14_16  and  C15_17 
REMARK    8  A    between atoms: C20_22  and  O1_23 
REMARK    9  A    between atoms: N2_26  and  O3_27 
ROOT
HETATM    1  C9  UNL     1       0.351  -0.589  -0.262  1.00  0.00     0.085 A 
HETATM    2  C10 UNL     1       0.191  -2.089  -0.365  1.00  0.00     0.051 C 
HETATM    3  C11 UNL     1       0.462   0.089  -1.553  1.00  0.00     0.014 A 
HETATM    4  C12 UNL     1       1.659   0.611  -1.697  1.00  0.00     0.035 A 
HETATM    5  C13 UNL     1       2.461   0.325  -0.501  1.00  0.00     0.066 A 
HETATM    6  C14 UNL     1       3.736   0.716  -0.316  1.00  0.00     0.017 C 
HETATM    7  O2  UNL     1       1.649  -0.392   0.335  1.00  0.00    -0.337 OA
ENDROOT
BRANCH   1   8
HETATM    8  C8  UNL     1      -0.710  -0.020   0.610  1.00  0.00     0.070 C 
BRANCH   8   9
HETATM    9  C7  UNL     1      -2.075  -0.254   0.124  1.00  0.00    -0.018 C 
HETATM   10  C6  UNL     1      -2.507  -0.883  -0.918  1.00  0.00     0.062 C 
BRANCH  10  11
HETATM   11  C5  UNL     1      -3.946  -0.989  -1.208  1.00  0.00     0.208 C 
BRANCH  11  12
HETATM   12  N1  UNL     1      -4.841  -0.348  -0.289  1.00  0.00    -0.355 N 
ATOM     13  H1  UNL     1      -4.686  -0.501   0.707  1.00  0.00     0.163 HD
BRANCH  12  14
HETATM   14  C2  UNL     1      -5.938   0.492  -0.670  1.00  0.00     0.021 C 
HETATM   15  C1  UNL     1      -7.076  -0.315  -1.230  1.00  0.00     0.037 C 
HETATM   16  C3  UNL     1      -5.517   1.520  -1.716  1.00  0.00     0.037 C 
HETATM   17  C4  UNL     1      -6.375   1.283   0.556  1.00  0.00     0.037 C 
ENDBRANCH  12  14
ENDBRANCH  11  12
BRANCH  11  18
HETATM   18  N2  UNL     1      -4.334  -1.585  -2.171  1.00  0.00    -0.265 NA
BRANCH  18  19
HETATM   19  O3  UNL     1      -4.468  -2.262  -3.240  1.00  0.00    -0.217 OA
ATOM     20  H3  UNL     1      -4.776  -2.735  -4.004  1.00  0.00     0.261 HD
ENDBRANCH  18  19
ENDBRANCH  11  18
ENDBRANCH  10  11
ENDBRANCH   8   9
ENDBRANCH   1   8
BRANCH   6  21
HETATM   21  C15 UNL     1       4.492   0.391   0.915  1.00  0.00     0.040 C 
HETATM   22  C16 UNL     1       4.844   1.593   1.741  1.00  0.00     0.011 C 
HETATM   23  C17 UNL     1       5.344   1.046   3.086  1.00  0.00     0.001 C 
HETATM   24  C18 UNL     1       6.640   0.316   2.839  1.00  0.00     0.002 C 
HETATM   25  C19 UNL     1       6.503  -0.761   1.801  1.00  0.00     0.032 C 
HETATM   26  C20 UNL     1       5.737  -0.412   0.586  1.00  0.00     0.126 C 
BRANCH  26  27
HETATM   27  O1  UNL     1       6.467   0.134  -0.454  1.00  0.00    -0.395 OA
ATOM     28  H1  UNL     1       7.246  -0.369  -0.660  1.00  0.00     0.210 HD
ENDBRANCH  26  27
ENDBRANCH   6  21
TORSDOF 9
