REMARK  7 active torsions:
REMARK  status: ('A' for Active; 'I' for Inactive)
REMARK    1  A    between atoms: C4_4  and  C5_5 
REMARK    2  A    between atoms: C7_7  and  O1_9 
REMARK    3  A    between atoms: C9_11  and  C11_13 
REMARK    4  A    between atoms: C17_20  and  C18_21 
REMARK    5  A    between atoms: C19_22  and  C20_23 
REMARK    6  A    between atoms: C20_23  and  O3_24 
REMARK    7  A    between atoms: N1_26  and  O4_28 
ROOT
HETATM    1  C1  UNL     1       3.021   0.065   2.912  1.00  0.00     0.049 C 
HETATM    2  C2  UNL     1       2.376   0.178   1.554  1.00  0.00    -0.051 A 
HETATM    3  C3  UNL     1       1.024   0.367   1.420  1.00  0.00     0.018 A 
HETATM    4  C4  UNL     1       0.378   0.478   0.207  1.00  0.00    -0.023 A 
HETATM    5  C14 UNL     1       1.155   0.392  -0.939  1.00  0.00    -0.052 A 
HETATM    6  C15 UNL     1       0.473   0.510  -2.229  1.00  0.00     0.049 C 
HETATM    7  C16 UNL     1       2.511   0.204  -0.821  1.00  0.00     0.019 A 
HETATM    8  C17 UNL     1       3.140   0.094   0.411  1.00  0.00    -0.030 A 
ENDROOT
BRANCH   4   9
HETATM    9  C5  UNL     1      -1.056   0.682   0.187  1.00  0.00     0.159 C 
HETATM   10  C6  UNL     1      -1.607   0.555   1.590  1.00  0.00     0.077 C 
HETATM   11  C7  UNL     1      -3.110   0.463   1.228  1.00  0.00     0.088 C 
HETATM   12  C8  UNL     1      -3.766  -0.202   2.412  1.00  0.00     0.049 C 
HETATM   13  C9  UNL     1      -3.037  -0.382   0.014  1.00  0.00     0.091 C 
HETATM   14  C10 UNL     1      -3.001  -1.868   0.395  1.00  0.00     0.049 C 
HETATM   15  O2  UNL     1      -1.815  -0.141  -0.606  1.00  0.00    -0.367 OA
BRANCH  11  16
HETATM   16  O1  UNL     1      -3.561   1.732   0.987  1.00  0.00    -0.387 OA
ATOM     17  H1  UNL     1      -4.483   1.676   0.765  1.00  0.00     0.210 HD
ENDBRANCH  11  16
BRANCH  13  18
HETATM   18  C11 UNL     1      -4.212  -0.156  -0.878  1.00  0.00     0.015 C 
HETATM   19  C12 UNL     1      -4.139  -1.046  -2.126  1.00  0.00     0.012 C 
HETATM   20  C13 UNL     1      -4.328   1.253  -1.418  1.00  0.00     0.012 C 
ENDBRANCH  13  18
ENDBRANCH   4   9
BRANCH   8  21
HETATM   21  C18 UNL     1       4.576  -0.107   0.533  1.00  0.00     0.016 C 
HETATM   22  C19 UNL     1       5.419  -0.203  -0.466  1.00  0.00     0.058 C 
BRANCH  22  23
HETATM   23  C20 UNL     1       6.847  -0.404  -0.269  1.00  0.00     0.159 C 
HETATM   24  N1  UNL     1       7.691  -0.501  -1.211  1.00  0.00    -0.248 N 
ATOM     25  H1  UNL     1       8.668  -0.642  -0.953  1.00  0.00     0.196 HD
BRANCH  23  26
HETATM   26  O3  UNL     1       7.322  -0.498   1.037  1.00  0.00    -0.345 OA
ATOM     27  H3  UNL     1       8.254  -0.629   1.166  1.00  0.00     0.219 HD
ENDBRANCH  23  26
BRANCH  24  28
HETATM   28  O4  UNL     1       7.395  -0.432  -2.548  1.00  0.00    -0.288 OA
ATOM     29  H4  UNL     1       8.027  -0.505  -3.253  1.00  0.00     0.244 HD
ENDBRANCH  24  28
ENDBRANCH  22  23
ENDBRANCH   8  21
TORSDOF 7
