REMARK  7 active torsions:
REMARK  status: ('A' for Active; 'I' for Inactive)
REMARK    1  A    between atoms: C2_3  and  C3_4 
REMARK    2  A    between atoms: C5_6  and  C6_7 
REMARK    3  A    between atoms: C7_10  and  N3_11 
REMARK    4  A    between atoms: N3_11  and  C8_13 
REMARK    5  A    between atoms: C8_13  and  C9_14 
REMARK    6  A    between atoms: C9_14  and  C10_15 
REMARK    7  A    between atoms: C10_15  and  N4_16 
ROOT
HETATM    1  N1  UNL     1      -8.099   1.131  -0.401  1.00  0.00    -0.197 NA
HETATM    2  C1  UNL     1      -7.078   1.438  -0.820  1.00  0.00     0.063 C 
HETATM    3  C2  UNL     1      -5.772   1.820  -1.371  1.00  0.00     0.164 C 
ENDROOT
BRANCH   3   4
HETATM    4  C3  UNL     1      -4.989   0.568  -1.527  1.00  0.00    -0.022 A 
HETATM    5  C4  UNL     1      -3.980   0.195  -0.675  1.00  0.00     0.025 A 
HETATM    6  C5  UNL     1      -3.239  -0.988  -0.818  1.00  0.00     0.015 A 
HETATM    7  C15 UNL     1      -3.555  -1.782  -1.862  1.00  0.00     0.048 A 
HETATM    8 CL1  UNL     1      -2.628  -3.231  -2.288  1.00  0.00    -0.083 Cl
HETATM    9  C16 UNL     1      -4.592  -1.414  -2.746  1.00  0.00     0.049 A 
HETATM   10  C17 UNL     1      -5.314  -0.253  -2.596  1.00  0.00     0.043 A 
HETATM   11 CL2  UNL     1      -6.596   0.184  -3.705  1.00  0.00    -0.084 Cl
BRANCH   6  12
HETATM   12  C6  UNL     1      -2.135  -1.236   0.085  1.00  0.00     0.084 A 
HETATM   13  N2  UNL     1      -1.317  -0.151   0.292  1.00  0.00    -0.189 N 
HETATM   14  C7  UNL     1      -0.290  -0.187   1.150  1.00  0.00     0.681 A 
ATOM     15  H2  UNL     1      -1.498   0.709  -0.225  1.00  0.00     0.184 HD
HETATM   16  N5  UNL     1      -0.044  -1.305   1.830  1.00  0.00    -0.155 N 
HETATM   17  C13 UNL     1      -0.796  -2.401   1.685  1.00  0.00     0.279 A 
ATOM     18  H5  UNL     1       0.741  -1.326   2.481  1.00  0.00     0.187 HD
HETATM   19  O4  UNL     1      -0.603  -3.462   2.297  1.00  0.00    -0.266 OA
HETATM   20  C14 UNL     1      -1.872  -2.359   0.787  1.00  0.00     0.107 A 
HETATM   21 BR1  UNL     1      -3.060  -3.859   0.698  1.00  0.00    -0.043 Br
BRANCH  14  22
HETATM   22  N3  UNL     1       0.466   0.862   1.320  1.00  0.00    -0.226 N 
ATOM     23  H3  UNL     1       0.253   1.704   0.784  1.00  0.00     0.177 HD
BRANCH  22  24
HETATM   24  C8  UNL     1       1.573   0.893   2.215  1.00  0.00     0.139 C 
BRANCH  24  25
HETATM   25  C9  UNL     1       2.840   0.383   1.509  1.00  0.00     0.038 C 
BRANCH  25  26
HETATM   26  C10 UNL     1       3.078   1.297   0.350  1.00  0.00     0.141 C 
BRANCH  26  27
HETATM   27  N4  UNL     1       4.200   1.008  -0.461  1.00  0.00    -0.086 NA
HETATM   28  O1  UNL     1       4.545  -0.224  -0.668  1.00  0.00    -0.288 OA
HETATM   29  C11 UNL     1       5.504  -0.715   0.153  1.00  0.00     0.211 C 
HETATM   30  C12 UNL     1       6.646   0.309   0.244  1.00  0.00     0.188 C 
HETATM   31  S1  UNL     1       5.603   1.780   0.154  1.00  0.00     0.235 S 
HETATM   32  O2  UNL     1       5.407   2.368   1.505  1.00  0.00    -0.209 OA
HETATM   33  O3  UNL     1       6.179   2.750  -0.836  1.00  0.00    -0.209 OA
ENDBRANCH  26  27
ENDBRANCH  25  26
ENDBRANCH  24  25
ENDBRANCH  22  24
ENDBRANCH  14  22
ENDBRANCH   6  12
ENDBRANCH   3   4
TORSDOF 7
