REMARK  7 active torsions:
REMARK  status: ('A' for Active; 'I' for Inactive)
REMARK    1  A    between atoms: O1_2  and  C2_3 
REMARK    2  A    between atoms: C2_3  and  C3_5 
REMARK    3  A    between atoms: C5_9  and  N2_10 
REMARK       I    between atoms: N2_10  and  C6_12 
REMARK    4  A    between atoms: C6_12  and  C7_14 
REMARK    5  A    between atoms: C7_14  and  N3_15 
REMARK    6  A    between atoms: C7_14  and  C13_25 
REMARK       I    between atoms: N3_15  and  C8_17 
REMARK    7  A    between atoms: C8_17  and  C9_19 
ROOT
HETATM    1  N2  UNL     1      -0.165  -0.175   0.469  1.00  0.00    -0.343 N 
ATOM      2  H2  UNL     1       0.092  -0.501  -0.463  1.00  0.00     0.163 HD
HETATM    3  C6  UNL     1      -1.521  -0.093   0.842  1.00  0.00     0.243 C 
HETATM    4  O4  UNL     1      -1.778   0.337   2.031  1.00  0.00    -0.271 OA
ENDROOT
BRANCH   3   5
HETATM    5  C7  UNL     1      -2.700  -0.433   0.045  1.00  0.00     0.199 C 
BRANCH   5   6
HETATM    6  N3  UNL     1      -3.828   0.345   0.506  1.00  0.00    -0.342 N 
HETATM    7  C8  UNL     1      -4.949  -0.189   1.196  1.00  0.00     0.254 C 
HETATM    8  O5  UNL     1      -5.063  -1.406   1.475  1.00  0.00    -0.268 OA
ATOM      9  H3  UNL     1      -3.818   1.348   0.323  1.00  0.00     0.163 HD
BRANCH   7  10
HETATM   10  C9  UNL     1      -6.046   0.697   1.619  1.00  0.00     0.055 A 
HETATM   11  C10 UNL     1      -6.295   1.997   1.516  1.00  0.00     0.065 A 
HETATM   12 BR1  UNL     1      -5.447   3.543   0.786  1.00  0.00    -0.047 Br
HETATM   13  C11 UNL     1      -7.560   1.832   2.217  1.00  0.00     0.135 A 
HETATM   14  F1  UNL     1      -8.553   2.670   2.591  1.00  0.00    -0.205 F 
HETATM   15  C12 UNL     1      -7.318   0.543   2.322  1.00  0.00     0.062 A 
ENDBRANCH   7  10
ENDBRANCH   5   6
BRANCH   5  16
HETATM   16  C13 UNL     1      -2.550  -0.432  -1.432  1.00  0.00     0.059 C 
HETATM   17  C14 UNL     1      -2.107   0.910  -1.958  1.00  0.00     0.035 C 
HETATM   18  C15 UNL     1      -3.972  -0.636  -2.022  1.00  0.00     0.035 C 
HETATM   19 CL1  UNL     1      -1.545  -1.706  -2.093  1.00  0.00    -0.117 Cl
ENDBRANCH   5  16
ENDBRANCH   3   5
BRANCH   1  20
HETATM   20  C5  UNL     1       0.847   0.201   1.402  1.00  0.00     0.210 C 
HETATM   21  C4  UNL     1       1.576   1.405   0.894  1.00  0.00     0.247 C 
HETATM   22  N1  UNL     1       2.658   0.629   0.431  1.00  0.00    -0.319 N 
HETATM   23  O3  UNL     1       1.300   2.620   0.895  1.00  0.00    -0.271 OA
HETATM   24  C3  UNL     1       3.843   0.239  -0.302  1.00  0.00     0.206 C 
HETATM   25  C16 UNL     1       2.191  -0.417   1.315  1.00  0.00     0.183 C 
HETATM   26  C17 UNL     1       3.578  -1.068  -0.950  1.00  0.00     0.033 C 
HETATM   27  S1  UNL     1       2.345  -1.843   0.179  1.00  0.00    -0.129 SA
HETATM   28  C18 UNL     1       4.841  -1.898  -0.953  1.00  0.00     0.029 C 
HETATM   29  C19 UNL     1       3.027  -0.998  -2.340  1.00  0.00     0.029 C 
BRANCH  24  30
HETATM   30  C2  UNL     1       5.057   0.282   0.541  1.00  0.00     0.283 C 
HETATM   31  O2  UNL     1       4.898   0.477   1.790  1.00  0.00    -0.263 OA
BRANCH  30  32
HETATM   32  O1  UNL     1       6.347   0.126   0.052  1.00  0.00    -0.325 OA
HETATM   33  C1  UNL     1       7.448   0.179   0.910  1.00  0.00     0.213 C 
ENDBRANCH  30  32
ENDBRANCH  24  30
ENDBRANCH   1  20
TORSDOF 7
