REMARK  10 active torsions:
REMARK  status: ('A' for Active; 'I' for Inactive)
REMARK    1  A    between atoms: C1_4  and  N2_5 
REMARK    2  A    between atoms: C1_4  and  O1_14 
REMARK    3  A    between atoms: N2_5  and  C2_7 
REMARK    4  A    between atoms: C2_7  and  C3_8 
REMARK    5  A    between atoms: O1_14  and  C9_15 
REMARK    6  A    between atoms: C9_15  and  C10_16 
REMARK    7  A    between atoms: C9_15  and  C14_24 
REMARK    8  A    between atoms: C10_16  and  C11_17 
REMARK    9  A    between atoms: C14_24  and  N5_25 
REMARK   10  A    between atoms: N6_28  and  C17_29 
ROOT
HETATM    1  C9  UNL     1       0.967   2.089  -0.156  1.00  0.00     0.165 C 
ENDROOT
BRANCH   1   2
HETATM    2  O1  UNL     1       1.460   0.905  -0.610  1.00  0.00    -0.315 OA
BRANCH   2   3
HETATM    3  C1  UNL     1       2.601   0.654  -1.345  1.00  0.00     0.213 C 
HETATM    4  N1  UNL     1       2.930   1.583  -2.147  1.00  0.00    -0.365 N 
ATOM      5  H12 UNL     1       3.773   1.398  -2.690  1.00  0.00     0.159 HD
ATOM      6  H11 UNL     1       2.402   2.450  -2.248  1.00  0.00     0.159 HD
BRANCH   3   7
HETATM    7  N2  UNL     1       3.339  -0.557  -1.204  1.00  0.00    -0.352 N 
ATOM      8  H2  UNL     1       3.211  -1.314  -1.875  1.00  0.00     0.163 HD
BRANCH   7   9
HETATM    9  C2  UNL     1       4.261  -0.709  -0.117  1.00  0.00     0.161 C 
BRANCH   9  10
HETATM   10  C3  UNL     1       4.883  -2.051  -0.196  1.00  0.00    -0.041 A 
HETATM   11  C4  UNL     1       4.272  -3.109   0.426  1.00  0.00     0.009 A 
HETATM   12  C5  UNL     1       4.851  -4.350   0.351  1.00  0.00     0.001 A 
HETATM   13  C6  UNL     1       6.035  -4.596  -0.329  1.00  0.00     0.000 A 
HETATM   14  C7  UNL     1       6.605  -3.508  -0.933  1.00  0.00     0.001 A 
HETATM   15  C8  UNL     1       6.052  -2.248  -0.878  1.00  0.00     0.009 A 
ENDBRANCH   9  10
ENDBRANCH   7   9
ENDBRANCH   3   7
ENDBRANCH   2   3
ENDBRANCH   1   2
BRANCH   1  16
HETATM   16  C10 UNL     1       0.594   3.159  -1.091  1.00  0.00     0.092 C 
BRANCH  16  17
HETATM   17  C11 UNL     1       0.071   4.338  -0.314  1.00  0.00     0.028 A 
HETATM   18  C12 UNL     1       0.818   5.381   0.199  1.00  0.00     0.114 A 
HETATM   19  N3  UNL     1      -0.020   6.235   0.809  1.00  0.00    -0.360 N 
HETATM   20  C13 UNL     1      -1.255   5.774   0.700  1.00  0.00     0.180 A 
ATOM     21  H3  UNL     1       0.252   7.098   1.280  1.00  0.00     0.166 HD
HETATM   22  N4  UNL     1      -1.201   4.622   0.019  1.00  0.00    -0.354 N 
ATOM     23  H4  UNL     1      -2.008   4.043  -0.214  1.00  0.00     0.166 HD
ENDBRANCH  16  17
ENDBRANCH   1  16
BRANCH   1  24
HETATM   24  C14 UNL     1      -0.114   1.760   0.887  1.00  0.00     0.305 C 
BRANCH  24  25
HETATM   25  N5  UNL     1      -1.202   1.018   0.409  1.00  0.00     0.094 N 
HETATM   26  C15 UNL     1      -1.051  -0.326   0.029  1.00  0.00     0.292 C 
HETATM   27  C16 UNL     1      -2.030  -1.278   0.698  1.00  0.00     0.153 C 
HETATM   28  N6  UNL     1      -3.361  -0.805   0.424  1.00  0.00    -0.378 N 
HETATM   29  C23 UNL     1      -3.608   0.633   0.606  1.00  0.00     0.153 C 
HETATM   30  C24 UNL     1      -2.360   1.218   1.241  1.00  0.00     0.292 C 
BRANCH  28  31
HETATM   31  C17 UNL     1      -4.396  -1.671   0.006  1.00  0.00     0.030 A 
HETATM   32  C18 UNL     1      -4.315  -3.036  -0.094  1.00  0.00     0.029 A 
HETATM   33  C19 UNL     1      -5.397  -3.808  -0.521  1.00  0.00     0.002 A 
HETATM   34  C20 UNL     1      -6.588  -3.224  -0.858  1.00  0.00     0.000 A 
HETATM   35  C21 UNL     1      -6.683  -1.852  -0.762  1.00  0.00     0.002 A 
HETATM   36  C22 UNL     1      -5.618  -1.098  -0.342  1.00  0.00     0.029 A 
ENDBRANCH  28  31
ENDBRANCH  24  25
ENDBRANCH   1  24
TORSDOF 10
