REMARK  8 active torsions:
REMARK  status: ('A' for Active; 'I' for Inactive)
REMARK    1  A    between atoms: O1_2  and  C2_3 
REMARK    2  A    between atoms: C7_8  and  O2_9 
REMARK    3  A    between atoms: O2_9  and  C8_10 
REMARK    4  A    between atoms: C8_10  and  C9_11 
REMARK    5  A    between atoms: C9_11  and  N1_12 
REMARK    6  A    between atoms: C16_19  and  N2_20 
REMARK    7  A    between atoms: N2_20  and  C17_22 
REMARK    8  A    between atoms: C17_22  and  C18_23 
ROOT
HETATM    1  C2  UNL     1       2.292   0.802  -2.870  1.00  0.00     0.102 A 
HETATM    2  C3  UNL     1       0.983   0.671  -3.339  1.00  0.00     0.047 A 
HETATM    3  C4  UNL     1      -0.090   0.638  -2.476  1.00  0.00    -0.047 A 
HETATM    4  C5  UNL     1       0.174   0.740  -1.127  1.00  0.00    -0.047 A 
HETATM    5  C6  UNL     1       1.467   0.869  -0.666  1.00  0.00     0.047 A 
HETATM    6  C7  UNL     1       2.555   0.904  -1.518  1.00  0.00     0.102 A 
HETATM    7  C15 UNL     1      -1.119   0.683  -0.396  1.00  0.00     0.064 C 
HETATM    8  C16 UNL     1      -2.075   1.187  -1.433  1.00  0.00     0.085 C 
HETATM    9  C25 UNL     1      -1.578   0.510  -2.678  1.00  0.00     0.064 C 
ENDROOT
BRANCH   8  10
HETATM   10  N2  UNL     1      -3.449   1.032  -1.153  1.00  0.00    -0.415 N 
ATOM     11  H2  UNL     1      -4.077   1.829  -1.052  1.00  0.00     0.153 HD
BRANCH  10  12
HETATM   12  C17 UNL     1      -3.906  -0.328  -1.019  1.00  0.00     0.139 C 
BRANCH  12  13
HETATM   13  C18 UNL     1      -5.393  -0.321  -0.724  1.00  0.00     0.098 C 
HETATM   14  C19 UNL     1      -5.646   0.421   0.544  1.00  0.00     0.059 C 
HETATM   15  C20 UNL     1      -6.814  -0.052   1.331  1.00  0.00     0.190 C 
HETATM   16  C21 UNL     1      -6.339  -0.885   2.488  1.00  0.00     0.033 C 
HETATM   17  N3  UNL     1      -7.720  -0.759   0.463  1.00  0.00    -0.050 N 
HETATM   18  C22 UNL     1      -6.863  -2.301   2.451  1.00  0.00     0.006 C 
HETATM   19  C23 UNL     1      -6.736  -2.916   1.078  1.00  0.00     0.054 C 
HETATM   20  C24 UNL     1      -7.048  -1.936  -0.023  1.00  0.00     0.280 C 
HETATM   21  N4  UNL     1      -5.856  -1.665  -0.759  1.00  0.00    -0.390 N 
ATOM     22  H4  UNL     1      -5.365  -2.392  -1.279  1.00  0.00     0.155 HD
ATOM     23  H32 UNL     1      -8.611  -0.971   0.912  1.00  0.00     0.280 HD
ATOM     24  H31 UNL     1      -8.082  -0.173  -0.290  1.00  0.00     0.280 HD
ENDBRANCH  12  13
ENDBRANCH  10  12
ENDBRANCH   8  10
BRANCH   6  25
HETATM   25  O2  UNL     1       3.868   1.033  -1.088  1.00  0.00    -0.347 OA
BRANCH  25  26
HETATM   26  C8  UNL     1       4.221   1.139   0.275  1.00  0.00     0.206 C 
BRANCH  26  27
HETATM   27  C9  UNL     1       5.708   1.263   0.364  1.00  0.00     0.299 C 
BRANCH  27  28
HETATM   28  N1  UNL     1       6.203   1.382   1.713  1.00  0.00     0.090 N 
HETATM   29  C10 UNL     1       7.649   1.496   1.682  1.00  0.00     0.272 C 
HETATM   30  C11 UNL     1       8.310   0.177   1.366  1.00  0.00     0.030 C 
HETATM   31  C12 UNL     1       7.826  -0.946   2.262  1.00  0.00     0.003 C 
HETATM   32  C13 UNL     1       6.303  -1.004   2.098  1.00  0.00     0.030 C 
HETATM   33  C14 UNL     1       5.773   0.312   2.586  1.00  0.00     0.272 C 
ENDBRANCH  27  28
ENDBRANCH  26  27
ENDBRANCH  25  26
ENDBRANCH   6  25
BRANCH   1  34
HETATM   34  O1  UNL     1       3.377   0.835  -3.738  1.00  0.00    -0.353 OA
HETATM   35  C1  UNL     1       3.110   0.731  -5.123  1.00  0.00     0.210 C 
ENDBRANCH   1  34
TORSDOF 8
