REMARK  10 active torsions:
REMARK  status: ('A' for Active; 'I' for Inactive)
REMARK    1  A    between atoms: O1_1  and  C1_3 
REMARK    2  A    between atoms: C4_6  and  C5_7 
REMARK    3  A    between atoms: C5_7  and  C6_8 
REMARK    4  A    between atoms: C6_8  and  C7_9 
REMARK    5  A    between atoms: C6_8  and  N3_27 
REMARK    6  A    between atoms: C7_9  and  O2_10 
REMARK    7  A    between atoms: C7_9  and  C8_12 
REMARK    8  A    between atoms: C8_12  and  N1_13 
REMARK    9  A    between atoms: N1_13  and  C9_15 
REMARK   10  A    between atoms: C12_18  and  N2_19 
ROOT
HETATM    1  C7  UNL     1      -2.070   0.096   0.148  1.00  0.00     0.169 C 
ENDROOT
BRANCH   1   2
HETATM    2  C6  UNL     1      -3.497  -0.381   0.291  1.00  0.00     0.257 C 
BRANCH   2   3
HETATM    3  C5  UNL     1      -4.408   0.259  -0.673  1.00  0.00     0.077 C 
BRANCH   3   4
HETATM    4  C4  UNL     1      -4.572   1.703  -0.653  1.00  0.00    -0.056 A 
HETATM    5  C3  UNL     1      -5.352   2.391   0.255  1.00  0.00     0.010 A 
HETATM    6  C2  UNL     1      -5.548   3.749   0.244  1.00  0.00     0.037 A 
HETATM    7  C1  UNL     1      -4.913   4.492  -0.753  1.00  0.00     0.065 A 
HETATM    8  C25 UNL     1      -4.138   3.831  -1.661  1.00  0.00     0.037 A 
HETATM    9  C24 UNL     1      -3.952   2.472  -1.640  1.00  0.00     0.010 A 
BRANCH   7  10
HETATM   10  O1  UNL     1      -5.079   5.866  -0.804  1.00  0.00    -0.361 OA
ATOM     11  H1  UNL     1      -4.647   6.372  -1.482  1.00  0.00     0.217 HD
ENDBRANCH   7  10
ENDBRANCH   3   4
ENDBRANCH   2   3
BRANCH   2  12
HETATM   12  N3  UNL     1      -3.501  -1.852   0.162  1.00  0.00     0.096 N 
HETATM   13  C20 UNL     1      -4.774  -2.441   0.431  1.00  0.00     0.273 C 
HETATM   14  C21 UNL     1      -4.498  -3.870   0.866  1.00  0.00     0.032 C 
HETATM   15  C22 UNL     1      -3.141  -3.808   1.476  1.00  0.00     0.032 C 
HETATM   16  C23 UNL     1      -2.674  -2.397   1.210  1.00  0.00     0.273 C 
ENDBRANCH   2  12
ENDBRANCH   1   2
BRANCH   1  17
HETATM   17  O2  UNL     1      -1.955   1.476   0.231  1.00  0.00    -0.392 OA
ATOM     18  H2  UNL     1      -1.058   1.776   0.141  1.00  0.00     0.210 HD
ENDBRANCH   1  17
BRANCH   1  19
HETATM   19  C8  UNL     1      -1.421  -0.370  -1.114  1.00  0.00     0.148 C 
BRANCH  19  20
HETATM   20  N1  UNL     1      -0.052   0.008  -1.182  1.00  0.00    -0.415 N 
ATOM     21  H1  UNL     1       0.280   0.690  -1.863  1.00  0.00     0.153 HD
BRANCH  20  22
HETATM   22  C9  UNL     1       0.833  -0.611  -0.254  1.00  0.00     0.076 C 
HETATM   23  C10 UNL     1       1.759   0.398   0.408  1.00  0.00     0.027 C 
HETATM   24  C11 UNL     1       2.881   0.698  -0.578  1.00  0.00     0.028 C 
HETATM   25  C12 UNL     1       3.714  -0.518  -0.801  1.00  0.00     0.088 C 
HETATM   26  C18 UNL     1       3.003  -1.773  -0.314  1.00  0.00     0.028 C 
HETATM   27  C19 UNL     1       1.620  -1.715  -0.958  1.00  0.00     0.027 C 
BRANCH  25  28
HETATM   28  N2  UNL     1       5.047  -0.453  -0.334  1.00  0.00    -0.369 N 
HETATM   29  C13 UNL     1       5.271  -0.284   1.044  1.00  0.00     0.063 C 
HETATM   30  C14 UNL     1       6.725  -0.033   1.321  1.00  0.00     0.045 C 
HETATM   31  C15 UNL     1       7.107   1.228   0.559  1.00  0.00     0.010 C 
HETATM   32  C16 UNL     1       6.911   1.039  -0.930  1.00  0.00     0.045 C 
HETATM   33  C17 UNL     1       6.070  -0.165  -1.251  1.00  0.00     0.063 C 
ENDBRANCH  25  28
ENDBRANCH  20  22
ENDBRANCH  19  20
ENDBRANCH   1  19
TORSDOF 10
