REMARK  11 active torsions:
REMARK  status: ('A' for Active; 'I' for Inactive)
REMARK    1  A    between atoms: C2_2  and  C3_3 
REMARK    2  A    between atoms: C3_3  and  C4_4 
REMARK    3  A    between atoms: N1_9  and  C9_10 
REMARK    4  A    between atoms: C9_10  and  C10_11 
REMARK    5  A    between atoms: C13_14  and  O1_15 
REMARK    6  A    between atoms: O1_15  and  C14_16 
REMARK    7  A    between atoms: C14_16  and  C15_17 
REMARK    8  A    between atoms: C23_25  and  C24_26 
REMARK    9  A    between atoms: C24_26  and  O2_27 
REMARK   10  A    between atoms: C25_29  and  O3_30 
REMARK   11  A    between atoms: C26_32  and  O4_33 
ROOT
HETATM    1  C1  UNL     1      -4.075  -2.011   0.596  1.00  0.00     0.018 C 
HETATM    2  C2  UNL     1      -3.803  -0.487   0.409  1.00  0.00    -0.011 C 
HETATM    3  C7  UNL     1      -2.380  -0.245   0.865  1.00  0.00     0.056 C 
HETATM    4  C8  UNL     1      -1.596   0.655  -0.049  1.00  0.00     0.065 C 
HETATM    5  N1  UNL     1      -1.285   0.147  -1.307  1.00  0.00    -0.360 N 
HETATM    6  C23 UNL     1      -1.769  -1.100  -1.724  1.00  0.00     0.143 C 
HETATM    7  C25 UNL     1      -3.251  -1.216  -1.857  1.00  0.00     0.172 C 
HETATM    8  C26 UNL     1      -4.016  -0.186  -1.029  1.00  0.00     0.157 C 
ENDROOT
BRANCH   5   9
HETATM    9  C9  UNL     1      -0.189   0.738  -1.939  1.00  0.00     0.102 C 
BRANCH   9  10
HETATM   10  C10 UNL     1       1.133   0.610  -1.292  1.00  0.00    -0.021 A 
HETATM   11  C11 UNL     1       2.149   1.470  -1.690  1.00  0.00     0.015 A 
HETATM   12  C12 UNL     1       3.401   1.436  -1.170  1.00  0.00     0.037 A 
HETATM   13  C13 UNL     1       3.697   0.503  -0.192  1.00  0.00     0.069 A 
HETATM   14  C21 UNL     1       2.691  -0.351   0.204  1.00  0.00     0.037 A 
HETATM   15  C22 UNL     1       1.429  -0.312  -0.325  1.00  0.00     0.015 A 
BRANCH  13  16
HETATM   16  O1  UNL     1       4.984   0.500   0.314  1.00  0.00    -0.347 OA
BRANCH  16  17
HETATM   17  C14 UNL     1       5.320  -0.428   1.305  1.00  0.00     0.214 C 
BRANCH  17  18
HETATM   18  C15 UNL     1       6.740  -0.299   1.741  1.00  0.00    -0.034 A 
HETATM   19  C16 UNL     1       7.782  -0.969   1.148  1.00  0.00     0.009 A 
HETATM   20  C17 UNL     1       9.052  -0.774   1.630  1.00  0.00     0.001 A 
HETATM   21  C18 UNL     1       9.353   0.060   2.682  1.00  0.00     0.000 A 
HETATM   22  C19 UNL     1       8.289   0.732   3.273  1.00  0.00     0.001 A 
HETATM   23  C20 UNL     1       6.994   0.545   2.795  1.00  0.00     0.009 A 
ENDBRANCH  17  18
ENDBRANCH  16  17
ENDBRANCH  13  16
ENDBRANCH   9  10
ENDBRANCH   5   9
BRANCH   6  24
HETATM   24  C24 UNL     1      -1.163  -1.503  -3.054  1.00  0.00     0.192 C 
BRANCH  24  25
HETATM   25  O2  UNL     1      -1.687  -2.763  -3.425  1.00  0.00    -0.399 OA
ATOM     26  H2  UNL     1      -1.307  -3.016  -4.258  1.00  0.00     0.209 HD
ENDBRANCH  24  25
ENDBRANCH   6  24
BRANCH   7  27
HETATM   27  O3  UNL     1      -3.670  -1.132  -3.204  1.00  0.00    -0.391 OA
ATOM     28  H3  UNL     1      -4.613  -1.206  -3.289  1.00  0.00     0.210 HD
ENDBRANCH   7  27
BRANCH   2  29
HETATM   29  C3  UNL     1      -4.821   0.158   1.278  1.00  0.00     0.016 C 
BRANCH  29  30
HETATM   30  C4  UNL     1      -4.872   1.625   1.392  1.00  0.00    -0.014 A 
HETATM   31  C5  UNL     1      -5.129   2.595   0.331  1.00  0.00     0.005 A 
HETATM   32  C6  UNL     1      -6.245   2.271   1.279  1.00  0.00     0.005 A 
ENDBRANCH  29  30
ENDBRANCH   2  29
BRANCH   8  33
HETATM   33  O4  UNL     1      -5.356  -0.395  -1.337  1.00  0.00    -0.392 OA
ATOM     34  H4  UNL     1      -5.492  -0.202  -2.257  1.00  0.00     0.210 HD
ENDBRANCH   8  33
TORSDOF 11
