REMARK  6 active torsions:
REMARK  status: ('A' for Active; 'I' for Inactive)
REMARK    1  A    between atoms: C2_3  and  C3_4 
REMARK    2  A    between atoms: C3_4  and  C4_5 
REMARK    3  A    between atoms: C4_5  and  N2_6 
REMARK    4  A    between atoms: C7_9  and  C8_10 
REMARK    5  A    between atoms: C13_18  and  N4_19 
REMARK       I    between atoms: N4_19  and  C14_21 
REMARK    6  A    between atoms: C14_21  and  C15_23 
ROOT
HETATM    1  N1  UNL     1      -7.241  -3.272   1.084  1.00  0.00    -0.197 NA
HETATM    2  C1  UNL     1      -7.189  -2.102   1.083  1.00  0.00     0.059 C 
HETATM    3  C2  UNL     1      -7.149  -0.639   1.079  1.00  0.00     0.129 C 
ENDROOT
BRANCH   3   4
HETATM    4  C3  UNL     1      -5.728  -0.142   0.869  1.00  0.00     0.058 C 
BRANCH   4   5
HETATM    5  C4  UNL     1      -5.165  -0.623  -0.444  1.00  0.00     0.064 C 
BRANCH   5   6
HETATM    6  N2  UNL     1      -3.857  -0.217  -0.725  1.00  0.00    -0.374 N 
HETATM    7  C5  UNL     1      -3.561   1.128  -0.980  1.00  0.00     0.064 C 
HETATM    8  C6  UNL     1      -2.284   1.660  -0.431  1.00  0.00     0.057 C 
HETATM    9  C7  UNL     1      -1.426   0.724   0.321  1.00  0.00     0.060 C 
HETATM   10  C19 UNL     1      -1.894  -0.674   0.494  1.00  0.00     0.033 C 
HETATM   11  C20 UNL     1      -2.798  -1.143  -0.614  1.00  0.00     0.128 C 
BRANCH   9  12
HETATM   12  C8  UNL     1      -0.037   0.645  -0.285  1.00  0.00     0.087 A 
HETATM   13  N3  UNL     1       0.052   0.214  -1.544  1.00  0.00    -0.344 N 
HETATM   14  C9  UNL     1       1.262   0.107  -2.187  1.00  0.00     0.054 A 
ATOM     15  H3  UNL     1      -0.800  -0.043  -2.043  1.00  0.00     0.167 HD
HETATM   16  C10 UNL     1       1.505  -0.310  -3.451  1.00  0.00     0.038 A 
HETATM   17  C12 UNL     1       2.336   0.477  -1.430  1.00  0.00     0.075 A 
HETATM   18  C11 UNL     1       2.811  -0.324  -3.858  1.00  0.00     0.053 A 
HETATM   19  S1  UNL     1       3.655   0.236  -2.491  1.00  0.00    -0.096 SA
HETATM   20  C13 UNL     1       2.223   0.928  -0.108  1.00  0.00     0.128 A 
HETATM   21  N5  UNL     1       1.011   1.011   0.469  1.00  0.00    -0.330 N 
ATOM     22  H5  UNL     1       0.895   1.335   1.429  1.00  0.00     0.168 HD
BRANCH  20  23
HETATM   23  N4  UNL     1       3.277   1.244   0.495  1.00  0.00    -0.310 N 
HETATM   24  C14 UNL     1       4.608   1.246   0.117  1.00  0.00     0.252 C 
HETATM   25  O1  UNL     1       5.080   2.207  -0.541  1.00  0.00    -0.270 OA
ATOM     26  H4  UNL     1       3.122   1.562   1.452  1.00  0.00     0.170 HD
BRANCH  24  27
HETATM   27  C15 UNL     1       5.560   0.150   0.450  1.00  0.00     0.213 C 
HETATM   28  C16 UNL     1       6.647   0.662   1.371  1.00  0.00     0.044 C 
HETATM   29  C17 UNL     1       6.653  -0.345   2.497  1.00  0.00     0.029 C 
HETATM   30  C18 UNL     1       5.860  -1.483   1.932  1.00  0.00     0.168 C 
HETATM   31  O2  UNL     1       4.899  -0.851   1.152  1.00  0.00    -0.376 OA
ENDBRANCH  24  27
ENDBRANCH  20  23
ENDBRANCH   9  12
ENDBRANCH   5   6
ENDBRANCH   4   5
ENDBRANCH   3   4
TORSDOF 6
