REMARK  6 active torsions:
REMARK  status: ('A' for Active; 'I' for Inactive)
REMARK    1  A    between atoms: N2_5  and  C4_6 
REMARK    2  A    between atoms: C4_6  and  C5_7 
REMARK    3  A    between atoms: C5_7  and  N3_8 
REMARK    4  A    between atoms: C6_10  and  N4_11 
REMARK    5  A    between atoms: C6_10  and  C13_25 
REMARK    6  A    between atoms: C8_18  and  C9_19 
ROOT
HETATM    1  N3  UNL     1      -0.255  -0.923   0.496  1.00  0.00    -0.374 N 
ATOM      2  H3  UNL     1       0.286  -0.106   0.781  1.00  0.00     0.161 HD
HETATM    3  C6  UNL     1       0.543  -1.830   0.550  1.00  0.00     0.113 C 
ENDROOT
BRANCH   3   4
HETATM    4  N4  UNL     1       1.915  -1.584   0.953  1.00  0.00    -0.321 N 
HETATM    5  C7  UNL     1       2.595  -0.580   0.535  1.00  0.00     0.167 A 
HETATM    6  N5  UNL     1       2.335   0.434  -0.285  1.00  0.00    -0.279 N 
HETATM    7  S2  UNL     1       4.241  -0.207   0.975  1.00  0.00    -0.032 SA
HETATM    8  N6  UNL     1       3.239   1.302  -0.507  1.00  0.00    -0.291 N 
ATOM      9  H5  UNL     1       1.421   0.515  -0.731  1.00  0.00     0.189 HD
HETATM   10  C8  UNL     1       4.409   1.213   0.054  1.00  0.00     0.109 A 
ATOM     11  H6  UNL     1       3.043   2.081  -1.136  1.00  0.00     0.187 HD
ATOM     12  H4  UNL     1       2.358  -2.239   1.597  1.00  0.00     0.169 HD
BRANCH  10  13
HETATM   13  C9  UNL     1       5.590   2.101  -0.071  1.00  0.00     0.040 A 
HETATM   14  C10 UNL     1       6.799   1.947   0.506  1.00  0.00     0.022 A 
HETATM   15  C11 UNL     1       7.731   2.879   0.261  1.00  0.00     0.008 A 
HETATM   16  C12 UNL     1       7.375   3.917  -0.562  1.00  0.00     0.050 A 
HETATM   17  S1  UNL     1       5.754   3.543  -0.955  1.00  0.00    -0.099 SA
ENDBRANCH  10  13
ENDBRANCH   3   4
BRANCH   3  18
HETATM   18  C13 UNL     1       0.245  -3.233   0.255  1.00  0.00     0.008 A 
HETATM   19  C14 UNL     1       1.243  -4.213   0.337  1.00  0.00     0.015 A 
HETATM   20  C15 UNL     1       0.972  -5.534   0.073  1.00  0.00     0.001 A 
HETATM   21  C16 UNL     1      -0.293  -5.926  -0.280  1.00  0.00     0.000 A 
HETATM   22  C17 UNL     1      -1.281  -4.990  -0.368  1.00  0.00     0.001 A 
HETATM   23  C18 UNL     1      -0.999  -3.648  -0.098  1.00  0.00     0.015 A 
ENDBRANCH   3  18
BRANCH   1  24
HETATM   24  C5  UNL     1      -1.508  -0.417   0.252  1.00  0.00     0.151 C 
BRANCH  24  25
HETATM   25  C4  UNL     1      -1.591   1.101   0.425  1.00  0.00     0.294 C 
BRANCH  25  26
HETATM   26  N2  UNL     1      -2.880   1.636   0.176  1.00  0.00     0.119 N 
HETATM   27  C3  UNL     1      -3.335   1.576  -1.182  1.00  0.00     0.304 C 
HETATM   28  C2  UNL     1      -4.843   1.713  -1.067  1.00  0.00     0.304 C 
HETATM   29  N1  UNL     1      -5.156   1.681   0.345  1.00  0.00     0.114 N 
HETATM   30  C1  UNL     1      -5.559   2.980   0.833  1.00  0.00     0.312 C 
HETATM   31  C19 UNL     1      -3.940   1.208   1.025  1.00  0.00     0.542 C 
ENDBRANCH  25  26
ENDBRANCH  24  25
ENDBRANCH   1  24
TORSDOF 6
