REMARK  6 active torsions:
REMARK  status: ('A' for Active; 'I' for Inactive)
REMARK    1  A    between atoms: S1_3  and  C2_4 
REMARK    2  A    between atoms: C2_4  and  C3_5 
REMARK    3  A    between atoms: C3_5  and  N2_6 
REMARK    4  A    between atoms: C7_10  and  C8_11 
REMARK    5  A    between atoms: C11_14  and  N3_15 
REMARK    6  A    between atoms: N3_15  and  C12_17 
ROOT
HETATM    1  N1  UNL     1      -6.649   4.229  -0.438  1.00  0.00    -0.184 NA
HETATM    2  C1  UNL     1      -7.083   3.356   0.146  1.00  0.00     0.133 C 
HETATM    3  S1  UNL     1      -7.766   2.026   1.069  1.00  0.00    -0.049 SA
ENDROOT
BRANCH   3   4
HETATM    4  C2  UNL     1      -6.526   0.707   1.216  1.00  0.00     0.110 C 
BRANCH   4   5
HETATM    5  C3  UNL     1      -6.287   0.151  -0.167  1.00  0.00     0.139 C 
BRANCH   5   6
HETATM    6  N2  UNL     1      -5.295  -0.924  -0.144  1.00  0.00    -0.365 N 
HETATM    7  C4  UNL     1      -5.682  -2.213   0.035  1.00  0.00     0.090 A 
HETATM    8  C5  UNL     1      -4.779  -3.257   0.062  1.00  0.00     0.018 A 
HETATM    9  C6  UNL     1      -3.437  -2.987  -0.097  1.00  0.00     0.015 A 
HETATM   10  C7  UNL     1      -3.019  -1.686  -0.280  1.00  0.00    -0.010 A 
HETATM   11  C21 UNL     1      -3.980  -0.694  -0.296  1.00  0.00     0.102 A 
BRANCH  10  12
HETATM   12  C8  UNL     1      -1.596  -1.353  -0.454  1.00  0.00    -0.025 A 
HETATM   13  C9  UNL     1      -1.181  -0.284  -1.221  1.00  0.00     0.014 A 
HETATM   14  C10 UNL     1       0.163   0.025  -1.382  1.00  0.00     0.030 A 
HETATM   15  C11 UNL     1       1.095  -0.757  -0.759  1.00  0.00     0.033 A 
HETATM   16  C19 UNL     1       0.730  -1.836   0.018  1.00  0.00     0.030 A 
HETATM   17  C20 UNL     1      -0.606  -2.113   0.155  1.00  0.00     0.014 A 
BRANCH  15  18
HETATM   18  N3  UNL     1       2.501  -0.465  -0.904  1.00  0.00    -0.340 N 
ATOM     19  H3  UNL     1       3.083  -0.973  -1.570  1.00  0.00     0.167 HD
BRANCH  18  20
HETATM   20  C12 UNL     1       2.998   0.477  -0.147  1.00  0.00     0.145 A 
HETATM   21  N4  UNL     1       2.228   1.145   0.732  1.00  0.00    -0.336 N 
HETATM   22  C13 UNL     1       2.788   2.099   1.483  1.00  0.00     0.184 A 
ATOM     23  H4  UNL     1       1.236   0.927   0.823  1.00  0.00     0.168 HD
HETATM   24  N5  UNL     1       4.100   2.389   1.364  1.00  0.00    -0.331 N 
HETATM   25  C14 UNL     1       4.877   1.728   0.491  1.00  0.00     0.181 A 
ATOM     26  H5  UNL     1       4.508   3.121   1.946  1.00  0.00     0.168 HD
HETATM   27  C15 UNL     1       4.342   0.739  -0.302  1.00  0.00     0.164 A 
HETATM   28  O2  UNL     1       6.210   2.132   0.477  1.00  0.00    -0.333 OA
HETATM   29  O1  UNL     1       4.962  -0.054  -1.256  1.00  0.00    -0.344 OA
HETATM   30  C16 UNL     1       6.331  -0.464  -1.250  1.00  0.00     0.178 C 
HETATM   31  C17 UNL     1       7.207   0.772  -1.244  1.00  0.00     0.053 C 
HETATM   32  C18 UNL     1       7.349   1.348   0.139  1.00  0.00     0.179 C 
ENDBRANCH  18  20
ENDBRANCH  15  18
ENDBRANCH  10  12
ENDBRANCH   5   6
ENDBRANCH   4   5
ENDBRANCH   3   4
TORSDOF 6
