REMARK  5 active torsions:
REMARK  status: ('A' for Active; 'I' for Inactive)
REMARK    1  A    between atoms: N1_1  and  C1_5 
REMARK    2  A    between atoms: C1_5  and  C2_6 
REMARK    3  A    between atoms: C2_6  and  C3_7 
REMARK    4  A    between atoms: C3_7  and  N2_8 
REMARK    5  A    between atoms: C11_16  and  O1_17 
ROOT
HETATM    1  N2  UNL     1       0.260  -0.304   0.026  1.00  0.00    -0.358 N 
HETATM    2  C4  UNL     1      -0.149   0.558  -1.012  1.00  0.00     0.087 C 
HETATM    3  C5  UNL     1      -1.340  -0.063  -1.714  1.00  0.00     0.030 C 
HETATM    4  C6  UNL     1      -2.470  -0.317  -0.722  1.00  0.00    -0.008 C 
HETATM    5  C7  UNL     1      -2.887   0.986  -0.090  1.00  0.00     0.009 C 
HETATM    6  C8  UNL     1      -1.681   1.562   0.616  1.00  0.00    -0.008 C 
HETATM    7  C9  UNL     1      -0.637   1.861  -0.421  1.00  0.00     0.030 C 
HETATM    8  C10 UNL     1      -1.188   0.605   1.676  1.00  0.00     0.065 C 
HETATM    9  C11 UNL     1      -0.738  -0.657   0.971  1.00  0.00     0.134 C 
HETATM   10  C12 UNL     1      -1.980  -1.268   0.336  1.00  0.00     0.065 C 
ENDROOT
BRANCH   1  11
HETATM   11  C3  UNL     1       1.234  -1.283  -0.249  1.00  0.00     0.063 C 
BRANCH  11  12
HETATM   12  C2  UNL     1       2.606  -0.792  -0.543  1.00  0.00     0.071 C 
BRANCH  12  13
HETATM   13  C1  UNL     1       3.213   0.004   0.600  1.00  0.00     0.234 C 
BRANCH  13  14
HETATM   14  N1  UNL     1       4.521   0.458   0.270  1.00  0.00    -0.079 N 
ATOM     15  H13 UNL     1       5.126  -0.313  -0.014  1.00  0.00     0.274 HD
ATOM     16  H12 UNL     1       4.526   0.988  -0.601  1.00  0.00     0.274 HD
ATOM     17  H11 UNL     1       4.928   0.992   1.037  1.00  0.00     0.274 HD
ENDBRANCH  13  14
ENDBRANCH  12  13
ENDBRANCH  11  12
ENDBRANCH   1  11
BRANCH   9  18
HETATM   18  O1  UNL     1      -0.238  -1.596   1.861  1.00  0.00    -0.371 OA
ATOM     19  H1  UNL     1      -0.906  -1.832   2.494  1.00  0.00     0.212 HD
ENDBRANCH   9  18
TORSDOF 5
