REMARK  0 active torsions:
REMARK  status: ('A' for Active; 'I' for Inactive)
ROOT
HETATM    1  C1  UNL     1      -4.311  -1.311   0.596  1.00  0.00     0.314 C 
HETATM    2  N1  UNL     1      -4.063  -0.166  -0.188  1.00  0.00     0.118 N 
HETATM    3  C2  UNL     1      -3.942   1.073   0.524  1.00  0.00     0.361 C 
HETATM    4  C3  UNL     1      -3.661   2.034  -0.642  1.00  0.00     0.066 C 
HETATM    5  C4  UNL     1      -2.764   1.129  -1.497  1.00  0.00     0.041 C 
HETATM    6  C5  UNL     1      -2.758  -0.197  -0.880  1.00  0.00     0.237 C 
HETATM    7  C6  UNL     1      -1.768  -0.522   0.136  1.00  0.00     0.109 C 
HETATM    8  C7  UNL     1      -1.783   0.520   1.216  1.00  0.00     0.272 C 
HETATM    9  O1  UNL     1      -2.930   1.181   1.404  1.00  0.00    -0.326 OA
HETATM   10  O2  UNL     1      -0.756   1.170   0.490  1.00  0.00    -0.349 OA
HETATM   11  C8  UNL     1      -0.367  -0.090   0.075  1.00  0.00     0.074 C 
HETATM   12  C9  UNL     1       0.444  -0.742   1.198  1.00  0.00     0.039 C 
HETATM   13  C10 UNL     1       1.709  -1.363   0.705  1.00  0.00     0.012 C 
HETATM   14  C11 UNL     1       2.596  -0.403  -0.028  1.00  0.00    -0.040 C 
HETATM   15  C12 UNL     1       3.242   0.595   0.905  1.00  0.00     0.009 C 
HETATM   16  C13 UNL     1       4.412   1.081   0.043  1.00  0.00     0.001 C 
HETATM   17  C14 UNL     1       4.979  -0.244  -0.436  1.00  0.00     0.001 C 
HETATM   18  C15 UNL     1       3.776  -1.129  -0.610  1.00  0.00     0.009 C 
HETATM   19  C16 UNL     1       1.785   0.340  -1.043  1.00  0.00     0.012 C 
HETATM   20  C17 UNL     1       0.394  -0.234  -1.178  1.00  0.00     0.039 C 
ENDROOT
TORSDOF 0
