REMARK  0 active torsions:
REMARK  status: ('A' for Active; 'I' for Inactive)
ROOT
HETATM    1  C1  UNL     1       2.454   2.767  -1.992  1.00  0.00     0.148 C 
HETATM    2  N1  UNL     1       2.051   1.910  -0.935  1.00  0.00    -0.398 N 
HETATM    3  C2  UNL     1       3.019   1.533  -0.007  1.00  0.00     0.057 C 
HETATM    4  C3  UNL     1       3.529   0.143  -0.048  1.00  0.00     0.044 C 
HETATM    5  C4  UNL     1       2.929  -0.619   1.119  1.00  0.00     0.005 C 
HETATM    6  C5  UNL     1       2.908  -2.086   0.938  1.00  0.00     0.001 C 
HETATM    7  C6  UNL     1       1.636  -2.680   0.453  1.00  0.00     0.007 C 
HETATM    8  C7  UNL     1       0.391  -2.044   0.983  1.00  0.00     0.081 C 
HETATM    9  C8  UNL     1      -0.284  -1.317  -0.098  1.00  0.00     0.154 C 
HETATM   10  O1  UNL     1      -0.241  -1.908  -1.185  1.00  0.00    -0.295 OA
HETATM   11  C9  UNL     1      -0.974  -0.030  -0.042  1.00  0.00     0.090 C 
HETATM   12  C10 UNL     1      -1.394   0.253   1.414  1.00  0.00     0.039 C 
HETATM   13  C11 UNL     1      -2.524  -0.613   1.850  1.00  0.00     0.003 C 
HETATM   14  C12 UNL     1      -3.844   0.170   1.795  1.00  0.00     0.002 C 
HETATM   15  C13 UNL     1      -4.306   0.128   0.370  1.00  0.00     0.019 C 
HETATM   16  C14 UNL     1      -3.223   0.764  -0.514  1.00  0.00     0.117 C 
HETATM   17  N2  UNL     1      -2.192  -0.165  -0.805  1.00  0.00    -0.402 N 
HETATM   18  C15 UNL     1      -2.068  -0.423  -2.182  1.00  0.00     0.144 C 
HETATM   19  C16 UNL     1      -0.219   1.172  -0.491  1.00  0.00     0.058 C 
HETATM   20  C17 UNL     1       1.033   0.949  -1.269  1.00  0.00     0.124 C 
ENDROOT
TORSDOF 0
