REMARK  0 active torsions:
REMARK  status: ('A' for Active; 'I' for Inactive)
ROOT
HETATM    1  C1  UNL     1       1.994   0.843  -1.876  1.00  0.00     0.013 C 
HETATM    2  C2  UNL     1       1.635   0.635  -0.421  1.00  0.00     0.025 C 
HETATM    3  C3  UNL     1       0.363  -0.088  -0.234  1.00  0.00     0.034 C 
HETATM    4  C4  UNL     1      -0.934   0.616  -0.393  1.00  0.00     0.228 C 
HETATM    5  C5  UNL     1      -1.588   0.105  -1.591  1.00  0.00     0.040 C 
HETATM    6  C6  UNL     1      -2.446  -1.075  -1.180  1.00  0.00     0.029 C 
HETATM    7  C7  UNL     1      -1.800  -2.291  -0.713  1.00  0.00    -0.031 C 
HETATM    8  C8  UNL     1      -0.925  -2.407   0.431  1.00  0.00    -0.030 C 
HETATM    9  C9  UNL     1      -0.746  -1.395   1.477  1.00  0.00     0.036 C 
HETATM   10  C10 UNL     1       0.363  -0.366   1.250  1.00  0.00    -0.027 C 
HETATM   11  C11 UNL     1       0.137   0.923   1.946  1.00  0.00     0.040 C 
HETATM   12  C12 UNL     1      -0.440   2.091   1.285  1.00  0.00     0.273 C 
HETATM   13  N1  UNL     1      -0.657   1.993  -0.176  1.00  0.00     0.089 N 
HETATM   14  C13 UNL     1      -1.739   2.882  -0.527  1.00  0.00     0.310 C 
HETATM   15  C14 UNL     1       1.743  -0.927   1.427  1.00  0.00     0.050 C 
HETATM   16  C15 UNL     1       2.577  -0.389   0.250  1.00  0.00     0.141 C 
HETATM   17  C16 UNL     1       2.893  -1.453  -0.687  1.00  0.00     0.085 C 
HETATM   18  N2  UNL     1       3.150  -2.321  -1.424  1.00  0.00    -0.195 NA
HETATM   19  C17 UNL     1       3.798   0.232   0.695  1.00  0.00     0.085 C 
HETATM   20  N3  UNL     1       4.773   0.716   1.056  1.00  0.00    -0.195 NA
ENDROOT
TORSDOF 0
