REMARK  5 active torsions:
REMARK  status: ('A' for Active; 'I' for Inactive)
REMARK    1  A    between atoms: C5_12  and  C6_13 
REMARK    2  A    between atoms: N4_15  and  C8_16 
REMARK    3  A    between atoms: N7_27  and  C15_28 
REMARK       I    between atoms: N8_31  and  C18_32 
REMARK    4  A    between atoms: C18_32  and  O2_34 
REMARK    5  A    between atoms: O2_34  and  C19_35 
ROOT
HETATM    1  N1  UNL     1       5.287  -3.935   0.836  1.00  0.00    -0.385 N 
ATOM      2  H11 UNL     1       5.944  -3.156   0.793  1.00  0.00     0.157 HD
ATOM      3  H12 UNL     1       5.593  -4.890   1.022  1.00  0.00     0.157 HD
HETATM    4  C1  UNL     1       4.054  -3.678   0.646  1.00  0.00     0.116 A 
HETATM    5  N2  UNL     1       3.179  -4.716   0.703  1.00  0.00    -0.338 N 
ATOM      6  H2  UNL     1       3.514  -5.661   0.892  1.00  0.00     0.168 HD
HETATM    7  C2  UNL     1       1.890  -4.492   0.512  1.00  0.00     0.183 A 
HETATM    8  N3  UNL     1       1.467  -3.250   0.267  1.00  0.00    -0.337 N 
ATOM      9  H3  UNL     1       0.468  -3.103   0.124  1.00  0.00     0.168 HD
HETATM   10  C3  UNL     1       2.282  -2.180   0.198  1.00  0.00     0.140 A 
HETATM   11  C4  UNL     1       3.645  -2.402   0.398  1.00  0.00     0.083 A 
HETATM   12  C5  UNL     1       4.284  -1.213   0.289  1.00  0.00     0.094 A 
HETATM   13  N6  UNL     1       3.299  -0.291   0.025  1.00  0.00    -0.293 N 
ATOM     14  H6  UNL     1       3.458   0.707  -0.113  1.00  0.00     0.187 HD
HETATM   15  N7  UNL     1       2.123  -0.876  -0.025  1.00  0.00    -0.270 N 
ENDROOT
BRANCH  15  16
HETATM   16  C15 UNL     1       0.879  -0.188  -0.283  1.00  0.00     0.113 C 
HETATM   17  C16 UNL     1      -0.171  -0.517   0.730  1.00  0.00     0.047 C 
HETATM   18  C17 UNL     1      -1.439  -0.988   0.047  1.00  0.00     0.130 C 
HETATM   19  N8  UNL     1      -1.815  -0.117  -1.045  1.00  0.00    -0.328 N 
HETATM   20  C18 UNL     1      -3.123   0.396  -1.213  1.00  0.00     0.363 C 
HETATM   21  C27 UNL     1      -0.796   0.232  -1.999  1.00  0.00     0.130 C 
HETATM   22  O1  UNL     1      -3.359   1.145  -2.190  1.00  0.00    -0.238 OA
HETATM   23  C28 UNL     1       0.451  -0.569  -1.706  1.00  0.00     0.047 C 
BRANCH  20  24
HETATM   24  O2  UNL     1      -4.172   0.118  -0.353  1.00  0.00    -0.297 OA
BRANCH  24  25
HETATM   25  C19 UNL     1      -5.475   0.603  -0.485  1.00  0.00     0.162 C 
HETATM   26  C20 UNL     1      -6.371  -0.617  -0.735  1.00  0.00     0.036 C 
HETATM   27  C21 UNL     1      -7.700  -0.076  -1.200  1.00  0.00     0.038 C 
HETATM   28  C22 UNL     1      -7.882   1.368  -0.793  1.00  0.00     0.223 C 
HETATM   29  C23 UNL     1      -9.392   1.572  -0.614  1.00  0.00     0.037 C 
HETATM   30  N9  UNL     1      -7.380   1.648   0.522  1.00  0.00     0.095 N 
HETATM   31  C24 UNL     1      -9.628   0.993   0.765  1.00  0.00     0.032 C 
HETATM   32  C25 UNL     1      -8.293   1.094   1.472  1.00  0.00     0.273 C 
HETATM   33  C26 UNL     1      -6.010   1.295   0.725  1.00  0.00     0.305 C 
ENDBRANCH  24  25
ENDBRANCH  20  24
ENDBRANCH  15  16
BRANCH  12  34
HETATM   34  C6  UNL     1       5.671  -0.836   0.397  1.00  0.00     0.078 A 
HETATM   35  C7  UNL     1       6.181   0.462   0.255  1.00  0.00     0.130 A 
HETATM   36  N4  UNL     1       7.494   0.442   0.416  1.00  0.00    -0.316 N 
HETATM   37  C14 UNL     1       7.862  -0.824   0.660  1.00  0.00     0.188 A 
HETATM   38  N5  UNL     1       6.761  -1.562   0.643  1.00  0.00    -0.349 N 
ATOM     39  H5  UNL     1       6.749  -2.570   0.800  1.00  0.00     0.167 HD
BRANCH  36  40
HETATM   40  C8  UNL     1       8.406   1.570   0.349  1.00  0.00     0.039 A 
HETATM   41  C9  UNL     1       9.709   1.437  -0.070  1.00  0.00     0.030 A 
HETATM   42  C10 UNL     1      10.572   2.521  -0.129  1.00  0.00     0.002 A 
HETATM   43  C11 UNL     1      10.147   3.780   0.233  1.00  0.00     0.000 A 
HETATM   44  C12 UNL     1       8.842   3.916   0.653  1.00  0.00     0.002 A 
HETATM   45  C13 UNL     1       7.973   2.824   0.713  1.00  0.00     0.030 A 
ENDBRANCH  36  40
ENDBRANCH  12  34
TORSDOF 5
