REMARK  5 active torsions:
REMARK  status: ('A' for Active; 'I' for Inactive)
REMARK    1  A    between atoms: C5_11  and  C6_12 
REMARK    2  A    between atoms: C6_12  and  C7_14 
REMARK    3  A    between atoms: C8_15  and  C9_16 
REMARK    4  A    between atoms: N5_27  and  C18_28 
REMARK    5  A    between atoms: C18_28  and  C20_30 
REMARK       I    between atoms: C20_30  and  N6_32 
REMARK       I    between atoms: N7_34  and  C21_36 
REMARK       I    between atoms: C21_36  and  N9_40 
REMARK       I    between atoms: N10_42  and  C22_44 
ROOT
HETATM    1  C1  UNL     1       0.472   3.815  -1.383  1.00  0.00     0.020 C 
HETATM    2  C2  UNL     1       0.478   2.429  -0.763  1.00  0.00     0.079 C 
HETATM    3  C3  UNL     1      -0.180   1.507  -1.758  1.00  0.00     0.074 C 
HETATM    4  C4  UNL     1      -1.579   1.135  -1.391  1.00  0.00     0.057 A 
HETATM    5  N1  UNL     1      -2.553   1.403  -2.297  1.00  0.00    -0.288 N 
ATOM      6  H1  UNL     1      -2.292   1.838  -3.182  1.00  0.00     0.188 HD
HETATM    7  N2  UNL     1      -3.819   1.124  -2.080  1.00  0.00    -0.242 N 
ATOM      8  H2  UNL     1      -4.527   1.339  -2.782  1.00  0.00     0.208 HD
HETATM    9  N3  UNL     1      -4.155   0.562  -0.939  1.00  0.00    -0.280 N 
ATOM     10  H3  UNL     1      -5.140   0.350  -0.781  1.00  0.00     0.188 HD
HETATM   11  C5  UNL     1      -3.282   0.252   0.026  1.00  0.00     0.128 A 
HETATM   12  C15 UNL     1      -1.921   0.550  -0.200  1.00  0.00     0.085 A 
HETATM   13  N4  UNL     1      -1.012   0.269   0.843  1.00  0.00    -0.385 N 
ATOM     14  H4  UNL     1      -1.280   0.616   1.764  1.00  0.00     0.159 HD
HETATM   15  C16 UNL     1       0.232  -0.435   0.788  1.00  0.00     0.140 C 
HETATM   16  C17 UNL     1       1.313   0.407   1.369  1.00  0.00     0.146 C 
HETATM   17  N5  UNL     1       2.240   0.973   0.418  1.00  0.00    -0.337 N 
HETATM   18  C23 UNL     1       1.895   2.004  -0.492  1.00  0.00     0.224 C 
HETATM   19  O4  UNL     1       2.805   2.628  -1.134  1.00  0.00    -0.273 OA
ENDROOT
BRANCH  17  20
HETATM   20  C18 UNL     1       3.600   0.477   0.394  1.00  0.00     0.177 C 
HETATM   21  C19 UNL     1       4.561   1.560   0.854  1.00  0.00     0.042 C 
BRANCH  20  22
HETATM   22  C20 UNL     1       4.035  -0.054  -0.900  1.00  0.00     0.259 C 
HETATM   23  O2  UNL     1       3.256  -0.112  -1.892  1.00  0.00    -0.269 OA
HETATM   24  N6  UNL     1       5.350  -0.532  -1.115  1.00  0.00    -0.254 N 
HETATM   25  N7  UNL     1       5.793  -0.932  -2.211  1.00  0.00    -0.129 N 
ATOM     26  H6  UNL     1       5.982  -0.551  -0.315  1.00  0.00     0.190 HD
HETATM   27  C21 UNL     1       7.133  -1.388  -2.299  1.00  0.00     0.705 C 
ATOM     28  H7  UNL     1       5.196  -0.931  -3.038  1.00  0.00     0.205 HD
HETATM   29  N8  UNL     1       8.001  -0.853  -3.106  1.00  0.00    -0.232 N 
HETATM   30  N9  UNL     1       7.548  -2.466  -1.483  1.00  0.00    -0.128 N 
ATOM     31  H82 UNL     1       7.702  -0.076  -3.695  1.00  0.00     0.174 HD
ATOM     32  H81 UNL     1       8.965  -1.181  -3.169  1.00  0.00     0.174 HD
HETATM   33  N10 UNL     1       8.663  -2.421  -0.911  1.00  0.00    -0.240 N 
ATOM     34  H9  UNL     1       6.942  -3.277  -1.360  1.00  0.00     0.205 HD
HETATM   35  C22 UNL     1       9.147  -3.448  -0.086  1.00  0.00     0.347 C 
ATOM     36  H10 UNL     1       9.247  -1.597  -1.052  1.00  0.00     0.192 HD
HETATM   37  N11 UNL     1      10.557  -3.599   0.055  1.00  0.00    -0.038 NA
HETATM   38  O3  UNL     1       8.413  -4.242   0.536  1.00  0.00    -0.249 OA
ENDBRANCH  20  22
ENDBRANCH  17  20
BRANCH  11  39
HETATM   39  C6  UNL     1      -3.745  -0.419   1.210  1.00  0.00     0.202 C 
HETATM   40  O1  UNL     1      -2.836  -0.834   2.037  1.00  0.00    -0.286 OA
BRANCH  39  41
HETATM   41  C7  UNL     1      -5.076  -0.687   1.604  1.00  0.00     0.058 C 
HETATM   42  C8  UNL     1      -6.170  -0.392   0.990  1.00  0.00     0.015 C 
BRANCH  42  43
HETATM   43  C9  UNL     1      -7.513  -0.737   1.526  1.00  0.00    -0.036 A 
HETATM   44  C10 UNL     1      -7.691  -1.397   2.717  1.00  0.00     0.011 A 
HETATM   45  C11 UNL     1      -8.983  -1.698   3.176  1.00  0.00     0.001 A 
HETATM   46  C12 UNL     1     -10.070  -1.329   2.424  1.00  0.00     0.000 A 
HETATM   47  C13 UNL     1      -9.930  -0.667   1.227  1.00  0.00     0.001 A 
HETATM   48  C14 UNL     1      -8.653  -0.389   0.809  1.00  0.00     0.011 A 
ENDBRANCH  42  43
ENDBRANCH  39  41
ENDBRANCH  11  39
TORSDOF 5
