REMARK  8 active torsions:
REMARK  status: ('A' for Active; 'I' for Inactive)
REMARK    1  A    between atoms: C3_3  and  C4_4 
REMARK    2  A    between atoms: C4_4  and  N1_5 
REMARK    3  A    between atoms: C4_4  and  C16_21 
REMARK    4  A    between atoms: N1_5  and  C5_7 
REMARK    5  A    between atoms: C5_7  and  C6_8 
REMARK    6  A    between atoms: C5_7  and  C13_15 
REMARK    7  A    between atoms: C6_8  and  C7_9 
REMARK    8  A    between atoms: C20_32  and  N6_33 
ROOT
HETATM    1  C4  UNL     1      -1.526  -0.228   0.823  1.00  0.00     0.132 C 
ENDROOT
BRANCH   1   2
HETATM    2  C3  UNL     1      -2.275  -0.356  -0.436  1.00  0.00     0.059 A 
HETATM    3  C2  UNL     1      -2.995   0.724  -0.931  1.00  0.00     0.007 A 
HETATM    4  C1  UNL     1      -3.128   1.989  -0.198  1.00  0.00     0.054 C 
HETATM    5  C20 UNL     1      -3.657   0.587  -2.139  1.00  0.00     0.122 A 
HETATM    6  N5  UNL     1      -3.624  -0.544  -2.833  1.00  0.00    -0.177 N 
HETATM    7  C19 UNL     1      -2.933  -1.589  -2.367  1.00  0.00     0.677 A 
ATOM      8  H5  UNL     1      -4.124  -0.615  -3.719  1.00  0.00     0.185 HD
HETATM    9  N3  UNL     1      -2.274  -1.458  -1.172  1.00  0.00    -0.193 N 
HETATM   10  N4  UNL     1      -2.898  -2.672  -3.041  1.00  0.00    -0.234 N 
ATOM     11  H3  UNL     1      -1.749  -2.261  -0.827  1.00  0.00     0.184 HD
ATOM     12  H42 UNL     1      -2.371  -3.469  -2.685  1.00  0.00     0.174 HD
ATOM     13  H41 UNL     1      -3.388  -2.769  -3.930  1.00  0.00     0.174 HD
BRANCH   5  14
HETATM   14  N6  UNL     1      -4.339   1.582  -2.576  1.00  0.00    -0.385 N 
ATOM     15  H62 UNL     1      -4.364   2.451  -2.043  1.00  0.00     0.157 HD
ATOM     16  H61 UNL     1      -4.827   1.481  -3.466  1.00  0.00     0.157 HD
ENDBRANCH   5  14
ENDBRANCH   1   2
BRANCH   1  17
HETATM   17  N1  UNL     1      -0.143  -0.056   0.767  1.00  0.00    -0.401 N 
ATOM     18  H1  UNL     1       0.402  -0.803   1.198  1.00  0.00     0.154 HD
BRANCH  17  19
HETATM   19  C5  UNL     1       0.601   0.967   0.219  1.00  0.00     0.135 C 
BRANCH  19  20
HETATM   20  C6  UNL     1       2.084   0.650   0.552  1.00  0.00     0.036 C 
BRANCH  20  21
HETATM   21  C7  UNL     1       2.562  -0.661   0.074  1.00  0.00    -0.012 C 
HETATM   22  C8  UNL     1       2.467  -0.797  -1.395  1.00  0.00     0.005 C 
HETATM   23  C9  UNL     1       3.643  -0.311  -2.187  1.00  0.00     0.000 C 
HETATM   24  C10 UNL     1       4.918  -0.897  -1.632  1.00  0.00     0.000 C 
HETATM   25  C11 UNL     1       5.059  -0.419  -0.200  1.00  0.00     0.000 C 
HETATM   26  C12 UNL     1       3.951  -0.945   0.647  1.00  0.00     0.005 C 
ENDBRANCH  20  21
ENDBRANCH  19  20
BRANCH  19  27
HETATM   27  C13 UNL     1       0.413   2.214   1.105  1.00  0.00     0.073 A 
HETATM   28  N2  UNL     1       0.295   3.469   0.780  1.00  0.00    -0.361 N 
HETATM   29  C14 UNL     1       0.130   4.369   1.697  1.00  0.00     0.096 A 
ATOM     30  H2  UNL     1       0.333   3.745  -0.201  1.00  0.00     0.165 HD
HETATM   31  C15 UNL     1       0.090   3.940   3.002  1.00  0.00     0.068 A 
HETATM   32  S1  UNL     1       0.291   2.254   2.807  1.00  0.00    -0.085 SA
ENDBRANCH  19  27
ENDBRANCH  17  19
ENDBRANCH   1  17
BRANCH   1  33
HETATM   33  C16 UNL     1      -1.610  -1.687   1.442  1.00  0.00     0.006 C 
HETATM   34  C17 UNL     1      -3.058  -2.037   1.591  1.00  0.00     0.012 C 
HETATM   35  C18 UNL     1      -0.927  -1.707   2.787  1.00  0.00     0.012 C 
ENDBRANCH   1  33
TORSDOF 8
