REMARK  5 active torsions:
REMARK  status: ('A' for Active; 'I' for Inactive)
REMARK    1  A    between atoms: C2_2  and  C3_3 
REMARK    2  A    between atoms: C3_3  and  N1_4 
REMARK    3  A    between atoms: N1_4  and  C4_6 
REMARK    4  A    between atoms: C12_15  and  O2_16 
REMARK    5  A    between atoms: C18_23  and  O3_24 
ROOT
HETATM    1  C4  UNL     1       0.858   0.184  -0.873  1.00  0.00     0.061 C 
HETATM    2  C5  UNL     1       1.176  -0.580  -2.169  1.00  0.00     0.041 C 
HETATM    3  C6  UNL     1       0.946   1.618  -1.266  1.00  0.00     0.111 C 
HETATM    4  C7  UNL     1      -0.377   2.190  -1.670  1.00  0.00     0.129 C 
HETATM    5  O1  UNL     1      -0.621   2.381  -2.848  1.00  0.00    -0.298 OA
HETATM    6  C8  UNL     1      -1.515   2.588  -0.793  1.00  0.00     0.083 C 
HETATM    7  C9  UNL     1      -1.190   2.020   0.562  1.00  0.00    -0.002 C 
HETATM    8  C10 UNL     1      -1.898   2.662   1.699  1.00  0.00     0.011 C 
HETATM    9  C11 UNL     1      -1.274   0.556   0.548  1.00  0.00     0.056 C 
HETATM   10  C12 UNL     1      -2.741   0.130   0.359  1.00  0.00     0.125 C 
HETATM   11  C13 UNL     1      -2.851  -1.207   1.082  1.00  0.00     0.033 C 
HETATM   12  C14 UNL     1      -1.881  -2.134   0.506  1.00  0.00     0.014 C 
HETATM   13  C15 UNL     1      -0.456  -1.623   0.300  1.00  0.00    -0.014 C 
HETATM   14  C16 UNL     1       0.130  -2.756  -0.550  1.00  0.00     0.018 C 
HETATM   15  C17 UNL     1       0.270  -1.761   1.586  1.00  0.00     0.018 C 
HETATM   16  C18 UNL     1      -0.458  -0.270  -0.344  1.00  0.00     0.096 C 
ENDROOT
BRANCH   1  17
HETATM   17  N1  UNL     1       1.915  -0.066   0.087  1.00  0.00    -0.407 N 
ATOM     18  H1  UNL     1       1.744  -0.524   0.982  1.00  0.00     0.154 HD
BRANCH  17  19
HETATM   19  C3  UNL     1       3.213   0.375  -0.311  1.00  0.00     0.141 C 
BRANCH  19  20
HETATM   20  C2  UNL     1       4.219   0.068   0.741  1.00  0.00    -0.018 C 
HETATM   21  C1  UNL     1       5.257  -0.716   0.485  1.00  0.00     0.008 C 
ENDBRANCH  19  20
ENDBRANCH  17  19
ENDBRANCH   1  17
BRANCH  16  22
HETATM   22  O3  UNL     1      -1.225  -0.402  -1.534  1.00  0.00    -0.386 OA
ATOM     23  H3  UNL     1      -2.064  -0.692  -1.197  1.00  0.00     0.210 HD
ENDBRANCH  16  22
BRANCH  10  24
HETATM   24  O2  UNL     1      -3.654   1.022   0.844  1.00  0.00    -0.395 OA
ATOM     25  H2  UNL     1      -4.559   0.759   0.727  1.00  0.00     0.210 HD
ENDBRANCH  10  24
TORSDOF 5
