REMARK  5 active torsions:
REMARK  status: ('A' for Active; 'I' for Inactive)
REMARK    1  A    between atoms: C6_7  and  N1_8 
REMARK    2  A    between atoms: C7_9  and  C8_10 
REMARK    3  A    between atoms: C8_10  and  O1_11 
REMARK    4  A    between atoms: C9_13  and  C10_14 
REMARK    5  A    between atoms: C14_20  and  O2_22 
ROOT
HETATM    1  N1  UNL     1       0.419   0.036   0.564  1.00  0.00    -0.370 N 
HETATM    2  C7  UNL     1      -0.714  -0.800   0.716  1.00  0.00     0.119 C 
HETATM    3  C9  UNL     1      -1.542   0.464   0.619  1.00  0.00     0.099 C 
HETATM    4  C14 UNL     1      -0.286   1.008  -0.042  1.00  0.00     0.136 C 
HETATM    5  C15 UNL     1      -0.504   1.054  -1.524  1.00  0.00     0.071 C 
ENDROOT
BRANCH   1   6
HETATM    6  C6  UNL     1       1.695  -0.449   0.563  1.00  0.00     0.087 C 
HETATM    7  C2  UNL     1       2.874   0.325   0.196  1.00  0.00     0.013 C 
HETATM    8  C1  UNL     1       2.911   1.776   0.585  1.00  0.00     0.012 C 
HETATM    9  C3  UNL     1       3.308   0.240  -1.253  1.00  0.00     0.080 C 
HETATM   10  S1  UNL     1       4.099  -1.415  -1.430  1.00  0.00    -0.169 SA
HETATM   11  C4  UNL     1       3.165  -2.369  -0.163  1.00  0.00     0.076 C 
HETATM   12  C5  UNL     1       1.750  -1.771  -0.234  1.00  0.00     0.035 C 
ENDBRANCH   1   6
BRANCH   2  13
HETATM   13  C8  UNL     1      -0.957  -1.444   2.042  1.00  0.00     0.190 C 
BRANCH  13  14
HETATM   14  O1  UNL     1      -1.120  -0.528   3.058  1.00  0.00    -0.399 OA
ATOM     15  H1  UNL     1      -1.275  -0.938   3.901  1.00  0.00     0.209 HD
ENDBRANCH  13  14
ENDBRANCH   2  13
BRANCH   4  16
HETATM   16  O2  UNL     1      -0.215   2.351   0.420  1.00  0.00    -0.371 OA
ATOM     17  H2  UNL     1      -0.713   3.038  -0.008  1.00  0.00     0.212 HD
ENDBRANCH   4  16
BRANCH   3  18
HETATM   18  C10 UNL     1      -2.758   0.387  -0.173  1.00  0.00    -0.031 A 
HETATM   19  C11 UNL     1      -3.909   1.114   0.160  1.00  0.00     0.026 A 
HETATM   20  C12 UNL     1      -4.920   0.849  -0.740  1.00  0.00     0.088 A 
HETATM   21  N2  UNL     1      -4.411  -0.021  -1.610  1.00  0.00    -0.375 N 
HETATM   22  C13 UNL     1      -3.121  -0.312  -1.292  1.00  0.00     0.095 A 
ATOM     23  H2  UNL     1      -4.917  -0.414  -2.403  1.00  0.00     0.164 HD
ENDBRANCH   3  18
TORSDOF 5
