REMARK  6 active torsions:
REMARK  status: ('A' for Active; 'I' for Inactive)
REMARK    1  A    between atoms: C2_2  and  C3_3 
REMARK    2  A    between atoms: C3_3  and  O1_4 
REMARK    3  A    between atoms: C3_3  and  C4_6 
REMARK    4  A    between atoms: C4_6  and  O2_7 
REMARK    5  A    between atoms: C7_12  and  C8_13 
REMARK    6  A    between atoms: C12_17  and  O4_18 
ROOT
HETATM    1  C4  UNL     1       2.101  -0.331   0.422  1.00  0.00     0.199 C 
HETATM    2  O3  UNL     1       1.795   0.979   0.715  1.00  0.00    -0.352 OA
HETATM    3  C5  UNL     1       0.970   1.451  -0.300  1.00  0.00     0.178 C 
HETATM    4  C6  UNL     1       0.152   0.240  -0.750  1.00  0.00     0.032 C 
HETATM    5  C7  UNL     1      -1.277   0.447  -0.311  1.00  0.00    -0.028 C 
HETATM    6  C10 UNL     1      -1.387   1.229   0.980  1.00  0.00     0.013 C 
HETATM    7  C11 UNL     1      -2.532   0.691   1.771  1.00  0.00     0.033 C 
HETATM    8  C12 UNL     1      -3.028  -0.524   1.069  1.00  0.00     0.123 C 
HETATM    9  C13 UNL     1      -2.076  -0.767  -0.093  1.00  0.00     0.023 C 
HETATM   10  C14 UNL     1      -1.313  -2.021   0.227  1.00  0.00     0.009 C 
HETATM   11  C15 UNL     1       0.047  -1.710   0.747  1.00  0.00     0.015 C 
HETATM   12  C16 UNL     1       0.875  -0.928  -0.237  1.00  0.00     0.022 C 
HETATM   13  C17 UNL     1       1.284  -1.922  -1.328  1.00  0.00     0.021 C 
ENDROOT
BRANCH   1  14
HETATM   14  C3  UNL     1       3.346  -0.455  -0.355  1.00  0.00     0.203 C 
BRANCH  14  15
HETATM   15  C2  UNL     1       4.534  -0.024   0.405  1.00  0.00    -0.000 C 
HETATM   16  C1  UNL     1       4.613   0.562   1.554  1.00  0.00     0.009 C 
ENDBRANCH  14  15
BRANCH  14  17
HETATM   17  O1  UNL     1       3.370   0.201  -1.569  1.00  0.00    -0.386 OA
ATOM     18  H1  UNL     1       2.605  -0.077  -2.059  1.00  0.00     0.210 HD
ENDBRANCH  14  17
ENDBRANCH   1  14
BRANCH   1  19
HETATM   19  O2  UNL     1       2.277  -1.043   1.608  1.00  0.00    -0.362 OA
ATOM     20  H2  UNL     1       1.474  -0.963   2.109  1.00  0.00     0.213 HD
ENDBRANCH   1  19
BRANCH   5  21
HETATM   21  C8  UNL     1      -1.804   1.355  -1.409  1.00  0.00     0.006 C 
HETATM   22  C9  UNL     1      -3.201   1.778  -1.313  1.00  0.00     0.006 C 
ENDBRANCH   5  21
BRANCH   8  23
HETATM   23  O4  UNL     1      -4.356  -0.453   0.665  1.00  0.00    -0.395 OA
ATOM     24  H4  UNL     1      -4.673  -1.229   0.217  1.00  0.00     0.210 HD
ENDBRANCH   8  23
TORSDOF 6
