REMARK  8 active torsions:
REMARK  status: ('A' for Active; 'I' for Inactive)
REMARK    1  A    between atoms: O1_2  and  C2_3 
REMARK    2  A    between atoms: C2_3  and  C3_4 
REMARK    3  A    between atoms: C2_3  and  N5_27 
REMARK    4  A    between atoms: C6_9  and  N2_10 
REMARK    5  A    between atoms: N2_10  and  C7_12 
REMARK    6  A    between atoms: C7_12  and  C8_13 
REMARK    7  A    between atoms: C7_12  and  C10_17 
REMARK    8  A    between atoms: C8_13  and  O2_15 
ROOT
HETATM    1  C3  UNL     1       3.453   0.373  -0.399  1.00  0.00     0.142 A 
HETATM    2  N1  UNL     1       2.404   1.184  -0.130  1.00  0.00    -0.340 N 
ATOM      3  H1  UNL     1       2.487   2.172   0.109  1.00  0.00     0.167 HD
HETATM    4  C4  UNL     1       1.243   0.524  -0.217  1.00  0.00     0.065 A 
HETATM    5  C5  UNL     1      -0.088   0.860  -0.048  1.00  0.00     0.080 A 
HETATM    6  C6  UNL     1      -1.110  -0.053  -0.207  1.00  0.00     0.103 A 
HETATM    7  N3  UNL     1      -0.768  -1.309  -0.540  1.00  0.00    -0.350 N 
ATOM      8  H3  UNL     1      -1.498  -2.011  -0.666  1.00  0.00     0.166 HD
HETATM    9  C14 UNL     1       0.540  -1.662  -0.713  1.00  0.00     0.121 A 
HETATM   10  C15 UNL     1       1.573  -0.763  -0.558  1.00  0.00     0.076 A 
HETATM   11  N4  UNL     1       2.919  -0.819  -0.659  1.00  0.00    -0.339 N 
ATOM     12  H4  UNL     1       3.451  -1.655  -0.900  1.00  0.00     0.167 HD
ENDROOT
BRANCH   6  13
HETATM   13  N2  UNL     1      -2.299   0.347  -0.031  1.00  0.00    -0.368 N 
ATOM     14  H2  UNL     1      -2.427   1.327   0.219  1.00  0.00     0.161 HD
BRANCH  13  15
HETATM   15  C7  UNL     1      -3.497  -0.468  -0.154  1.00  0.00     0.118 C 
BRANCH  15  16
HETATM   16  C8  UNL     1      -3.699  -1.148   1.160  1.00  0.00     0.137 C 
HETATM   17  C9  UNL     1      -4.743  -2.233   1.149  1.00  0.00     0.041 C 
BRANCH  16  18
HETATM   18  O2  UNL     1      -3.865  -0.249   2.216  1.00  0.00    -0.394 OA
ATOM     19  H2  UNL     1      -3.994  -0.682   3.052  1.00  0.00     0.210 HD
ENDBRANCH  16  18
ENDBRANCH  15  16
BRANCH  15  20
HETATM   20  C10 UNL     1      -4.607   0.459  -0.548  1.00  0.00    -0.029 C 
HETATM   21  C11 UNL     1      -4.838   1.546   0.480  1.00  0.00     0.016 C 
HETATM   22  C12 UNL     1      -4.186   1.176  -1.839  1.00  0.00     0.016 C 
HETATM   23  C13 UNL     1      -5.912  -0.199  -0.828  1.00  0.00     0.016 C 
ENDBRANCH  15  20
ENDBRANCH  13  15
ENDBRANCH   6  13
BRANCH   1  24
HETATM   24  C2  UNL     1       4.885   0.733  -0.424  1.00  0.00     0.426 C 
BRANCH  24  25
HETATM   25  O1  UNL     1       5.128   1.822  -1.251  1.00  0.00    -0.357 OA
HETATM   26  C1  UNL     1       5.550   2.946  -0.552  1.00  0.00     0.204 C 
ENDBRANCH  24  25
BRANCH  24  27
HETATM   27  N5  UNL     1       5.726  -0.377  -0.659  1.00  0.00     0.116 N 
HETATM   28  C16 UNL     1       5.632  -1.438   0.314  1.00  0.00     0.313 C 
HETATM   29  C17 UNL     1       7.090  -0.064  -0.939  1.00  0.00     0.313 C 
ENDBRANCH  24  27
ENDBRANCH   1  24
TORSDOF 8
