REMARK  6 active torsions:
REMARK  status: ('A' for Active; 'I' for Inactive)
REMARK    1  A    between atoms: C2_2  and  N1_3 
REMARK    2  A    between atoms: C2_2  and  C15_24 
REMARK    3  A    between atoms: N1_3  and  C3_6 
REMARK    4  A    between atoms: C5_8  and  C6_9 
REMARK    5  A    between atoms: C7_14  and  C8_15 
REMARK    6  A    between atoms: C15_24  and  C16_25 
ROOT
HETATM    1  C16 UNL     1      -5.481  -1.032  -0.742  1.00  0.00     0.138 C 
HETATM    2  C17 UNL     1      -6.962  -1.076  -0.647  1.00  0.00     0.060 C 
HETATM    3  N5  UNL     1      -8.124  -1.091  -0.581  1.00  0.00    -0.197 NA
ENDROOT
BRANCH   1   4
HETATM    4  C15 UNL     1      -5.003   0.369  -0.438  1.00  0.00     0.047 A 
HETATM    5  C18 UNL     1      -5.715   1.095   0.657  1.00  0.00     0.246 A 
HETATM    6  N6  UNL     1      -6.365   1.954  -0.303  1.00  0.00    -0.073 N 
HETATM    7  C19 UNL     1      -5.677   1.329  -1.413  1.00  0.00     0.246 A 
ATOM      8  H62 UNL     1      -7.384   2.001  -0.315  1.00  0.00     0.277 HD
ATOM      9  H61 UNL     1      -6.300   2.965  -0.186  1.00  0.00     0.277 HD
BRANCH   4  10
HETATM   10  C2  UNL     1      -3.523   0.490  -0.514  1.00  0.00     0.195 C 
HETATM   11  C1  UNL     1      -2.981   1.863  -0.221  1.00  0.00     0.041 C 
BRANCH  10  12
HETATM   12  N1  UNL     1      -2.780  -0.526   0.192  1.00  0.00    -0.066 N 
ATOM     13  H12 UNL     1      -2.855  -0.392   1.200  1.00  0.00     0.278 HD
ATOM     14  H11 UNL     1      -3.239  -1.433   0.106  1.00  0.00     0.278 HD
BRANCH  12  15
HETATM   15  C3  UNL     1      -1.410  -0.613  -0.206  1.00  0.00     0.188 A 
HETATM   16  C4  UNL     1      -0.753  -1.950  -0.024  1.00  0.00     0.045 A 
HETATM   17  C5  UNL     1       0.104  -1.342   1.080  1.00  0.00     0.059 A 
HETATM   18  C14 UNL     1      -0.479   0.014   0.787  1.00  0.00     0.045 A 
BRANCH  17  19
HETATM   19  C6  UNL     1       1.564  -1.460   0.820  1.00  0.00     0.101 A 
HETATM   20  N2  UNL     1       2.309  -2.533   1.136  1.00  0.00    -0.287 N 
HETATM   21  N3  UNL     1       3.568  -2.341   0.805  1.00  0.00    -0.284 N 
ATOM     22  H2  UNL     1       1.948  -3.381   1.573  1.00  0.00     0.188 HD
HETATM   23  C7  UNL     1       3.672  -1.131   0.262  1.00  0.00     0.127 A 
ATOM     24  H3  UNL     1       4.331  -3.004   0.941  1.00  0.00     0.188 HD
HETATM   25  N4  UNL     1       2.430  -0.592   0.274  1.00  0.00    -0.329 N 
ATOM     26  H4  UNL     1       2.189   0.334  -0.079  1.00  0.00     0.168 HD
BRANCH  23  27
HETATM   27  C8  UNL     1       4.854  -0.447  -0.254  1.00  0.00    -0.016 C 
HETATM   28  C9  UNL     1       4.808   0.776  -0.759  1.00  0.00    -0.016 C 
HETATM   29  C10 UNL     1       5.949   1.526  -1.296  1.00  0.00     0.028 C 
HETATM   30  C11 UNL     1       7.281   1.010  -0.874  1.00  0.00     0.004 C 
HETATM   31  C12 UNL     1       7.150   0.007   0.236  1.00  0.00     0.005 C 
HETATM   32  C13 UNL     1       6.202  -1.094  -0.250  1.00  0.00     0.042 C 
ENDBRANCH  23  27
ENDBRANCH  17  19
ENDBRANCH  12  15
ENDBRANCH  10  12
ENDBRANCH   4  10
ENDBRANCH   1   4
TORSDOF 6
