REMARK  8 active torsions:
REMARK  status: ('A' for Active; 'I' for Inactive)
REMARK    1  A    between atoms: C2_2  and  C4_4 
REMARK    2  A    between atoms: C5_5  and  C6_6 
REMARK    3  A    between atoms: C7_7  and  C8_8 
REMARK    4  A    between atoms: C9_9  and  C10_10 
REMARK    5  A    between atoms: C10_10  and  O1_11 
REMARK    6  A    between atoms: C10_10  and  C11_13 
REMARK    7  A    between atoms: C16_20  and  O4_21 
REMARK    8  A    between atoms: C19_25  and  O5_26 
ROOT
HETATM    1  C8  UNL     1      -0.141   0.278   0.572  1.00  0.00     0.051 A 
HETATM    2  C9  UNL     1      -1.114   1.458   0.791  1.00  0.00     0.046 A 
HETATM    3  C12 UNL     1      -2.211   0.641   0.337  1.00  0.00    -0.004 A 
HETATM    4  C13 UNL     1      -3.202   0.498   1.490  1.00  0.00     0.019 C 
HETATM    5  C14 UNL     1      -3.024   0.737  -0.886  1.00  0.00     0.015 C 
HETATM    6  C15 UNL     1      -3.519  -0.641  -1.277  1.00  0.00     0.033 C 
HETATM    7  C16 UNL     1      -3.088  -1.828  -0.551  1.00  0.00     0.124 C 
HETATM    8  C17 UNL     1      -1.827  -1.747   0.319  1.00  0.00     0.046 C 
HETATM    9  C18 UNL     1      -2.075  -2.235   1.675  1.00  0.00     0.016 C 
HETATM   10  C19 UNL     1      -1.251  -0.443   0.042  1.00  0.00     0.078 A 
ENDROOT
BRANCH   1  11
HETATM   11  C7  UNL     1       0.598  -0.149   1.738  1.00  0.00    -0.019 C 
HETATM   12  C6  UNL     1       1.864  -0.447   1.749  1.00  0.00    -0.004 C 
BRANCH  12  13
HETATM   13  C5  UNL     1       2.709  -0.391   0.576  1.00  0.00    -0.004 C 
HETATM   14  C4  UNL     1       4.003  -0.703   0.634  1.00  0.00    -0.023 C 
BRANCH  14  15
HETATM   15  C2  UNL     1       4.841  -0.637  -0.575  1.00  0.00    -0.000 C 
HETATM   16  C1  UNL     1       5.986   0.339  -0.390  1.00  0.00     0.013 C 
HETATM   17  C3  UNL     1       4.056  -0.195  -1.791  1.00  0.00     0.013 C 
ENDBRANCH  14  15
ENDBRANCH  12  13
ENDBRANCH   1  11
BRANCH   2  18
HETATM   18  C10 UNL     1      -0.735   2.756   0.345  1.00  0.00     0.224 C 
BRANCH  18  19
HETATM   19  O1  UNL     1      -0.824   3.716   1.220  1.00  0.00    -0.384 OA
ATOM     20  H1  UNL     1      -0.571   4.582   0.922  1.00  0.00     0.210 HD
ENDBRANCH  18  19
BRANCH  18  21
HETATM   21  C11 UNL     1      -0.271   3.167  -0.931  1.00  0.00     0.203 C 
HETATM   22  O2  UNL     1      -0.043   2.498  -1.959  1.00  0.00    -0.646 OA
HETATM   23  O3  UNL     1       0.003   4.557  -1.151  1.00  0.00    -0.646 OA
ENDBRANCH  18  21
ENDBRANCH   2  18
BRANCH  10  24
HETATM   24  O5  UNL     1      -1.021  -0.493  -1.392  1.00  0.00    -0.388 OA
ATOM     25  H5  UNL     1      -1.761  -0.973  -1.745  1.00  0.00     0.210 HD
ENDBRANCH  10  24
BRANCH   7  26
HETATM   26  O4  UNL     1      -2.955  -2.880  -1.506  1.00  0.00    -0.395 OA
ATOM     27  H4  UNL     1      -2.674  -3.654  -1.033  1.00  0.00     0.210 HD
ENDBRANCH   7  26
TORSDOF 8
