REMARK  7 active torsions:
REMARK  status: ('A' for Active; 'I' for Inactive)
REMARK    1  A    between atoms: C1_2  and  N1_3 
REMARK    2  A    between atoms: C1_2  and  N4_21 
REMARK    3  A    between atoms: N1_3  and  C2_5 
REMARK    4  A    between atoms: C2_5  and  C3_6 
REMARK    5  A    between atoms: C3_6  and  C4_7 
REMARK    6  A    between atoms: C6_12  and  C7_13 
REMARK    7  A    between atoms: N4_21  and  C11_23 
ROOT
HETATM    1  C4  UNL     1      -1.834  -1.695   0.725  1.00  0.00    -0.023 A 
HETATM    2  C5  UNL     1      -1.397  -2.986   0.785  1.00  0.00     0.077 A 
HETATM    3  S2  UNL     1      -2.719  -3.881   0.139  1.00  0.00    -0.026 SA
HETATM    4  N2  UNL     1      -3.776  -2.598  -0.197  1.00  0.00    -0.327 N 
ATOM      5  H2  UNL     1      -4.708  -2.640  -0.609  1.00  0.00     0.174 HD
HETATM    6  C6  UNL     1      -3.106  -1.531   0.201  1.00  0.00     0.053 A 
ENDROOT
BRANCH   1   7
HETATM    7  C3  UNL     1      -0.995  -0.499   1.022  1.00  0.00     0.061 C 
BRANCH   7   8
HETATM    8  C2  UNL     1       0.482  -0.601   0.787  1.00  0.00     0.126 C 
BRANCH   8   9
HETATM    9  N1  UNL     1       0.919  -1.013  -0.507  1.00  0.00    -0.367 N 
ATOM     10  H1  UNL     1       0.309  -1.629  -1.045  1.00  0.00     0.161 HD
BRANCH   9  11
HETATM   11  C1  UNL     1       2.140  -0.621  -1.086  1.00  0.00     0.167 C 
HETATM   12  S1  UNL     1       2.607  -1.322  -2.498  1.00  0.00    -0.041 SA
BRANCH  11  13
HETATM   13  N4  UNL     1       3.032   0.301  -0.484  1.00  0.00    -0.363 N 
ATOM     14  H4  UNL     1       2.768   0.669   0.430  1.00  0.00     0.162 HD
BRANCH  13  15
HETATM   15  C11 UNL     1       4.266   0.764  -1.036  1.00  0.00     0.083 C 
HETATM   16  C12 UNL     1       5.406  -0.201  -0.942  1.00  0.00     0.025 C 
HETATM   17  C13 UNL     1       5.528  -0.315   0.600  1.00  0.00     0.002 C 
HETATM   18  C14 UNL     1       5.460   1.164   0.995  1.00  0.00     0.002 C 
HETATM   19  C15 UNL     1       4.807   1.894  -0.130  1.00  0.00     0.025 C 
ENDBRANCH  13  15
ENDBRANCH  11  13
ENDBRANCH   9  11
ENDBRANCH   8   9
ENDBRANCH   7   8
ENDBRANCH   1   7
BRANCH   6  20
HETATM   20  C7  UNL     1      -3.819  -0.156   0.284  1.00  0.00     0.197 C 
HETATM   21  C8  UNL     1      -4.177   0.247  -1.123  1.00  0.00     0.270 C 
HETATM   22  N3  UNL     1      -5.293   1.143  -1.180  1.00  0.00    -0.070 N 
HETATM   23  C9  UNL     1      -5.659   1.716   0.093  1.00  0.00     0.258 C 
ATOM     24  H32 UNL     1      -5.125   1.878  -1.867  1.00  0.00     0.277 HD
ATOM     25  H31 UNL     1      -6.097   0.684  -1.609  1.00  0.00     0.277 HD
HETATM   26  C10 UNL     1      -5.977   0.541   1.007  1.00  0.00     0.196 C 
HETATM   27  O1  UNL     1      -5.026  -0.388   0.976  1.00  0.00    -0.376 OA
ENDBRANCH   6  20
TORSDOF 7
