REMARK  7 active torsions:
REMARK  status: ('A' for Active; 'I' for Inactive)
REMARK    1  A    between atoms: C1_2  and  C2_3 
REMARK       I    between atoms: C1_2  and  N3_14 
REMARK    2  A    between atoms: C2_3  and  C3_4 
REMARK    3  A    between atoms: C3_4  and  C4_5 
REMARK    4  A    between atoms: C4_5  and  C5_6 
REMARK    5  A    between atoms: N3_14  and  C7_16 
REMARK    6  A    between atoms: C8_21  and  C9_22 
REMARK    7  A    between atoms: C9_22  and  C10_23 
ROOT
HETATM    1  C7  UNL     1       0.680  -1.478   0.460  1.00  0.00     0.700 A 
HETATM    2  N4  UNL     1      -0.149  -2.036   1.353  1.00  0.00    -0.130 N 
ATOM      3  H4  UNL     1       0.101  -2.656   2.124  1.00  0.00     0.205 HD
HETATM    4  N5  UNL     1      -1.354  -1.616   1.026  1.00  0.00    -0.274 N 
ATOM      5  H5  UNL     1      -2.203  -1.876   1.528  1.00  0.00     0.189 HD
HETATM    6  C8  UNL     1      -1.336  -0.814  -0.035  1.00  0.00     0.112 A 
HETATM    7  N6  UNL     1      -0.020  -0.734  -0.388  1.00  0.00    -0.178 N 
ATOM      8  H6  UNL     1       0.359  -0.196  -1.167  1.00  0.00     0.185 HD
ENDROOT
BRANCH   1   9
HETATM    9  N3  UNL     1       1.972  -1.681   0.484  1.00  0.00    -0.158 N 
HETATM   10  C1  UNL     1       2.757  -1.031  -0.522  1.00  0.00     0.235 C 
HETATM   11  O1  UNL     1       3.022  -1.587  -1.606  1.00  0.00    -0.273 OA
ATOM     12  H3  UNL     1       2.403  -2.278   1.190  1.00  0.00     0.187 HD
BRANCH  10  13
HETATM   13  C2  UNL     1       3.244   0.318  -0.241  1.00  0.00     0.104 C 
BRANCH  13  14
HETATM   14  C3  UNL     1       4.147   0.922  -1.251  1.00  0.00     0.017 C 
BRANCH  14  15
HETATM   15  C4  UNL     1       5.429   0.206  -1.501  1.00  0.00     0.086 C 
BRANCH  15  16
HETATM   16  C5  UNL     1       6.187   0.154  -0.201  1.00  0.00     0.141 A 
HETATM   17  N1  UNL     1       6.120  -0.802   0.734  1.00  0.00    -0.281 N 
HETATM   18  N2  UNL     1       6.944  -0.461   1.712  1.00  0.00    -0.268 N 
ATOM     19  H1  UNL     1       5.540  -1.640   0.699  1.00  0.00     0.189 HD
HETATM   20  C6  UNL     1       7.531   0.707   1.401  1.00  0.00     0.235 A 
ATOM     21  H2  UNL     1       7.107  -0.998   2.564  1.00  0.00     0.190 HD
HETATM   22  S1  UNL     1       8.629   1.514   2.319  1.00  0.00    -0.031 SA
HETATM   23  O2  UNL     1       7.048   1.050   0.233  1.00  0.00    -0.269 OA
ENDBRANCH  15  16
ENDBRANCH  14  15
ENDBRANCH  13  14
ENDBRANCH  10  13
ENDBRANCH   1   9
BRANCH   6  24
HETATM   24  C9  UNL     1      -2.369  -0.097  -0.786  1.00  0.00     0.083 C 
BRANCH  24  25
HETATM   25  C10 UNL     1      -3.760  -0.274  -0.278  1.00  0.00    -0.007 C 
HETATM   26  C11 UNL     1      -4.662   0.549  -1.203  1.00  0.00     0.005 C 
HETATM   27  C12 UNL     1      -5.759   1.240  -0.464  1.00  0.00     0.000 C 
HETATM   28  C13 UNL     1      -6.382   0.236   0.503  1.00  0.00     0.000 C 
HETATM   29  C14 UNL     1      -5.353  -0.013   1.579  1.00  0.00     0.000 C 
HETATM   30  C15 UNL     1      -3.955   0.313   1.106  1.00  0.00     0.005 C 
ENDBRANCH  24  25
ENDBRANCH   6  24
TORSDOF 7
