REMARK  9 active torsions:
REMARK  status: ('A' for Active; 'I' for Inactive)
REMARK    1  A    between atoms: C3_3  and  S1_4 
REMARK    2  A    between atoms: S1_4  and  C4_5 
REMARK    3  A    between atoms: C5_8  and  N2_9 
REMARK    4  A    between atoms: N2_9  and  C6_10 
REMARK    5  A    between atoms: N2_9  and  C8_12 
REMARK    6  A    between atoms: C13_17  and  C14_18 
REMARK    7  A    between atoms: C15_19  and  C17_21 
REMARK    8  A    between atoms: C18_22  and  N3_23 
REMARK    9  A    between atoms: C19_26  and  N4_27 
ROOT
HETATM    1  C1  UNL     1      -3.369   7.202   0.476  1.00  0.00     0.013 C 
HETATM    2  C2  UNL     1      -2.591   6.314   0.248  1.00  0.00    -0.107 C 
HETATM    3  C3  UNL     1      -1.637   5.202  -0.007  1.00  0.00     0.175 C 
ENDROOT
BRANCH   3   4
HETATM    4  S1  UNL     1      -1.726   3.992   1.326  1.00  0.00    -0.082 SA
BRANCH   4   5
HETATM    5  C4  UNL     1      -0.605   2.654   0.954  1.00  0.00     0.148 A 
HETATM    6  N1  UNL     1      -0.980   1.535   0.331  1.00  0.00    -0.322 N 
HETATM    7  C5  UNL     1      -0.104   0.494   0.080  1.00  0.00     0.119 A 
ATOM      8  H1  UNL     1      -1.950   1.444   0.028  1.00  0.00     0.169 HD
HETATM    9  C13 UNL     1       1.165   0.622   0.479  1.00  0.00     0.053 A 
HETATM   10  C19 UNL     1       1.534   1.827   1.138  1.00  0.00     0.115 A 
HETATM   11  N5  UNL     1       0.670   2.809   1.365  1.00  0.00    -0.322 N 
ATOM     12  H5  UNL     1       0.964   3.662   1.840  1.00  0.00     0.169 HD
BRANCH   7  13
HETATM   13  N2  UNL     1      -0.640  -0.621  -0.591  1.00  0.00    -0.362 N 
BRANCH  13  14
HETATM   14  C6  UNL     1      -0.800  -0.526  -2.020  1.00  0.00     0.120 C 
HETATM   15  C7  UNL     1      -2.211  -0.368  -2.497  1.00  0.00     0.026 C 
ENDBRANCH  13  14
BRANCH  13  16
HETATM   16  C8  UNL     1      -1.061  -1.837   0.067  1.00  0.00     0.086 C 
HETATM   17  C9  UNL     1      -0.966  -1.811   1.557  1.00  0.00     0.025 C 
HETATM   18  C10 UNL     1      -1.617  -3.172   1.878  1.00  0.00     0.002 C 
HETATM   19  C11 UNL     1      -2.822  -3.165   0.982  1.00  0.00     0.002 C 
HETATM   20  C12 UNL     1      -2.452  -2.274  -0.206  1.00  0.00     0.025 C 
ENDBRANCH  13  16
ENDBRANCH   7  13
BRANCH   9  21
HETATM   21  C14 UNL     1       2.204  -0.364   0.345  1.00  0.00     0.035 C 
HETATM   22  C15 UNL     1       2.896  -0.842  -0.619  1.00  0.00    -0.006 C 
HETATM   23  C16 UNL     1       2.814  -0.463  -2.047  1.00  0.00     0.058 C 
BRANCH  22  24
HETATM   24  C17 UNL     1       3.896  -1.880  -0.270  1.00  0.00    -0.049 C 
HETATM   25  C18 UNL     1       4.719  -2.704   0.034  1.00  0.00     0.008 C 
BRANCH  25  26
HETATM   26  N3  UNL     1       5.692  -3.634   0.405  1.00  0.00    -0.359 N 
ATOM     27  H32 UNL     1       5.676  -2.645   0.654  1.00  0.00     0.166 HD
ATOM     28  H31 UNL     1       6.389  -4.332   0.663  1.00  0.00     0.166 HD
ENDBRANCH  25  26
ENDBRANCH  22  24
ENDBRANCH   9  21
BRANCH  10  29
HETATM   29  N4  UNL     1       2.748   1.955   1.514  1.00  0.00    -0.385 N 
ATOM     30  H42 UNL     1       3.412   1.200   1.340  1.00  0.00     0.157 HD
ATOM     31  H41 UNL     1       3.013   2.819   1.987  1.00  0.00     0.157 HD
ENDBRANCH  10  29
ENDBRANCH   4   5
ENDBRANCH   3   4
TORSDOF 9
