REMARK  7 active torsions:
REMARK  status: ('A' for Active; 'I' for Inactive)
REMARK    1  A    between atoms: C2_2  and  C3_3 
REMARK    2  A    between atoms: C3_3  and  C4_4 
REMARK    3  A    between atoms: C4_4  and  C5_5 
REMARK    4  A    between atoms: C5_5  and  O1_6 
REMARK    5  A    between atoms: C5_5  and  C6_8 
REMARK    6  A    between atoms: C15_18  and  C16_19 
REMARK    7  A    between atoms: C16_19  and  O3_20 
ROOT
HETATM    1  C6  UNL     1       1.860   0.151  -0.742  1.00  0.00     0.052 C 
HETATM    2  C7  UNL     1       1.870   1.023  -1.957  1.00  0.00     0.011 C 
HETATM    3  C8  UNL     1       0.555   1.832  -1.937  1.00  0.00     0.013 C 
HETATM    4  C9  UNL     1       0.138   1.593  -0.527  1.00  0.00     0.053 C 
HETATM    5  C10 UNL     1      -1.191   2.012  -0.117  1.00  0.00    -0.061 A 
HETATM    6  C11 UNL     1      -2.110   2.827   0.396  1.00  0.00    -0.006 A 
HETATM    7  C12 UNL     1      -2.461   1.462  -0.140  1.00  0.00     0.024 A 
HETATM    8  C13 UNL     1      -3.536   1.582  -1.206  1.00  0.00     0.027 C 
HETATM    9  C14 UNL     1      -2.865   0.547   1.006  1.00  0.00     0.147 C 
HETATM   10  O2  UNL     1      -4.268   0.481   1.146  1.00  0.00    -0.376 OA
HETATM   11  C15 UNL     1      -4.270  -0.920   1.354  1.00  0.00     0.154 C 
HETATM   12  C17 UNL     1      -2.910  -0.898   0.651  1.00  0.00     0.074 C 
HETATM   13  C18 UNL     1      -1.806  -1.599   1.388  1.00  0.00     0.220 C 
HETATM   14  O4  UNL     1      -0.673  -1.584   0.614  1.00  0.00    -0.240 OA
HETATM   15  O5  UNL     1       0.044  -0.475   0.743  1.00  0.00    -0.229 OA
HETATM   16  C19 UNL     1       0.342   0.099  -0.457  1.00  0.00     0.106 C 
HETATM   17  C20 UNL     1      -0.218  -0.649  -1.643  1.00  0.00     0.050 C 
ENDROOT
BRANCH   1  18
HETATM   18  C5  UNL     1       2.538  -1.126  -0.769  1.00  0.00     0.125 C 
BRANCH  18  19
HETATM   19  C4  UNL     1       4.013  -1.008  -1.050  1.00  0.00     0.032 C 
BRANCH  19  20
HETATM   20  C3  UNL     1       4.649  -0.055  -0.109  1.00  0.00     0.002 C 
BRANCH  20  21
HETATM   21  C2  UNL     1       4.510  -0.520   1.318  1.00  0.00    -0.004 C 
HETATM   22  C1  UNL     1       5.207   0.537   2.174  1.00  0.00     0.005 C 
ENDBRANCH  20  21
ENDBRANCH  19  20
ENDBRANCH  18  19
BRANCH  18  23
HETATM   23  O1  UNL     1       2.051  -2.049  -1.703  1.00  0.00    -0.395 OA
ATOM     24  H1  UNL     1       1.121  -2.123  -1.526  1.00  0.00     0.210 HD
ENDBRANCH  18  23
ENDBRANCH   1  18
BRANCH  11  25
HETATM   25  C16 UNL     1      -5.336  -1.638   0.581  1.00  0.00     0.196 C 
BRANCH  25  26
HETATM   26  O3  UNL     1      -6.607  -1.216   0.904  1.00  0.00    -0.398 OA
ATOM     27  H3  UNL     1      -7.282  -1.671   0.414  1.00  0.00     0.209 HD
ENDBRANCH  25  26
ENDBRANCH  11  25
TORSDOF 7
