REMARK  8 active torsions:
REMARK  status: ('A' for Active; 'I' for Inactive)
REMARK    1  A    between atoms: O1_2  and  C2_3 
REMARK    2  A    between atoms: C2_3  and  C3_4 
REMARK    3  A    between atoms: C3_4  and  C4_5 
REMARK    4  A    between atoms: C7_9  and  C8_10 
REMARK    5  A    between atoms: C9_11  and  C10_12 
REMARK    6  A    between atoms: C10_12  and  O3_15 
REMARK    7  A    between atoms: C16_20  and  O4_21 
REMARK    8  A    between atoms: C20_26  and  O5_27 
ROOT
HETATM    1  C4  UNL     1      -2.239   0.509   0.593  1.00  0.00     0.092 C 
HETATM    2  C5  UNL     1      -0.787   0.618   1.039  1.00  0.00     0.163 C 
HETATM    3  O2  UNL     1      -0.583   1.427   1.969  1.00  0.00    -0.292 OA
HETATM    4  C6  UNL     1       0.391  -0.093   0.526  1.00  0.00    -0.001 C 
HETATM    5  C7  UNL     1       1.470   0.648   0.526  1.00  0.00     0.011 C 
HETATM    6  C13 UNL     1       0.388  -1.497   0.067  1.00  0.00     0.010 C 
HETATM    7  C14 UNL     1       0.859  -1.633  -1.362  1.00  0.00     0.023 C 
HETATM    8  C15 UNL     1       1.424  -2.231   0.937  1.00  0.00     0.023 C 
HETATM    9  C16 UNL     1      -0.875  -2.243   0.288  1.00  0.00     0.141 C 
HETATM   10  C17 UNL     1      -2.155  -1.781  -0.211  1.00  0.00     0.006 C 
HETATM   11  C18 UNL     1      -2.511  -2.583  -1.459  1.00  0.00     0.020 C 
HETATM   12  C19 UNL     1      -3.294  -2.127   0.776  1.00  0.00     0.020 C 
HETATM   13  C20 UNL     1      -2.278  -0.324  -0.619  1.00  0.00     0.140 C 
ENDROOT
BRANCH   5  14
HETATM   14  C8  UNL     1       2.816   0.302   0.094  1.00  0.00    -0.000 C 
HETATM   15  C9  UNL     1       3.815   1.164   0.159  1.00  0.00     0.010 C 
BRANCH  15  16
HETATM   16  C10 UNL     1       5.160   0.784  -0.284  1.00  0.00     0.068 C 
HETATM   17  C11 UNL     1       5.722   1.932  -1.129  1.00  0.00     0.050 C 
HETATM   18  C12 UNL     1       5.133  -0.431  -1.221  1.00  0.00     0.050 C 
BRANCH  16  19
HETATM   19  O3  UNL     1       6.019   0.498   0.775  1.00  0.00    -0.387 OA
ATOM     20  H3  UNL     1       6.890   0.252   0.488  1.00  0.00     0.211 HD
ENDBRANCH  16  19
ENDBRANCH  15  16
ENDBRANCH   5  14
BRANCH   1  21
HETATM   21  C3  UNL     1      -2.687   1.928   0.512  1.00  0.00     0.041 C 
BRANCH  21  22
HETATM   22  C2  UNL     1      -4.076   2.214   0.113  1.00  0.00     0.168 C 
BRANCH  22  23
HETATM   23  O1  UNL     1      -4.390   3.578   0.118  1.00  0.00    -0.396 OA
HETATM   24  C1  UNL     1      -4.257   4.197   1.325  1.00  0.00     0.201 C 
ENDBRANCH  22  23
ENDBRANCH  21  22
ENDBRANCH   1  21
BRANCH   9  25
HETATM   25  O4  UNL     1      -1.028  -2.498   1.681  1.00  0.00    -0.394 OA
ATOM     26  H4  UNL     1      -1.837  -2.976   1.823  1.00  0.00     0.210 HD
ENDBRANCH   9  25
BRANCH  13  27
HETATM   27  O5  UNL     1      -3.452  -0.191  -1.349  1.00  0.00    -0.394 OA
ATOM     28  H5  UNL     1      -3.477  -0.729  -2.132  1.00  0.00     0.210 HD
ENDBRANCH  13  27
TORSDOF 8
