REMARK  10 active torsions:
REMARK  status: ('A' for Active; 'I' for Inactive)
REMARK    1  A    between atoms: C2_2  and  N1_3 
REMARK    2  A    between atoms: C3_4  and  O1_5 
REMARK    3  A    between atoms: C6_9  and  O2_10 
REMARK    4  A    between atoms: C8_13  and  O3_14 
REMARK    5  A    between atoms: C8_13  and  C9_16 
REMARK    6  A    between atoms: C9_16  and  N2_17 
REMARK    7  A    between atoms: N2_17  and  C10_18 
REMARK    8  A    between atoms: N2_17  and  C14_24 
REMARK    9  A    between atoms: C10_18  and  O4_19 
REMARK   10  A    between atoms: C10_18  and  C11_21 
ROOT
HETATM    1  N1  UNL     1       4.759   0.571  -0.300  1.00  0.00    -0.283 N 
HETATM    2  C3  UNL     1       4.691  -0.754  -0.581  1.00  0.00     0.159 A 
HETATM    3  C4  UNL     1       3.415  -1.217  -0.240  1.00  0.00     0.026 A 
HETATM    4  C5  UNL     1       2.705  -0.170   0.255  1.00  0.00     0.011 A 
HETATM    5  C6  UNL     1       3.571   0.924   0.199  1.00  0.00     0.155 A 
HETATM    6  C7  UNL     1       1.350  -0.335   0.809  1.00  0.00     0.087 C 
HETATM    7  C8  UNL     1       0.611  -1.539   0.381  1.00  0.00     0.096 C 
HETATM    8  C19 UNL     1       1.503  -2.613  -0.133  1.00  0.00     0.013 C 
HETATM    9  C20 UNL     1       2.760  -2.501  -0.426  1.00  0.00     0.015 C 
ENDROOT
BRANCH   7  10
HETATM   10  O3  UNL     1       0.015  -2.064   1.546  1.00  0.00    -0.384 OA
ATOM     11  H3  UNL     1      -0.461  -2.839   1.271  1.00  0.00     0.211 HD
ENDBRANCH   7  10
BRANCH   7  12
HETATM   12  C9  UNL     1      -0.407  -1.359  -0.708  1.00  0.00     0.167 C 
BRANCH  12  13
HETATM   13  N2  UNL     1      -1.491  -0.399  -0.429  1.00  0.00    -0.357 N 
BRANCH  13  14
HETATM   14  C10 UNL     1      -1.310   0.870  -0.937  1.00  0.00     0.118 C 
BRANCH  14  15
HETATM   15  O4  UNL     1      -0.170   0.988  -1.641  1.00  0.00    -0.349 OA
ATOM     16  H4  UNL     1      -0.045   1.862  -1.991  1.00  0.00     0.219 HD
ENDBRANCH  14  15
BRANCH  14  17
HETATM   17  C11 UNL     1      -1.991   2.153  -0.939  1.00  0.00     0.060 A 
HETATM   18  C12 UNL     1      -3.044   2.209  -2.091  1.00  0.00     0.013 A 
HETATM   19  C13 UNL     1      -3.363   2.534  -0.699  1.00  0.00     0.013 A 
ENDBRANCH  14  17
ENDBRANCH  13  14
BRANCH  13  20
HETATM   20  C14 UNL     1      -2.575  -0.898   0.335  1.00  0.00     0.086 C 
HETATM   21  C15 UNL     1      -2.861  -0.244   1.645  1.00  0.00     0.025 C 
HETATM   22  C16 UNL     1      -4.326  -0.349   1.923  1.00  0.00     0.002 C 
HETATM   23  C17 UNL     1      -4.911  -1.153   0.822  1.00  0.00     0.002 C 
HETATM   24  C18 UNL     1      -3.899  -1.101  -0.310  1.00  0.00     0.025 C 
ENDBRANCH  13  20
ENDBRANCH  12  13
ENDBRANCH   7  12
BRANCH   5  25
HETATM   25  O2  UNL     1       3.187   2.176   0.619  1.00  0.00    -0.345 OA
ATOM     26  H2  UNL     1       2.342   2.427   0.974  1.00  0.00     0.219 HD
ENDBRANCH   5  25
BRANCH   2  27
HETATM   27  O1  UNL     1       5.690  -1.552  -1.113  1.00  0.00    -0.345 OA
ATOM     28  H1  UNL     1       5.642  -2.480  -1.310  1.00  0.00     0.219 HD
ENDBRANCH   2  27
BRANCH   1  29
HETATM   29  C2  UNL     1       5.933   1.331  -0.540  1.00  0.00     0.091 C 
HETATM   30  C1  UNL     1       6.071   2.607  -0.295  1.00  0.00     0.030 C 
ENDBRANCH   1  29
TORSDOF 10
