REMARK  8 active torsions:
REMARK  status: ('A' for Active; 'I' for Inactive)
REMARK    1  A    between atoms: C2_2  and  C3_3 
REMARK    2  A    between atoms: C2_2  and  C4_6 
REMARK    3  A    between atoms: C3_3  and  O1_4 
REMARK    4  A    between atoms: C4_6  and  C6_8 
REMARK    5  A    between atoms: C11_13  and  O2_14 
REMARK    6  A    between atoms: C15_19  and  C16_20 
REMARK    7  A    between atoms: C19_23  and  O3_24 
REMARK    8  A    between atoms: C20_26  and  O4_27 
ROOT
HETATM    1  C6  UNL     1       1.608  -0.693   0.173  1.00  0.00    -0.033 C 
HETATM    2  C7  UNL     1       1.332  -1.191  -1.185  1.00  0.00    -0.056 C 
HETATM    3  C8  UNL     1       2.528  -1.616  -2.013  1.00  0.00     0.048 C 
HETATM    4  C9  UNL     1       0.287  -0.516  -1.955  1.00  0.00     0.006 C 
HETATM    5  C10 UNL     1      -1.049  -0.632  -1.909  1.00  0.00     0.014 C 
HETATM    6  C11 UNL     1      -2.023  -1.399  -1.156  1.00  0.00     0.109 C 
HETATM    7  C12 UNL     1      -1.519  -2.109   0.076  1.00  0.00     0.082 C 
HETATM    8  C13 UNL     1      -0.761  -1.298   1.039  1.00  0.00    -0.044 C 
HETATM    9  C14 UNL     1      -1.365   0.055   1.057  1.00  0.00     0.012 C 
HETATM   10  C15 UNL     1      -2.388   0.460   0.317  1.00  0.00    -0.045 C 
HETATM   11  C19 UNL     1      -3.093  -0.423  -0.648  1.00  0.00     0.186 C 
HETATM   12  C20 UNL     1       0.684  -1.349   1.199  1.00  0.00     0.180 C 
ENDROOT
BRANCH   1  13
HETATM   13  C4  UNL     1       1.847   0.741   0.459  1.00  0.00     0.044 C 
HETATM   14  C5  UNL     1       2.114   0.972   1.961  1.00  0.00     0.019 C 
BRANCH  13  15
HETATM   15  C2  UNL     1       2.940   1.454  -0.208  1.00  0.00    -0.058 C 
HETATM   16  C1  UNL     1       4.065   1.824   0.437  1.00  0.00     0.017 C 
BRANCH  15  17
HETATM   17  C3  UNL     1       2.838   2.011  -1.573  1.00  0.00     0.198 C 
BRANCH  17  18
HETATM   18  O1  UNL     1       3.954   2.820  -1.893  1.00  0.00    -0.397 OA
ATOM     19  H1  UNL     1       3.888   3.178  -2.770  1.00  0.00     0.209 HD
ENDBRANCH  17  18
ENDBRANCH  15  17
ENDBRANCH  13  15
ENDBRANCH   1  13
BRANCH  12  20
HETATM   20  O4  UNL     1       1.202  -2.612   1.475  1.00  0.00    -0.382 OA
HETATM   21  C21 UNL     1       1.774  -2.769   2.700  1.00  0.00     0.202 C 
ENDBRANCH  12  20
BRANCH   6  22
HETATM   22  O2  UNL     1      -2.662  -2.384  -1.936  1.00  0.00    -0.383 OA
ATOM     23  H2  UNL     1      -3.300  -2.886  -1.443  1.00  0.00     0.211 HD
ENDBRANCH   6  22
BRANCH  10  24
HETATM   24  C16 UNL     1      -2.902   1.865   0.434  1.00  0.00     0.009 C 
HETATM   25  C17 UNL     1      -2.777   2.638  -0.856  1.00  0.00     0.014 C 
HETATM   26  C18 UNL     1      -4.341   1.853   0.856  1.00  0.00     0.014 C 
ENDBRANCH  10  24
BRANCH  11  27
HETATM   27  O3  UNL     1      -4.047  -1.214   0.011  1.00  0.00    -0.388 OA
ATOM     28  H3  UNL     1      -4.709  -0.610   0.325  1.00  0.00     0.210 HD
ENDBRANCH  11  27
TORSDOF 8
