REMARK  6 active torsions:
REMARK  status: ('A' for Active; 'I' for Inactive)
REMARK    1  A    between atoms: N1_1  and  C1_4 
REMARK    2  A    between atoms: C3_8  and  C4_9 
REMARK    3  A    between atoms: C4_9  and  C5_10 
REMARK    4  A    between atoms: C5_10  and  C6_11 
REMARK    5  A    between atoms: C11_19  and  N4_20 
REMARK    6  A    between atoms: C15_24  and  C16_25 
ROOT
HETATM    1  C1  UNL     1       1.121   2.534  -2.388  1.00  0.00     0.116 A 
HETATM    2  C2  UNL     1      -0.065   3.094  -1.970  1.00  0.00     0.136 A 
HETATM    3  N2  UNL     1      -0.776   2.522  -1.001  1.00  0.00    -0.363 N 
ATOM      4  H2  UNL     1      -1.656   2.931  -0.685  1.00  0.00     0.165 HD
HETATM    5  C3  UNL     1      -0.294   1.369  -0.439  1.00  0.00     0.053 A 
HETATM    6  C11 UNL     1       0.875   0.803  -0.835  1.00  0.00     0.128 A 
HETATM    7  N6  UNL     1       1.584   1.412  -1.834  1.00  0.00    -0.326 N 
ATOM      8  H6  UNL     1       2.465   1.009  -2.155  1.00  0.00     0.169 HD
ENDROOT
BRANCH   6   9
HETATM    9  N4  UNL     1       1.476  -0.369  -0.282  1.00  0.00    -0.355 N 
HETATM   10  C12 UNL     1       1.471  -1.612  -1.041  1.00  0.00     0.125 C 
HETATM   11  C13 UNL     1       2.500  -2.495  -0.356  1.00  0.00     0.022 C 
HETATM   12  C14 UNL     1       2.327  -2.051   1.078  1.00  0.00     0.033 C 
HETATM   13  C15 UNL     1       2.174  -0.588   0.962  1.00  0.00     0.136 C 
BRANCH  13  14
HETATM   14  C16 UNL     1       3.450   0.188   0.979  1.00  0.00     0.032 A 
HETATM   15  C17 UNL     1       4.657  -0.351   1.298  1.00  0.00     0.027 A 
HETATM   16  C18 UNL     1       5.774   0.449   1.305  1.00  0.00     0.003 A 
HETATM   17  C19 UNL     1       5.662   1.780   0.992  1.00  0.00     0.017 A 
HETATM   18  C20 UNL     1       4.404   2.287   0.673  1.00  0.00     0.088 A 
HETATM   19  N5  UNL     1       3.329   1.490   0.671  1.00  0.00    -0.367 N 
ATOM     20  H5  UNL     1       2.414   1.873   0.435  1.00  0.00     0.165 HD
ENDBRANCH  13  14
ENDBRANCH   6   9
BRANCH   5  21
HETATM   21  C4  UNL     1      -1.198   0.724   0.592  1.00  0.00     0.061 C 
BRANCH  21  22
HETATM   22  C5  UNL     1      -2.113  -0.261  -0.063  1.00  0.00     0.011 C 
BRANCH  22  23
HETATM   23  C6  UNL     1      -3.030  -1.007   0.870  1.00  0.00    -0.011 C 
HETATM   24  C7  UNL     1      -3.850  -1.930  -0.018  1.00  0.00     0.032 C 
HETATM   25  C8  UNL     1      -5.027  -1.140  -0.611  1.00  0.00     0.232 C 
HETATM   26  N3  UNL     1      -5.856  -0.829   0.551  1.00  0.00    -0.075 N 
HETATM   27  C9  UNL     1      -5.217   0.138   1.391  1.00  0.00     0.232 C 
ATOM     28  H32 UNL     1      -6.792  -0.530   0.277  1.00  0.00     0.277 HD
ATOM     29  H31 UNL     1      -6.108  -1.670   1.070  1.00  0.00     0.277 HD
HETATM   30  C10 UNL     1      -3.818  -0.189   1.786  1.00  0.00     0.032 C 
ENDBRANCH  22  23
ENDBRANCH  21  22
ENDBRANCH   5  21
BRANCH   1  31
HETATM   31  N1  UNL     1       1.792   3.126  -3.350  1.00  0.00    -0.384 N 
ATOM     32  H12 UNL     1       1.438   3.984  -3.774  1.00  0.00     0.157 HD
ATOM     33  H11 UNL     1       2.671   2.711  -3.660  1.00  0.00     0.157 HD
ENDBRANCH   1  31
TORSDOF 6
