REMARK  7 active torsions:
REMARK  status: ('A' for Active; 'I' for Inactive)
REMARK    1  A    between atoms: C2_2  and  C3_3 
REMARK    2  A    between atoms: C3_3  and  N1_4 
REMARK       I    between atoms: N2_7  and  C6_8 
REMARK    3  A    between atoms: C6_8  and  C7_10 
REMARK    4  A    between atoms: C7_10  and  N3_11 
REMARK    5  A    between atoms: C10_17  and  C11_18 
REMARK       I    between atoms: C11_18  and  N5_20 
REMARK    6  A    between atoms: N5_20  and  C12_22 
REMARK    7  A    between atoms: C12_22  and  C13_23 
ROOT
HETATM    1  N3  UNL     1       0.317   1.606  -0.510  1.00  0.00     0.138 N 
HETATM    2  C8  UNL     1       0.305   2.989  -0.860  1.00  0.00     0.504 C 
HETATM    3  N4  UNL     1       0.613   3.740   0.339  1.00  0.00    -0.046 N 
ATOM      4  H41 UNL     1      -0.205   4.115   0.819  1.00  0.00     0.279 HD
ATOM      5  H42 UNL     1       1.063   4.639   0.165  1.00  0.00     0.279 HD
HETATM    6  C9  UNL     1       1.389   2.842   1.125  1.00  0.00     0.280 C 
HETATM    7  C10 UNL     1       0.942   1.449   0.755  1.00  0.00     0.342 C 
ENDROOT
BRANCH   1   8
HETATM    8  C7  UNL     1      -0.883   0.895  -0.732  1.00  0.00     0.378 C 
BRANCH   8   9
HETATM    9  C6  UNL     1      -2.013   1.260   0.131  1.00  0.00     0.248 C 
HETATM   10  N2  UNL     1      -3.295   0.653   0.046  1.00  0.00    -0.347 N 
HETATM   11  C5  UNL     1      -3.613  -0.391  -0.915  1.00  0.00     0.156 C 
HETATM   12  C18 UNL     1      -4.373   1.052   0.928  1.00  0.00     0.156 C 
HETATM   13  C4  UNL     1      -4.128  -1.646  -0.247  1.00  0.00     0.292 C 
HETATM   14  N1  UNL     1      -4.931  -1.270   0.875  1.00  0.00     0.095 N 
HETATM   15  C19 UNL     1      -5.504   0.039   0.749  1.00  0.00     0.292 C 
HETATM   16  O1  UNL     1      -1.848   2.156   0.996  1.00  0.00    -0.271 OA
BRANCH  14  17
HETATM   17  C3  UNL     1      -5.969  -2.222   1.190  1.00  0.00     0.299 C 
BRANCH  17  18
HETATM   18  C2  UNL     1      -7.029  -2.297   0.169  1.00  0.00    -0.007 C 
HETATM   19  C1  UNL     1      -8.309  -2.029   0.437  1.00  0.00     0.008 C 
ENDBRANCH  17  18
ENDBRANCH  14  17
ENDBRANCH   8   9
ENDBRANCH   1   8
BRANCH   7  20
HETATM   20  C11 UNL     1       2.200   0.582   0.670  1.00  0.00     0.256 C 
HETATM   21  O2  UNL     1       2.825   0.401   1.731  1.00  0.00    -0.271 OA
HETATM   22  N5  UNL     1       2.615   0.030  -0.535  1.00  0.00    -0.338 N 
ATOM     23  H5  UNL     1       2.009   0.229  -1.331  1.00  0.00     0.167 HD
BRANCH  22  24
HETATM   24  C12 UNL     1       3.732  -0.755  -0.826  1.00  0.00     0.070 C 
BRANCH  24  25
HETATM   25  C13 UNL     1       5.110  -0.248  -0.776  1.00  0.00     0.048 C 
HETATM   26  C14 UNL     1       6.009  -1.467  -1.178  1.00  0.00     0.014 C 
HETATM   27  C15 UNL     1       7.282  -1.414  -0.387  1.00  0.00     0.027 C 
HETATM   28  C16 UNL     1       7.131  -1.334   1.087  1.00  0.00     0.167 C 
HETATM   29  O3  UNL     1       5.960  -0.675   1.422  1.00  0.00    -0.390 OA
HETATM   30  C17 UNL     1       5.691   0.315   0.467  1.00  0.00     0.177 C 
ENDBRANCH  24  25
ENDBRANCH  22  24
ENDBRANCH   7  20
TORSDOF 7
