REMARK  7 active torsions:
REMARK  status: ('A' for Active; 'I' for Inactive)
REMARK    1  A    between atoms: C2_2  and  C4_4 
REMARK    2  A    between atoms: C4_4  and  C5_5 
REMARK    3  A    between atoms: C5_5  and  N1_6 
REMARK    4  A    between atoms: C5_5  and  C17_26 
REMARK       I    between atoms: N1_6  and  C6_8 
REMARK    5  A    between atoms: C6_8  and  C7_10 
REMARK    6  A    between atoms: C12_16  and  N2_17 
REMARK       I    between atoms: N2_17  and  C13_19 
REMARK    7  A    between atoms: C13_19  and  C14_21 
REMARK       I    between atoms: C17_26  and  N3_28 
ROOT
HETATM    1  C7  UNL     1       0.977  -2.836  -0.262  1.00  0.00     0.130 C 
HETATM    2  C8  UNL     1       1.358  -3.646  -1.509  1.00  0.00     0.137 C 
HETATM    3  C9  UNL     1       2.644  -4.281  -0.937  1.00  0.00     0.041 C 
HETATM    4  C10 UNL     1       3.309  -2.910  -0.713  1.00  0.00     0.036 C 
HETATM    5  C11 UNL     1       3.101  -2.356  -2.102  1.00  0.00     0.174 C 
HETATM    6  O2  UNL     1       1.865  -2.850  -2.506  1.00  0.00    -0.384 OA
HETATM    7  C12 UNL     1       2.277  -2.264   0.187  1.00  0.00     0.106 C 
ENDROOT
BRANCH   1   8
HETATM    8  C6  UNL     1      -0.075  -1.897  -0.621  1.00  0.00     0.227 C 
HETATM    9  N1  UNL     1      -0.723  -1.020   0.280  1.00  0.00    -0.347 N 
ATOM     10  H1  UNL     1      -0.441  -1.030   1.260  1.00  0.00     0.163 HD
HETATM   11  O1  UNL     1      -0.481  -1.824  -1.835  1.00  0.00    -0.273 OA
BRANCH   9  12
HETATM   12  C5  UNL     1      -1.791  -0.090  -0.139  1.00  0.00     0.177 C 
BRANCH  12  13
HETATM   13  C4  UNL     1      -2.962  -0.468   0.729  1.00  0.00     0.038 C 
BRANCH  13  14
HETATM   14  C2  UNL     1      -4.225   0.261   0.549  1.00  0.00    -0.020 C 
HETATM   15  C1  UNL     1      -4.877   0.167  -0.791  1.00  0.00     0.009 C 
HETATM   16  C3  UNL     1      -5.244  -0.282   1.564  1.00  0.00     0.009 C 
ENDBRANCH  13  14
ENDBRANCH  12  13
BRANCH  12  17
HETATM   17  C17 UNL     1      -1.360   1.260   0.303  1.00  0.00     0.241 C 
HETATM   18  O6  UNL     1      -0.791   1.271   1.453  1.00  0.00    -0.271 OA
HETATM   19  N3  UNL     1      -1.493   2.469  -0.359  1.00  0.00    -0.359 N 
HETATM   20  C18 UNL     1      -1.042   3.709   0.258  1.00  0.00     0.152 C 
HETATM   21  C19 UNL     1      -2.056   2.539  -1.684  1.00  0.00     0.152 C 
ENDBRANCH  12  17
ENDBRANCH   9  12
ENDBRANCH   1   8
BRANCH   7  22
HETATM   22  N2  UNL     1       2.370  -0.839   0.194  1.00  0.00    -0.351 N 
HETATM   23  C13 UNL     1       2.797  -0.159   1.352  1.00  0.00     0.273 C 
HETATM   24  O3  UNL     1       3.107  -0.771   2.415  1.00  0.00    -0.268 OA
ATOM     25  H2  UNL     1       2.126  -0.311  -0.644  1.00  0.00     0.163 HD
BRANCH  23  26
HETATM   26  C14 UNL     1       2.909   1.321   1.392  1.00  0.00     0.353 C 
HETATM   27  O4  UNL     1       2.552   1.902   0.181  1.00  0.00    -0.351 OA
HETATM   28  C15 UNL     1       2.967   3.220   0.363  1.00  0.00     0.197 C 
HETATM   29  C16 UNL     1       4.149   3.095   1.307  1.00  0.00     0.197 C 
HETATM   30  O5  UNL     1       4.237   1.724   1.536  1.00  0.00    -0.351 OA
ENDBRANCH  23  26
ENDBRANCH   7  22
TORSDOF 7
