REMARK  3 active torsions:
REMARK  status: ('A' for Active; 'I' for Inactive)
REMARK       I    between atoms: C1_2  and  N2_4 
REMARK    1  A    between atoms: N2_4  and  O2_5 
REMARK       I    between atoms: N2_4  and  C2_7 
REMARK       I    between atoms: C2_7  and  N3_9 
REMARK    2  A    between atoms: C9_16  and  S1_17 
REMARK    3  A    between atoms: S1_17  and  N4_19 
ROOT
HETATM    1  N1  UNL     1      -3.748   3.859   1.242  1.00  0.00    -0.037 NA
HETATM    2  C1  UNL     1      -2.773   2.839   1.275  1.00  0.00     0.363 C 
HETATM    3  O1  UNL     1      -1.766   3.032   1.991  1.00  0.00    -0.248 OA
HETATM    4  N2  UNL     1      -2.875   1.606   0.539  1.00  0.00    -0.121 N 
HETATM    5  C2  UNL     1      -1.855   0.653   0.636  1.00  0.00     0.353 C 
HETATM    6  O3  UNL     1      -0.857   0.969   1.398  1.00  0.00    -0.244 OA
HETATM    7  N3  UNL     1      -1.744  -0.604   0.029  1.00  0.00    -0.321 N 
HETATM    8  C3  UNL     1      -2.788  -1.132  -0.806  1.00  0.00     0.129 C 
HETATM    9  C4  UNL     1      -2.904  -2.623  -0.450  1.00  0.00     0.020 C 
HETATM   10  C5  UNL     1      -2.464  -2.901   0.952  1.00  0.00     0.004 C 
HETATM   11  C6  UNL     1      -0.992  -2.579   1.111  1.00  0.00     0.033 C 
HETATM   12  C7  UNL     1      -0.591  -1.466   0.168  1.00  0.00     0.054 A 
HETATM   13  C8  UNL     1       0.060  -1.927  -1.102  1.00  0.00     0.054 A 
HETATM   14  C9  UNL     1       0.792  -1.122   0.020  1.00  0.00     0.126 A 
ENDROOT
BRANCH  14  15
HETATM   15  S1  UNL     1       1.460   0.388  -0.566  1.00  0.00     0.098 S 
HETATM   16  O4  UNL     1       0.960   0.739  -2.154  1.00  0.00    -0.241 OA
BRANCH  15  17
HETATM   17  N4  UNL     1       3.177   0.226  -0.643  1.00  0.00    -0.233 NA
HETATM   18  C10 UNL     1       3.808   1.270  -1.384  1.00  0.00     0.105 C 
HETATM   19  C11 UNL     1       4.706   2.028  -0.456  1.00  0.00     0.017 C 
HETATM   20  C12 UNL     1       4.894   1.132   0.728  1.00  0.00     0.017 C 
HETATM   21  C13 UNL     1       3.789   0.127   0.639  1.00  0.00     0.105 C 
ENDBRANCH  15  17
ENDBRANCH  14  15
BRANCH   4  22
HETATM   22  O2  UNL     1      -3.999   1.502  -0.200  1.00  0.00    -0.275 OA
ATOM     23  H2  UNL     1      -4.066   0.688  -0.686  1.00  0.00     0.245 HD
ENDBRANCH   4  22
TORSDOF 3
