REMARK  3 active torsions:
REMARK  status: ('A' for Active; 'I' for Inactive)
REMARK    1  A    between atoms: C1_2  and  C2_4 
REMARK    2  A    between atoms: C2_4  and  N1_5 
REMARK    3  A    between atoms: C2_4  and  C8_14 
REMARK       I    between atoms: N1_5  and  C3_7 
REMARK       I    between atoms: C3_7  and  N2_9 
REMARK       I    between atoms: C8_14  and  N3_16 
ROOT
HETATM    1  C2  UNL     1       0.259  -0.184  -1.240  1.00  0.00     0.280 C 
ENDROOT
BRANCH   1   2
HETATM    2  C1  UNL     1       0.126   0.710  -2.442  1.00  0.00     0.206 C 
HETATM    3  O1  UNL     1       1.074   1.256  -3.024  1.00  0.00    -0.646 OA
HETATM    4  O2  UNL     1      -1.157   0.956  -2.953  1.00  0.00    -0.646 OA
ENDBRANCH   1   2
BRANCH   1   5
HETATM    5  N1  UNL     1       1.608  -0.181  -0.747  1.00  0.00    -0.320 N 
HETATM    6  C3  UNL     1       2.382   0.947  -0.434  1.00  0.00     0.319 C 
HETATM    7  O3  UNL     1       1.927   2.096  -0.562  1.00  0.00    -0.247 OA
HETATM    8  N2  UNL     1       3.734   0.768   0.047  1.00  0.00    -0.334 N 
HETATM    9  C4  UNL     1       4.601   1.872   0.383  1.00  0.00     0.127 C 
HETATM   10  C7  UNL     1       4.402  -0.509   0.262  1.00  0.00     0.127 C 
HETATM   11  C5  UNL     1       5.950   1.232   0.639  1.00  0.00     0.022 C 
HETATM   12  C6  UNL     1       5.516  -0.111   1.213  1.00  0.00     0.022 C 
ATOM     13  H1  UNL     1       2.048  -1.091  -0.611  1.00  0.00     0.165 HD
ENDBRANCH   1   5
BRANCH   1  14
HETATM   14  C8  UNL     1      -0.716   0.129  -0.198  1.00  0.00     0.255 C 
HETATM   15  O4  UNL     1      -0.328   0.937   0.706  1.00  0.00    -0.270 OA
HETATM   16  N3  UNL     1      -2.029  -0.359  -0.073  1.00  0.00    -0.319 N 
HETATM   17  C9  UNL     1      -2.568  -1.310  -0.996  1.00  0.00     0.155 C 
HETATM   18  C14 UNL     1      -2.853   0.133   1.031  1.00  0.00     0.254 C 
HETATM   19  C10 UNL     1      -4.020  -1.040  -1.324  1.00  0.00     0.188 C 
HETATM   20  O5  UNL     1      -4.499   0.116  -0.727  1.00  0.00    -0.380 OA
HETATM   21  C11 UNL     1      -4.305   0.199   0.631  1.00  0.00     0.172 C 
HETATM   22  C12 UNL     1      -4.935  -0.879   1.441  1.00  0.00     0.062 C 
HETATM   23  C13 UNL     1      -3.941  -1.100   2.554  1.00  0.00     0.173 C 
HETATM   24  O6  UNL     1      -2.710  -0.695   2.103  1.00  0.00    -0.364 OA
ENDBRANCH   1  14
TORSDOF 3
