REMARK  3 active torsions:
REMARK  status: ('A' for Active; 'I' for Inactive)
REMARK       I    between atoms: N2_3  and  C2_5 
REMARK    1  A    between atoms: C2_5  and  C3_7 
REMARK    2  A    between atoms: C5_9  and  N3_10 
REMARK       I    between atoms: N3_10  and  C6_12 
REMARK       I    between atoms: C6_12  and  N4_14 
REMARK    3  A    between atoms: C9_17  and  N5_18 
ROOT
HETATM    1  N1  UNL     1       6.493   4.658  -0.294  1.00  0.00    -0.172 NA
HETATM    2  C1  UNL     1       5.905   3.641  -0.211  1.00  0.00     0.184 C 
HETATM    3  N2  UNL     1       5.197   2.440  -0.125  1.00  0.00    -0.263 N 
ATOM      4  H2  UNL     1       5.281   1.762  -0.883  1.00  0.00     0.181 HD
HETATM    5  C2  UNL     1       4.359   2.130   0.990  1.00  0.00     0.236 C 
HETATM    6  O1  UNL     1       4.279   2.989   1.904  1.00  0.00    -0.272 OA
ENDROOT
BRANCH   5   7
HETATM    7  C3  UNL     1       3.606   0.878   1.105  1.00  0.00     0.103 A 
HETATM    8  C4  UNL     1       4.272  -0.361   0.630  1.00  0.00     0.042 A 
HETATM    9  C5  UNL     1       3.023   0.218  -0.092  1.00  0.00     0.100 A 
BRANCH   9  10
HETATM   10  N3  UNL     1       1.836  -0.590   0.022  1.00  0.00    -0.338 N 
HETATM   11  C6  UNL     1       1.046  -0.863  -1.103  1.00  0.00     0.318 C 
HETATM   12  O2  UNL     1       1.424  -0.369  -2.222  1.00  0.00    -0.247 OA
HETATM   13  N4  UNL     1      -0.118  -1.652  -1.001  1.00  0.00    -0.334 N 
HETATM   14  C7  UNL     1      -0.954  -1.969  -2.145  1.00  0.00     0.129 C 
HETATM   15  C15 UNL     1      -0.521  -2.182   0.279  1.00  0.00     0.129 C 
HETATM   16  C8  UNL     1      -2.312  -1.347  -1.943  1.00  0.00     0.056 C 
HETATM   17  C9  UNL     1      -2.670  -1.291  -0.461  1.00  0.00     0.226 C 
HETATM   18  C14 UNL     1      -2.009  -2.490   0.186  1.00  0.00     0.056 C 
ATOM     19  H3  UNL     1       1.568  -0.967   0.931  1.00  0.00     0.164 HD
BRANCH  17  20
HETATM   20  N5  UNL     1      -2.112  -0.099   0.148  1.00  0.00     0.097 N 
HETATM   21  C10 UNL     1      -2.635   1.101  -0.512  1.00  0.00     0.299 C 
HETATM   22  C11 UNL     1      -2.417   2.246   0.448  1.00  0.00     0.198 C 
HETATM   23  O3  UNL     1      -3.433   2.170   1.408  1.00  0.00    -0.388 OA
HETATM   24  C12 UNL     1      -3.779   0.853   1.653  1.00  0.00     0.198 C 
HETATM   25  C13 UNL     1      -2.562  -0.013   1.522  1.00  0.00     0.299 C 
ENDBRANCH  17  20
ENDBRANCH   9  10
ENDBRANCH   5   7
TORSDOF 3
