REMARK  7 active torsions:
REMARK  status: ('A' for Active; 'I' for Inactive)
REMARK    1  A    between atoms: C2_2  and  C3_3 
REMARK       I    between atoms: C3_3  and  N1_5 
REMARK    2  A    between atoms: N1_5  and  C4_7 
REMARK    3  A    between atoms: C4_7  and  C5_8 
REMARK    4  A    between atoms: C6_9  and  N2_10 
REMARK       I    between atoms: N3_19  and  C14_20 
REMARK       I    between atoms: C14_20  and  N4_22 
REMARK    5  A    between atoms: N4_22  and  C15_24 
REMARK    6  A    between atoms: C15_24  and  C16_25 
REMARK    7  A    between atoms: C16_25  and  C17_27 
ROOT
HETATM    1  C5  UNL     1      -0.663  -0.247  -0.109  1.00  0.00     0.129 C 
HETATM    2  C6  UNL     1      -1.216  -1.492   0.509  1.00  0.00     0.111 C 
HETATM    3  C11 UNL     1      -1.044  -1.494   2.025  1.00  0.00     0.029 C 
HETATM    4  C12 UNL     1       0.474  -1.539   2.253  1.00  0.00     0.022 C 
HETATM    5  C13 UNL     1       0.973  -0.172   1.752  1.00  0.00     0.128 C 
HETATM    6  N3  UNL     1       0.734  -0.177   0.334  1.00  0.00    -0.326 N 
HETATM    7  C14 UNL     1       1.800  -0.132  -0.591  1.00  0.00     0.319 C 
HETATM    8  O3  UNL     1       1.549  -0.159  -1.853  1.00  0.00    -0.247 OA
HETATM    9  N4  UNL     1       3.174  -0.058  -0.253  1.00  0.00    -0.335 N 
ATOM     10  H4  UNL     1       3.432  -0.034   0.734  1.00  0.00     0.164 HD
ENDROOT
BRANCH   1  11
HETATM   11  C4  UNL     1      -1.355   1.014   0.250  1.00  0.00     0.150 C 
BRANCH  11  12
HETATM   12  N1  UNL     1      -0.745   2.177  -0.387  1.00  0.00    -0.356 N 
HETATM   13  C3  UNL     1      -1.318   3.461  -0.124  1.00  0.00     0.240 C 
HETATM   14  O1  UNL     1      -2.326   3.577   0.641  1.00  0.00    -0.269 OA
ATOM     15  H1  UNL     1       0.064   2.077  -1.000  1.00  0.00     0.162 HD
BRANCH  13  16
HETATM   16  C2  UNL     1      -0.784   4.678  -0.709  1.00  0.00     0.064 C 
HETATM   17  C1  UNL     1      -1.308   5.868  -0.470  1.00  0.00     0.017 C 
ENDBRANCH  13  16
ENDBRANCH  11  12
ENDBRANCH   1  11
BRANCH   2  18
HETATM   18  N2  UNL     1      -2.542  -1.857   0.197  1.00  0.00    -0.345 N 
HETATM   19  C7  UNL     1      -3.806  -1.150   0.445  1.00  0.00     0.127 C 
HETATM   20  C8  UNL     1      -4.809  -2.294   0.616  1.00  0.00     0.029 C 
HETATM   21  C9  UNL     1      -4.338  -3.258  -0.429  1.00  0.00     0.104 C 
HETATM   22  C10 UNL     1      -2.893  -3.079  -0.454  1.00  0.00     0.220 C 
HETATM   23  O2  UNL     1      -2.097  -3.922  -0.992  1.00  0.00    -0.273 OA
ENDBRANCH   2  18
BRANCH   9  24
HETATM   24  C15 UNL     1       4.223  -0.015  -1.238  1.00  0.00     0.214 C 
BRANCH  24  25
HETATM   25  C16 UNL     1       5.532   0.060  -0.572  1.00  0.00     0.242 C 
HETATM   26  O4  UNL     1       5.594   0.076   0.677  1.00  0.00    -0.284 OA
BRANCH  25  27
HETATM   27  C17 UNL     1       6.792   0.117  -1.321  1.00  0.00     0.248 C 
HETATM   28  O5  UNL     1       6.729   0.100  -2.585  1.00  0.00    -0.642 OA
HETATM   29  O6  UNL     1       8.009   0.186  -0.697  1.00  0.00    -0.642 OA
ENDBRANCH  25  27
ENDBRANCH  24  25
ENDBRANCH   9  24
TORSDOF 7
