REMARK  4 active torsions:
REMARK  status: ('A' for Active; 'I' for Inactive)
REMARK    1  A    between atoms: N2_5  and  C4_6 
REMARK    2  A    between atoms: C4_6  and  C5_7 
REMARK    3  A    between atoms: C5_7  and  C6_8 
REMARK       I    between atoms: C6_8  and  N3_10 
REMARK    4  A    between atoms: C13_17  and  O2_18 
ROOT
HETATM    1  C6  UNL     1       0.514  -0.879  -0.076  1.00  0.00     0.221 C 
HETATM    2  O1  UNL     1       1.068  -1.979  -0.391  1.00  0.00    -0.273 OA
HETATM    3  N3  UNL     1      -0.832  -0.819   0.342  1.00  0.00    -0.352 N 
HETATM    4  C7  UNL     1      -1.445   0.451   0.673  1.00  0.00     0.129 C 
HETATM    5  C8  UNL     1      -2.673   0.607  -0.236  1.00  0.00     0.058 C 
HETATM    6  C9  UNL     1      -3.628  -0.500   0.133  1.00  0.00     0.066 C 
HETATM    7  C10 UNL     1      -2.967  -1.821  -0.189  1.00  0.00     0.058 C 
HETATM    8  C11 UNL     1      -1.628  -2.006   0.458  1.00  0.00     0.129 C 
HETATM    9  C12 UNL     1      -4.864  -0.426  -0.738  1.00  0.00     0.070 C 
HETATM   10  C13 UNL     1      -5.649   0.800  -0.405  1.00  0.00     0.123 C 
HETATM   11  C14 UNL     1      -5.908   0.840   1.076  1.00  0.00     0.058 C 
HETATM   12  C15 UNL     1      -5.152  -0.171   1.872  1.00  0.00     0.171 C 
HETATM   13  O3  UNL     1      -3.872  -0.429   1.475  1.00  0.00    -0.380 OA
ENDROOT
BRANCH   1  14
HETATM   14  C5  UNL     1       1.362   0.366  -0.166  1.00  0.00     0.133 C 
BRANCH  14  15
HETATM   15  C4  UNL     1       2.691   0.016  -0.763  1.00  0.00     0.282 C 
BRANCH  15  16
HETATM   16  N2  UNL     1       3.568   1.135  -0.908  1.00  0.00     0.098 N 
HETATM   17  C3  UNL     1       4.756   0.768  -1.689  1.00  0.00     0.317 C 
HETATM   18  C2  UNL     1       5.661  -0.167  -0.956  1.00  0.00     0.092 C 
HETATM   19  N1  UNL     1       5.747   0.052   0.433  1.00  0.00    -0.375 N 
HETATM   20  C1  UNL     1       6.457  -0.869   1.208  1.00  0.00     0.154 C 
HETATM   21  C17 UNL     1       5.160   1.173   0.994  1.00  0.00     0.092 C 
HETATM   22  C16 UNL     1       3.971   1.780   0.321  1.00  0.00     0.317 C 
ENDBRANCH  15  16
ENDBRANCH  14  15
ENDBRANCH   1  14
BRANCH  10  23
HETATM   23  O2  UNL     1      -6.822   0.776  -1.164  1.00  0.00    -0.395 OA
ATOM     24  H2  UNL     1      -7.321   1.556  -0.952  1.00  0.00     0.210 HD
ENDBRANCH  10  23
TORSDOF 4
