REMARK  3 active torsions:
REMARK  status: ('A' for Active; 'I' for Inactive)
REMARK    1  A    between atoms: C1_4  and  N2_5 
REMARK    2  A    between atoms: N2_5  and  C2_7 
REMARK    3  A    between atoms: C2_7  and  C3_8 
ROOT
HETATM    1  C3  UNL     1       0.418  -0.012   0.423  1.00  0.00     0.030 C 
HETATM    2  C4  UNL     1       1.630  -0.955   0.416  1.00  0.00     0.035 C 
HETATM    3  C5  UNL     1       2.754   0.019   0.229  1.00  0.00     0.232 C 
HETATM    4  N3  UNL     1       2.186   1.321  -0.075  1.00  0.00    -0.075 N 
ATOM      5  H31 UNL     1       2.769   1.925  -0.655  1.00  0.00     0.277 HD
ATOM      6  H32 UNL     1       2.136   1.968   0.712  1.00  0.00     0.277 HD
HETATM    7  C6  UNL     1       0.888   0.947  -0.664  1.00  0.00     0.238 C 
ENDROOT
BRANCH   1   8
HETATM    8  C2  UNL     1      -0.846  -0.722   0.103  1.00  0.00     0.126 C 
BRANCH   8   9
HETATM    9  N2  UNL     1      -1.973   0.187   0.122  1.00  0.00    -0.386 N 
ATOM     10  H2  UNL     1      -1.855   1.187   0.283  1.00  0.00     0.160 HD
BRANCH   9  11
HETATM   11  C1  UNL     1      -3.252  -0.391  -0.096  1.00  0.00     0.168 C 
HETATM   12  N1  UNL     1      -4.072   0.164  -0.877  1.00  0.00    -0.396 N 
ATOM     13  H12 UNL     1      -3.801   1.029  -1.345  1.00  0.00     0.156 HD
ATOM     14  H11 UNL     1      -4.990  -0.251  -1.034  1.00  0.00     0.156 HD
ENDBRANCH   9  11
ENDBRANCH   8   9
ENDBRANCH   1   8
TORSDOF 3
