REMARK  3 active torsions:
REMARK  status: ('A' for Active; 'I' for Inactive)
REMARK    1  A    between atoms: N1_1  and  N2_4 
REMARK    2  A    between atoms: N2_4  and  C1_5 
REMARK    3  A    between atoms: N4_11  and  C5_13 
ROOT
HETATM    1  C1  UNL     1       0.587   0.298  -0.476  1.00  0.00     0.167 C 
HETATM    2  C2  UNL     1       1.071  -1.040  -0.006  1.00  0.00     0.050 C 
HETATM    3  C3  UNL     1      -0.149  -1.913  -0.211  1.00  0.00     0.123 C 
HETATM    4  N3  UNL     1      -1.193  -1.057   0.371  1.00  0.00    -0.378 N 
ATOM      5  H3  UNL     1      -1.978  -1.336   0.960  1.00  0.00     0.160 HD
HETATM    6  C4  UNL     1      -0.855   0.255  -0.079  1.00  0.00     0.100 C 
HETATM    7  N4  UNL     1      -1.646   1.280  -0.148  1.00  0.00    -0.323 N 
ATOM      8  H4  UNL     1      -1.277   2.168  -0.489  1.00  0.00     0.169 HD
ENDROOT
BRANCH   1   9
HETATM    9  N2  UNL     1       1.313   1.313   0.237  1.00  0.00    -0.136 NA
BRANCH   9  10
HETATM   10  N1  UNL     1       2.660   1.212   0.009  1.00  0.00    -0.348 N 
ATOM     11  H12 UNL     1       3.078   0.502  -0.592  1.00  0.00     0.172 HD
ATOM     12  H11 UNL     1       3.175   1.932   0.515  1.00  0.00     0.172 HD
ENDBRANCH   9  10
ENDBRANCH   1   9
BRANCH   7  13
HETATM   13  C5  UNL     1      -2.999   1.204   0.234  1.00  0.00     0.354 C 
HETATM   14  O1  UNL     1      -3.863   1.760  -0.472  1.00  0.00    -0.283 OA
ENDBRANCH   7  13
TORSDOF 3
