REMARK  3 active torsions:
REMARK  status: ('A' for Active; 'I' for Inactive)
REMARK    1  A    between atoms: C1_4  and  N2_5 
REMARK    2  A    between atoms: N2_5  and  N3_7 
REMARK    3  A    between atoms: C2_9  and  C3_10 
ROOT
HETATM    1  N3  UNL     1       1.071  -0.002  -0.085  1.00  0.00    -0.309 N 
ATOM      2  H3  UNL     1       0.983  -0.078  -1.098  1.00  0.00     0.186 HD
HETATM    3  C2  UNL     1       0.017   0.095   0.623  1.00  0.00     0.138 C 
ENDROOT
BRANCH   1   4
HETATM    4  N2  UNL     1       2.327  -0.007   0.482  1.00  0.00    -0.297 N 
ATOM      5  H2  UNL     1       2.422   0.086   1.493  1.00  0.00     0.187 HD
BRANCH   4   6
HETATM    6  C1  UNL     1       3.484  -0.139  -0.314  1.00  0.00     0.190 C 
HETATM    7  N1  UNL     1       4.666   0.069   0.175  1.00  0.00    -0.394 N 
ATOM      8  H12 UNL     1       4.744   0.333   1.157  1.00  0.00     0.156 HD
ATOM      9  H11 UNL     1       5.503  -0.026  -0.401  1.00  0.00     0.156 HD
ENDBRANCH   4   6
ENDBRANCH   1   4
BRANCH   3  10
HETATM   10  C3  UNL     1      -1.283   0.097  -0.024  1.00  0.00     0.065 A 
HETATM   11  C4  UNL     1      -2.536   0.191   0.551  1.00  0.00     0.119 A 
HETATM   12  N4  UNL     1      -3.468   0.155  -0.387  1.00  0.00    -0.360 N 
HETATM   13  C5  UNL     1      -2.857   0.038  -1.579  1.00  0.00     0.180 A 
ATOM     14  H4  UNL     1      -4.475   0.207  -0.233  1.00  0.00     0.166 HD
HETATM   15  N5  UNL     1      -1.531   0.002  -1.366  1.00  0.00    -0.350 N 
ATOM     16  H5  UNL     1      -0.820  -0.083  -2.092  1.00  0.00     0.166 HD
ENDBRANCH   3  10
TORSDOF 3
