REMARK  5 active torsions:
REMARK  status: ('A' for Active; 'I' for Inactive)
REMARK    1  A    between atoms: N1_1  and  C1_5 
REMARK    2  A    between atoms: C1_5  and  C2_6 
REMARK    3  A    between atoms: C3_7  and  N2_8 
REMARK    4  A    between atoms: C4_12  and  C5_13 
REMARK    5  A    between atoms: C5_13  and  N3_14 
ROOT
HETATM    1  C2  UNL     1      -0.419   0.450  -0.003  1.00  0.00     0.049 A 
HETATM    2  C3  UNL     1       0.274   0.101   1.244  1.00  0.00     0.195 A 
HETATM    3  C4  UNL     1       0.559  -0.723   0.037  1.00  0.00     0.049 A 
ENDROOT
BRANCH   1   4
HETATM    4  C1  UNL     1      -1.847   0.125  -0.269  1.00  0.00     0.236 C 
BRANCH   4   5
HETATM    5  N1  UNL     1      -2.184   0.618  -1.593  1.00  0.00    -0.079 N 
ATOM      6  H13 UNL     1      -1.978   1.610  -1.708  1.00  0.00     0.274 HD
ATOM      7  H12 UNL     1      -1.558   0.263  -2.316  1.00  0.00     0.274 HD
ATOM      8  H11 UNL     1      -3.163   0.395  -1.775  1.00  0.00     0.274 HD
ENDBRANCH   4   5
ENDBRANCH   1   4
BRANCH   2   9
HETATM    9  N2  UNL     1      -0.360  -0.583   2.333  1.00  0.00    -0.074 N 
ATOM     10  H23 UNL     1      -1.189  -0.046   2.587  1.00  0.00     0.274 HD
ATOM     11  H22 UNL     1      -0.761  -1.443   1.958  1.00  0.00     0.274 HD
ATOM     12  H21 UNL     1       0.121  -0.825   3.199  1.00  0.00     0.274 HD
ENDBRANCH   2   9
BRANCH   3  13
HETATM   13  C5  UNL     1       1.848  -0.511  -0.729  1.00  0.00     0.236 C 
BRANCH  13  14
HETATM   14  N3  UNL     1       2.585   0.613  -0.227  1.00  0.00    -0.079 N 
ATOM     15  H33 UNL     1       2.014   1.458  -0.219  1.00  0.00     0.274 HD
ATOM     16  H32 UNL     1       2.757   0.527   0.775  1.00  0.00     0.274 HD
ATOM     17  H31 UNL     1       3.453   0.756  -0.743  1.00  0.00     0.274 HD
ENDBRANCH  13  14
ENDBRANCH   3  13
TORSDOF 5
