REMARK  3 active torsions:
REMARK  status: ('A' for Active; 'I' for Inactive)
REMARK    1  A    between atoms: N1_1  and  C1_5 
REMARK    2  A    between atoms: C1_5  and  C2_6 
REMARK    3  A    between atoms: C4_8  and  N2_9 
ROOT
HETATM    1  C2  UNL     1      -0.688  -0.384   0.654  1.00  0.00     0.213 C 
HETATM    2  C3  UNL     1       0.329   0.740   0.681  1.00  0.00     0.069 C 
HETATM    3  C4  UNL     1       1.596  -0.094   0.443  1.00  0.00     0.211 C 
HETATM    4  C5  UNL     1       1.112  -0.976  -0.699  1.00  0.00     0.265 C 
HETATM    5  N3  UNL     1      -0.320  -1.090  -0.552  1.00  0.00    -0.067 N 
ATOM      6  H31 UNL     1      -0.832  -0.768  -1.374  1.00  0.00     0.277 HD
ATOM      7  H32 UNL     1      -0.646  -2.057  -0.563  1.00  0.00     0.277 HD
ENDROOT
BRANCH   1   8
HETATM    8  C1  UNL     1      -2.100   0.132   0.619  1.00  0.00     0.262 C 
BRANCH   8   9
HETATM    9  N1  UNL     1      -2.366   0.947  -0.538  1.00  0.00    -0.077 N 
ATOM     10  H13 UNL     1      -1.695   1.712  -0.608  1.00  0.00     0.274 HD
ATOM     11  H12 UNL     1      -2.138   0.448  -1.398  1.00  0.00     0.274 HD
ATOM     12  H11 UNL     1      -3.324   1.297  -0.562  1.00  0.00     0.274 HD
ENDBRANCH   8   9
ENDBRANCH   1   8
BRANCH   3  13
HETATM   13  N2  UNL     1       2.706   0.692   0.042  1.00  0.00    -0.073 N 
ATOM     14  H23 UNL     1       2.479   1.252  -0.779  1.00  0.00     0.274 HD
ATOM     15  H22 UNL     1       2.883   1.442   0.711  1.00  0.00     0.274 HD
ATOM     16  H21 UNL     1       3.548   0.138  -0.116  1.00  0.00     0.274 HD
ENDBRANCH   3  13
TORSDOF 3
