REMARK  3 active torsions:
REMARK  status: ('A' for Active; 'I' for Inactive)
REMARK    1  A    between atoms: N1_1  and  C1_5 
REMARK    2  A    between atoms: C1_5  and  C2_6 
REMARK    3  A    between atoms: C2_6  and  C3_7 
ROOT
HETATM    1  C3  UNL     1      -0.168   0.330   0.196  1.00  0.00     0.384 C 
HETATM    2  N2  UNL     1      -1.260   0.786   1.065  1.00  0.00    -0.044 N 
ATOM      3  H21 UNL     1      -1.173   1.753   1.378  1.00  0.00     0.279 HD
ATOM      4  H22 UNL     1      -1.259   0.370   1.996  1.00  0.00     0.279 HD
HETATM    5  C4  UNL     1      -2.446   0.515   0.295  1.00  0.00     0.262 C 
HETATM    6  C5  UNL     1      -2.029  -0.359  -0.859  1.00  0.00     0.262 C 
HETATM    7  N3  UNL     1      -0.653  -0.767  -0.557  1.00  0.00    -0.044 N 
ATOM      8  H31 UNL     1      -0.565  -1.674  -0.099  1.00  0.00     0.279 HD
ATOM      9  H32 UNL     1      -0.089  -1.012  -1.371  1.00  0.00     0.279 HD
ENDROOT
BRANCH   1  10
HETATM   10  C2  UNL     1       0.996   0.031   1.089  1.00  0.00     0.089 C 
BRANCH  10  11
HETATM   11  C1  UNL     1       2.214  -0.452   0.376  1.00  0.00     0.233 C 
BRANCH  11  12
HETATM   12  N1  UNL     1       2.662   0.572  -0.581  1.00  0.00    -0.079 N 
ATOM     13  H13 UNL     1       1.921   0.847  -1.226  1.00  0.00     0.274 HD
ATOM     14  H12 UNL     1       2.810   1.477  -0.135  1.00  0.00     0.274 HD
ATOM     15  H11 UNL     1       3.495   0.242  -1.069  1.00  0.00     0.274 HD
ENDBRANCH  11  12
ENDBRANCH  10  11
ENDBRANCH   1  10
TORSDOF 3
