REMARK  4 active torsions:
REMARK  status: ('A' for Active; 'I' for Inactive)
REMARK    1  A    between atoms: C2_2  and  C3_3 
REMARK    2  A    between atoms: C3_3  and  C5_5 
REMARK    3  A    between atoms: C5_5  and  C6_6 
REMARK    4  A    between atoms: C6_6  and  C7_7 
ROOT
HETATM    1  C7  UNL     1       0.419  -0.954   0.359  1.00  0.00     0.002 C 
HETATM    2  C8  UNL     1      -0.209  -2.308   0.058  1.00  0.00    -0.043 C 
HETATM    3  C9  UNL     1      -0.342  -2.588  -1.402  1.00  0.00     0.015 C 
HETATM    4  C10 UNL     1       0.738  -3.367   0.634  1.00  0.00     0.015 C 
HETATM    5  C11 UNL     1      -1.525  -2.508   0.719  1.00  0.00     0.010 C 
HETATM    6  C12 UNL     1      -2.461  -1.495   0.057  1.00  0.00     0.007 C 
HETATM    7  C13 UNL     1      -1.997  -0.159   0.540  1.00  0.00     0.004 C 
HETATM    8  C14 UNL     1      -2.798   0.964  -0.084  1.00  0.00    -0.011 C 
HETATM    9  C15 UNL     1      -3.188   2.061   0.839  1.00  0.00     0.039 C 
HETATM   10  C16 UNL     1      -4.563   2.528   0.336  1.00  0.00     0.233 C 
HETATM   11  N1  UNL     1      -4.823   1.784  -0.859  1.00  0.00    -0.074 N 
ATOM     12  H11 UNL     1      -4.523   2.235  -1.723  1.00  0.00     0.277 HD
ATOM     13  H12 UNL     1      -5.806   1.718  -1.122  1.00  0.00     0.277 HD
HETATM   14  C17 UNL     1      -4.168   0.498  -0.565  1.00  0.00     0.242 C 
HETATM   15  C18 UNL     1      -1.934   1.426  -1.204  1.00  0.00     0.012 C 
HETATM   16  C19 UNL     1      -0.514   1.054  -0.856  1.00  0.00     0.011 C 
HETATM   17  C20 UNL     1      -0.571   0.171   0.344  1.00  0.00    -0.035 C 
HETATM   18  C21 UNL     1      -0.236   1.107   1.543  1.00  0.00     0.016 C 
ENDROOT
BRANCH   1  19
HETATM   19  C6  UNL     1       1.570  -0.882  -0.556  1.00  0.00     0.006 C 
BRANCH  19  20
HETATM   20  C5  UNL     1       2.507   0.230  -0.600  1.00  0.00     0.005 C 
BRANCH  20  21
HETATM   21  C3  UNL     1       3.321   0.553   0.596  1.00  0.00    -0.019 C 
HETATM   22  C4  UNL     1       4.307  -0.543   0.953  1.00  0.00     0.010 C 
BRANCH  21  23
HETATM   23  C2  UNL     1       4.199   1.764   0.231  1.00  0.00    -0.000 C 
HETATM   24  C1  UNL     1       5.102   1.471  -0.919  1.00  0.00     0.005 C 
ENDBRANCH  21  23
ENDBRANCH  20  21
ENDBRANCH  19  20
ENDBRANCH   1  19
TORSDOF 4
