REMARK  6 active torsions:
REMARK  status: ('A' for Active; 'I' for Inactive)
REMARK    1  A    between atoms: C2_2  and  C3_3 
REMARK    2  A    between atoms: C3_3  and  C4_4 
REMARK    3  A    between atoms: C4_4  and  C5_5 
REMARK    4  A    between atoms: C5_5  and  C6_6 
REMARK    5  A    between atoms: C6_6  and  C8_8 
REMARK    6  A    between atoms: C18_18  and  N1_19 
ROOT
HETATM    1  C8  UNL     1       0.475  -0.886  -0.807  1.00  0.00    -0.003 C 
HETATM    2  C9  UNL     1       0.456  -0.332  -2.205  1.00  0.00     0.005 C 
HETATM    3  C10 UNL     1      -0.819   0.424  -2.504  1.00  0.00     0.001 C 
HETATM    4  C11 UNL     1      -2.053  -0.399  -2.153  1.00  0.00     0.010 C 
HETATM    5  C12 UNL     1      -1.962  -1.055  -0.805  1.00  0.00    -0.036 C 
HETATM    6  C13 UNL     1      -1.596  -2.509  -1.036  1.00  0.00     0.016 C 
HETATM    7  C14 UNL     1      -0.752  -0.418  -0.108  1.00  0.00    -0.001 C 
HETATM    8  C15 UNL     1      -0.825  -0.680   1.353  1.00  0.00     0.006 C 
HETATM    9  C16 UNL     1      -2.006   0.124   1.900  1.00  0.00     0.007 C 
HETATM   10  C17 UNL     1      -3.231   0.023   1.091  1.00  0.00     0.021 C 
HETATM   11  C18 UNL     1      -3.689   1.287   0.424  1.00  0.00     0.188 C 
HETATM   12  C19 UNL     1      -4.804   0.749  -0.477  1.00  0.00     0.033 C 
HETATM   13  C20 UNL     1      -4.456  -0.698  -0.747  1.00  0.00     0.008 C 
HETATM   14  C21 UNL     1      -3.202  -1.018   0.003  1.00  0.00     0.000 C 
ENDROOT
BRANCH   1  15
HETATM   15  C6  UNL     1       1.772  -0.520  -0.091  1.00  0.00     0.008 C 
HETATM   16  C7  UNL     1       2.844  -1.318  -0.752  1.00  0.00     0.014 C 
BRANCH  15  17
HETATM   17  C5  UNL     1       1.991   0.906   0.054  1.00  0.00    -0.022 C 
BRANCH  17  18
HETATM   18  C4  UNL     1       3.018   1.548   0.846  1.00  0.00    -0.008 C 
BRANCH  18  19
HETATM   19  C3  UNL     1       4.454   1.508   0.782  1.00  0.00    -0.027 C 
BRANCH  19  20
HETATM   20  C2  UNL     1       5.280   0.333   1.055  1.00  0.00     0.022 C 
HETATM   21  C1  UNL     1       6.770   0.775   0.937  1.00  0.00     0.009 C 
ENDBRANCH  19  20
ENDBRANCH  18  19
ENDBRANCH  17  18
ENDBRANCH  15  17
ENDBRANCH   1  15
BRANCH  11  22
HETATM   22  N1  UNL     1      -4.256   2.140   1.472  1.00  0.00    -0.075 N 
ATOM     23  H13 UNL     1      -4.991   1.681   2.009  1.00  0.00     0.274 HD
ATOM     24  H12 UNL     1      -3.613   2.305   2.247  1.00  0.00     0.274 HD
ATOM     25  H11 UNL     1      -4.567   2.999   1.019  1.00  0.00     0.274 HD
ENDBRANCH  11  22
TORSDOF 6
