REMARK  4 active torsions:
REMARK  status: ('A' for Active; 'I' for Inactive)
REMARK    1  A    between atoms: C2_2  and  C4_4 
REMARK    2  A    between atoms: C8_8  and  C10_10 
REMARK    3  A    between atoms: C10_10  and  C11_11 
REMARK    4  A    between atoms: C11_11  and  C12_12 
ROOT
HETATM    1  C4  UNL     1      -2.206   1.005   0.513  1.00  0.00    -0.002 C 
HETATM    2  C5  UNL     1      -1.445   2.309   0.248  1.00  0.00     0.006 C 
HETATM    3  C6  UNL     1      -0.312   1.886  -0.661  1.00  0.00     0.006 C 
HETATM    4  C7  UNL     1       0.018   0.541  -0.039  1.00  0.00     0.003 C 
HETATM    5  C8  UNL     1       0.748  -0.262  -1.070  1.00  0.00    -0.036 C 
HETATM    6  C9  UNL     1       0.845   0.468  -2.405  1.00  0.00     0.016 C 
HETATM    7  C15 UNL     1      -0.118  -1.444  -1.300  1.00  0.00    -0.005 C 
HETATM    8  C16 UNL     1       0.174  -2.603  -0.444  1.00  0.00     0.005 C 
HETATM    9  C17 UNL     1      -1.050  -3.290   0.118  1.00  0.00     0.000 C 
HETATM   10  C18 UNL     1      -1.717  -2.449   1.138  1.00  0.00     0.001 C 
HETATM   11  C19 UNL     1      -1.151  -1.081   1.340  1.00  0.00     0.010 C 
HETATM   12  C20 UNL     1      -1.349  -0.124   0.191  1.00  0.00    -0.032 C 
HETATM   13  C21 UNL     1      -1.526  -0.861  -1.070  1.00  0.00     0.015 C 
ENDROOT
BRANCH   5  14
HETATM   14  C10 UNL     1       2.149  -0.526  -0.634  1.00  0.00     0.012 C 
BRANCH  14  15
HETATM   15  C11 UNL     1       2.943   0.750  -0.420  1.00  0.00     0.034 C 
BRANCH  15  16
HETATM   16  C12 UNL     1       4.356   0.433   0.021  1.00  0.00     0.187 C 
HETATM   17  C13 UNL     1       4.472  -0.339   1.304  1.00  0.00     0.060 C 
HETATM   18  C14 UNL     1       5.592   0.631   1.637  1.00  0.00     0.235 C 
HETATM   19  N1  UNL     1       4.974   1.570   0.722  1.00  0.00    -0.071 N 
ATOM     20  H12 UNL     1       5.542   2.246   0.212  1.00  0.00     0.277 HD
ATOM     21  H11 UNL     1       4.399   2.335   1.075  1.00  0.00     0.277 HD
ENDBRANCH  15  16
ENDBRANCH  14  15
ENDBRANCH   5  14
BRANCH   1  22
HETATM   22  C2  UNL     1      -3.548   1.155  -0.063  1.00  0.00    -0.018 C 
HETATM   23  C1  UNL     1      -4.500   0.005   0.063  1.00  0.00     0.010 C 
HETATM   24  C3  UNL     1      -4.255   2.350   0.550  1.00  0.00     0.010 C 
ENDBRANCH   1  22
TORSDOF 4
