REMARK  6 active torsions:
REMARK  status: ('A' for Active; 'I' for Inactive)
REMARK    1  A    between atoms: C2_2  and  C3_3 
REMARK    2  A    between atoms: C3_3  and  C4_4 
REMARK    3  A    between atoms: C4_4  and  C5_5 
REMARK    4  A    between atoms: C5_5  and  C6_6 
REMARK    5  A    between atoms: C6_6  and  C8_8 
REMARK    6  A    between atoms: C15_15  and  N1_17 
ROOT
HETATM    1  C8  UNL     1       0.714  -0.508  -0.502  1.00  0.00    -0.002 C 
HETATM    2  C9  UNL     1       0.394   0.928  -0.970  1.00  0.00     0.006 C 
HETATM    3  C10 UNL     1      -0.884   0.715  -1.738  1.00  0.00     0.006 C 
HETATM    4  C11 UNL     1      -1.518  -0.504  -1.210  1.00  0.00    -0.002 C 
HETATM    5  C12 UNL     1      -2.919  -0.429  -0.795  1.00  0.00    -0.003 C 
HETATM    6  C13 UNL     1      -3.885   0.094  -1.811  1.00  0.00     0.008 C 
HETATM    7  C14 UNL     1      -5.019   0.694  -1.005  1.00  0.00     0.039 C 
HETATM    8  C15 UNL     1      -4.606   0.604   0.455  1.00  0.00     0.124 C 
HETATM    9  C16 UNL     1      -5.249  -0.569   1.145  1.00  0.00     0.046 C 
HETATM   10  C17 UNL     1      -3.127   0.526   0.374  1.00  0.00     0.025 C 
HETATM   11  C18 UNL     1      -2.471  -0.155   1.551  1.00  0.00     0.008 C 
HETATM   12  C19 UNL     1      -1.011  -0.316   1.268  1.00  0.00     0.010 C 
HETATM   13  C20 UNL     1      -0.649  -0.926  -0.037  1.00  0.00    -0.036 C 
HETATM   14  C21 UNL     1      -0.715  -2.430   0.109  1.00  0.00     0.016 C 
ENDROOT
BRANCH   1  15
HETATM   15  C6  UNL     1       1.767  -0.427   0.574  1.00  0.00    -0.014 C 
HETATM   16  C7  UNL     1       2.131  -1.786   1.065  1.00  0.00     0.010 C 
BRANCH  15  17
HETATM   17  C5  UNL     1       3.013   0.270   0.083  1.00  0.00     0.005 C 
BRANCH  17  18
HETATM   18  C4  UNL     1       3.982   0.441   1.209  1.00  0.00     0.000 C 
BRANCH  18  19
HETATM   19  C3  UNL     1       5.256   1.163   0.805  1.00  0.00    -0.000 C 
BRANCH  19  20
HETATM   20  C2  UNL     1       5.954   0.378  -0.271  1.00  0.00    -0.005 C 
HETATM   21  C1  UNL     1       7.251   1.068  -0.692  1.00  0.00     0.005 C 
ENDBRANCH  19  20
ENDBRANCH  18  19
ENDBRANCH  17  18
ENDBRANCH  15  17
ENDBRANCH   1  15
BRANCH   8  22
HETATM   22  N1  UNL     1      -5.091   1.809   1.115  1.00  0.00    -0.070 N 
ATOM     23  H13 UNL     1      -4.775   2.667   0.663  1.00  0.00     0.275 HD
ATOM     24  H12 UNL     1      -6.093   1.956   0.992  1.00  0.00     0.275 HD
ATOM     25  H11 UNL     1      -4.814   1.749   2.095  1.00  0.00     0.275 HD
ENDBRANCH   8  22
TORSDOF 6
