REMARK  5 active torsions:
REMARK  status: ('A' for Active; 'I' for Inactive)
REMARK    1  A    between atoms: C2_2  and  C4_4 
REMARK    2  A    between atoms: C4_4  and  C5_5 
REMARK    3  A    between atoms: C5_5  and  C6_6 
REMARK    4  A    between atoms: C6_6  and  O1_7 
REMARK    5  A    between atoms: C6_6  and  C7_9 
ROOT
HETATM    1  C7  UNL     1       1.262  -0.718   0.086  1.00  0.00     0.015 C 
HETATM    2  C8  UNL     1       0.739   0.545   0.668  1.00  0.00     0.007 C 
HETATM    3  C9  UNL     1      -0.553   1.028   0.039  1.00  0.00     0.006 C 
HETATM    4  C10 UNL     1      -1.603   0.011  -0.078  1.00  0.00    -0.002 C 
HETATM    5  C11 UNL     1      -1.071  -1.358   0.380  1.00  0.00    -0.009 C 
HETATM    6  C12 UNL     1      -2.077  -2.440   0.215  1.00  0.00     0.005 C 
HETATM    7  C13 UNL     1      -3.383  -2.038  -0.337  1.00  0.00     0.006 C 
HETATM    8  C14 UNL     1      -3.911  -0.698   0.095  1.00  0.00    -0.006 C 
HETATM    9  C15 UNL     1      -4.691  -0.176  -1.066  1.00  0.00     0.005 C 
HETATM   10  C16 UNL     1      -5.151   1.230  -0.975  1.00  0.00     0.000 C 
HETATM   11  C17 UNL     1      -3.883   2.072  -0.756  1.00  0.00     0.001 C 
HETATM   12  C18 UNL     1      -3.393   1.655   0.606  1.00  0.00     0.010 C 
HETATM   13  C19 UNL     1      -2.877   0.235   0.640  1.00  0.00    -0.036 C 
HETATM   14  C20 UNL     1      -2.673  -0.024   2.144  1.00  0.00     0.016 C 
HETATM   15  C21 UNL     1       0.174  -1.629  -0.437  1.00  0.00     0.012 C 
ENDROOT
BRANCH   1  16
HETATM   16  C6  UNL     1       2.257  -0.525  -1.020  1.00  0.00     0.122 C 
BRANCH  16  17
HETATM   17  C5  UNL     1       3.484   0.227  -0.629  1.00  0.00     0.032 C 
BRANCH  17  18
HETATM   18  C4  UNL     1       4.226  -0.402   0.516  1.00  0.00     0.006 C 
BRANCH  18  19
HETATM   19  C2  UNL     1       5.465   0.398   0.875  1.00  0.00    -0.023 C 
HETATM   20  C1  UNL     1       5.138   1.809   1.284  1.00  0.00     0.009 C 
HETATM   21  C3  UNL     1       6.465   0.424  -0.235  1.00  0.00     0.009 C 
ENDBRANCH  18  19
ENDBRANCH  17  18
ENDBRANCH  16  17
BRANCH  16  22
HETATM   22  O1  UNL     1       2.680  -1.823  -1.398  1.00  0.00    -0.395 OA
ATOM     23  H1  UNL     1       1.898  -2.302  -1.647  1.00  0.00     0.210 HD
ENDBRANCH  16  22
ENDBRANCH   1  16
TORSDOF 5
