REMARK  5 active torsions:
REMARK  status: ('A' for Active; 'I' for Inactive)
REMARK    1  A    between atoms: C2_2  and  C3_3 
REMARK    2  A    between atoms: C2_2  and  C10_10 
REMARK    3  A    between atoms: C3_3  and  C4_4 
REMARK    4  A    between atoms: C4_4  and  C5_5 
REMARK    5  A    between atoms: C5_5  and  C6_6 
ROOT
HETATM    1  C10 UNL     1      -0.906  -1.414  -0.604  1.00  0.00     0.022 C 
HETATM    2  C11 UNL     1      -1.174  -2.380   0.514  1.00  0.00     0.010 C 
HETATM    3  C12 UNL     1      -2.453  -1.859   1.154  1.00  0.00     0.006 C 
HETATM    4  C13 UNL     1      -2.805  -0.635   0.409  1.00  0.00    -0.004 C 
HETATM    5  C14 UNL     1      -3.610   0.396   1.084  1.00  0.00     0.029 C 
HETATM    6  C15 UNL     1      -3.972   1.470   0.087  1.00  0.00     0.046 C 
HETATM    7  C16 UNL     1      -5.484   1.439  -0.224  1.00  0.00     0.031 C 
HETATM    8  C17 UNL     1      -3.765   2.837   0.625  1.00  0.00     0.069 C 
HETATM    9  N1  UNL     1      -3.583   3.900   1.051  1.00  0.00    -0.196 NA
HETATM   10  C18 UNL     1      -3.282   1.235  -1.198  1.00  0.00     0.025 C 
HETATM   11  C19 UNL     1      -1.851   0.842  -1.185  1.00  0.00     0.012 C 
HETATM   12  C20 UNL     1      -1.439  -0.133  -0.105  1.00  0.00    -0.033 C 
HETATM   13  C21 UNL     1      -0.723   0.498   1.029  1.00  0.00     0.016 C 
ENDROOT
BRANCH   1  14
HETATM   14  C2  UNL     1       0.418  -1.536  -1.247  1.00  0.00    -0.083 C 
HETATM   15  C1  UNL     1       0.747  -0.583  -2.334  1.00  0.00     0.043 C 
BRANCH  14  16
HETATM   16  C3  UNL     1       1.543  -2.076  -0.439  1.00  0.00    -0.024 C 
BRANCH  16  17
HETATM   17  C4  UNL     1       2.436  -1.230   0.351  1.00  0.00     0.028 C 
BRANCH  17  18
HETATM   18  C5  UNL     1       3.223  -0.178  -0.390  1.00  0.00     0.012 C 
BRANCH  18  19
HETATM   19  C6  UNL     1       4.136   0.597   0.546  1.00  0.00    -0.051 C 
HETATM   20  C7  UNL     1       5.133  -0.267   1.241  1.00  0.00     0.014 C 
HETATM   21  C8  UNL     1       3.315   1.355   1.547  1.00  0.00     0.014 C 
HETATM   22  C9  UNL     1       4.884   1.599  -0.310  1.00  0.00     0.014 C 
ENDBRANCH  18  19
ENDBRANCH  17  18
ENDBRANCH  16  17
ENDBRANCH  14  16
ENDBRANCH   1  14
TORSDOF 5
