REMARK  7 active torsions:
REMARK  status: ('A' for Active; 'I' for Inactive)
REMARK    1  A    between atoms: C11_11  and  C12_12 
REMARK    2  A    between atoms: C12_12  and  C13_13 
REMARK    3  A    between atoms: C13_13  and  C14_14 
REMARK    4  A    between atoms: C14_14  and  C15_15 
REMARK    5  A    between atoms: C16_16  and  C17_17 
REMARK    6  A    between atoms: C17_17  and  C18_18 
REMARK    7  A    between atoms: C18_18  and  N1_19 
ROOT
HETATM    1  C1  UNL     1      -5.074   2.035   0.433  1.00  0.00     0.015 C 
HETATM    2  C2  UNL     1      -4.973   0.510   0.564  1.00  0.00    -0.044 C 
HETATM    3  C3  UNL     1      -5.579   0.193   1.941  1.00  0.00     0.015 C 
HETATM    4  C4  UNL     1      -5.799  -0.182  -0.452  1.00  0.00     0.009 C 
HETATM    5  C5  UNL     1      -5.084  -0.705  -1.636  1.00  0.00     0.001 C 
HETATM    6  C6  UNL     1      -3.718  -1.259  -1.360  1.00  0.00     0.005 C 
HETATM    7  C7  UNL     1      -2.911  -0.155  -0.709  1.00  0.00    -0.005 C 
HETATM    8  C8  UNL     1      -1.536  -0.663  -0.439  1.00  0.00    -0.006 C 
HETATM    9  C9  UNL     1      -0.746  -1.024  -1.644  1.00  0.00     0.006 C 
HETATM   10  C10 UNL     1       0.690  -0.971  -1.100  1.00  0.00     0.005 C 
HETATM   11  C11 UNL     1       0.640  -0.099   0.136  1.00  0.00    -0.010 C 
HETATM   12  C19 UNL     1      -0.731   0.526   0.111  1.00  0.00    -0.006 C 
HETATM   13  C20 UNL     1      -1.283   0.828   1.461  1.00  0.00     0.006 C 
HETATM   14  C21 UNL     1      -2.737   1.244   1.284  1.00  0.00     0.006 C 
HETATM   15  C22 UNL     1      -3.546   0.151   0.617  1.00  0.00    -0.002 C 
ENDROOT
BRANCH  11  16
HETATM   16  C12 UNL     1       1.761   0.909   0.052  1.00  0.00     0.006 C 
BRANCH  16  17
HETATM   17  C13 UNL     1       3.068   0.165  -0.010  1.00  0.00     0.012 C 
BRANCH  17  18
HETATM   18  C14 UNL     1       4.251   1.107  -0.096  1.00  0.00     0.094 C 
BRANCH  18  19
HETATM   19  C15 UNL     1       5.507   0.362  -0.155  1.00  0.00    -0.107 C 
HETATM   20  C16 UNL     1       6.563  -0.241  -0.206  1.00  0.00    -0.105 C 
BRANCH  20  21
HETATM   21  C17 UNL     1       7.840  -0.961  -0.278  1.00  0.00     0.121 C 
BRANCH  21  22
HETATM   22  C18 UNL     1       8.936  -0.008   0.197  1.00  0.00     0.241 C 
BRANCH  22  23
HETATM   23  N1  UNL     1      10.188  -0.745   0.115  1.00  0.00    -0.079 N 
ATOM     24  H13 UNL     1      10.171  -1.628   0.626  1.00  0.00     0.274 HD
ATOM     25  H12 UNL     1      10.366  -1.137  -0.810  1.00  0.00     0.274 HD
ATOM     26  H11 UNL     1      10.920  -0.109   0.432  1.00  0.00     0.274 HD
ENDBRANCH  22  23
ENDBRANCH  21  22
ENDBRANCH  20  21
ENDBRANCH  18  19
ENDBRANCH  17  18
ENDBRANCH  16  17
ENDBRANCH  11  16
TORSDOF 7
