REMARK  5 active torsions:
REMARK  status: ('A' for Active; 'I' for Inactive)
REMARK    1  A    between atoms: C2_2  and  C3_3 
REMARK    2  A    between atoms: C3_3  and  N1_5 
REMARK    3  A    between atoms: C3_3  and  C5_9 
REMARK    4  A    between atoms: C5_9  and  C6_10 
REMARK    5  A    between atoms: C6_10  and  C7_11 
ROOT
HETATM    1  C7  UNL     1      -0.291   0.320  -0.298  1.00  0.00    -0.001 C 
HETATM    2  C8  UNL     1      -0.739   1.311   0.709  1.00  0.00    -0.002 A 
HETATM    3  C9  UNL     1      -0.478   2.719   0.187  1.00  0.00     0.006 A 
HETATM    4  C10 UNL     1      -1.926   3.031   0.328  1.00  0.00     0.010 A 
HETATM    5  C11 UNL     1      -2.116   1.623   0.914  1.00  0.00    -0.040 A 
HETATM    6  C12 UNL     1      -2.472   1.814   2.405  1.00  0.00     0.015 C 
HETATM    7  C13 UNL     1      -3.213   0.938   0.245  1.00  0.00     0.010 C 
HETATM    8  C14 UNL     1      -2.967   0.234  -1.028  1.00  0.00     0.011 C 
HETATM    9  C15 UNL     1      -2.269  -1.091  -0.906  1.00  0.00    -0.033 A 
HETATM   10  C16 UNL     1      -3.224  -2.107  -0.335  1.00  0.00     0.010 A 
HETATM   11  C17 UNL     1      -3.228  -2.898  -1.611  1.00  0.00     0.002 A 
HETATM   12  C18 UNL     1      -2.353  -1.829  -2.204  1.00  0.00     0.010 A 
HETATM   13  C19 UNL     1      -0.919  -1.021  -0.234  1.00  0.00    -0.036 C 
HETATM   14  C20 UNL     1      -1.069  -1.539   1.190  1.00  0.00     0.016 C 
HETATM   15  C21 UNL     1      -0.048  -2.041  -0.946  1.00  0.00     0.016 C 
ENDROOT
BRANCH   1  16
HETATM   16  C6  UNL     1       1.182   0.410  -0.464  1.00  0.00     0.008 C 
BRANCH  16  17
HETATM   17  C5  UNL     1       2.045   0.171   0.702  1.00  0.00     0.038 C 
BRANCH  17  18
HETATM   18  C3  UNL     1       3.527   0.300   0.428  1.00  0.00     0.120 C 
HETATM   19  C4  UNL     1       3.990   1.695   0.155  1.00  0.00     0.046 C 
BRANCH  18  20
HETATM   20  C2  UNL     1       3.945  -0.685  -0.609  1.00  0.00     0.033 C 
HETATM   21  C1  UNL     1       5.472  -0.737  -0.700  1.00  0.00     0.007 C 
ENDBRANCH  18  20
BRANCH  18  22
HETATM   22  N1  UNL     1       4.198  -0.097   1.685  1.00  0.00    -0.071 N 
ATOM     23  H13 UNL     1       4.015  -1.064   1.951  1.00  0.00     0.275 HD
ATOM     24  H12 UNL     1       5.210  -0.179   1.593  1.00  0.00     0.275 HD
ATOM     25  H11 UNL     1       3.912   0.577   2.395  1.00  0.00     0.275 HD
ENDBRANCH  18  22
ENDBRANCH  17  18
ENDBRANCH  16  17
ENDBRANCH   1  16
TORSDOF 5
