REMARK  4 active torsions:
REMARK  status: ('A' for Active; 'I' for Inactive)
REMARK    1  A    between atoms: C2_2  and  C3_3 
REMARK    2  A    between atoms: C2_2  and  C15_16 
REMARK    3  A    between atoms: C3_3  and  C4_4 
REMARK    4  A    between atoms: C4_4  and  N1_5 
ROOT
HETATM    1  N1  UNL     1       1.773   1.043   0.279  1.00  0.00    -0.408 N 
HETATM    2  C5  UNL     1       1.881   2.385  -0.158  1.00  0.00     0.117 C 
HETATM    3  C6  UNL     1       3.248   2.994   0.185  1.00  0.00     0.019 C 
HETATM    4  C7  UNL     1       4.369   2.185  -0.424  1.00  0.00     0.002 C 
HETATM    5  C8  UNL     1       4.719   1.084   0.516  1.00  0.00     0.007 C 
HETATM    6  C9  UNL     1       3.911  -0.147   0.396  1.00  0.00     0.012 C 
HETATM    7  C10 UNL     1       4.512  -1.203  -0.506  1.00  0.00    -0.013 C 
HETATM    8  C11 UNL     1       5.646  -1.885   0.187  1.00  0.00     0.010 C 
HETATM    9  C12 UNL     1       3.348  -2.090  -0.808  1.00  0.00     0.007 C 
HETATM   10  C13 UNL     1       2.081  -1.323  -0.403  1.00  0.00     0.026 C 
HETATM   11  C14 UNL     1       2.574   0.078  -0.331  1.00  0.00     0.083 C 
ENDROOT
BRANCH   1  12
HETATM   12  C4  UNL     1       0.613   0.675   0.994  1.00  0.00     0.117 C 
BRANCH  12  13
HETATM   13  C3  UNL     1      -0.652   0.689   0.160  1.00  0.00     0.025 C 
BRANCH  13  14
HETATM   14  C2  UNL     1      -1.867   0.300   0.921  1.00  0.00    -0.002 C 
HETATM   15  C1  UNL     1      -1.784  -1.043   1.476  1.00  0.00     0.011 C 
BRANCH  14  16
HETATM   16  C15 UNL     1      -3.076   0.620   0.059  1.00  0.00     0.059 C 
HETATM   17  C16 UNL     1      -3.123  -0.343  -1.177  1.00  0.00     0.043 C 
HETATM   18  C17 UNL     1      -4.260  -1.345  -1.046  1.00  0.00    -0.029 C 
HETATM   19  C18 UNL     1      -5.640  -0.971  -0.935  1.00  0.00    -0.030 C 
HETATM   20  C19 UNL     1      -6.325  -0.746   0.418  1.00  0.00     0.038 C 
HETATM   21  C20 UNL     1      -5.612   0.388   1.234  1.00  0.00     0.084 C 
HETATM   22  C21 UNL     1      -4.352   0.567   0.644  1.00  0.00    -0.177 C 
ENDBRANCH  14  16
ENDBRANCH  13  14
ENDBRANCH  12  13
ENDBRANCH   1  12
TORSDOF 4
