REMARK  7 active torsions:
REMARK  status: ('A' for Active; 'I' for Inactive)
REMARK    1  A    between atoms: O1_2  and  C2_3 
REMARK    2  A    between atoms: C7_8  and  O2_9 
REMARK    3  A    between atoms: N1_17  and  C15_18 
REMARK    4  A    between atoms: C15_18  and  C16_19 
REMARK    5  A    between atoms: C16_19  and  C17_20 
REMARK    6  A    between atoms: C20_27  and  C21_28 
REMARK       I    between atoms: C21_28  and  N3_30 
REMARK    7  A    between atoms: N4_33  and  C24_34 
ROOT
HETATM    1  C17 UNL     1       1.435   0.015   1.232  1.00  0.00     0.387 C 
HETATM    2  N2  UNL     1       2.105   1.008   2.037  1.00  0.00    -0.029 N 
ATOM      3  H21 UNL     1       2.799   0.569   2.642  1.00  0.00     0.281 HD
ATOM      4  H22 UNL     1       1.472   1.382   2.744  1.00  0.00     0.281 HD
HETATM    5  C18 UNL     1       2.704   2.082   1.273  1.00  0.00     0.286 C 
HETATM    6 CL1  UNL     1       3.858   2.917   2.337  1.00  0.00    -0.095 Cl
HETATM    7  C19 UNL     1       3.474   1.583   0.069  1.00  0.00     0.092 C 
HETATM    8  C20 UNL     1       3.539   0.052   0.256  1.00  0.00     0.282 C 
HETATM    9  N5  UNL     1       2.143  -0.346   0.034  1.00  0.00    -0.033 N 
ATOM     10  H51 UNL     1       1.737   0.049  -0.814  1.00  0.00     0.280 HD
ATOM     11  H52 UNL     1       2.035  -1.327  -0.223  1.00  0.00     0.280 HD
ENDROOT
BRANCH   1  12
HETATM   12  C16 UNL     1      -0.004   0.402   1.014  1.00  0.00     0.093 C 
BRANCH  12  13
HETATM   13  C15 UNL     1      -0.735  -0.615   0.172  1.00  0.00     0.276 C 
BRANCH  13  14
HETATM   14  N1  UNL     1      -2.124  -0.246  -0.029  1.00  0.00     0.088 N 
HETATM   15  C14 UNL     1      -2.766  -1.242  -0.853  1.00  0.00     0.273 C 
HETATM   16  C13 UNL     1      -4.137  -0.760  -1.321  1.00  0.00     0.049 C 
HETATM   17  C9  UNL     1      -4.865  -0.143  -0.145  1.00  0.00     0.009 A 
HETATM   18  C5  UNL     1      -6.298  -0.475  -0.194  1.00  0.00    -0.032 A 
HETATM   19  C10 UNL     1      -4.830   1.326  -0.137  1.00  0.00    -0.005 A 
HETATM   20  C30 UNL     1      -4.211  -0.699   1.115  1.00  0.00     0.049 C 
HETATM   21  C4  UNL     1      -7.007   0.713  -0.212  1.00  0.00    -0.020 A 
HETATM   22  C6  UNL     1      -6.988  -1.676  -0.222  1.00  0.00     0.048 A 
HETATM   23  C3  UNL     1      -8.377   0.648  -0.258  1.00  0.00     0.052 A 
HETATM   24  C11 UNL     1      -6.061   1.821  -0.176  1.00  0.00    -0.054 A 
HETATM   25  C2  UNL     1      -9.086  -0.543  -0.287  1.00  0.00     0.102 A 
HETATM   26  C7  UNL     1      -8.367  -1.728  -0.268  1.00  0.00     0.102 A 
HETATM   27  C12 UNL     1      -6.407   3.265  -0.181  1.00  0.00     0.049 C 
HETATM   28  C29 UNL     1      -2.828  -0.095   1.222  1.00  0.00     0.273 C 
BRANCH  25  29
HETATM   29  O1  UNL     1     -10.472  -0.589  -0.334  1.00  0.00    -0.353 OA
HETATM   30  C1  UNL     1     -11.195   0.630  -0.354  1.00  0.00     0.210 C 
ENDBRANCH  25  29
BRANCH  26  31
HETATM   31  O2  UNL     1      -9.039  -2.949  -0.295  1.00  0.00    -0.353 OA
HETATM   32  C8  UNL     1      -8.296  -4.152  -0.275  1.00  0.00     0.210 C 
ENDBRANCH  26  31
ENDBRANCH  13  14
ENDBRANCH  12  13
ENDBRANCH   1  12
BRANCH   8  33
HETATM   33  C21 UNL     1       4.443  -0.595  -0.688  1.00  0.00     0.251 C 
HETATM   34  O3  UNL     1       3.945  -1.264  -1.645  1.00  0.00    -0.271 OA
HETATM   35  N3  UNL     1       5.838  -0.504  -0.573  1.00  0.00    -0.347 N 
HETATM   36  C22 UNL     1       6.748  -1.113  -1.555  1.00  0.00     0.156 C 
HETATM   37  C28 UNL     1       6.473   0.163   0.528  1.00  0.00     0.156 C 
HETATM   38  C23 UNL     1       8.123  -1.080  -0.978  1.00  0.00     0.292 C 
HETATM   39  N4  UNL     1       8.574   0.273  -0.723  1.00  0.00     0.095 N 
HETATM   40  C27 UNL     1       7.520   1.093  -0.107  1.00  0.00     0.292 C 
BRANCH  39  41
HETATM   41  C24 UNL     1       9.659   0.275   0.245  1.00  0.00     0.215 C 
HETATM   42  C25 UNL     1      10.280   1.651   0.285  1.00  0.00     0.042 C 
HETATM   43  C26 UNL     1      10.673  -0.794   0.014  1.00  0.00     0.042 C 
ENDBRANCH  39  41
ENDBRANCH   8  33
TORSDOF 7
