REMARK  8 active torsions:
REMARK  status: ('A' for Active; 'I' for Inactive)
REMARK    1  A    between atoms: O1_2  and  C2_3 
REMARK    2  A    between atoms: C5_6  and  N1_7 
REMARK    3  A    between atoms: N1_7  and  C6_9 
REMARK    4  A    between atoms: C9_12  and  N2_13 
REMARK    5  A    between atoms: C19_29  and  O2_30 
REMARK    6  A    between atoms: O2_30  and  C20_31 
REMARK    7  A    between atoms: C20_31  and  C21_32 
REMARK    8  A    between atoms: C21_32  and  N6_33 
ROOT
HETATM    1  C2  UNL     1      -0.524   0.129  -0.857  1.00  0.00     0.102 A 
HETATM    2  C3  UNL     1       0.243   0.140   0.268  1.00  0.00     0.057 A 
HETATM    3  C4  UNL     1      -0.267   0.622   1.473  1.00  0.00     0.040 A 
HETATM    4  C5  UNL     1       0.261   0.751   2.733  1.00  0.00     0.133 A 
HETATM    5  N4  UNL     1      -0.744   1.300   3.504  1.00  0.00    -0.284 N 
ATOM      6  H4  UNL     1      -0.668   1.523   4.496  1.00  0.00     0.188 HD
HETATM    7  N5  UNL     1      -1.804   1.490   2.771  1.00  0.00    -0.298 N 
ATOM      8  H5  UNL     1      -2.683   1.884   3.107  1.00  0.00     0.187 HD
HETATM    9  C17 UNL     1      -1.575   1.095   1.518  1.00  0.00     0.065 A 
HETATM   10  C18 UNL     1      -2.333   1.072   0.358  1.00  0.00     0.071 A 
HETATM   11  C19 UNL     1      -1.828   0.596  -0.824  1.00  0.00     0.104 A 
ENDROOT
BRANCH   4  12
HETATM   12  N1  UNL     1       1.395   0.461   3.174  1.00  0.00    -0.341 N 
ATOM     13  H1  UNL     1       1.511   0.671   4.166  1.00  0.00     0.167 HD
BRANCH  12  14
HETATM   14  C6  UNL     1       2.510  -0.079   2.599  1.00  0.00     0.035 A 
HETATM   15  C7  UNL     1       3.503   0.739   2.038  1.00  0.00     0.032 A 
HETATM   16  C8  UNL     1       4.651   0.249   1.475  1.00  0.00     0.033 A 
HETATM   17  C9  UNL     1       4.898  -1.125   1.431  1.00  0.00     0.048 A 
HETATM   18  C15 UNL     1       3.934  -1.942   1.978  1.00  0.00     0.039 A 
HETATM   19 BR1  UNL     1       4.275  -3.838   1.922  1.00  0.00    -0.049 Br
HETATM   20  C16 UNL     1       2.779  -1.455   2.544  1.00  0.00     0.051 A 
BRANCH  17  21
HETATM   21  N2  UNL     1       6.093  -1.601   0.838  1.00  0.00    -0.376 N 
HETATM   22  C10 UNL     1       6.018  -2.441  -0.337  1.00  0.00     0.153 C 
HETATM   23  C11 UNL     1       6.978  -2.011  -1.405  1.00  0.00     0.291 C 
HETATM   24  N3  UNL     1       7.589  -0.767  -1.056  1.00  0.00     0.087 N 
HETATM   25  C12 UNL     1       8.367  -0.163  -2.091  1.00  0.00     0.310 C 
HETATM   26  C13 UNL     1       8.313  -0.808   0.200  1.00  0.00     0.291 C 
HETATM   27  C14 UNL     1       7.429  -1.302   1.325  1.00  0.00     0.153 C 
ENDBRANCH  17  21
ENDBRANCH  12  14
ENDBRANCH   4  12
BRANCH   1  28
HETATM   28  O1  UNL     1       0.037  -0.365  -2.039  1.00  0.00    -0.353 OA
HETATM   29  C1  UNL     1       1.366  -0.842  -2.075  1.00  0.00     0.210 C 
ENDBRANCH   1  28
BRANCH  11  30
HETATM   30  O2  UNL     1      -2.508   0.533  -2.016  1.00  0.00    -0.346 OA
BRANCH  30  31
HETATM   31  C20 UNL     1      -3.795   0.867  -2.303  1.00  0.00     0.206 C 
BRANCH  31  32
HETATM   32  C21 UNL     1      -4.808   0.012  -1.616  1.00  0.00     0.299 C 
BRANCH  32  33
HETATM   33  N6  UNL     1      -6.178   0.436  -1.961  1.00  0.00     0.093 N 
HETATM   34  C22 UNL     1      -6.408   1.739  -1.369  1.00  0.00     0.302 C 
HETATM   35  C23 UNL     1      -7.889   2.073  -1.330  1.00  0.00     0.302 C 
HETATM   36  N7  UNL     1      -8.555   1.151  -0.424  1.00  0.00     0.087 N 
HETATM   37  C24 UNL     1      -8.848   1.796   0.838  1.00  0.00     0.310 C 
HETATM   38  C25 UNL     1      -7.783  -0.038  -0.198  1.00  0.00     0.302 C 
HETATM   39  C26 UNL     1      -7.107  -0.554  -1.449  1.00  0.00     0.302 C 
ENDBRANCH  32  33
ENDBRANCH  31  32
ENDBRANCH  30  31
ENDBRANCH  11  30
TORSDOF 8
