REMARK  7 active torsions:
REMARK  status: ('A' for Active; 'I' for Inactive)
REMARK    1  A    between atoms: N1_2  and  C2_5 
REMARK    2  A    between atoms: C2_5  and  C3_6 
REMARK    3  A    between atoms: C3_6  and  C4_7 
REMARK    4  A    between atoms: C15_19  and  C16_20 
REMARK    5  A    between atoms: C16_20  and  N2_21 
REMARK    6  A    between atoms: N2_21  and  S1_23 
REMARK    7  A    between atoms: S1_23  and  C17_26 
ROOT
HETATM    1  C4  UNL     1      -4.660  -0.256  -0.996  1.00  0.00    -0.022 A 
HETATM    2  C5  UNL     1      -5.854  -0.575  -0.305  1.00  0.00     0.024 A 
HETATM    3 BR1  UNL     1      -7.335   0.564  -0.618  1.00  0.00    -0.050 Br
HETATM    4  C6  UNL     1      -5.977  -1.653   0.520  1.00  0.00    -0.043 A 
HETATM    5  C7  UNL     1      -7.258  -1.901   1.196  1.00  0.00     0.049 C 
HETATM    6  C8  UNL     1      -4.908  -2.501   0.718  1.00  0.00     0.020 A 
HETATM    7  C9  UNL     1      -3.724  -2.246   0.074  1.00  0.00    -0.019 A 
HETATM    8  C10 UNL     1      -2.752  -3.178   0.392  1.00  0.00     0.021 C 
HETATM    9  C11 UNL     1      -1.396  -3.043   0.190  1.00  0.00    -0.032 C 
HETATM   10  C12 UNL     1      -0.473  -4.119   0.625  1.00  0.00     0.050 C 
HETATM   11  C13 UNL     1      -0.728  -1.969  -0.404  1.00  0.00     0.068 A 
HETATM   12  C14 UNL     1       0.611  -1.732  -0.318  1.00  0.00     0.064 A 
HETATM   13  C15 UNL     1       0.876  -0.586  -1.034  1.00  0.00     0.067 A 
HETATM   14  N3  UNL     1      -0.275  -0.136  -1.545  1.00  0.00    -0.289 N 
ATOM     15  H3  UNL     1      -0.389   0.697  -2.122  1.00  0.00     0.188 HD
HETATM   16  N4  UNL     1      -1.227  -0.949  -1.176  1.00  0.00    -0.219 N 
HETATM   17  C25 UNL     1      -2.511  -0.789  -1.523  1.00  0.00     0.278 C 
HETATM   18  O3  UNL     1      -2.762  -0.293  -2.633  1.00  0.00    -0.265 OA
HETATM   19  C26 UNL     1      -3.621  -1.121  -0.780  1.00  0.00     0.052 A 
ENDROOT
BRANCH  13  20
HETATM   20  C16 UNL     1       2.257   0.011  -1.179  1.00  0.00     0.131 C 
BRANCH  20  21
HETATM   21  N2  UNL     1       3.205  -1.006  -1.300  1.00  0.00    -0.289 N 
ATOM     22  H2  UNL     1       2.902  -1.980  -1.268  1.00  0.00     0.178 HD
BRANCH  21  23
HETATM   23  S1  UNL     1       4.828  -0.656  -1.496  1.00  0.00     0.263 S 
HETATM   24  O1  UNL     1       4.992   0.009  -2.860  1.00  0.00    -0.200 OA
HETATM   25  O2  UNL     1       5.556  -2.000  -1.677  1.00  0.00    -0.200 OA
BRANCH  23  26
HETATM   26  C17 UNL     1       5.637   0.218  -0.261  1.00  0.00     0.085 A 
HETATM   27  C18 UNL     1       6.507  -0.499   0.577  1.00  0.00     0.026 A 
HETATM   28  C19 UNL     1       7.181   0.054   1.632  1.00  0.00     0.008 A 
HETATM   29  C20 UNL     1       7.023   1.385   1.917  1.00  0.00    -0.061 A 
HETATM   30  C21 UNL     1       7.736   2.030   3.056  1.00  0.00     0.048 C 
HETATM   31  C22 UNL     1       6.181   2.108   1.113  1.00  0.00     0.015 A 
HETATM   32  C23 UNL     1       5.504   1.542   0.049  1.00  0.00    -0.038 A 
HETATM   33  C24 UNL     1       4.666   2.425  -0.779  1.00  0.00     0.050 C 
ENDBRANCH  23  26
ENDBRANCH  21  23
ENDBRANCH  20  21
ENDBRANCH  13  20
BRANCH   1  34
HETATM   34  C3  UNL     1      -4.619   0.945  -1.791  1.00  0.00     0.068 C 
BRANCH  34  35
HETATM   35  C2  UNL     1      -4.442   2.069  -0.711  1.00  0.00     0.236 C 
BRANCH  35  36
HETATM   36  N1  UNL     1      -4.389   3.373  -1.340  1.00  0.00    -0.079 N 
HETATM   37  C1  UNL     1      -4.266   4.394  -0.317  1.00  0.00     0.267 C 
ATOM     38  H12 UNL     1      -5.185   3.537  -1.957  1.00  0.00     0.276 HD
ATOM     39  H11 UNL     1      -3.649   3.435  -2.039  1.00  0.00     0.276 HD
ENDBRANCH  35  36
ENDBRANCH  34  35
ENDBRANCH   1  34
TORSDOF 7
