REMARK  7 active torsions:
REMARK  status: ('A' for Active; 'I' for Inactive)
REMARK    1  A    between atoms: C2_2  and  C3_3 
REMARK    2  A    between atoms: C3_3  and  N1_4 
REMARK    3  A    between atoms: N1_4  and  C4_5 
REMARK       I    between atoms: N1_4  and  C6_8 
REMARK    4  A    between atoms: C4_5  and  C5_6 
REMARK       I    between atoms: C6_8  and  N2_10 
REMARK    5  A    between atoms: N2_10  and  C7_12 
REMARK    6  A    between atoms: C21_27  and  C22_28 
REMARK    7  A    between atoms: C22_28  and  N4_29 
ROOT
HETATM    1  C7  UNL     1       2.384  -0.876   0.918  1.00  0.00     0.139 C 
HETATM    2  C8  UNL     1       2.594  -2.405   0.824  1.00  0.00     0.299 C 
HETATM    3  N3  UNL     1       1.282  -2.946   0.526  1.00  0.00     0.093 N 
HETATM    4  C9  UNL     1       1.403  -4.197  -0.204  1.00  0.00     0.310 C 
HETATM    5  C10 UNL     1       0.764  -1.887  -0.339  1.00  0.00     0.250 C 
HETATM    6  C11 UNL     1      -0.549  -2.177  -0.914  1.00  0.00     0.065 C 
HETATM    7  C12 UNL     1      -1.269  -3.247  -0.128  1.00  0.00    -0.028 C 
HETATM    8  C13 UNL     1      -2.156  -4.064  -0.633  1.00  0.00    -0.031 C 
HETATM    9  C14 UNL     1      -2.616  -4.100  -2.039  1.00  0.00     0.027 C 
HETATM   10  C15 UNL     1      -4.146  -3.984  -2.101  1.00  0.00     0.004 C 
HETATM   11  C16 UNL     1      -4.568  -2.602  -1.584  1.00  0.00     0.000 C 
HETATM   12  C17 UNL     1      -5.378  -2.703  -0.337  1.00  0.00     0.000 C 
HETATM   13  C18 UNL     1      -4.872  -1.943   0.835  1.00  0.00     0.000 C 
HETATM   14  C19 UNL     1      -4.421  -0.542   0.569  1.00  0.00     0.003 C 
HETATM   15  C20 UNL     1      -3.358  -0.174   1.570  1.00  0.00     0.038 C 
HETATM   16  C21 UNL     1      -2.487   0.984   1.132  1.00  0.00     0.171 C 
HETATM   17  O3  UNL     1      -1.372   1.162   1.925  1.00  0.00    -0.293 OA
HETATM   18  C27 UNL     1      -0.485   0.275   2.448  1.00  0.00     0.361 C 
HETATM   19  O4  UNL     1      -0.237   0.428   3.714  1.00  0.00    -0.238 OA
HETATM   20  N5  UNL     1       0.187  -0.776   1.784  1.00  0.00    -0.328 N 
ATOM     21  H5  UNL     1       0.146  -1.693   2.228  1.00  0.00     0.165 HD
HETATM   22  C28 UNL     1       0.932  -0.693   0.535  1.00  0.00     0.144 C 
ENDROOT
BRANCH   1  23
HETATM   23  N2  UNL     1       3.320  -0.232   0.018  1.00  0.00    -0.335 N 
HETATM   24  C6  UNL     1       4.525   0.344   0.442  1.00  0.00     0.318 C 
HETATM   25  N1  UNL     1       5.504   0.986  -0.338  1.00  0.00    -0.333 N 
HETATM   26  O1  UNL     1       4.750   0.271   1.703  1.00  0.00    -0.247 OA
ATOM     27  H2  UNL     1       3.090  -0.196  -0.975  1.00  0.00     0.164 HD
BRANCH  25  28
HETATM   28  C3  UNL     1       6.682   1.516   0.327  1.00  0.00     0.127 C 
BRANCH  28  29
HETATM   29  C2  UNL     1       6.570   2.922   0.796  1.00  0.00     0.015 C 
HETATM   30  C1  UNL     1       7.926   3.249   1.455  1.00  0.00     0.006 C 
ENDBRANCH  28  29
ENDBRANCH  25  28
BRANCH  25  31
HETATM   31  C4  UNL     1       5.456   1.133  -1.776  1.00  0.00     0.142 C 
BRANCH  31  32
HETATM   32  C5  UNL     1       6.165   0.028  -2.494  1.00  0.00     0.134 C 
HETATM   33 CL1  UNL     1       5.514  -1.561  -2.160  1.00  0.00    -0.129 Cl
ENDBRANCH  31  32
ENDBRANCH  25  31
ENDBRANCH   1  23
BRANCH  16  34
HETATM   34  C22 UNL     1      -3.381   2.169   1.010  1.00  0.00     0.090 C 
BRANCH  34  35
HETATM   35  N4  UNL     1      -2.844   3.350   0.474  1.00  0.00    -0.387 N 
HETATM   36  C23 UNL     1      -1.872   4.062   1.214  1.00  0.00     0.148 C 
HETATM   37  C24 UNL     1      -2.283   5.534   1.216  1.00  0.00     0.187 C 
HETATM   38  O2  UNL     1      -3.639   5.632   1.519  1.00  0.00    -0.388 OA
HETATM   39  C25 UNL     1      -4.444   5.127   0.526  1.00  0.00     0.187 C 
HETATM   40  C26 UNL     1      -3.691   4.158  -0.328  1.00  0.00     0.148 C 
ENDBRANCH  34  35
ENDBRANCH  16  34
TORSDOF 7
