REMARK  9 active torsions:
REMARK  status: ('A' for Active; 'I' for Inactive)
REMARK    1  A    between atoms: C3_3  and  O1_4 
REMARK    2  A    between atoms: O1_4  and  C4_5 
REMARK    3  A    between atoms: C4_5  and  C5_6 
REMARK    4  A    between atoms: C5_6  and  N1_7 
REMARK    5  A    between atoms: C16_21  and  C17_22 
REMARK    6  A    between atoms: C17_22  and  C18_23 
REMARK    7  A    between atoms: C18_23  and  C19_24 
REMARK    8  A    between atoms: C21_26  and  O4_27 
REMARK    9  A    between atoms: C22_29  and  O5_30 
ROOT
HETATM    1  C1  UNL     1       2.614  -1.876   0.187  1.00  0.00     0.015 C 
HETATM    2  C2  UNL     1       2.565  -0.353   0.141  1.00  0.00     0.043 C 
HETATM    3  C3  UNL     1       3.589   0.188   1.149  1.00  0.00     0.264 C 
HETATM    4  O2  UNL     1       2.821   0.422   2.322  1.00  0.00    -0.355 OA
HETATM    5  C10 UNL     1       1.805   1.163   1.745  1.00  0.00     0.135 C 
HETATM    6  C11 UNL     1       0.708   1.604   2.625  1.00  0.00     0.040 C 
HETATM    7  C12 UNL     1       0.160   0.592   3.548  1.00  0.00     0.182 C 
HETATM    8  O3  UNL     1      -0.820  -0.255   3.075  1.00  0.00    -0.350 OA
HETATM    9  C13 UNL     1      -1.729  -0.263   2.046  1.00  0.00     0.076 A 
HETATM   10  C14 UNL     1      -2.746  -1.170   2.228  1.00  0.00     0.057 A 
HETATM   11  C15 UNL     1      -3.750  -1.315   1.293  1.00  0.00     0.019 A 
HETATM   12 BR1  UNL     1      -5.177  -2.555   1.476  1.00  0.00    -0.050 Br
HETATM   13  C16 UNL     1      -3.699  -0.520   0.174  1.00  0.00    -0.040 A 
HETATM   14  C23 UNL     1      -2.678   0.399  -0.022  1.00  0.00     0.019 A 
HETATM   15  C24 UNL     1      -1.699   0.509   0.935  1.00  0.00    -0.020 A 
HETATM   16  C25 UNL     1      -0.708   1.546   0.539  1.00  0.00     0.022 C 
HETATM   17  C26 UNL     1      -0.330   2.294   1.763  1.00  0.00     0.018 C 
HETATM   18  C27 UNL     1       0.406   0.892  -0.195  1.00  0.00     0.017 C 
HETATM   19  C28 UNL     1       1.267   0.131   0.748  1.00  0.00     0.024 C 
ENDROOT
BRANCH  13  20
HETATM   20  C17 UNL     1      -4.729  -0.575  -0.894  1.00  0.00     0.040 C 
BRANCH  20  21
HETATM   21  C18 UNL     1      -5.940   0.191  -0.388  1.00  0.00     0.012 C 
BRANCH  21  22
HETATM   22  C19 UNL     1      -6.994   0.141  -1.474  1.00  0.00     0.020 C 
HETATM   23  C20 UNL     1      -7.454  -1.244  -1.858  1.00  0.00     0.041 C 
HETATM   24  C21 UNL     1      -8.882  -0.754  -1.767  1.00  0.00     0.147 C 
HETATM   25  C22 UNL     1      -8.389   0.425  -0.965  1.00  0.00     0.151 C 
BRANCH  24  26
HETATM   26  O4  UNL     1      -9.371  -0.422  -3.045  1.00  0.00    -0.393 OA
ATOM     27  H4  UNL     1     -10.268  -0.114  -2.988  1.00  0.00     0.210 HD
ENDBRANCH  24  26
BRANCH  25  28
HETATM   28  O5  UNL     1      -8.901   1.662  -1.357  1.00  0.00    -0.393 OA
ATOM     29  H5  UNL     1      -9.778   1.840  -1.037  1.00  0.00     0.210 HD
ENDBRANCH  25  28
ENDBRANCH  21  22
ENDBRANCH  20  21
ENDBRANCH  13  20
BRANCH   3  30
HETATM   30  O1  UNL     1       4.624  -0.659   1.359  1.00  0.00    -0.359 OA
BRANCH  30  31
HETATM   31  C4  UNL     1       5.820  -0.085   1.025  1.00  0.00     0.201 C 
BRANCH  31  32
HETATM   32  C5  UNL     1       5.991   0.329  -0.395  1.00  0.00     0.298 C 
BRANCH  32  33
HETATM   33  N1  UNL     1       5.871  -0.718  -1.370  1.00  0.00     0.090 N 
HETATM   34  C6  UNL     1       6.994  -1.630  -1.247  1.00  0.00     0.272 C 
HETATM   35  C7  UNL     1       8.211  -0.828  -1.669  1.00  0.00     0.032 C 
HETATM   36  C8  UNL     1       7.607   0.176  -2.629  1.00  0.00     0.032 C 
HETATM   37  C9  UNL     1       6.127  -0.071  -2.672  1.00  0.00     0.272 C 
ENDBRANCH  32  33
ENDBRANCH  31  32
ENDBRANCH  30  31
ENDBRANCH   3  30
TORSDOF 9
