REMARK  10 active torsions:
REMARK  status: ('A' for Active; 'I' for Inactive)
REMARK    1  A    between atoms: N1_2  and  C2_3 
REMARK    2  A    between atoms: N1_2  and  C24_38 
REMARK    3  A    between atoms: C2_3  and  O1_4 
REMARK    4  A    between atoms: C2_3  and  C3_6 
REMARK    5  A    between atoms: C3_6  and  N2_7 
REMARK    6  A    between atoms: C9_16  and  N4_17 
REMARK    7  A    between atoms: N4_17  and  C10_18 
REMARK    8  A    between atoms: C10_18  and  C11_19 
REMARK    9  A    between atoms: N5_26  and  C18_27 
REMARK   10  A    between atoms: C18_27  and  C19_28 
ROOT
HETATM    1  N2  UNL     1      -3.459  -1.174   1.307  1.00  0.00    -0.342 N 
HETATM    2  C4  UNL     1      -4.276  -2.291   1.765  1.00  0.00     0.231 C 
HETATM    3  C5  UNL     1      -4.243  -3.437   0.854  1.00  0.00     0.240 C 
HETATM    4  O2  UNL     1      -5.184  -4.302   0.893  1.00  0.00    -0.271 OA
HETATM    5  N3  UNL     1      -3.211  -3.651  -0.090  1.00  0.00    -0.321 N 
ATOM      6  H3  UNL     1      -3.128  -4.539  -0.585  1.00  0.00     0.169 HD
HETATM    7  C6  UNL     1      -2.295  -2.594  -0.327  1.00  0.00     0.101 A 
HETATM    8  C7  UNL     1      -2.436  -1.418   0.354  1.00  0.00     0.069 A 
HETATM    9  C8  UNL     1      -1.517  -0.422   0.078  1.00  0.00     0.096 A 
HETATM   10  C9  UNL     1      -0.476  -0.591  -0.858  1.00  0.00     0.181 A 
HETATM   11  N6  UNL     1      -0.419  -1.803  -1.488  1.00  0.00    -0.320 N 
ATOM     12  H6  UNL     1       0.324  -1.954  -2.171  1.00  0.00     0.169 HD
HETATM   13  C23 UNL     1      -1.274  -2.797  -1.264  1.00  0.00     0.135 A 
HETATM   14 CL1  UNL     1      -1.104  -4.306  -2.128  1.00  0.00    -0.062 Cl
ENDROOT
BRANCH  10  15
HETATM   15  N4  UNL     1       0.322   0.252  -1.115  1.00  0.00    -0.404 NA
BRANCH  15  16
HETATM   16  C10 UNL     1       1.206   1.212  -1.387  1.00  0.00     0.162 C 
BRANCH  16  17
HETATM   17  C11 UNL     1       2.599   0.811  -0.919  1.00  0.00     0.038 C 
HETATM   18  C12 UNL     1       3.615   1.908  -1.231  1.00  0.00     0.014 C 
HETATM   19  C13 UNL     1       4.961   1.298  -0.984  1.00  0.00     0.041 C 
HETATM   20  C14 UNL     1       5.150   0.694   0.354  1.00  0.00     0.088 C 
HETATM   21  C15 UNL     1       3.946   0.385   1.147  1.00  0.00     0.041 C 
HETATM   22  C17 UNL     1       5.967  -0.572   0.195  1.00  0.00     0.166 C 
HETATM   23  O4  UNL     1       6.037   1.567   1.080  1.00  0.00    -0.291 OA
HETATM   24  C16 UNL     1       2.616   0.645   0.560  1.00  0.00     0.014 C 
HETATM   25  N5  UNL     1       7.182  -0.371   0.940  1.00  0.00    -0.325 N 
HETATM   26  C22 UNL     1       7.005   0.818   1.697  1.00  0.00     0.363 C 
HETATM   27  O3  UNL     1       7.649   1.109   2.761  1.00  0.00    -0.238 OA
BRANCH  25  28
HETATM   28  C18 UNL     1       8.317  -1.258   0.885  1.00  0.00     0.132 C 
BRANCH  28  29
HETATM   29  C19 UNL     1       9.328  -0.896  -0.162  1.00  0.00     0.004 A 
HETATM   30  C20 UNL     1       9.985   0.445  -0.067  1.00  0.00     0.007 A 
HETATM   31  C21 UNL     1       9.001   0.138  -1.187  1.00  0.00     0.007 A 
ENDBRANCH  28  29
ENDBRANCH  25  28
ENDBRANCH  16  17
ENDBRANCH  15  16
ENDBRANCH  10  15
BRANCH   1  32
HETATM   32  C3  UNL     1      -3.724   0.117   1.861  1.00  0.00     0.147 C 
BRANCH  32  33
HETATM   33  C2  UNL     1      -4.898   0.875   1.477  1.00  0.00     0.153 C 
BRANCH  33  34
HETATM   34  N1  UNL     1      -5.926   0.696   0.567  1.00  0.00    -0.360 N 
HETATM   35  C1  UNL     1      -6.123  -0.363  -0.364  1.00  0.00     0.152 C 
BRANCH  34  36
HETATM   36  C24 UNL     1      -6.996   1.729   0.527  1.00  0.00     0.086 C 
HETATM   37  C25 UNL     1      -8.353   1.120   0.622  1.00  0.00     0.025 C 
HETATM   38  C26 UNL     1      -9.043   1.324  -0.706  1.00  0.00     0.002 C 
HETATM   39  C27 UNL     1      -8.222   2.307  -1.481  1.00  0.00     0.002 C 
HETATM   40  C28 UNL     1      -6.874   2.385  -0.831  1.00  0.00     0.025 C 
ENDBRANCH  34  36
ENDBRANCH  33  34
BRANCH  33  41
HETATM   41  O1  UNL     1      -4.957   2.001   2.193  1.00  0.00    -0.345 OA
ATOM     42  H1  UNL     1      -4.252   2.124   2.817  1.00  0.00     0.219 HD
ENDBRANCH  33  41
ENDBRANCH  32  33
ENDBRANCH   1  32
TORSDOF 10
