REMARK  9 active torsions:
REMARK  status: ('A' for Active; 'I' for Inactive)
REMARK    1  A    between atoms: O1_2  and  C2_3 
REMARK    2  A    between atoms: C4_5  and  N1_6 
REMARK    3  A    between atoms: N1_6  and  C5_8 
REMARK    4  A    between atoms: C7_12  and  C8_13 
REMARK    5  A    between atoms: C11_18  and  N4_19 
REMARK    6  A    between atoms: N4_19  and  S1_21 
REMARK    7  A    between atoms: S1_21  and  C12_24 
REMARK    8  A    between atoms: C20_33  and  O4_34 
REMARK    9  A    between atoms: C22_36  and  O5_37 
ROOT
HETATM    1  C5  UNL     1      -0.209   0.419   0.667  1.00  0.00     0.151 A 
HETATM    2  N2  UNL     1      -0.803   1.475   0.095  1.00  0.00    -0.347 N 
ATOM      3  H2  UNL     1      -1.769   1.391  -0.221  1.00  0.00     0.167 HD
HETATM    4  C6  UNL     1      -0.157   2.642  -0.072  1.00  0.00     0.115 A 
HETATM    5  C7  UNL     1       1.146   2.818   0.334  1.00  0.00     0.030 A 
HETATM    6  N3  UNL     1       1.745   1.738   0.916  1.00  0.00    -0.341 N 
ATOM      7  H3  UNL     1       2.711   1.822   1.232  1.00  0.00     0.167 HD
HETATM    8  C11 UNL     1       1.107   0.571   1.086  1.00  0.00     0.160 A 
ENDROOT
BRANCH   1   9
HETATM    9  N1  UNL     1      -0.834  -0.708   0.828  1.00  0.00    -0.339 N 
ATOM     10  H1  UNL     1      -0.336  -1.480   1.270  1.00  0.00     0.167 HD
BRANCH   9  11
HETATM   11  C4  UNL     1      -2.164  -0.915   0.423  1.00  0.00     0.039 A 
HETATM   12  C3  UNL     1      -3.170  -0.918   1.388  1.00  0.00     0.069 A 
HETATM   13  C2  UNL     1      -4.491  -1.116   1.052  1.00  0.00     0.106 A 
HETATM   14  C22 UNL     1      -4.827  -1.315  -0.269  1.00  0.00     0.135 A 
HETATM   15  C20 UNL     1      -3.835  -1.316  -1.256  1.00  0.00     0.106 A 
HETATM   16  C19 UNL     1      -2.521  -1.117  -0.904  1.00  0.00     0.069 A 
BRANCH  13  17
HETATM   17  O1  UNL     1      -5.430  -1.105   2.070  1.00  0.00    -0.353 OA
HETATM   18  C1  UNL     1      -5.066  -0.899   3.416  1.00  0.00     0.210 C 
ENDBRANCH  13  17
BRANCH  14  19
HETATM   19  O5  UNL     1      -6.133  -1.513  -0.625  1.00  0.00    -0.351 OA
HETATM   20  C23 UNL     1      -7.004  -0.472  -0.963  1.00  0.00     0.210 C 
ENDBRANCH  14  19
BRANCH  15  21
HETATM   21  O4  UNL     1      -4.150  -1.513  -2.584  1.00  0.00    -0.353 OA
HETATM   22  C21 UNL     1      -3.126  -1.508  -3.551  1.00  0.00     0.210 C 
ENDBRANCH  15  21
ENDBRANCH   9  11
ENDBRANCH   1   9
BRANCH   8  23
HETATM   23  N4  UNL     1       1.633  -0.460   1.625  1.00  0.00    -0.263 N 
ATOM     24  H4  UNL     1       1.047  -1.292   1.698  1.00  0.00     0.180 HD
BRANCH  23  25
HETATM   25  S1  UNL     1       3.218  -0.579   2.233  1.00  0.00     0.264 S 
HETATM   26  O2  UNL     1       3.673   0.590   3.036  1.00  0.00    -0.200 OA
HETATM   27  O3  UNL     1       3.266  -1.766   3.198  1.00  0.00    -0.200 OA
BRANCH  25  28
HETATM   28  C12 UNL     1       4.294  -0.979   0.914  1.00  0.00     0.080 A 
HETATM   29  C13 UNL     1       4.950  -0.041   0.148  1.00  0.00     0.027 A 
HETATM   30  C14 UNL     1       5.780  -0.446  -0.875  1.00  0.00     0.021 A 
HETATM   31  C15 UNL     1       6.001  -1.768  -1.189  1.00  0.00     0.017 A 
HETATM   32 BR1  UNL     1       7.160  -2.291  -2.616  1.00  0.00    -0.051 Br
HETATM   33  C16 UNL     1       5.345  -2.707  -0.424  1.00  0.00    -0.043 A 
HETATM   34  C17 UNL     1       5.515  -4.154  -0.680  1.00  0.00     0.049 C 
HETATM   35  C18 UNL     1       4.513  -2.315   0.601  1.00  0.00     0.033 A 
ENDBRANCH  25  28
ENDBRANCH  23  25
ENDBRANCH   8  23
BRANCH   5  36
HETATM   36  C8  UNL     1       1.866   4.104   0.153  1.00  0.00     0.037 A 
HETATM   37  C9  UNL     1       1.613   4.732  -1.215  1.00  0.00     0.011 A 
HETATM   38  C10 UNL     1       1.079   5.346   0.084  1.00  0.00     0.011 A 
ENDBRANCH   5  36
TORSDOF 9
