REMARK  7 active torsions:
REMARK  status: ('A' for Active; 'I' for Inactive)
REMARK    1  A    between atoms: C2_2  and  C3_4 
REMARK    2  A    between atoms: N1_7  and  C6_8 
REMARK    3  A    between atoms: C6_8  and  C7_9 
REMARK    4  A    between atoms: C9_11  and  C10_12 
REMARK    5  A    between atoms: C10_12  and  C11_13 
REMARK    6  A    between atoms: C11_13  and  S1_14 
REMARK    7  A    between atoms: S1_14  and  C12_17 
ROOT
HETATM    1  C10 UNL     1       1.130   0.836   0.726  1.00  0.00     0.054 C 
ENDROOT
BRANCH   1   2
HETATM    2  C9  UNL     1       0.124   0.372  -0.194  1.00  0.00    -0.056 A 
HETATM    3  C8  UNL     1      -1.038  -0.255   0.319  1.00  0.00     0.020 A 
HETATM    4  C7  UNL     1      -2.049  -0.737  -0.441  1.00  0.00    -0.019 A 
HETATM    5  C22 UNL     1      -1.925  -0.600  -1.815  1.00  0.00    -0.045 A 
HETATM    6  C20 UNL     1      -0.876  -0.030  -2.344  1.00  0.00    -0.055 A 
HETATM    7  C23 UNL     1      -3.090  -1.129  -2.653  1.00  0.00     0.049 C 
HETATM    8  C19 UNL     1       0.175   0.480  -1.565  1.00  0.00     0.014 A 
HETATM    9  C21 UNL     1      -0.820   0.207  -3.829  1.00  0.00     0.049 C 
BRANCH   4  10
HETATM   10  C6  UNL     1      -3.199  -1.473   0.021  1.00  0.00     0.071 C 
BRANCH  10  11
HETATM   11  N1  UNL     1      -4.169  -0.887   0.862  1.00  0.00    -0.292 NA
HETATM   12  C5  UNL     1      -5.355  -1.690   0.923  1.00  0.00     0.095 C 
HETATM   13  C4  UNL     1      -6.440  -0.937   1.628  1.00  0.00     0.024 C 
HETATM   14  C3  UNL     1      -6.852   0.247   0.708  1.00  0.00     0.027 C 
HETATM   15  C25 UNL     1      -5.669   1.089   0.449  1.00  0.00     0.024 C 
HETATM   16  C24 UNL     1      -4.319   0.495   0.712  1.00  0.00     0.095 C 
BRANCH  14  17
HETATM   17  C2  UNL     1      -7.973   0.864   1.441  1.00  0.00    -0.017 C 
HETATM   18  C1  UNL     1      -9.178   0.994   0.947  1.00  0.00     0.027 C 
HETATM   19 BR1  UNL     1      -7.510   1.429   3.263  1.00  0.00    -0.056 Br
ENDBRANCH  14  17
ENDBRANCH  10  11
ENDBRANCH   4  10
ENDBRANCH   1   2
BRANCH   1  20
HETATM   20  C11 UNL     1       2.382   0.090   0.902  1.00  0.00     0.152 C 
BRANCH  20  21
HETATM   21  S1  UNL     1       3.451   0.017  -0.601  1.00  0.00     0.194 S 
HETATM   22  O1  UNL     1       3.529   1.436  -1.033  1.00  0.00    -0.221 OA
HETATM   23  O2  UNL     1       2.898  -0.930  -1.601  1.00  0.00    -0.221 OA
BRANCH  21  24
HETATM   24  C12 UNL     1       4.967  -0.659   0.059  1.00  0.00     0.170 A 
HETATM   25  N2  UNL     1       4.952  -1.858   0.600  1.00  0.00    -0.285 N 
HETATM   26  N3  UNL     1       5.988  -2.359   1.225  1.00  0.00    -0.265 N 
ATOM     27  H2  UNL     1       4.102  -2.418   0.530  1.00  0.00     0.188 HD
HETATM   28  C13 UNL     1       7.138  -1.676   1.351  1.00  0.00     0.268 A 
ATOM     29  H3  UNL     1       5.920  -3.294   1.627  1.00  0.00     0.190 HD
HETATM   30  O3  UNL     1       8.147  -2.109   1.931  1.00  0.00    -0.266 OA
HETATM   31  C14 UNL     1       7.259  -0.395   0.804  1.00  0.00     0.041 A 
HETATM   32  C15 UNL     1       6.114   0.088   0.143  1.00  0.00     0.080 A 
HETATM   33  C18 UNL     1       8.459   0.402   1.001  1.00  0.00     0.048 C 
HETATM   34  N4  UNL     1       6.271   1.276  -0.603  1.00  0.00    -0.387 N 
HETATM   35  C16 UNL     1       7.487   2.080  -0.609  1.00  0.00     0.120 C 
ATOM     36  H4  UNL     1       5.486   1.591  -1.173  1.00  0.00     0.159 HD
HETATM   37  C17 UNL     1       8.671   1.391  -0.124  1.00  0.00     0.024 C 
ENDBRANCH  21  24
ENDBRANCH  20  21
ENDBRANCH   1  20
TORSDOF 7
