REMARK  9 active torsions:
REMARK  status: ('A' for Active; 'I' for Inactive)
REMARK    1  A    between atoms: O1_2  and  C2_3 
REMARK    2  A    between atoms: C7_9  and  N2_10 
REMARK    3  A    between atoms: C13_19  and  C14_20 
REMARK    4  A    between atoms: C15_21  and  C16_22 
REMARK    5  A    between atoms: C16_22  and  N4_23 
REMARK       I    between atoms: N4_23  and  C17_25 
REMARK    6  A    between atoms: C17_25  and  C18_27 
REMARK    7  A    between atoms: C18_27  and  C19_28 
REMARK    8  A    between atoms: C19_28  and  O3_29 
REMARK    9  A    between atoms: O3_29  and  C20_30 
ROOT
HETATM    1  C2  UNL     1      -8.128   0.412   1.344  1.00  0.00     0.071 A 
HETATM    2  C3  UNL     1      -8.824   1.157   0.409  1.00  0.00     0.059 A 
HETATM    3  C4  UNL     1      -8.164   1.978  -0.477  1.00  0.00     0.049 A 
HETATM    4  C5  UNL     1      -8.918   2.744  -1.441  1.00  0.00     0.099 C 
HETATM    5  N1  UNL     1      -9.522   3.378  -2.207  1.00  0.00    -0.191 NA
HETATM    6  C6  UNL     1      -6.787   2.044  -0.414  1.00  0.00     0.052 A 
HETATM    7  C7  UNL     1      -6.048   1.321   0.499  1.00  0.00     0.036 A 
HETATM    8  C27 UNL     1      -6.736   0.507   1.375  1.00  0.00     0.066 A 
ENDROOT
BRANCH   1   9
HETATM    9  O1  UNL     1      -8.831  -0.389   2.203  1.00  0.00    -0.356 OA
HETATM   10  C1  UNL     1     -10.241  -0.467   2.150  1.00  0.00     0.210 C 
ENDBRANCH   1   9
BRANCH   7  11
HETATM   11  N2  UNL     1      -4.637   1.428   0.518  1.00  0.00    -0.353 N 
HETATM   12  C8  UNL     1      -3.821   0.565   0.070  1.00  0.00     0.085 C 
HETATM   13  C9  UNL     1      -4.284  -0.603  -0.499  1.00  0.00     0.050 C 
HETATM   14  C26 UNL     1      -2.485   0.892   0.200  1.00  0.00     0.212 C 
HETATM   15  C10 UNL     1      -3.588  -1.690  -0.982  1.00  0.00     0.090 C 
HETATM   16  N3  UNL     1      -2.266  -1.784  -1.296  1.00  0.00    -0.365 N 
HETATM   17  C11 UNL     1      -1.270  -0.883  -1.109  1.00  0.00     0.049 A 
ATOM     18  H3  UNL     1      -1.984  -2.660  -1.736  1.00  0.00     0.165 HD
HETATM   19  C12 UNL     1      -0.081  -1.300  -1.683  1.00  0.00     0.051 A 
HETATM   20  C25 UNL     1      -1.381   0.314  -0.436  1.00  0.00     0.060 A 
HETATM   21  C13 UNL     1       1.023  -0.481  -1.571  1.00  0.00     0.021 A 
HETATM   22  C23 UNL     1       0.946   0.718  -0.907  1.00  0.00     0.041 A 
HETATM   23  C24 UNL     1      -0.253   1.106  -0.345  1.00  0.00     0.029 A 
HETATM   24 BR1  UNL     1      -0.426   2.761   0.591  1.00  0.00    -0.050 Br
HETATM   25  O4  UNL     1      -2.170   1.823   0.978  1.00  0.00    -0.285 OA
ATOM     26  H2  UNL     1      -4.241   2.274   0.928  1.00  0.00     0.166 HD
BRANCH  21  27
HETATM   27  C14 UNL     1       2.290  -0.871  -2.154  1.00  0.00    -0.065 C 
HETATM   28  C15 UNL     1       3.349  -1.175  -2.632  1.00  0.00    -0.081 C 
BRANCH  28  29
HETATM   29  C16 UNL     1       4.659  -1.529  -3.205  1.00  0.00     0.217 C 
BRANCH  29  30
HETATM   30  N4  UNL     1       5.488  -2.206  -2.227  1.00  0.00    -0.351 N 
HETATM   31  C17 UNL     1       5.818  -1.534  -1.033  1.00  0.00     0.220 C 
HETATM   32  O2  UNL     1       5.397  -0.354  -0.811  1.00  0.00    -0.274 OA
ATOM     33  H4  UNL     1       5.827  -3.152  -2.400  1.00  0.00     0.163 HD
BRANCH  31  34
HETATM   34  C18 UNL     1       6.669  -2.217  -0.018  1.00  0.00     0.129 C 
BRANCH  34  35
HETATM   35  C19 UNL     1       6.871  -1.303   1.154  1.00  0.00     0.177 C 
BRANCH  35  36
HETATM   36  O3  UNL     1       7.496  -0.136   0.735  1.00  0.00    -0.386 OA
BRANCH  36  37
HETATM   37  C20 UNL     1       7.680   0.712   1.839  1.00  0.00     0.113 C 
HETATM   38  C21 UNL     1       6.964   2.018   1.573  1.00  0.00     0.039 C 
HETATM   39  C22 UNL     1       9.148   1.024   2.038  1.00  0.00     0.039 C 
ENDBRANCH  36  37
ENDBRANCH  35  36
ENDBRANCH  34  35
ENDBRANCH  31  34
ENDBRANCH  29  30
ENDBRANCH  28  29
ENDBRANCH  21  27
ENDBRANCH   7  11
TORSDOF 9
