REMARK  7 active torsions:
REMARK  status: ('A' for Active; 'I' for Inactive)
REMARK    1  A    between atoms: C1_2  and  C2_4 
REMARK    2  A    between atoms: C2_4  and  C3_5 
REMARK    3  A    between atoms: C3_5  and  N2_6 
REMARK    4  A    between atoms: N3_9  and  C6_10 
REMARK    5  A    between atoms: C13_19  and  C14_20 
REMARK       I    between atoms: C14_20  and  N4_22 
REMARK    6  A    between atoms: N4_22  and  C15_24 
REMARK    7  A    between atoms: N5_31  and  C22_32 
ROOT
HETATM    1  C6  UNL     1      -1.883   0.798   0.521  1.00  0.00     0.050 A 
HETATM    2  C7  UNL     1      -1.192  -0.002  -0.375  1.00  0.00     0.061 A 
HETATM    3  C8  UNL     1       0.205   0.060  -0.454  1.00  0.00     0.051 A 
HETATM    4  C9  UNL     1       0.882   0.926   0.373  1.00  0.00     0.043 A 
HETATM    5  C10 UNL     1       0.208   1.728   1.276  1.00  0.00     0.039 A 
HETATM    6  C11 UNL     1      -1.173   1.635   1.321  1.00  0.00     0.038 A 
HETATM    7 BR1  UNL     1      -2.032   2.752   2.604  1.00  0.00    -0.049 Br
HETATM    8  C12 UNL     1       2.241   0.987   0.250  1.00  0.00     0.201 A 
HETATM    9  O2  UNL     1       2.903   1.759   0.981  1.00  0.00    -0.286 OA
HETATM   10  C13 UNL     1       2.892   0.190  -0.690  1.00  0.00     0.098 A 
HETATM   11  C21 UNL     1       2.152  -0.649  -1.475  1.00  0.00     0.113 A 
HETATM   12  N5  UNL     1       0.799  -0.726  -1.367  1.00  0.00    -0.350 N 
ENDROOT
BRANCH   1  13
HETATM   13  N3  UNL     1      -3.288   0.744   0.558  1.00  0.00    -0.376 N 
HETATM   14  C5  UNL     1      -4.027  -0.453   0.950  1.00  0.00     0.153 C 
HETATM   15  C4  UNL     1      -5.449  -0.384   0.445  1.00  0.00     0.292 C 
HETATM   16  N2  UNL     1      -6.146   0.768   0.882  1.00  0.00     0.092 N 
HETATM   17  C26 UNL     1      -5.402   1.974   0.919  1.00  0.00     0.292 C 
HETATM   18  C25 UNL     1      -4.081   1.899   0.194  1.00  0.00     0.153 C 
BRANCH  16  19
HETATM   19  C3  UNL     1      -7.328   0.971   0.079  1.00  0.00     0.281 C 
BRANCH  19  20
HETATM   20  C2  UNL     1      -8.356  -0.086   0.298  1.00  0.00     0.129 C 
BRANCH  20  21
HETATM   21  C1  UNL     1      -9.548   0.196  -0.521  1.00  0.00     0.232 C 
HETATM   22  N1  UNL     1     -10.715  -0.628  -0.510  1.00  0.00    -0.062 NA
HETATM   23  O1  UNL     1      -9.554   1.206  -1.270  1.00  0.00    -0.277 OA
ENDBRANCH  20  21
ENDBRANCH  19  20
ENDBRANCH  16  19
ENDBRANCH   1  13
BRANCH  12  24
HETATM   24  C22 UNL     1       0.076  -1.677  -2.209  1.00  0.00     0.090 A 
HETATM   25  C23 UNL     1       0.782  -2.945  -2.574  1.00  0.00     0.028 A 
HETATM   26  C24 UNL     1      -0.321  -2.954  -1.507  1.00  0.00     0.028 A 
ENDBRANCH  12  24
BRANCH  10  27
HETATM   27  C14 UNL     1       4.336   0.357  -0.741  1.00  0.00     0.257 C 
HETATM   28  O3  UNL     1       4.795   0.761  -1.873  1.00  0.00    -0.267 OA
HETATM   29  N4  UNL     1       5.241   0.123   0.303  1.00  0.00    -0.352 N 
ATOM     30  H4  UNL     1       4.878  -0.237   1.186  1.00  0.00     0.163 HD
BRANCH  29  31
HETATM   31  C15 UNL     1       6.669   0.367   0.193  1.00  0.00     0.084 C 
HETATM   32  C16 UNL     1       7.201   1.090   1.390  1.00  0.00     0.025 C 
HETATM   33  C17 UNL     1       8.234   0.270   2.138  1.00  0.00     0.002 C 
HETATM   34  C18 UNL     1       9.348  -0.167   1.240  1.00  0.00     0.000 C 
HETATM   35  C19 UNL     1       8.867  -0.777  -0.060  1.00  0.00     0.002 C 
HETATM   36  C20 UNL     1       7.353  -0.966  -0.036  1.00  0.00     0.025 C 
ENDBRANCH  29  31
ENDBRANCH  10  27
TORSDOF 7
