REMARK  9 active torsions:
REMARK  status: ('A' for Active; 'I' for Inactive)
REMARK       I    between atoms: C1_2  and  N1_3 
REMARK    1  A    between atoms: C1_2  and  C9_15 
REMARK    2  A    between atoms: N1_3  and  C2_5 
REMARK    3  A    between atoms: C2_5  and  C3_6 
REMARK    4  A    between atoms: C3_6  and  C4_7 
REMARK       I    between atoms: N3_19  and  C13_20 
REMARK    5  A    between atoms: C13_20  and  C14_22 
REMARK    6  A    between atoms: N4_26  and  C18_27 
REMARK    7  A    between atoms: C18_27  and  C19_29 
REMARK    8  A    between atoms: C20_30  and  C21_31 
REMARK    9  A    between atoms: C24_34  and  O3_35 
ROOT
HETATM    1  C9  UNL     1      -1.800  -1.812   0.915  1.00  0.00     0.179 C 
HETATM    2  C10 UNL     1      -2.500  -3.108   1.329  1.00  0.00     0.037 C 
HETATM    3  C11 UNL     1      -1.972  -4.077   0.292  1.00  0.00     0.022 C 
HETATM    4  C12 UNL     1      -0.570  -3.543  -0.005  1.00  0.00     0.127 C 
HETATM    5  N3  UNL     1      -0.454  -2.285   0.683  1.00  0.00    -0.337 N 
HETATM    6  C13 UNL     1       0.729  -1.614   1.075  1.00  0.00     0.243 C 
HETATM    7  O2  UNL     1       0.733  -0.535   1.678  1.00  0.00    -0.271 OA
ENDROOT
BRANCH   6   8
HETATM    8  C14 UNL     1       1.998  -2.285   0.716  1.00  0.00     0.177 C 
HETATM    9  C15 UNL     1       2.433  -3.127   1.951  1.00  0.00     0.037 C 
HETATM   10  C16 UNL     1       3.779  -3.571   1.430  1.00  0.00     0.022 C 
HETATM   11  C17 UNL     1       4.323  -2.356   0.736  1.00  0.00     0.125 C 
HETATM   12  N4  UNL     1       3.142  -1.507   0.464  1.00  0.00    -0.358 N 
BRANCH  12  13
HETATM   13  C18 UNL     1       3.352  -0.199  -0.029  1.00  0.00     0.099 C 
HETATM   14  S1  UNL     1       2.136   0.738  -0.507  1.00  0.00    -0.061 SA
BRANCH  13  15
HETATM   15  C19 UNL     1       4.715   0.329  -0.158  1.00  0.00     0.042 C 
HETATM   16  C20 UNL     1       4.957   1.528  -0.637  1.00  0.00     0.014 C 
BRANCH  16  17
HETATM   17  C21 UNL     1       6.298   2.059  -0.771  1.00  0.00    -0.034 A 
HETATM   18  C22 UNL     1       7.442   1.371  -0.449  1.00  0.00     0.014 A 
HETATM   19  C23 UNL     1       8.721   1.917  -0.583  1.00  0.00     0.039 A 
HETATM   20  C24 UNL     1       8.861   3.200  -1.059  1.00  0.00     0.087 A 
HETATM   21  C25 UNL     1       7.699   3.889  -1.384  1.00  0.00     0.068 A 
HETATM   22 CL1  UNL     1       7.899   5.537  -1.997  1.00  0.00    -0.081 Cl
HETATM   23  C26 UNL     1       6.441   3.365  -1.256  1.00  0.00     0.038 A 
BRANCH  20  24
HETATM   24  O3  UNL     1      10.101   3.788  -1.213  1.00  0.00    -0.359 OA
ATOM     25  H3  UNL     1      10.198   4.674  -1.542  1.00  0.00     0.217 HD
ENDBRANCH  20  24
ENDBRANCH  16  17
ENDBRANCH  13  15
ENDBRANCH  12  13
ENDBRANCH   6   8
BRANCH   1  26
HETATM   26  C1  UNL     1      -2.340  -1.300  -0.352  1.00  0.00     0.240 C 
HETATM   27  O1  UNL     1      -1.611  -1.270  -1.371  1.00  0.00    -0.271 OA
HETATM   28  N1  UNL     1      -3.680  -0.843  -0.420  1.00  0.00    -0.359 N 
ATOM     29  H1  UNL     1      -4.274  -0.865   0.409  1.00  0.00     0.162 HD
BRANCH  28  30
HETATM   30  C2  UNL     1      -4.205  -0.338  -1.695  1.00  0.00     0.125 C 
BRANCH  30  31
HETATM   31  C3  UNL     1      -5.630   0.069  -1.482  1.00  0.00     0.052 C 
BRANCH  31  32
HETATM   32  C4  UNL     1      -5.671   1.160  -0.433  1.00  0.00     0.187 C 
HETATM   33  C5  UNL     1      -7.137   1.533  -0.258  1.00  0.00     0.033 C 
HETATM   34  C6  UNL     1      -7.190   2.740   0.657  1.00  0.00     0.004 C 
HETATM   35  C7  UNL     1      -6.383   3.867   0.072  1.00  0.00     0.027 C 
HETATM   36  C8  UNL     1      -5.684   3.443  -1.191  1.00  0.00     0.232 C 
HETATM   37  N2  UNL     1      -4.878   2.281  -0.903  1.00  0.00    -0.071 N 
ATOM     38  H22 UNL     1      -4.132   2.505  -0.245  1.00  0.00     0.277 HD
ATOM     39  H21 UNL     1      -4.311   2.018  -1.709  1.00  0.00     0.277 HD
ENDBRANCH  31  32
ENDBRANCH  30  31
ENDBRANCH  28  30
ENDBRANCH   1  26
TORSDOF 9
