REMARK  7 active torsions:
REMARK  status: ('A' for Active; 'I' for Inactive)
REMARK    1  A    between atoms: C5_6  and  C6_7 
REMARK    2  A    between atoms: C8_9  and  C9_10 
REMARK       I    between atoms: N1_15  and  C14_17 
REMARK    3  A    between atoms: C14_17  and  C15_19 
REMARK    4  A    between atoms: C19_25  and  S1_26 
REMARK    5  A    between atoms: S1_26  and  N3_29 
REMARK    6  A    between atoms: N3_29  and  C20_31 
REMARK    7  A    between atoms: C24_35  and  C25_36 
ROOT
HETATM    1  C1  UNL     1      -2.014   1.758  -2.912  1.00  0.00     0.052 C 
HETATM    2  C2  UNL     1      -0.994   1.131  -2.087  1.00  0.00    -0.017 A 
HETATM    3  C3  UNL     1       0.100   1.922  -1.692  1.00  0.00     0.042 A 
HETATM    4 CL1  UNL     1       0.085   3.616  -2.179  1.00  0.00    -0.084 Cl
HETATM    5  C4  UNL     1       1.135   1.397  -0.958  1.00  0.00     0.038 A 
HETATM    6  C5  UNL     1       1.154   0.083  -0.575  1.00  0.00    -0.006 A 
HETATM    7  C18 UNL     1       0.093  -0.687  -0.956  1.00  0.00     0.039 A 
HETATM    8  C19 UNL     1      -0.998  -0.178  -1.716  1.00  0.00     0.087 A 
ENDROOT
BRANCH   6   9
HETATM    9  C6  UNL     1       2.244  -0.504   0.206  1.00  0.00     0.044 A 
HETATM   10  C7  UNL     1       2.273  -1.821   0.595  1.00  0.00     0.038 A 
HETATM   11  C8  UNL     1       3.294  -2.398   1.334  1.00  0.00    -0.048 A 
HETATM   12  C12 UNL     1       4.344  -1.585   1.697  1.00  0.00     0.056 A 
HETATM   13  C13 UNL     1       4.333  -0.263   1.316  1.00  0.00     0.108 A 
HETATM   14  N1  UNL     1       5.325   0.485   1.665  1.00  0.00    -0.313 N 
HETATM   15  N2  UNL     1       3.289   0.251   0.582  1.00  0.00    -0.342 N 
HETATM   16  C14 UNL     1       5.457   1.846   1.354  1.00  0.00     0.227 C 
ATOM     17  H1  UNL     1       6.071   0.053   2.210  1.00  0.00     0.170 HD
HETATM   18  O1  UNL     1       5.050   2.754   2.150  1.00  0.00    -0.273 OA
ATOM     19  H2  UNL     1       3.309   1.235   0.315  1.00  0.00     0.167 HD
BRANCH  11  20
HETATM   20  C9  UNL     1       3.250  -3.841   1.718  1.00  0.00     0.019 A 
HETATM   21  C10 UNL     1       1.946  -4.523   1.883  1.00  0.00     0.010 A 
HETATM   22  C11 UNL     1       2.759  -4.823   0.652  1.00  0.00     0.010 A 
ENDBRANCH  11  20
BRANCH  16  23
HETATM   23  C15 UNL     1       6.078   2.351   0.083  1.00  0.00     0.078 A 
HETATM   24  C16 UNL     1       6.991   3.549   0.184  1.00  0.00     0.015 A 
HETATM   25  C17 UNL     1       5.646   3.628  -0.505  1.00  0.00     0.015 A 
ENDBRANCH  16  23
ENDBRANCH   6   9
BRANCH   8  26
HETATM   26  S1  UNL     1      -2.328  -1.240  -2.074  1.00  0.00     0.259 S 
HETATM   27  O2  UNL     1      -2.540  -1.228  -3.571  1.00  0.00    -0.201 OA
HETATM   28  O3  UNL     1      -1.801  -2.678  -1.845  1.00  0.00    -0.201 OA
BRANCH  26  29
HETATM   29  N3  UNL     1      -3.692  -1.087  -1.163  1.00  0.00    -0.310 N 
ATOM     30  H3  UNL     1      -3.943  -1.911  -0.616  1.00  0.00     0.172 HD
BRANCH  29  31
HETATM   31  C20 UNL     1      -4.540  -0.020  -1.030  1.00  0.00     0.105 C 
HETATM   32  C21 UNL     1      -6.026  -0.316  -1.082  1.00  0.00     0.027 C 
HETATM   33  C22 UNL     1      -6.633   0.888  -0.398  1.00  0.00     0.003 C 
HETATM   34  C23 UNL     1      -5.613   1.481   0.520  1.00  0.00     0.016 C 
HETATM   35  C24 UNL     1      -4.415   0.551   0.406  1.00  0.00     0.098 C 
BRANCH  35  36
HETATM   36  C25 UNL     1      -4.555  -0.448   1.457  1.00  0.00     0.237 C 
HETATM   37  N4  UNL     1      -4.410  -0.014   2.797  1.00  0.00    -0.062 NA
HETATM   38  O4  UNL     1      -4.793  -1.655   1.264  1.00  0.00    -0.276 OA
ENDBRANCH  35  36
ENDBRANCH  29  31
ENDBRANCH  26  29
ENDBRANCH   8  26
TORSDOF 7
