REMARK  10 active torsions:
REMARK  status: ('A' for Active; 'I' for Inactive)
REMARK    1  A    between atoms: C2_2  and  C3_3 
REMARK    2  A    between atoms: C3_3  and  N1_4 
REMARK    3  A    between atoms: N1_4  and  C4_6 
REMARK    4  A    between atoms: C5_9  and  N3_10 
REMARK    5  A    between atoms: N3_10  and  C6_12 
REMARK    6  A    between atoms: C6_12  and  C7_13 
REMARK    7  A    between atoms: C13_21  and  N5_22 
REMARK    8  A    between atoms: N5_22  and  C14_24 
REMARK    9  A    between atoms: N6_27  and  C17_28 
REMARK   10  A    between atoms: C17_28  and  C18_29 
ROOT
HETATM    1  C4  UNL     1      -1.765   2.069   0.690  1.00  0.00     0.707 A 
HETATM    2  N2  UNL     1      -2.747   1.449   0.043  1.00  0.00    -0.022 N 
ATOM      3  H2  UNL     1      -3.701   1.794   0.152  1.00  0.00     0.203 HD
HETATM    4  C5  UNL     1      -2.532   0.385  -0.749  1.00  0.00     0.707 A 
HETATM    5  N4  UNL     1      -1.268  -0.039  -0.868  1.00  0.00    -0.022 N 
ATOM      6  H4  UNL     1      -1.065  -0.844  -1.461  1.00  0.00     0.203 HD
HETATM    7  C13 UNL     1      -0.240   0.586  -0.210  1.00  0.00     0.707 A 
HETATM    8  N7  UNL     1      -0.507   1.641   0.567  1.00  0.00    -0.021 N 
ATOM      9  H7  UNL     1       0.247   2.116   1.063  1.00  0.00     0.203 HD
ENDROOT
BRANCH   7  10
HETATM   10  N5  UNL     1       0.928   0.135  -0.366  1.00  0.00    -0.220 N 
ATOM     11  H5  UNL     1       1.031  -0.674  -0.979  1.00  0.00     0.178 HD
BRANCH  10  12
HETATM   12  C14 UNL     1       2.113   0.644   0.229  1.00  0.00     0.102 C 
HETATM   13  C15 UNL     1       2.719  -0.516   1.046  1.00  0.00     0.056 C 
HETATM   14  C16 UNL     1       3.352  -1.432   0.045  1.00  0.00     0.275 C 
HETATM   15  N6  UNL     1       4.652  -0.849  -0.352  1.00  0.00     0.092 N 
HETATM   16  C24 UNL     1       4.466   0.614  -0.401  1.00  0.00     0.275 C 
HETATM   17  C25 UNL     1       3.101   0.894  -0.929  1.00  0.00     0.056 C 
BRANCH  15  18
HETATM   18  C17 UNL     1       5.621  -1.161   0.694  1.00  0.00     0.312 C 
BRANCH  18  19
HETATM   19  C18 UNL     1       6.996  -0.924   0.201  1.00  0.00    -0.013 A 
HETATM   20  C19 UNL     1       7.341  -0.603  -1.088  1.00  0.00     0.010 A 
HETATM   21  C20 UNL     1       8.653  -0.435  -1.513  1.00  0.00     0.001 A 
HETATM   22  C21 UNL     1       9.657  -0.596  -0.610  1.00  0.00     0.001 A 
HETATM   23  C22 UNL     1       9.339  -0.919   0.692  1.00  0.00     0.019 A 
HETATM   24  C23 UNL     1       8.051  -1.086   1.118  1.00  0.00     0.019 A 
HETATM   25 BR1  UNL     1       7.621  -1.535   2.926  1.00  0.00    -0.051 Br
ENDBRANCH  18  19
ENDBRANCH  15  18
ENDBRANCH  10  12
ENDBRANCH   7  10
BRANCH   4  26
HETATM   26  N3  UNL     1      -3.485  -0.230  -1.383  1.00  0.00    -0.225 N 
ATOM     27  H3  UNL     1      -3.232  -1.029  -1.964  1.00  0.00     0.177 HD
BRANCH  26  28
HETATM   28  C6  UNL     1      -4.860   0.138  -1.320  1.00  0.00     0.142 C 
BRANCH  28  29
HETATM   29  C7  UNL     1      -5.781  -0.969  -1.809  1.00  0.00     0.004 C 
HETATM   30  C8  UNL     1      -5.621  -2.218  -0.979  1.00  0.00     0.006 C 
HETATM   31  C9  UNL     1      -6.930  -2.661  -0.365  1.00  0.00     0.000 C 
HETATM   32  C10 UNL     1      -7.915  -2.829  -1.503  1.00  0.00     0.000 C 
HETATM   33  C11 UNL     1      -8.224  -1.482  -2.062  1.00  0.00     0.000 C 
HETATM   34  C12 UNL     1      -7.175  -0.443  -1.823  1.00  0.00     0.006 C 
ENDBRANCH  28  29
ENDBRANCH  26  28
ENDBRANCH   4  26
BRANCH   1  35
HETATM   35  N1  UNL     1      -2.077   3.097   1.437  1.00  0.00    -0.222 N 
ATOM     36  H1  UNL     1      -3.056   3.378   1.491  1.00  0.00     0.178 HD
BRANCH  35  37
HETATM   37  C3  UNL     1      -1.112   3.847   2.183  1.00  0.00     0.164 C 
BRANCH  37  38
HETATM   38  C2  UNL     1      -0.743   3.185   3.455  1.00  0.00    -0.017 C 
HETATM   39  C1  UNL     1      -0.948   3.794   4.618  1.00  0.00     0.008 C 
ENDBRANCH  37  38
ENDBRANCH  35  37
ENDBRANCH   1  35
TORSDOF 10
