REMARK  10 active torsions:
REMARK  status: ('A' for Active; 'I' for Inactive)
REMARK    1  A    between atoms: O1_2  and  N1_3 
REMARK    2  A    between atoms: N1_3  and  C8_12 
REMARK    3  A    between atoms: C2_4  and  C3_5 
REMARK    4  A    between atoms: C3_5  and  O2_6 
REMARK    5  A    between atoms: C3_5  and  C4_8 
REMARK    6  A    between atoms: C8_12  and  C9_13 
REMARK    7  A    between atoms: C11_15  and  C12_16 
REMARK    8  A    between atoms: C14_18  and  C15_19 
REMARK    9  A    between atoms: C15_19  and  S1_20 
REMARK   10  A    between atoms: C19_29  and  N3_30 
ROOT
HETATM    1  C9  UNL     1      -0.744  -0.993  -0.787  1.00  0.00    -0.020 A 
HETATM    2  C10 UNL     1       0.359  -0.775  -0.058  1.00  0.00     0.026 A 
HETATM    3  C11 UNL     1       1.604  -0.318  -0.585  1.00  0.00     0.024 A 
HETATM    4  C19 UNL     1       1.645  -0.083  -1.926  1.00  0.00     0.116 A 
HETATM    5  C20 UNL     1       0.474  -0.313  -2.692  1.00  0.00     0.056 A 
HETATM    6  C21 UNL     1      -0.688  -0.749  -2.176  1.00  0.00     0.021 A 
HETATM    7 BR1  UNL     1      -2.275  -1.047  -3.232  1.00  0.00    -0.050 Br
ENDROOT
BRANCH   3   8
HETATM    8  C12 UNL     1       2.825  -0.465   0.242  1.00  0.00     0.048 A 
HETATM    9  C13 UNL     1       3.892   0.381   0.343  1.00  0.00     0.038 A 
HETATM   10  C14 UNL     1       5.000   0.023   1.104  1.00  0.00    -0.037 A 
HETATM   11  C17 UNL     1       4.989  -1.189   1.759  1.00  0.00     0.082 A 
HETATM   12  C18 UNL     1       3.889  -2.032   1.649  1.00  0.00     0.246 A 
HETATM   13  O5  UNL     1       3.950  -3.153   2.293  1.00  0.00    -0.268 OA
HETATM   14  N2  UNL     1       2.856  -1.688   0.925  1.00  0.00    -0.323 N 
ATOM     15  H2  UNL     1       2.059  -2.321   0.856  1.00  0.00     0.169 HD
BRANCH  10  16
HETATM   16  C15 UNL     1       6.223   0.847   1.169  1.00  0.00     0.178 C 
BRANCH  16  17
HETATM   17  S1  UNL     1       7.248   0.595  -0.228  1.00  0.00     0.144 S 
HETATM   18  C16 UNL     1       8.733   1.571  -0.070  1.00  0.00     0.161 C 
HETATM   19  O3  UNL     1       7.652  -0.820  -0.409  1.00  0.00    -0.228 OA
HETATM   20  O4  UNL     1       6.544   1.134  -1.467  1.00  0.00    -0.228 OA
ENDBRANCH  16  17
ENDBRANCH  10  16
ENDBRANCH   3   8
BRANCH   4  21
HETATM   21  N3  UNL     1       2.745   0.283  -2.708  1.00  0.00    -0.115 N 
HETATM   22  O6  UNL     1       3.593   1.114  -2.556  1.00  0.00    -0.532 OA
HETATM   23  O7  UNL     1       2.830  -0.414  -3.968  1.00  0.00    -0.532 OA
ENDBRANCH   4  21
BRANCH   1  24
HETATM   24  C8  UNL     1      -1.941  -1.683  -0.306  1.00  0.00     0.194 C 
BRANCH  24  25
HETATM   25  N1  UNL     1      -2.944  -1.013   0.444  1.00  0.00    -0.267 N 
HETATM   26  C2  UNL     1      -3.061   0.292   0.278  1.00  0.00     0.122 C 
BRANCH  25  27
HETATM   27  O1  UNL     1      -3.812  -1.710   1.173  1.00  0.00    -0.283 OA
HETATM   28  C1  UNL     1      -3.826  -2.613   2.178  1.00  0.00     0.237 C 
ENDBRANCH  25  27
BRANCH  26  29
HETATM   29  C3  UNL     1      -4.109   1.152   0.827  1.00  0.00     0.166 C 
BRANCH  29  30
HETATM   30  O2  UNL     1      -3.628   2.481   0.821  1.00  0.00    -0.390 OA
ATOM     31  H2  UNL     1      -4.309   3.040   1.178  1.00  0.00     0.210 HD
ENDBRANCH  29  30
BRANCH  29  32
HETATM   32  C4  UNL     1      -5.323   1.138  -0.074  1.00  0.00    -0.021 C 
HETATM   33  C5  UNL     1      -5.044   1.574  -1.485  1.00  0.00     0.017 C 
HETATM   34  C6  UNL     1      -6.117  -0.125  -0.049  1.00  0.00     0.017 C 
HETATM   35  C7  UNL     1      -6.299   2.243   0.501  1.00  0.00     0.017 C 
ENDBRANCH  29  32
ENDBRANCH  26  29
ENDBRANCH  24  25
ENDBRANCH   1  24
TORSDOF 10
