REMARK  7 active torsions:
REMARK  status: ('A' for Active; 'I' for Inactive)
REMARK    1  A    between atoms: C4_5  and  O1_6 
REMARK    2  A    between atoms: C5_8  and  C6_9 
REMARK    3  A    between atoms: C6_9  and  C9_12 
REMARK    4  A    between atoms: C9_12  and  C10_13 
REMARK    5  A    between atoms: C12_16  and  C13_17 
REMARK    6  A    between atoms: C13_17  and  O2_18 
REMARK    7  A    between atoms: N3_20  and  O3_22 
ROOT
HETATM    1  C10 UNL     1      -3.633  -1.718   0.166  1.00  0.00     0.124 C 
HETATM    2  C11 UNL     1      -3.890  -3.043   0.734  1.00  0.00     0.059 C 
HETATM    3  N2  UNL     1      -4.097  -4.097   1.209  1.00  0.00    -0.197 NA
ENDROOT
BRANCH   1   4
HETATM    4  C9  UNL     1      -2.216  -1.349   0.551  1.00  0.00     0.023 C 
BRANCH   4   5
HETATM    5  C6  UNL     1      -1.850   0.036  -0.004  1.00  0.00    -0.036 C 
HETATM    6  C7  UNL     1      -2.786   1.040   0.681  1.00  0.00     0.015 C 
HETATM    7  C8  UNL     1      -2.163   0.003  -1.450  1.00  0.00     0.015 C 
BRANCH   5   8
HETATM    8  C5  UNL     1      -0.464   0.427   0.358  1.00  0.00     0.080 C 
HETATM    9  C4  UNL     1       0.652  -0.428  -0.209  1.00  0.00     0.146 C 
HETATM   10  C3  UNL     1       1.229  -1.417   0.757  1.00  0.00     0.081 C 
HETATM   11  N4  UNL     1       1.438   0.779  -0.357  1.00  0.00    -0.288 N 
HETATM   12  C2  UNL     1       2.711  -1.560   0.716  1.00  0.00     0.132 C 
HETATM   13  N1  UNL     1       3.374  -0.688  -0.224  1.00  0.00    -0.338 N 
HETATM   14  C1  UNL     1       4.568  -1.076  -0.955  1.00  0.00     0.154 C 
HETATM   15  C14 UNL     1       2.843   0.608  -0.444  1.00  0.00     0.323 C 
HETATM   16  O4  UNL     1       3.576   1.601  -0.712  1.00  0.00    -0.247 OA
HETATM   17  C12 UNL     1       0.200   1.551  -0.330  1.00  0.00     0.178 C 
BRANCH   9  18
HETATM   18  O1  UNL     1       0.416  -0.943  -1.481  1.00  0.00    -0.370 OA
ATOM     19  H1  UNL     1       0.050  -0.316  -2.094  1.00  0.00     0.212 HD
ENDBRANCH   9  18
BRANCH  17  20
HETATM   20  C13 UNL     1       0.458   2.772   0.491  1.00  0.00     0.159 C 
HETATM   21  N3  UNL     1       0.156   2.907   1.706  1.00  0.00    -0.249 N 
ATOM     22  H3  UNL     1      -0.303   2.145   2.205  1.00  0.00     0.196 HD
BRANCH  20  23
HETATM   23  O2  UNL     1       1.082   3.816  -0.175  1.00  0.00    -0.347 OA
ATOM     24  H2  UNL     1       1.246   4.593   0.347  1.00  0.00     0.219 HD
ENDBRANCH  20  23
BRANCH  21  25
HETATM   25  O3  UNL     1       0.443   4.076   2.358  1.00  0.00    -0.288 OA
ATOM     26  H3  UNL     1       0.215   4.178   3.275  1.00  0.00     0.244 HD
ENDBRANCH  21  25
ENDBRANCH  17  20
ENDBRANCH   5   8
ENDBRANCH   4   5
ENDBRANCH   1   4
TORSDOF 7
