REMARK  7 active torsions:
REMARK  status: ('A' for Active; 'I' for Inactive)
REMARK    1  A    between atoms: C2_2  and  C3_3 
REMARK    2  A    between atoms: C3_3  and  C4_4 
REMARK    3  A    between atoms: C4_4  and  C5_5 
REMARK    4  A    between atoms: C6_6  and  C7_7 
REMARK    5  A    between atoms: C16_17  and  O2_18 
REMARK    6  A    between atoms: C17_20  and  O3_21 
REMARK    7  A    between atoms: C18_23  and  O4_24 
ROOT
HETATM    1  C7  UNL     1       0.566   0.168  -0.252  1.00  0.00     0.176 C 
HETATM    2  O1  UNL     1      -0.049   1.295  -0.736  1.00  0.00    -0.368 OA
HETATM    3  C8  UNL     1      -1.355   1.003  -1.103  1.00  0.00     0.067 C 
HETATM    4  C9  UNL     1      -1.253   0.044  -2.297  1.00  0.00     0.047 C 
HETATM    5  C10 UNL     1      -1.897   2.311  -1.698  1.00  0.00     0.047 C 
HETATM    6  C11 UNL     1      -2.207   0.465  -0.019  1.00  0.00     0.045 C 
HETATM    7  C12 UNL     1      -3.121   1.520   0.598  1.00  0.00     0.018 C 
HETATM    8  C13 UNL     1      -4.366   0.787   1.037  1.00  0.00     0.008 C 
HETATM    9  C14 UNL     1      -4.179  -0.643   0.629  1.00  0.00     0.011 C 
HETATM   10  C15 UNL     1      -5.493  -1.291   0.210  1.00  0.00     0.012 C 
HETATM   11  C16 UNL     1      -3.261  -0.495  -0.590  1.00  0.00     0.136 C 
HETATM   12  C17 UNL     1      -1.514  -0.245   1.081  1.00  0.00     0.163 C 
HETATM   13  C18 UNL     1      -0.029  -0.108   1.110  1.00  0.00     0.180 C 
ENDROOT
BRANCH  11  14
HETATM   14  O2  UNL     1      -4.006   0.071  -1.587  1.00  0.00    -0.394 OA
ATOM     15  H2  UNL     1      -4.658  -0.523  -1.940  1.00  0.00     0.210 HD
ENDBRANCH  11  14
BRANCH  12  16
HETATM   16  O3  UNL     1      -1.982   0.175   2.350  1.00  0.00    -0.392 OA
ATOM     17  H3  UNL     1      -1.538  -0.280   3.055  1.00  0.00     0.210 HD
ENDBRANCH  12  16
BRANCH  13  18
HETATM   18  O4  UNL     1       0.382   0.901   1.979  1.00  0.00    -0.390 OA
ATOM     19  H4  UNL     1       0.008   0.728   2.835  1.00  0.00     0.210 HD
ENDBRANCH  13  18
BRANCH   1  20
HETATM   20  C6  UNL     1       2.018   0.481  -0.036  1.00  0.00     0.003 C 
HETATM   21  C5  UNL     1       2.984  -0.133  -0.669  1.00  0.00    -0.028 C 
BRANCH  21  22
HETATM   22  C4  UNL     1       4.409   0.206  -0.427  1.00  0.00     0.027 C 
BRANCH  22  23
HETATM   23  C3  UNL     1       5.180  -1.014   0.084  1.00  0.00     0.003 C 
BRANCH  23  24
HETATM   24  C2  UNL     1       6.609  -0.561   0.295  1.00  0.00    -0.004 C 
HETATM   25  C1  UNL     1       7.448  -1.707   0.803  1.00  0.00     0.005 C 
ENDBRANCH  23  24
ENDBRANCH  22  23
ENDBRANCH  21  22
ENDBRANCH   1  20
TORSDOF 7
