REMARK  2 active torsions:
REMARK  status: ('A' for Active; 'I' for Inactive)
REMARK    1  A    between atoms: C5_6  and  N1_7 
REMARK       I    between atoms: N1_7  and  C6_9 
REMARK       I    between atoms: C6_9  and  N2_11 
REMARK    2  A    between atoms: N2_11  and  C7_13 
ROOT
HETATM    1  C7  UNL     1      -2.344   0.080  -0.327  1.00  0.00     0.123 C 
HETATM    2  C8  UNL     1      -2.386  -1.277  -0.891  1.00  0.00     0.091 C 
HETATM    3  N3  UNL     1      -2.418  -2.339  -1.329  1.00  0.00    -0.195 NA
HETATM    4  C9  UNL     1      -3.476   0.918  -0.941  1.00  0.00     0.046 C 
HETATM    5  C10 UNL     1      -4.723   0.071  -0.835  1.00  0.00     0.004 C 
HETATM    6  C11 UNL     1      -5.034  -0.309   0.585  1.00  0.00     0.000 C 
HETATM    7  C12 UNL     1      -4.014   0.174   1.571  1.00  0.00     0.004 C 
HETATM    8  C13 UNL     1      -2.601   0.010   1.136  1.00  0.00     0.046 C 
ENDROOT
BRANCH   1   9
HETATM    9  N2  UNL     1      -1.114   0.753  -0.636  1.00  0.00    -0.321 N 
HETATM   10  C6  UNL     1       0.121   0.163  -0.187  1.00  0.00     0.322 C 
HETATM   11  N1  UNL     1       1.326   0.809  -0.481  1.00  0.00    -0.306 N 
HETATM   12  O1  UNL     1       0.049  -0.889   0.439  1.00  0.00    -0.247 OA
ATOM     13  H1  UNL     1       1.271   1.680  -1.008  1.00  0.00     0.171 HD
ATOM     14  H2  UNL     1      -1.115   1.628  -1.161  1.00  0.00     0.166 HD
BRANCH  11  15
HETATM   15  C5  UNL     1       2.594   0.365  -0.116  1.00  0.00     0.076 A 
HETATM   16  C4  UNL     1       3.711   1.126  -0.486  1.00  0.00     0.143 A 
HETATM   17  C3  UNL     1       5.004   0.761  -0.168  1.00  0.00     0.053 A 
HETATM   18  F1  UNL     1       3.481   2.262  -1.185  1.00  0.00    -0.204 F 
HETATM   19  C2  UNL     1       5.230  -0.401   0.547  1.00  0.00    -0.037 A 
HETATM   20  C1  UNL     1       6.638  -0.745   0.862  1.00  0.00     0.050 C 
HETATM   21  C15 UNL     1       4.171  -1.185   0.935  1.00  0.00     0.042 A 
HETATM   22  C14 UNL     1       2.876  -0.774   0.588  1.00  0.00     0.057 A 
HETATM   23 CL1  UNL     1       4.457  -2.656   1.839  1.00  0.00    -0.084 Cl
ENDBRANCH  11  15
ENDBRANCH   1   9
TORSDOF 2
