REMARK  4 active torsions:
REMARK  status: ('A' for Active; 'I' for Inactive)
REMARK    1  A    between atoms: C3_3  and  C4_4 
REMARK    2  A    between atoms: C10_10  and  C11_11 
REMARK    3  A    between atoms: C13_16  and  O1_17 
REMARK    4  A    between atoms: C16_20  and  O2_21 
ROOT
HETATM    1  C4  UNL     1       2.573   0.217  -0.198  1.00  0.00    -0.059 C 
HETATM    2  C5  UNL     1       3.251   0.789   1.026  1.00  0.00     0.048 C 
HETATM    3  C6  UNL     1       1.305   0.621  -0.340  1.00  0.00    -0.067 C 
HETATM    4  C7  UNL     1       0.483   0.050  -1.431  1.00  0.00     0.074 C 
HETATM    5  C8  UNL     1      -0.907  -0.125  -0.856  1.00  0.00    -0.042 A 
HETATM    6  C9  UNL     1      -1.743  -0.956  -1.558  1.00  0.00     0.024 A 
HETATM    7  C10 UNL     1      -3.043  -1.190  -1.094  1.00  0.00     0.051 A 
HETATM    8  C12 UNL     1      -3.490  -0.594   0.063  1.00  0.00     0.053 A 
HETATM    9  C13 UNL     1      -2.664   0.242   0.778  1.00  0.00     0.078 A 
HETATM   10  C15 UNL     1      -1.359   0.453   0.279  1.00  0.00     0.011 A 
HETATM   11  C16 UNL     1      -0.533   1.342   1.153  1.00  0.00     0.158 C 
HETATM   12  C17 UNL     1       0.763   1.695   0.523  1.00  0.00     0.072 C 
ENDROOT
BRANCH   1  13
HETATM   13  C3  UNL     1       3.179  -0.738  -1.081  1.00  0.00     0.002 C 
HETATM   14  C2  UNL     1       4.353  -1.267  -1.151  1.00  0.00    -0.030 C 
HETATM   15  C1  UNL     1       5.530  -1.064  -0.312  1.00  0.00     0.036 C 
ENDBRANCH   1  13
BRANCH  11  16
HETATM   16  O2  UNL     1      -1.296   2.534   1.279  1.00  0.00    -0.390 OA
ATOM     17  H2  UNL     1      -0.771   3.099   1.834  1.00  0.00     0.210 HD
ENDBRANCH  11  16
BRANCH   7  18
HETATM   18  C11 UNL     1      -3.899  -2.120  -1.875  1.00  0.00     0.417 C 
HETATM   19  F1  UNL     1      -3.186  -2.697  -2.931  1.00  0.00    -0.166 F 
HETATM   20  F2  UNL     1      -4.958  -1.438  -2.450  1.00  0.00    -0.166 F 
HETATM   21  F3  UNL     1      -4.361  -3.184  -1.090  1.00  0.00    -0.166 F 
ENDBRANCH   7  18
BRANCH   9  22
HETATM   22  O1  UNL     1      -3.010   0.878   1.920  1.00  0.00    -0.355 OA
HETATM   23  C14 UNL     1      -4.084   0.986   2.733  1.00  0.00     0.210 C 
ENDBRANCH   9  22
TORSDOF 4
