REMARK  3 active torsions:
REMARK  status: ('A' for Active; 'I' for Inactive)
REMARK    1  A    between atoms: C7_7  and  N1_8 
REMARK       I    between atoms: N1_8  and  C8_10 
REMARK       I    between atoms: C8_10  and  N2_12 
REMARK    2  A    between atoms: N2_12  and  C9_14 
REMARK    3  A    between atoms: C11_16  and  C12_17 
ROOT
HETATM    1  N1  UNL     1      -0.198  -0.533   0.982  1.00  0.00    -0.338 N 
ATOM      2  H1  UNL     1      -0.174  -1.441   1.446  1.00  0.00     0.164 HD
HETATM    3  C8  UNL     1       1.096  -0.156   0.749  1.00  0.00     0.321 C 
HETATM    4  O1  UNL     1       1.433   0.924   0.200  1.00  0.00    -0.247 OA
HETATM    5  N2  UNL     1       2.184  -0.995   1.129  1.00  0.00    -0.303 N 
ATOM      6  H2  UNL     1       1.945  -1.833   1.659  1.00  0.00     0.171 HD
ENDROOT
BRANCH   1   7
HETATM    7  C7  UNL     1      -1.512  -0.179   0.841  1.00  0.00     0.090 C 
HETATM    8  C5  UNL     1      -1.833   1.272   0.549  1.00  0.00     0.004 C 
HETATM    9  C4  UNL     1      -3.356   1.459   0.637  1.00  0.00     0.007 C 
HETATM   10  C6  UNL     1      -1.384   1.855  -0.715  1.00  0.00     0.012 C 
HETATM   11  C3  UNL     1      -4.096   0.484  -0.230  1.00  0.00     0.005 C 
HETATM   12  C2  UNL     1      -3.749  -0.917   0.209  1.00  0.00    -0.017 C 
HETATM   13  C1  UNL     1      -4.541  -1.990  -0.485  1.00  0.00     0.010 C 
HETATM   14  C14 UNL     1      -2.257  -1.085  -0.105  1.00  0.00     0.029 C 
ENDBRANCH   1   7
BRANCH   5  15
HETATM   15  C9  UNL     1       3.551  -0.797   0.855  1.00  0.00     0.078 A 
HETATM   16  C10 UNL     1       4.231   0.150   0.120  1.00  0.00     0.054 A 
HETATM   17  C11 UNL     1       5.557   0.046   0.016  1.00  0.00     0.057 A 
HETATM   18  C13 UNL     1       6.170  -1.007   0.655  1.00  0.00     0.068 A 
HETATM   19  S1  UNL     1       4.860  -1.820   1.383  1.00  0.00    -0.083 SA
BRANCH  17  20
HETATM   20  C12 UNL     1       6.420   0.991  -0.817  1.00  0.00     0.418 C 
HETATM   21  F1  UNL     1       6.977   0.206  -1.831  1.00  0.00    -0.166 F 
HETATM   22  F2  UNL     1       5.708   2.002  -1.377  1.00  0.00    -0.166 F 
HETATM   23  F3  UNL     1       7.450   1.506  -0.082  1.00  0.00    -0.166 F 
ENDBRANCH  17  20
ENDBRANCH   5  15
TORSDOF 3
