REMARK  4 active torsions:
REMARK  status: ('A' for Active; 'I' for Inactive)
REMARK    1  A    between atoms: C5_5  and  C6_6 
REMARK    2  A    between atoms: C7_7  and  C8_8 
REMARK    3  A    between atoms: C11_18  and  N3_19 
REMARK    4  A    between atoms: N3_19  and  C12_21 
ROOT
HETATM    1  C1  UNL     1       0.766  -2.012   1.740  1.00  0.00     0.050 C 
HETATM    2  C2  UNL     1       1.075  -0.997   0.671  1.00  0.00    -0.035 A 
HETATM    3  C3  UNL     1       2.387  -0.648   0.436  1.00  0.00     0.026 A 
HETATM    4  C4  UNL     1       2.677   0.277  -0.538  1.00  0.00     0.029 A 
HETATM    5  C5  UNL     1       3.852   0.820  -0.999  1.00  0.00     0.114 A 
HETATM    6  N1  UNL     1       3.505   1.695  -1.988  1.00  0.00    -0.291 N 
ATOM      7  H1  UNL     1       4.155   2.262  -2.532  1.00  0.00     0.188 HD
HETATM    8  N2  UNL     1       2.182   1.689  -2.127  1.00  0.00    -0.299 N 
ATOM      9  H2  UNL     1       1.660   2.253  -2.798  1.00  0.00     0.187 HD
HETATM   10  C9  UNL     1       1.640   0.832  -1.254  1.00  0.00     0.063 A 
HETATM   11  C10 UNL     1       0.319   0.477  -1.014  1.00  0.00     0.061 A 
HETATM   12  C11 UNL     1       0.008  -0.449  -0.042  1.00  0.00     0.036 A 
ENDROOT
BRANCH  12  13
HETATM   13  N3  UNL     1      -1.318  -0.840   0.232  1.00  0.00    -0.385 N 
ATOM     14  H3  UNL     1      -1.454  -1.544   0.958  1.00  0.00     0.160 HD
BRANCH  13  15
HETATM   15  C12 UNL     1      -2.488  -0.340  -0.414  1.00  0.00     0.081 C 
HETATM   16  C13 UNL     1      -2.718   1.142  -0.234  1.00  0.00     0.025 C 
HETATM   17  C14 UNL     1      -4.027   1.449   0.449  1.00  0.00     0.002 C 
HETATM   18  C15 UNL     1      -5.159   0.887  -0.383  1.00  0.00     0.000 C 
HETATM   19  C16 UNL     1      -4.956  -0.569  -0.645  1.00  0.00     0.002 C 
HETATM   20  C17 UNL     1      -3.730  -1.045   0.059  1.00  0.00     0.025 C 
ENDBRANCH  13  15
ENDBRANCH  12  13
BRANCH   5  21
HETATM   21  C6  UNL     1       5.164   0.506  -0.513  1.00  0.00    -0.038 C 
HETATM   22  C7  UNL     1       6.265   0.233  -0.084  1.00  0.00     0.015 C 
BRANCH  22  23
HETATM   23  C8  UNL     1       7.600  -0.105   0.425  1.00  0.00     0.459 C 
HETATM   24  F1  UNL     1       7.486  -1.203   1.285  1.00  0.00    -0.159 F 
HETATM   25  F2  UNL     1       8.130   0.941   1.183  1.00  0.00    -0.159 F 
HETATM   26  F3  UNL     1       8.483  -0.354  -0.590  1.00  0.00    -0.159 F 
ENDBRANCH  22  23
ENDBRANCH   5  21
TORSDOF 4
