REMARK  7 active torsions:
REMARK  status: ('A' for Active; 'I' for Inactive)
REMARK    1  A    between atoms: C2_2  and  C3_3 
REMARK    2  A    between atoms: C3_3  and  N1_4 
REMARK    3  A    between atoms: C3_3  and  C10_12 
REMARK    4  A    between atoms: N1_4  and  C4_6 
REMARK       I    between atoms: C10_12  and  N2_14 
REMARK    5  A    between atoms: N2_14  and  N3_16 
REMARK    6  A    between atoms: C11_18  and  C12_19 
REMARK    7  A    between atoms: C13_20  and  C14_21 
ROOT
HETATM    1  C10 UNL     1       0.080  -0.306   0.005  1.00  0.00     0.258 C 
HETATM    2  O1  UNL     1       0.000   0.513  -0.969  1.00  0.00    -0.269 OA
HETATM    3  N2  UNL     1       1.429  -0.679   0.388  1.00  0.00    -0.269 N 
ATOM      4  H2  UNL     1       1.590  -1.319   1.166  1.00  0.00     0.190 HD
ENDROOT
BRANCH   1   5
HETATM    5  C3  UNL     1      -1.111  -0.822   0.678  1.00  0.00     0.171 C 
BRANCH   5   6
HETATM    6  C2  UNL     1      -1.445  -2.193   0.036  1.00  0.00     0.030 C 
HETATM    7  C1  UNL     1      -0.245  -3.085   0.060  1.00  0.00     0.007 C 
ENDBRANCH   5   6
BRANCH   5   8
HETATM    8  N1  UNL     1      -2.251  -0.001   0.670  1.00  0.00    -0.405 N 
ATOM      9  H1  UNL     1      -2.643   0.284   1.568  1.00  0.00     0.154 HD
BRANCH   8  10
HETATM   10  C4  UNL     1      -2.876   0.446  -0.486  1.00  0.00     0.077 C 
HETATM   11  C5  UNL     1      -3.409   1.879  -0.233  1.00  0.00     0.024 C 
HETATM   12  C6  UNL     1      -4.599   2.185  -1.106  1.00  0.00     0.002 C 
HETATM   13  C7  UNL     1      -5.789   1.462  -0.473  1.00  0.00     0.000 C 
HETATM   14  C8  UNL     1      -5.264   0.109  -0.004  1.00  0.00     0.002 C 
HETATM   15  C9  UNL     1      -4.119  -0.377  -0.859  1.00  0.00     0.024 C 
ENDBRANCH   8  10
ENDBRANCH   5   8
ENDBRANCH   1   5
BRANCH   3  16
HETATM   16  N3  UNL     1       2.478  -0.158  -0.312  1.00  0.00    -0.309 N 
HETATM   17  C11 UNL     1       3.662  -0.007   0.072  1.00  0.00     0.107 C 
ATOM     18  H3  UNL     1       2.274   0.146  -1.264  1.00  0.00     0.186 HD
BRANCH  17  19
HETATM   19  C12 UNL     1       4.237  -0.327   1.341  1.00  0.00     0.021 C 
HETATM   20  C13 UNL     1       5.450  -0.176   1.699  1.00  0.00     0.038 C 
BRANCH  20  21
HETATM   21  C14 UNL     1       6.541   0.362   0.896  1.00  0.00     0.073 A 
HETATM   22  N4  UNL     1       6.650   0.774  -0.333  1.00  0.00    -0.360 N 
HETATM   23  C15 UNL     1       7.752   1.226  -0.823  1.00  0.00     0.096 A 
ATOM     24  H4  UNL     1       5.827   0.738  -0.935  1.00  0.00     0.166 HD
HETATM   25  C16 UNL     1       8.842   1.263   0.012  1.00  0.00     0.068 A 
HETATM   26  S1  UNL     1       8.178   0.634   1.455  1.00  0.00    -0.083 SA
ENDBRANCH  20  21
ENDBRANCH  17  19
ENDBRANCH   3  16
TORSDOF 7
