REMARK  9 active torsions:
REMARK  status: ('A' for Active; 'I' for Inactive)
REMARK    1  A    between atoms: C2_2  and  N1_3 
REMARK    2  A    between atoms: C8_10  and  C9_11 
REMARK    3  A    between atoms: C9_11  and  C10_12 
REMARK    4  A    between atoms: C10_12  and  C11_13 
REMARK    5  A    between atoms: C11_13  and  C12_14 
REMARK    6  A    between atoms: C12_14  and  C13_15 
REMARK    7  A    between atoms: C13_15  and  C14_16 
REMARK    8  A    between atoms: C14_16  and  O2_17 
REMARK    9  A    between atoms: N2_19  and  O3_21 
ROOT
HETATM    1  N1  UNL     1      -3.645  -0.169  -0.062  1.00  0.00     0.119 N 
HETATM    2  C3  UNL     1      -3.234   0.487   1.128  1.00  0.00     0.290 C 
HETATM    3  C4  UNL     1      -1.809   0.900   1.184  1.00  0.00     0.079 C 
HETATM    4  C5  UNL     1      -0.799  -0.163   1.159  1.00  0.00     0.129 C 
HETATM    5  O1  UNL     1      -1.264  -1.441   1.466  1.00  0.00    -0.377 OA
HETATM    6  C6  UNL     1      -1.952  -1.877   0.329  1.00  0.00     0.166 C 
HETATM    7  C7  UNL     1      -1.319  -1.182  -0.855  1.00  0.00     0.042 C 
HETATM    8  C8  UNL     1      -0.179  -0.436  -0.187  1.00  0.00     0.017 C 
HETATM    9  C15 UNL     1      -3.395  -1.480   0.512  1.00  0.00     0.316 C 
HETATM   10  S1  UNL     1      -3.700  -0.849   2.193  1.00  0.00    -0.095 SA
ENDROOT
BRANCH   8  11
HETATM   11  C9  UNL     1       0.272   0.751  -0.923  1.00  0.00     0.007 C 
BRANCH  11  12
HETATM   12  C10 UNL     1       1.306   1.514  -0.150  1.00  0.00     0.000 C 
BRANCH  12  13
HETATM   13  C11 UNL     1       2.500   0.594   0.084  1.00  0.00     0.000 C 
BRANCH  13  14
HETATM   14  C12 UNL     1       3.583   1.336   0.855  1.00  0.00     0.008 C 
BRANCH  14  15
HETATM   15  C13 UNL     1       4.787   0.517   1.148  1.00  0.00     0.086 C 
BRANCH  15  16
HETATM   16  C14 UNL     1       5.518  -0.015   0.001  1.00  0.00     0.135 C 
HETATM   17  N2  UNL     1       6.731   0.381  -0.227  1.00  0.00    -0.251 N 
ATOM     18  H2  UNL     1       7.153   1.062   0.405  1.00  0.00     0.196 HD
BRANCH  16  19
HETATM   19  O2  UNL     1       5.002  -0.943  -0.897  1.00  0.00    -0.348 OA
ATOM     20  H2  UNL     1       5.477  -1.289  -1.643  1.00  0.00     0.219 HD
ENDBRANCH  16  19
BRANCH  17  21
HETATM   21  O3  UNL     1       7.465  -0.080  -1.283  1.00  0.00    -0.288 OA
ATOM     22  H3  UNL     1       8.354   0.210  -1.450  1.00  0.00     0.244 HD
ENDBRANCH  17  21
ENDBRANCH  15  16
ENDBRANCH  14  15
ENDBRANCH  13  14
ENDBRANCH  12  13
ENDBRANCH  11  12
ENDBRANCH   8  11
BRANCH   1  23
HETATM   23  C2  UNL     1      -5.094  -0.043  -0.287  1.00  0.00     0.271 C 
HETATM   24  C1  UNL     1      -5.535  -0.730  -1.537  1.00  0.00     0.037 C 
ENDBRANCH   1  23
TORSDOF 9
