REMARK  10 active torsions:
REMARK  status: ('A' for Active; 'I' for Inactive)
REMARK    1  A    between atoms: C2_2  and  O1_4 
REMARK    2  A    between atoms: O1_4  and  C4_5 
REMARK    3  A    between atoms: C4_5  and  C5_6 
REMARK    4  A    between atoms: C5_6  and  C6_7 
REMARK    5  A    between atoms: C6_7  and  C7_8 
REMARK    6  A    between atoms: C13_16  and  O4_17 
REMARK    7  A    between atoms: C13_16  and  C14_19 
REMARK    8  A    between atoms: C14_19  and  C15_20 
REMARK    9  A    between atoms: C15_20  and  C16_21 
REMARK   10  A    between atoms: C16_21  and  O5_24 
ROOT
HETATM    1  C7  UNL     1      -0.865  -0.694  -0.945  1.00  0.00     0.030 C 
HETATM    2  C8  UNL     1       0.013  -0.453   0.264  1.00  0.00     0.171 C 
HETATM    3  O2  UNL     1       0.421  -1.774   0.676  1.00  0.00    -0.312 OA
HETATM    4  C9  UNL     1       0.593  -2.677  -0.390  1.00  0.00     0.260 C 
HETATM    5  O3  UNL     1       0.465  -3.891  -0.156  1.00  0.00    -0.265 OA
HETATM    6  C10 UNL     1       0.921  -2.113  -1.740  1.00  0.00     0.123 C 
HETATM    7  C11 UNL     1       0.420  -0.671  -1.752  1.00  0.00     0.004 C 
HETATM    8  C12 UNL     1       0.334  -0.050  -3.102  1.00  0.00     0.019 C 
HETATM    9  C13 UNL     1       1.037   0.145  -0.664  1.00  0.00     0.093 C 
ENDROOT
BRANCH   9  10
HETATM   10  O4  UNL     1       0.823   1.494  -0.844  1.00  0.00    -0.386 OA
ATOM     11  H4  UNL     1       1.469   1.871  -1.429  1.00  0.00     0.210 HD
ENDBRANCH   9  10
BRANCH   9  12
HETATM   12  C14 UNL     1       2.474  -0.139  -0.337  1.00  0.00     0.044 C 
BRANCH  12  13
HETATM   13  C15 UNL     1       2.889   0.357   1.012  1.00  0.00     0.040 C 
BRANCH  13  14
HETATM   14  C16 UNL     1       4.353   0.005   1.209  1.00  0.00     0.051 C 
HETATM   15  C17 UNL     1       4.853   0.475   2.556  1.00  0.00     0.045 C 
HETATM   16  C18 UNL     1       5.227   0.648   0.158  1.00  0.00     0.045 C 
BRANCH  14  17
HETATM   17  O5  UNL     1       4.540  -1.373   1.145  1.00  0.00    -0.391 OA
ATOM     18  H5  UNL     1       5.456  -1.593   1.268  1.00  0.00     0.210 HD
ENDBRANCH  14  17
ENDBRANCH  13  14
ENDBRANCH  12  13
ENDBRANCH   9  12
BRANCH   1  19
HETATM   19  C6  UNL     1      -1.890   0.335  -1.258  1.00  0.00     0.010 C 
BRANCH  19  20
HETATM   20  C5  UNL     1      -2.849   0.478  -0.084  1.00  0.00     0.027 C 
BRANCH  20  21
HETATM   21  C4  UNL     1      -3.908   1.523  -0.375  1.00  0.00     0.175 C 
BRANCH  21  22
HETATM   22  O1  UNL     1      -4.785   1.639   0.723  1.00  0.00    -0.357 OA
BRANCH  22  23
HETATM   23  C2  UNL     1      -5.535   0.568   1.178  1.00  0.00     0.033 C 
HETATM   24  C1  UNL     1      -6.088  -0.242   0.324  1.00  0.00     0.045 C 
HETATM   25  C3  UNL     1      -5.681   0.381   2.640  1.00  0.00     0.075 C 
ENDBRANCH  22  23
ENDBRANCH  21  22
ENDBRANCH  20  21
ENDBRANCH  19  20
ENDBRANCH   1  19
TORSDOF 10
