REMARK  8 active torsions:
REMARK  status: ('A' for Active; 'I' for Inactive)
REMARK    1  A    between atoms: C1_2  and  C2_3 
REMARK    2  A    between atoms: C1_2  and  C11_12 
REMARK    3  A    between atoms: C2_3  and  C3_4 
REMARK    4  A    between atoms: C3_4  and  C4_5 
REMARK    5  A    between atoms: C11_12  and  O2_13 
REMARK    6  A    between atoms: O2_13  and  C12_14 
REMARK    7  A    between atoms: C12_14  and  C13_16 
REMARK    8  A    between atoms: C15_22  and  C16_23 
ROOT
HETATM    1  O2  UNL     1       3.413  -0.190  -0.784  1.00  0.00    -0.309 OA
ENDROOT
BRANCH   1   2
HETATM    2  C11 UNL     1       2.130  -0.263  -1.344  1.00  0.00     0.257 C 
BRANCH   2   3
HETATM    3  C1  UNL     1       1.043  -0.436  -0.356  1.00  0.00     0.150 C 
HETATM    4  O1  UNL     1       1.311  -0.472   0.822  1.00  0.00    -0.296 OA
BRANCH   3   5
HETATM    5  C2  UNL     1      -0.367  -0.565  -0.781  1.00  0.00     0.082 C 
BRANCH   5   6
HETATM    6  C3  UNL     1      -1.112   0.763  -0.648  1.00  0.00     0.024 C 
BRANCH   6   7
HETATM    7  C4  UNL     1      -2.551   0.468  -1.119  1.00  0.00     0.056 C 
HETATM    8  C5  UNL     1      -3.243  -0.513  -0.387  1.00  0.00    -0.178 C 
HETATM    9  C6  UNL     1      -3.986  -1.427   0.379  1.00  0.00     0.084 C 
HETATM   10  C7  UNL     1      -5.196  -0.623   0.966  1.00  0.00     0.038 C 
HETATM   11  C8  UNL     1      -4.975   0.880   0.872  1.00  0.00    -0.030 C 
HETATM   12  C9  UNL     1      -4.736   1.565  -0.365  1.00  0.00    -0.029 C 
HETATM   13  C10 UNL     1      -3.334   1.813  -0.919  1.00  0.00     0.043 C 
ENDBRANCH   6   7
ENDBRANCH   5   6
ENDBRANCH   3   5
ENDBRANCH   2   3
ENDBRANCH   1   2
BRANCH   1  14
HETATM   14  C12 UNL     1       4.067  -1.136  -0.062  1.00  0.00     0.313 C 
HETATM   15  O3  UNL     1       3.445  -2.225   0.130  1.00  0.00    -0.258 OA
BRANCH  14  16
HETATM   16  C13 UNL     1       5.398  -1.038   0.515  1.00  0.00     0.143 A 
HETATM   17  N1  UNL     1       5.991  -2.042   1.232  1.00  0.00    -0.345 N 
HETATM   18  C14 UNL     1       7.207  -1.681   1.639  1.00  0.00     0.181 A 
ATOM     19  H1  UNL     1       5.560  -2.945   1.428  1.00  0.00     0.167 HD
HETATM   20  N2  UNL     1       7.399  -0.444   1.184  1.00  0.00    -0.345 N 
HETATM   21  C15 UNL     1       6.312  -0.016   0.490  1.00  0.00     0.143 A 
ATOM     22  H2  UNL     1       8.245   0.106   1.336  1.00  0.00     0.167 HD
BRANCH  21  23
HETATM   23  C16 UNL     1       6.219   1.288  -0.124  1.00  0.00     0.229 C 
HETATM   24  O4  UNL     1       7.241   2.050   0.013  1.00  0.00    -0.643 OA
HETATM   25  O5  UNL     1       5.188   1.822  -0.833  1.00  0.00    -0.643 OA
ENDBRANCH  21  23
ENDBRANCH  14  16
ENDBRANCH   1  14
TORSDOF 8
