REMARK  7 active torsions:
REMARK  status: ('A' for Active; 'I' for Inactive)
REMARK    1  A    between atoms: C10_14  and  O2_15 
REMARK    2  A    between atoms: O2_15  and  C11_16 
REMARK    3  A    between atoms: C11_16  and  C12_18 
REMARK    4  A    between atoms: C12_18  and  C13_19 
REMARK    5  A    between atoms: C13_19  and  C14_20 
REMARK    6  A    between atoms: C13_19  and  C17_23 
REMARK    7  A    between atoms: C14_20  and  C15_21 
ROOT
HETATM    1  C1  UNL     1       6.113  -0.292   0.649  1.00  0.00     0.017 C 
HETATM    2  C2  UNL     1       4.925  -0.109   0.130  1.00  0.00    -0.055 C 
HETATM    3  C3  UNL     1       4.545   1.267  -0.209  1.00  0.00     0.087 C 
HETATM    4  C4  UNL     1       3.261   1.570   0.481  1.00  0.00    -0.014 C 
HETATM    5  N1  UNL     1       3.018   2.845   0.435  1.00  0.00    -0.405 N 
ATOM      6  H11 UNL     1       2.138   3.053   0.908  1.00  0.00     0.155 HD
ATOM      7  H12 UNL     1       3.745   3.366  -0.055  1.00  0.00     0.155 HD
HETATM    8  C5  UNL     1       2.229   0.831   1.176  1.00  0.00     0.086 C 
HETATM    9  C6  UNL     1       2.097  -0.617   0.940  1.00  0.00     0.157 C 
HETATM   10  O1  UNL     1       3.214  -1.376   0.998  1.00  0.00    -0.373 OA
HETATM   11  C7  UNL     1       4.081  -1.297  -0.063  1.00  0.00     0.150 C 
HETATM   12  C8  UNL     1       3.439  -1.371  -1.410  1.00  0.00     0.039 C 
HETATM   13  C9  UNL     1       2.143  -0.623  -1.514  1.00  0.00     0.038 C 
HETATM   14  C10 UNL     1       1.304  -0.951  -0.331  1.00  0.00     0.161 C 
ENDROOT
BRANCH  14  15
HETATM   15  O2  UNL     1       0.107  -0.209  -0.245  1.00  0.00    -0.313 OA
BRANCH  15  16
HETATM   16  C11 UNL     1      -1.143  -0.776  -0.133  1.00  0.00     0.260 C 
HETATM   17  O3  UNL     1      -1.210  -2.030  -0.107  1.00  0.00    -0.265 OA
BRANCH  16  18
HETATM   18  C12 UNL     1      -2.361   0.108  -0.047  1.00  0.00     0.126 C 
BRANCH  18  19
HETATM   19  C13 UNL     1      -3.607  -0.693   0.103  1.00  0.00     0.096 C 
BRANCH  19  20
HETATM   20  C14 UNL     1      -4.793   0.241   0.177  1.00  0.00     0.015 C 
BRANCH  20  21
HETATM   21  C15 UNL     1      -4.967   1.104  -1.034  1.00  0.00    -0.004 C 
HETATM   22  C16 UNL     1      -6.199   1.998  -0.850  1.00  0.00     0.005 C 
ENDBRANCH  20  21
ENDBRANCH  19  20
BRANCH  19  23
HETATM   23  C17 UNL     1      -3.619  -1.468   1.376  1.00  0.00     0.177 C 
HETATM   24  O4  UNL     1      -2.721  -1.423   2.247  1.00  0.00    -0.648 OA
HETATM   25  O5  UNL     1      -4.700  -2.303   1.628  1.00  0.00    -0.648 OA
ENDBRANCH  19  23
ENDBRANCH  18  19
ENDBRANCH  16  18
ENDBRANCH  15  16
ENDBRANCH  14  15
TORSDOF 7
