REMARK  4 active torsions:
REMARK  status: ('A' for Active; 'I' for Inactive)
REMARK    1  A    between atoms: C2_2  and  C3_3 
REMARK    2  A    between atoms: C11_11  and  C12_12 
REMARK    3  A    between atoms: C16_16  and  C18_18 
REMARK    4  A    between atoms: C18_18  and  N1_19 
ROOT
HETATM    1  C12 UNL     1       0.834   0.390   0.102  1.00  0.00    -0.039 C 
HETATM    2  C13 UNL     1       0.885   1.775  -0.499  1.00  0.00     0.015 C 
HETATM    3  C14 UNL     1       1.429   0.483   1.490  1.00  0.00     0.010 C 
HETATM    4  C15 UNL     1       2.928   0.278   1.314  1.00  0.00     0.011 C 
HETATM    5  C16 UNL     1       2.946  -0.824   0.313  1.00  0.00    -0.020 C 
HETATM    6  C17 UNL     1       2.688  -2.189   0.936  1.00  0.00     0.017 C 
HETATM    7  C19 UNL     1       1.807  -0.473  -0.604  1.00  0.00     0.020 C 
ENDROOT
BRANCH   1   8
HETATM    8  C11 UNL     1      -0.548  -0.156   0.283  1.00  0.00     0.006 C 
HETATM    9  C3  UNL     1      -1.349  -0.442  -0.918  1.00  0.00    -0.040 C 
HETATM   10  C4  UNL     1      -1.162  -1.942  -1.265  1.00  0.00     0.015 C 
HETATM   11  C5  UNL     1      -2.824  -0.258  -0.839  1.00  0.00     0.010 C 
HETATM   12  C6  UNL     1      -3.360   0.146   0.513  1.00  0.00     0.005 C 
HETATM   13  C7  UNL     1      -2.494   1.377   0.825  1.00  0.00    -0.014 C 
HETATM   14  C8  UNL     1      -3.149   2.126   1.926  1.00  0.00     0.010 C 
HETATM   15  C9  UNL     1      -1.200   0.758   1.302  1.00  0.00    -0.009 C 
HETATM   16  C10 UNL     1      -1.553   0.031   2.601  1.00  0.00     0.011 C 
BRANCH   9  17
HETATM   17  C2  UNL     1      -0.930   0.265  -2.206  1.00  0.00     0.005 C 
HETATM   18  C1  UNL     1      -1.907  -0.273  -3.271  1.00  0.00     0.006 C 
ENDBRANCH   9  17
ENDBRANCH   1   8
BRANCH   5  19
HETATM   19  C18 UNL     1       4.265  -0.925  -0.416  1.00  0.00     0.238 C 
BRANCH  19  20
HETATM   20  N1  UNL     1       4.619   0.250  -1.142  1.00  0.00    -0.079 N 
ATOM     21  H13 UNL     1       3.873   0.511  -1.787  1.00  0.00     0.274 HD
ATOM     22  H12 UNL     1       4.610   1.065  -0.529  1.00  0.00     0.274 HD
ATOM     23  H11 UNL     1       5.510   0.182  -1.634  1.00  0.00     0.274 HD
ENDBRANCH  19  20
ENDBRANCH   5  19
TORSDOF 4
