REMARK  3 active torsions:
REMARK  status: ('A' for Active; 'I' for Inactive)
REMARK    1  A    between atoms: C2_2  and  C3_3 
REMARK    2  A    between atoms: C8_8  and  C10_10 
REMARK    3  A    between atoms: C10_10  and  C11_11 
ROOT
HETATM    1  C3  UNL     1       2.770  -0.254   0.318  1.00  0.00    -0.023 C 
HETATM    2  C4  UNL     1       3.810  -0.982  -0.555  1.00  0.00     0.020 C 
HETATM    3  C5  UNL     1       2.044  -1.347   1.048  1.00  0.00     0.013 C 
HETATM    4  C6  UNL     1       1.253  -2.187   0.091  1.00  0.00     0.002 C 
HETATM    5  C7  UNL     1       0.866  -1.465  -1.178  1.00  0.00     0.010 C 
HETATM    6  C8  UNL     1       0.610   0.001  -1.009  1.00  0.00    -0.037 C 
HETATM    7  C9  UNL     1       0.475   0.489  -2.472  1.00  0.00     0.015 C 
HETATM    8  C18 UNL     1       1.915   0.624  -0.531  1.00  0.00     0.001 C 
HETATM    9  C19 UNL     1       1.685   1.990   0.080  1.00  0.00     0.012 C 
ENDROOT
BRANCH   6  10
HETATM   10  C10 UNL     1      -0.543   0.318  -0.198  1.00  0.00     0.048 C 
BRANCH  10  11
HETATM   11  C11 UNL     1      -1.929  -0.019  -0.462  1.00  0.00     0.130 C 
HETATM   12  C12 UNL     1      -2.351  -1.453  -0.567  1.00  0.00     0.047 C 
HETATM   13  N1  UNL     1      -2.545   0.759  -1.543  1.00  0.00    -0.066 N 
HETATM   14  C13 UNL     1      -3.964   0.544  -1.334  1.00  0.00     0.234 C 
ATOM     15  H12 UNL     1      -2.264   1.739  -1.576  1.00  0.00     0.278 HD
ATOM     16  H11 UNL     1      -2.213   0.525  -2.478  1.00  0.00     0.278 HD
HETATM   17  C14 UNL     1      -4.164   0.657   0.163  1.00  0.00     0.039 C 
HETATM   18  C15 UNL     1      -2.786   0.525   0.687  1.00  0.00    -0.006 A 
HETATM   19  C16 UNL     1      -2.651  -0.186   2.046  1.00  0.00     0.013 A 
HETATM   20  C17 UNL     1      -2.287   1.293   1.781  1.00  0.00     0.013 A 
ENDBRANCH  10  11
ENDBRANCH   6  10
BRANCH   1  21
HETATM   21  C2  UNL     1       3.567   0.543   1.305  1.00  0.00    -0.027 C 
HETATM   22  C1  UNL     1       3.091   0.924   2.476  1.00  0.00     0.007 C 
ENDBRANCH   1  21
TORSDOF 3
