REMARK  3 active torsions:
REMARK  status: ('A' for Active; 'I' for Inactive)
REMARK    1  A    between atoms: C2_2  and  C3_3 
REMARK    2  A    between atoms: C3_3  and  C4_4 
REMARK    3  A    between atoms: C16_16  and  N1_17 
ROOT
HETATM    1  C4  UNL     1      -2.534  -0.254  -0.195  1.00  0.00     0.017 C 
HETATM    2  C5  UNL     1      -1.684   0.978   0.155  1.00  0.00     0.014 C 
HETATM    3  C6  UNL     1      -0.597   0.567   1.058  1.00  0.00    -0.012 C 
HETATM    4  C7  UNL     1      -0.426   1.671   2.073  1.00  0.00     0.010 C 
HETATM    5  C8  UNL     1       0.654   0.000   0.526  1.00  0.00     0.011 C 
HETATM    6  C9  UNL     1       0.439  -1.395  -0.022  1.00  0.00    -0.021 C 
HETATM    7  C10 UNL     1      -0.062  -2.328   1.091  1.00  0.00     0.020 C 
HETATM    8  C11 UNL     1      -0.540  -1.465  -1.140  1.00  0.00    -0.014 C 
HETATM    9  C12 UNL     1      -1.764  -0.992  -1.202  1.00  0.00    -0.082 C 
HETATM   10  C13 UNL     1      -2.477  -1.237  -2.473  1.00  0.00     0.043 C 
HETATM   11  C14 UNL     1       1.709  -2.041  -0.519  1.00  0.00     0.015 C 
HETATM   12  C15 UNL     1       2.475  -1.145  -1.453  1.00  0.00     0.035 C 
HETATM   13  C16 UNL     1       2.820   0.061  -0.654  1.00  0.00     0.193 C 
HETATM   14  C18 UNL     1       1.595   0.854  -0.212  1.00  0.00    -0.014 C 
HETATM   15  C19 UNL     1       2.260   1.916   0.683  1.00  0.00     0.017 C 
HETATM   16  C20 UNL     1       1.109   1.574  -1.421  1.00  0.00     0.017 C 
ENDROOT
BRANCH  13  17
HETATM   17  N1  UNL     1       3.641  -0.161   0.479  1.00  0.00    -0.074 N 
HETATM   18  C17 UNL     1       4.954  -0.686   0.167  1.00  0.00     0.267 C 
ATOM     19  H12 UNL     1       3.720   0.691   1.035  1.00  0.00     0.277 HD
ATOM     20  H11 UNL     1       3.166  -0.764   1.151  1.00  0.00     0.277 HD
ENDBRANCH  13  17
BRANCH   1  21
HETATM   21  C3  UNL     1      -3.924   0.108  -0.605  1.00  0.00     0.035 C 
BRANCH  21  22
HETATM   22  C2  UNL     1      -4.571   0.824   0.531  1.00  0.00    -0.036 C 
HETATM   23  C1  UNL     1      -5.027   2.064   0.414  1.00  0.00     0.007 C 
ENDBRANCH  21  22
ENDBRANCH   1  21
TORSDOF 3
