REMARK  5 active torsions:
REMARK  status: ('A' for Active; 'I' for Inactive)
REMARK    1  A    between atoms: C4_4  and  C5_5 
REMARK    2  A    between atoms: C5_5  and  C6_6 
REMARK    3  A    between atoms: C9_9  and  C10_10 
REMARK    4  A    between atoms: C12_12  and  C14_14 
REMARK    5  A    between atoms: C14_14  and  O1_15 
ROOT
HETATM    1  C6  UNL     1      -1.219  -1.120  -0.771  1.00  0.00    -0.036 C 
HETATM    2  C7  UNL     1      -1.809  -1.460  -2.123  1.00  0.00     0.016 C 
HETATM    3  C8  UNL     1      -0.271   0.050  -0.903  1.00  0.00     0.019 C 
HETATM    4  C9  UNL     1       0.793  -0.165   0.165  1.00  0.00     0.024 C 
HETATM    5  C15 UNL     1       1.003  -1.666   0.060  1.00  0.00    -0.032 C 
HETATM    6  C16 UNL     1       1.719  -2.295   1.211  1.00  0.00     0.016 C 
HETATM    7  C17 UNL     1       1.377  -2.216  -1.265  1.00  0.00     0.010 C 
HETATM    8  C18 UNL     1       0.218  -3.209  -1.113  1.00  0.00     0.007 C 
HETATM    9  C19 UNL     1      -0.413  -2.223  -0.172  1.00  0.00     0.003 C 
ENDROOT
BRANCH   4  10
HETATM   10  C10 UNL     1       2.009   0.600  -0.071  1.00  0.00    -0.075 C 
HETATM   11  C11 UNL     1       2.736   0.501  -1.406  1.00  0.00     0.044 C 
HETATM   12  C12 UNL     1       2.528   1.397   0.830  1.00  0.00    -0.058 C 
HETATM   13  C13 UNL     1       3.806   2.155   0.484  1.00  0.00     0.046 C 
BRANCH  12  14
HETATM   14  C14 UNL     1       1.933   1.592   2.167  1.00  0.00     0.198 C 
BRANCH  14  15
HETATM   15  O1  UNL     1       1.624   2.970   2.274  1.00  0.00    -0.397 OA
ATOM     16  H1  UNL     1       1.241   3.095   3.134  1.00  0.00     0.209 HD
ENDBRANCH  14  15
ENDBRANCH  12  14
ENDBRANCH   4  10
BRANCH   1  17
HETATM   17  C5  UNL     1      -2.381  -0.821   0.149  1.00  0.00     0.036 C 
BRANCH  17  18
HETATM   18  C4  UNL     1      -3.209   0.326  -0.337  1.00  0.00    -0.024 C 
HETATM   19  C2  UNL     1      -3.378   1.418   0.382  1.00  0.00    -0.091 C 
HETATM   20  C1  UNL     1      -4.195   2.531  -0.116  1.00  0.00     0.042 C 
HETATM   21  C3  UNL     1      -2.727   1.505   1.708  1.00  0.00     0.042 C 
ENDBRANCH  17  18
ENDBRANCH   1  17
TORSDOF 5
