REMARK  10 active torsions:
REMARK  status: ('A' for Active; 'I' for Inactive)
REMARK    1  A    between atoms: N1_1  and  C1_4 
REMARK    2  A    between atoms: C2_7  and  N3_8 
REMARK    3  A    between atoms: N3_8  and  C3_10 
REMARK    4  A    between atoms: C3_10  and  C4_11 
REMARK    5  A    between atoms: C4_11  and  O1_12 
REMARK    6  A    between atoms: C8_22  and  N6_23 
REMARK    7  A    between atoms: N7_26  and  C9_27 
REMARK    8  A    between atoms: C9_27  and  C10_28 
REMARK    9  A    between atoms: C10_28  and  C11_30 
REMARK   10  A    between atoms: C11_30  and  O4_31 
ROOT
HETATM    1  C1  UNL     1      -1.279  -1.740  -1.587  1.00  0.00     0.134 A 
HETATM    2  N2  UNL     1      -2.073  -0.831  -1.004  1.00  0.00    -0.176 N 
ATOM      3  H2  UNL     1      -3.047  -0.774  -1.302  1.00  0.00     0.186 HD
HETATM    4  C2  UNL     1      -1.651  -0.001  -0.057  1.00  0.00     0.681 A 
HETATM    5  N4  UNL     1      -0.366  -0.056   0.354  1.00  0.00    -0.175 N 
ATOM      6  H4  UNL     1      -0.042   0.581   1.082  1.00  0.00     0.186 HD
HETATM    7  C5  UNL     1       0.488  -0.938  -0.183  1.00  0.00     0.159 A 
HETATM    8  C6  UNL     1       0.033  -1.809  -1.181  1.00  0.00     0.122 A 
HETATM    9  C7  UNL     1       0.915  -2.728  -1.750  1.00  0.00     0.277 A 
HETATM   10  O2  UNL     1       0.497  -3.500  -2.641  1.00  0.00    -0.266 OA
HETATM   11  N5  UNL     1       2.176  -2.729  -1.304  1.00  0.00    -0.155 N 
ATOM     12  H5  UNL     1       2.828  -3.397  -1.716  1.00  0.00     0.187 HD
HETATM   13  C8  UNL     1       2.633  -1.917  -0.361  1.00  0.00     0.683 A 
HETATM   14  N7  UNL     1       1.756  -1.027   0.183  1.00  0.00    -0.160 N 
ENDROOT
BRANCH   4  15
HETATM   15  N3  UNL     1      -2.403   0.877   0.512  1.00  0.00    -0.224 N 
ATOM     16  H3  UNL     1      -1.976   1.465   1.228  1.00  0.00     0.177 HD
BRANCH  15  17
HETATM   17  C3  UNL     1      -3.784   1.096   0.224  1.00  0.00     0.164 C 
BRANCH  17  18
HETATM   18  C4  UNL     1      -4.195   2.394   0.916  1.00  0.00     0.184 C 
BRANCH  18  19
HETATM   19  O1  UNL     1      -5.519   2.705   0.703  1.00  0.00    -0.399 OA
ATOM     20  H1  UNL     1      -5.775   3.512   1.133  1.00  0.00     0.209 HD
ENDBRANCH  18  19
ENDBRANCH  17  18
ENDBRANCH  15  17
ENDBRANCH   4  15
BRANCH   1  21
HETATM   21  N1  UNL     1      -1.690  -2.547  -2.507  1.00  0.00    -0.384 N 
ATOM     22  H12 UNL     1      -2.663  -2.496  -2.808  1.00  0.00     0.157 HD
ATOM     23  H11 UNL     1      -1.086  -3.239  -2.951  1.00  0.00     0.157 HD
ENDBRANCH   1  21
BRANCH  14  24
HETATM   24  C9  UNL     1       2.278  -0.169   1.223  1.00  0.00     0.229 C 
BRANCH  24  25
HETATM   25  C10 UNL     1       2.752   1.089   0.596  1.00  0.00     0.168 C 
HETATM   26  O3  UNL     1       2.646   1.216  -0.603  1.00  0.00    -0.294 OA
BRANCH  25  27
HETATM   27  C11 UNL     1       3.352   2.202   1.379  1.00  0.00     0.244 C 
BRANCH  27  28
HETATM   28  O4  UNL     1       3.716   3.269   0.564  1.00  0.00    -0.394 OA
ATOM     29  H4  UNL     1       4.099   3.980   1.064  1.00  0.00     0.209 HD
ENDBRANCH  27  28
ENDBRANCH  25  27
ENDBRANCH  24  25
ENDBRANCH  14  24
BRANCH  13  30
HETATM   30  N6  UNL     1       3.855  -1.939   0.051  1.00  0.00    -0.234 N 
ATOM     31  H62 UNL     1       4.511  -2.605  -0.356  1.00  0.00     0.174 HD
ATOM     32  H61 UNL     1       4.207  -1.314   0.777  1.00  0.00     0.174 HD
ENDBRANCH  13  30
TORSDOF 10
