REMARK  8 active torsions:
REMARK  status: ('A' for Active; 'I' for Inactive)
REMARK    1  A    between atoms: N1_2  and  C2_3 
REMARK    2  A    between atoms: N1_2  and  C4_7 
REMARK    3  A    between atoms: C2_3  and  C3_4 
REMARK    4  A    between atoms: C4_7  and  N3_8 
REMARK    5  A    between atoms: C4_7  and  C5_12 
REMARK    6  A    between atoms: C4_7  and  C6_15 
REMARK    7  A    between atoms: C5_12  and  O2_13 
REMARK    8  A    between atoms: C9_24  and  N7_25 
ROOT
HETATM    1  C6  UNL     1      -0.576  -0.998   0.525  1.00  0.00     0.099 A 
HETATM    2  N4  UNL     1      -0.812  -1.938   1.513  1.00  0.00    -0.351 N 
ATOM      3  H4  UNL     1      -0.091  -2.645   1.659  1.00  0.00     0.166 HD
HETATM    4  C7  UNL     1      -1.875  -2.007   2.280  1.00  0.00     0.182 A 
HETATM    5  N5  UNL     1      -2.872  -1.129   2.166  1.00  0.00    -0.337 N 
ATOM      6  H5  UNL     1      -3.695  -1.187   2.765  1.00  0.00     0.168 HD
HETATM    7  C8  UNL     1      -2.759  -0.171   1.243  1.00  0.00     0.139 A 
HETATM    8  N6  UNL     1      -3.751   0.749   1.061  1.00  0.00    -0.176 N 
ATOM      9  H6  UNL     1      -4.575   0.695   1.660  1.00  0.00     0.186 HD
HETATM   10  C9  UNL     1      -3.701   1.719   0.137  1.00  0.00     0.680 A 
HETATM   11  N8  UNL     1      -2.610   1.790  -0.657  1.00  0.00    -0.155 N 
ATOM     12  H8  UNL     1      -2.547   2.518  -1.369  1.00  0.00     0.187 HD
HETATM   13  C10 UNL     1      -1.596   0.897  -0.513  1.00  0.00     0.275 A 
HETATM   14  O3  UNL     1      -0.647   1.040  -1.288  1.00  0.00    -0.267 OA
HETATM   15  C11 UNL     1      -1.618  -0.100   0.420  1.00  0.00     0.104 A 
ENDROOT
BRANCH   1  16
HETATM   16  C4  UNL     1       0.656  -0.960  -0.238  1.00  0.00     0.381 C 
BRANCH  16  17
HETATM   17  N1  UNL     1       1.559   0.124  -0.149  1.00  0.00     0.138 N 
HETATM   18  C1  UNL     1       1.877   0.506   1.203  1.00  0.00     0.314 C 
BRANCH  17  19
HETATM   19  C2  UNL     1       2.741  -0.058  -0.903  1.00  0.00     0.374 C 
BRANCH  19  20
HETATM   20  C3  UNL     1       3.395   1.290  -1.110  1.00  0.00     0.259 C 
HETATM   21  N2  UNL     1       2.799   2.466  -0.579  1.00  0.00    -0.061 NA
HETATM   22  O1  UNL     1       4.466   1.417  -1.746  1.00  0.00    -0.275 OA
ENDBRANCH  19  20
ENDBRANCH  17  19
ENDBRANCH  16  17
BRANCH  16  23
HETATM   23  N3  UNL     1       1.517  -1.872   0.598  1.00  0.00    -0.034 N 
ATOM     24  H33 UNL     1       2.485  -2.022   0.313  1.00  0.00     0.278 HD
ATOM     25  H32 UNL     1       1.805  -1.554   1.524  1.00  0.00     0.278 HD
ATOM     26  H31 UNL     1       0.865  -2.654   0.534  1.00  0.00     0.278 HD
ENDBRANCH  16  23
BRANCH  16  27
HETATM   27  C5  UNL     1       0.668  -1.746  -1.516  1.00  0.00     0.243 C 
BRANCH  27  28
HETATM   28  O2  UNL     1      -0.296  -2.758  -1.404  1.00  0.00    -0.396 OA
ATOM     29  H2  UNL     1      -0.288  -3.256  -2.213  1.00  0.00     0.209 HD
ENDBRANCH  27  28
ENDBRANCH  16  27
ENDBRANCH   1  16
BRANCH  10  30
HETATM   30  N7  UNL     1      -4.682   2.553   0.031  1.00  0.00    -0.234 N 
ATOM     31  H72 UNL     1      -5.506   2.499   0.630  1.00  0.00     0.174 HD
ATOM     32  H71 UNL     1      -4.644   3.291  -0.672  1.00  0.00     0.174 HD
ENDBRANCH  10  30
TORSDOF 8
