REMARK  6 active torsions:
REMARK  status: ('A' for Active; 'I' for Inactive)
REMARK    1  A    between atoms: N1_1  and  C1_4 
REMARK    2  A    between atoms: C2_7  and  O1_8 
REMARK    3  A    between atoms: O1_8  and  C3_9 
REMARK    4  A    between atoms: C3_9  and  C4_10 
REMARK       I    between atoms: C4_10  and  N3_12 
REMARK    5  A    between atoms: N3_12  and  N4_14 
REMARK    6  A    between atoms: C6_21  and  N8_22 
ROOT
HETATM    1  C1  UNL     1       0.320  -1.521   0.212  1.00  0.00     0.693 A 
HETATM    2  N2  UNL     1       0.946  -0.651  -0.606  1.00  0.00    -0.154 N 
ATOM      3  H2  UNL     1       1.949  -0.739  -0.771  1.00  0.00     0.188 HD
HETATM    4  C2  UNL     1       0.265   0.314  -1.193  1.00  0.00     0.252 A 
HETATM    5  N7  UNL     1      -1.063   0.390  -0.942  1.00  0.00    -0.154 N 
ATOM      6  H7  UNL     1      -1.593   1.135  -1.395  1.00  0.00     0.188 HD
HETATM    7  C6  UNL     1      -1.725  -0.449  -0.138  1.00  0.00     0.698 A 
HETATM    8  N10 UNL     1      -0.988  -1.437   0.452  1.00  0.00    -0.022 N 
ATOM      9  H10 UNL     1      -1.438  -2.108   1.074  1.00  0.00     0.203 HD
ENDROOT
BRANCH   4  10
HETATM   10  O1  UNL     1       0.852   1.226  -2.035  1.00  0.00    -0.312 OA
BRANCH  10  11
HETATM   11  C3  UNL     1       2.185   1.284  -2.386  1.00  0.00     0.283 C 
BRANCH  11  12
HETATM   12  C4  UNL     1       3.033   1.530  -1.201  1.00  0.00     0.260 C 
HETATM   13  O2  UNL     1       2.581   1.721  -0.039  1.00  0.00    -0.269 OA
HETATM   14  N3  UNL     1       4.449   1.560  -1.340  1.00  0.00    -0.266 N 
ATOM     15  H3  UNL     1       4.862   1.410  -2.261  1.00  0.00     0.190 HD
BRANCH  14  16
HETATM   16  N4  UNL     1       5.282   1.788  -0.254  1.00  0.00    -0.273 N 
HETATM   17  C5  UNL     1       5.700   0.796   0.439  1.00  0.00     0.215 C 
HETATM   18  N5  UNL     1       5.312  -0.521   0.098  1.00  0.00    -0.065 NA
HETATM   19  N6  UNL     1       6.547   1.034   1.541  1.00  0.00    -0.065 NA
ATOM     20  H4  UNL     1       5.559   2.739  -0.010  1.00  0.00     0.189 HD
ENDBRANCH  14  16
ENDBRANCH  11  12
ENDBRANCH  10  11
ENDBRANCH   4  10
BRANCH   1  21
HETATM   21  N1  UNL     1       0.996  -2.462   0.781  1.00  0.00    -0.234 N 
ATOM     22  H12 UNL     1       1.997  -2.526   0.597  1.00  0.00     0.174 HD
ATOM     23  H11 UNL     1       0.522  -3.120   1.400  1.00  0.00     0.174 HD
ENDBRANCH   1  21
BRANCH   7  24
HETATM   24  N8  UNL     1      -3.124  -0.343   0.106  1.00  0.00    -0.214 N 
HETATM   25  C7  UNL     1      -3.830   0.727  -0.556  1.00  0.00     0.168 C 
HETATM   26  C8  UNL     1      -5.310   0.591  -0.576  1.00  0.00     0.252 C 
HETATM   27  N9  UNL     1      -5.792  -0.708  -0.140  1.00  0.00    -0.072 N 
HETATM   28  C9  UNL     1      -5.218  -0.909   1.197  1.00  0.00     0.252 C 
ATOM     29  H92 UNL     1      -6.807  -0.800  -0.169  1.00  0.00     0.277 HD
ATOM     30  H91 UNL     1      -5.585  -1.463  -0.793  1.00  0.00     0.277 HD
HETATM   31  C10 UNL     1      -3.771  -1.271   0.975  1.00  0.00     0.168 C 
ENDBRANCH   7  24
TORSDOF 6
