REMARK  9 active torsions:
REMARK  status: ('A' for Active; 'I' for Inactive)
REMARK    1  A    between atoms: N1_1  and  C1_4 
REMARK    2  A    between atoms: C4_12  and  C5_13 
REMARK    3  A    between atoms: C5_13  and  C6_14 
REMARK    4  A    between atoms: C6_14  and  N4_15 
REMARK    5  A    between atoms: C6_14  and  C7_19 
REMARK    6  A    between atoms: C8_21  and  N5_22 
REMARK    7  A    between atoms: C9_24  and  C10_25 
REMARK    8  A    between atoms: C10_25  and  N6_26 
REMARK    9  A    between atoms: C10_25  and  O3_30 
ROOT
HETATM    1  C1  UNL     1      -4.328  -1.950  -0.051  1.00  0.00     0.680 A 
HETATM    2  N2  UNL     1      -4.649  -0.931  -0.860  1.00  0.00    -0.154 N 
ATOM      3  H2  UNL     1      -5.617  -0.831  -1.165  1.00  0.00     0.187 HD
HETATM    4  C2  UNL     1      -3.736  -0.033  -1.285  1.00  0.00     0.290 A 
HETATM    5  O1  UNL     1      -4.047   0.919  -2.044  1.00  0.00    -0.265 OA
HETATM    6  C3  UNL     1      -2.428  -0.147  -0.889  1.00  0.00     0.147 A 
HETATM    7  N3  UNL     1      -1.481   0.707  -1.272  1.00  0.00    -0.349 N 
ATOM      8  H3  UNL     1      -1.744   1.476  -1.888  1.00  0.00     0.166 HD
HETATM    9  C4  UNL     1      -0.192   0.608  -0.888  1.00  0.00     0.057 A 
HETATM   10  C8  UNL     1       0.174  -0.422  -0.066  1.00  0.00     0.129 A 
HETATM   11  N7  UNL     1      -0.825  -1.299   0.322  1.00  0.00    -0.325 N 
ATOM     12  H7  UNL     1      -0.576  -2.074   0.936  1.00  0.00     0.169 HD
HETATM   13  C11 UNL     1      -2.084  -1.183  -0.063  1.00  0.00     0.155 A 
HETATM   14  N8  UNL     1      -3.052  -2.050   0.328  1.00  0.00    -0.174 N 
ATOM     15  H8  UNL     1      -2.791  -2.819   0.945  1.00  0.00     0.186 HD
ENDROOT
BRANCH  10  16
HETATM   16  N5  UNL     1       1.320  -0.669   0.288  1.00  0.00    -0.350 N 
HETATM   17  C9  UNL     1       2.645  -0.558   0.402  1.00  0.00     0.122 C 
ATOM     18  H5  UNL     1       1.156  -1.488   0.873  1.00  0.00     0.166 HD
BRANCH  17  19
HETATM   19  C10 UNL     1       3.378  -1.816   0.931  1.00  0.00     0.356 C 
BRANCH  19  20
HETATM   20  N6  UNL     1       2.978  -2.108   2.288  1.00  0.00    -0.048 N 
ATOM     21  H63 UNL     1       3.113  -1.305   2.903  1.00  0.00     0.277 HD
ATOM     22  H62 UNL     1       1.965  -2.197   2.373  1.00  0.00     0.277 HD
ATOM     23  H61 UNL     1       3.461  -2.936   2.636  1.00  0.00     0.277 HD
ENDBRANCH  19  20
BRANCH  19  24
HETATM   24  O3  UNL     1       4.729  -1.468   0.957  1.00  0.00    -0.366 OA
ATOM     25  H3  UNL     1       5.179  -2.239   1.281  1.00  0.00     0.212 HD
ENDBRANCH  19  24
ENDBRANCH  17  19
ENDBRANCH  10  16
BRANCH   9  26
HETATM   26  C5  UNL     1       0.694   1.704  -1.319  1.00  0.00     0.101 C 
BRANCH  26  27
HETATM   27  C6  UNL     1       0.662   2.918  -0.420  1.00  0.00     0.249 C 
BRANCH  27  28
HETATM   28  N4  UNL     1       1.038   2.607   0.902  1.00  0.00    -0.069 N 
ATOM     29  H43 UNL     1       0.467   1.851   1.281  1.00  0.00     0.275 HD
ATOM     30  H42 UNL     1       1.950   2.150   0.930  1.00  0.00     0.275 HD
ATOM     31  H41 UNL     1       1.016   3.427   1.509  1.00  0.00     0.275 HD
ENDBRANCH  27  28
BRANCH  27  32
HETATM   32  C7  UNL     1       1.518   4.014  -1.001  1.00  0.00     0.264 C 
HETATM   33  O2  UNL     1       1.343   4.419  -2.131  1.00  0.00    -0.305 OA
ENDBRANCH  27  32
ENDBRANCH  26  27
ENDBRANCH   9  26
BRANCH   1  34
HETATM   34  N1  UNL     1      -5.253  -2.768   0.315  1.00  0.00    -0.234 N 
ATOM     35  H12 UNL     1      -6.228  -2.692   0.025  1.00  0.00     0.174 HD
ATOM     36  H11 UNL     1      -5.009  -3.544   0.931  1.00  0.00     0.174 HD
ENDBRANCH   1  34
TORSDOF 9
