REMARK  5 active torsions:
REMARK  status: ('A' for Active; 'I' for Inactive)
REMARK    1  A    between atoms: C1_4  and  C2_5 
REMARK       I    between atoms: N3_9  and  C4_11 
REMARK       I    between atoms: C4_11  and  N4_12 
REMARK       I    between atoms: C4_11  and  N5_16 
REMARK    2  A    between atoms: C8_28  and  N8_29 
REMARK    3  A    between atoms: N8_29  and  C9_31 
REMARK    4  A    between atoms: C9_31  and  C10_32 
REMARK    5  A    between atoms: C10_32  and  N9_33 
ROOT
HETATM    1  C2  UNL     1      -0.367   0.467  -0.090  1.00  0.00     0.193 C 
HETATM    2  N2  UNL     1      -1.700   0.059   0.334  1.00  0.00    -0.199 N 
ATOM      3  H2  UNL     1      -1.844  -0.831   0.811  1.00  0.00     0.179 HD
HETATM    4  C3  UNL     1      -2.808   0.934   0.068  1.00  0.00     0.681 C 
HETATM    5  N3  UNL     1      -3.974   0.441   0.004  1.00  0.00    -0.174 N 
ATOM      6  H3  UNL     1      -4.724   1.106  -0.187  1.00  0.00     0.181 HD
HETATM    7  C4  UNL     1      -4.379  -0.913   0.162  1.00  0.00     0.494 C 
HETATM    8  N4  UNL     1      -3.679  -1.752  -0.778  1.00  0.00    -0.032 N 
ATOM      9  H41 UNL     1      -3.969  -2.723  -0.665  1.00  0.00     0.278 HD
ATOM     10  H42 UNL     1      -2.667  -1.645  -0.705  1.00  0.00     0.278 HD
ATOM     11  H43 UNL     1      -3.795  -1.428  -1.738  1.00  0.00     0.278 HD
HETATM   12  N5  UNL     1      -4.229  -1.437   1.505  1.00  0.00    -0.032 N 
ATOM     13  H51 UNL     1      -4.519  -2.408   1.618  1.00  0.00     0.278 HD
ATOM     14  H52 UNL     1      -4.717  -0.841   2.174  1.00  0.00     0.278 HD
ATOM     15  H53 UNL     1      -3.269  -1.315   1.827  1.00  0.00     0.278 HD
HETATM   16  N6  UNL     1      -2.597   2.332  -0.119  1.00  0.00    -0.155 N 
ATOM     17  H6  UNL     1      -3.385   2.952  -0.309  1.00  0.00     0.187 HD
HETATM   18  C5  UNL     1      -1.262   2.858  -0.036  1.00  0.00     0.285 C 
HETATM   19  O1  UNL     1      -1.088   4.072  -0.202  1.00  0.00    -0.265 OA
HETATM   20  C6  UNL     1      -0.164   1.902   0.246  1.00  0.00     0.121 C 
HETATM   21  N7  UNL     1       0.902   2.302   0.806  1.00  0.00    -0.360 N 
ATOM     22  H7  UNL     1       0.983   3.300   1.003  1.00  0.00     0.165 HD
HETATM   23  C7  UNL     1       1.992   1.472   1.181  1.00  0.00     0.121 C 
HETATM   24  C8  UNL     1       1.961   0.164   0.971  1.00  0.00     0.097 C 
HETATM   25  C11 UNL     1       0.720  -0.365   0.400  1.00  0.00     0.217 C 
HETATM   26  O2  UNL     1       0.588  -1.635   0.331  1.00  0.00    -0.287 OA
ENDROOT
BRANCH   1  27
HETATM   27  C1  UNL     1      -0.381   0.321  -1.597  1.00  0.00     0.100 C 
HETATM   28  N1  UNL     1       0.308   1.122  -2.308  1.00  0.00    -0.408 N 
ATOM     29  H12 UNL     1       0.858   1.849  -1.851  1.00  0.00     0.155 HD
ATOM     30  H11 UNL     1       0.299   1.024  -3.323  1.00  0.00     0.155 HD
ENDBRANCH   1  27
BRANCH  24  31
HETATM   31  N8  UNL     1       2.988  -0.737   1.301  1.00  0.00    -0.364 N 
ATOM     32  H8  UNL     1       3.244  -0.782   2.287  1.00  0.00     0.165 HD
BRANCH  31  33
HETATM   33  C9  UNL     1       3.707  -1.586   0.436  1.00  0.00     0.088 C 
BRANCH  33  34
HETATM   34  C10 UNL     1       4.627  -0.939  -0.535  1.00  0.00     0.274 C 
BRANCH  34  35
HETATM   35  N9  UNL     1       4.042  -0.036  -1.461  1.00  0.00    -0.075 N 
ATOM     36  H93 UNL     1       3.287  -0.502  -1.963  1.00  0.00     0.274 HD
ATOM     37  H92 UNL     1       3.518   0.679  -0.957  1.00  0.00     0.274 HD
ATOM     38  H91 UNL     1       4.674   0.408  -2.128  1.00  0.00     0.274 HD
ENDBRANCH  34  35
ENDBRANCH  33  34
ENDBRANCH  31  33
ENDBRANCH  24  31
TORSDOF 5
