REMARK  10 active torsions:
REMARK  status: ('A' for Active; 'I' for Inactive)
REMARK    1  A    between atoms: N1_2  and  C2_3 
REMARK    2  A    between atoms: N1_2  and  C4_7 
REMARK    3  A    between atoms: C2_3  and  C3_4 
REMARK    4  A    between atoms: C3_4  and  O1_5 
REMARK    5  A    between atoms: C4_7  and  C5_8 
REMARK    6  A    between atoms: C5_8  and  N2_9 
REMARK    7  A    between atoms: N2_9  and  C6_11 
REMARK    8  A    between atoms: N4_19  and  N5_21 
REMARK    9  A    between atoms: C12_26  and  N7_27 
REMARK   10  A    between atoms: N8_30  and  N9_31 
ROOT
HETATM    1  C6  UNL     1      -0.605  -1.286  -0.731  1.00  0.00     0.101 A 
HETATM    2  C7  UNL     1      -1.252  -2.528  -0.757  1.00  0.00     0.050 A 
HETATM    3  C8  UNL     1      -2.576  -2.597  -0.390  1.00  0.00     0.038 A 
HETATM    4  C9  UNL     1      -3.253  -1.448  -0.000  1.00  0.00     0.104 A 
HETATM    5  C10 UNL     1      -2.605  -0.223   0.023  1.00  0.00     0.110 A 
HETATM    6  N3  UNL     1      -1.300  -0.219  -0.350  1.00  0.00    -0.338 N 
ATOM      7  H3  UNL     1      -0.812   0.677  -0.337  1.00  0.00     0.167 HD
HETATM    8  C11 UNL     1      -3.293   0.902   0.414  1.00  0.00     0.164 A 
HETATM    9  N4  UNL     1      -2.814   2.022   0.475  1.00  0.00    -0.290 N 
ATOM     10  H4  UNL     1      -3.553   2.649   0.792  1.00  0.00     0.188 HD
HETATM   11  N6  UNL     1      -4.630   0.762   0.774  1.00  0.00    -0.172 N 
ATOM     12  H6  UNL     1      -5.157   1.585   1.067  1.00  0.00     0.186 HD
HETATM   13  C12 UNL     1      -5.230  -0.411   0.745  1.00  0.00     0.699 A 
HETATM   14  N8  UNL     1      -4.553  -1.506   0.363  1.00  0.00    -0.091 N 
ENDROOT
BRANCH   1  15
HETATM   15  N2  UNL     1       0.612  -1.225  -1.061  1.00  0.00    -0.375 N 
ATOM     16  H2  UNL     1       1.025  -2.120  -1.324  1.00  0.00     0.161 HD
BRANCH  15  17
HETATM   17  C5  UNL     1       1.501  -0.124  -1.128  1.00  0.00     0.141 C 
BRANCH  17  18
HETATM   18  C4  UNL     1       2.709  -0.304  -0.195  1.00  0.00     0.141 C 
BRANCH  18  19
HETATM   19  N1  UNL     1       3.541   0.823  -0.312  1.00  0.00    -0.394 N 
HETATM   20  C1  UNL     1       3.112   2.066   0.174  1.00  0.00     0.148 C 
BRANCH  19  21
HETATM   21  C2  UNL     1       4.909   0.635  -0.589  1.00  0.00     0.083 C 
BRANCH  21  22
HETATM   22  C3  UNL     1       5.798   0.628   0.632  1.00  0.00     0.208 C 
BRANCH  22  23
HETATM   23  O1  UNL     1       7.128   0.434   0.223  1.00  0.00    -0.396 OA
ATOM     24  H1  UNL     1       7.687   0.430   0.991  1.00  0.00     0.209 HD
ENDBRANCH  22  23
ENDBRANCH  21  22
ENDBRANCH  19  21
ENDBRANCH  18  19
ENDBRANCH  17  18
ENDBRANCH  15  17
ENDBRANCH   1  15
BRANCH  14  25
HETATM   25  N9  UNL     1      -5.173  -2.747   0.330  1.00  0.00    -0.324 N 
ATOM     26  H92 UNL     1      -4.659  -3.579   0.040  1.00  0.00     0.178 HD
ATOM     27  H91 UNL     1      -6.155  -2.791   0.604  1.00  0.00     0.178 HD
ENDBRANCH  14  25
BRANCH   9  28
HETATM   28  N5  UNL     1      -1.745   2.745   0.301  1.00  0.00    -0.344 N 
ATOM     29  H52 UNL     1      -1.027   2.093  -0.015  1.00  0.00     0.176 HD
ATOM     30  H51 UNL     1      -1.344   3.682   0.352  1.00  0.00     0.176 HD
ENDBRANCH   9  28
BRANCH  13  31
HETATM   31  N7  UNL     1      -6.487  -0.522   1.087  1.00  0.00    -0.233 N 
ATOM     32  H72 UNL     1      -7.001   0.310   1.377  1.00  0.00     0.174 HD
ATOM     33  H71 UNL     1      -6.951  -1.430   1.065  1.00  0.00     0.174 HD
ENDBRANCH  13  31
TORSDOF 10
