REMARK  9 active torsions:
REMARK  status: ('A' for Active; 'I' for Inactive)
REMARK    1  A    between atoms: C3_7  and  N3_8 
REMARK    2  A    between atoms: N3_8  and  C4_10 
REMARK    3  A    between atoms: C4_10  and  C6_12 
REMARK    4  A    between atoms: C4_10  and  C7_15 
REMARK    5  A    between atoms: C6_12  and  O1_13 
REMARK    6  A    between atoms: C7_15  and  O2_16 
REMARK    7  A    between atoms: C9_20  and  N5_21 
REMARK    8  A    between atoms: N5_21  and  N6_23 
REMARK       I    between atoms: N6_23  and  C10_25 
REMARK    9  A    between atoms: N9_30  and  N10_31 
ROOT
HETATM    1  C1  UNL     1       3.058   2.988  -1.119  1.00  0.00     0.165 C 
HETATM    2  N1  UNL     1       1.801   2.417  -0.885  1.00  0.00    -0.228 N 
ATOM      3  H1  UNL     1       1.035   3.088  -0.941  1.00  0.00     0.177 HD
HETATM    4  C2  UNL     1       1.417   1.235  -0.617  1.00  0.00     0.728 A 
HETATM    5  N2  UNL     1       0.072   1.027  -0.446  1.00  0.00    -0.020 N 
ATOM      6  H2  UNL     1      -0.554   1.827  -0.541  1.00  0.00     0.203 HD
HETATM    7  C3  UNL     1      -0.463  -0.156  -0.164  1.00  0.00     0.708 A 
HETATM    8  N4  UNL     1       0.396  -1.188  -0.048  1.00  0.00    -0.018 N 
ATOM      9  H4  UNL     1       0.026  -2.114   0.167  1.00  0.00     0.203 HD
HETATM   10  C9  UNL     1       1.744  -1.039  -0.208  1.00  0.00     0.747 A 
HETATM   11  N9  UNL     1       2.229   0.170  -0.489  1.00  0.00     0.085 N 
ENDROOT
BRANCH   7  12
HETATM   12  N3  UNL     1      -1.702  -0.403   0.003  1.00  0.00    -0.212 N 
ATOM     13  H3  UNL     1      -1.920  -1.377   0.213  1.00  0.00     0.178 HD
BRANCH  12  14
HETATM   14  C4  UNL     1      -2.831   0.464  -0.057  1.00  0.00     0.086 C 
HETATM   15  C5  UNL     1      -2.892   1.133  -1.392  1.00  0.00     0.043 C 
BRANCH  14  16
HETATM   16  C6  UNL     1      -2.871   1.415   1.119  1.00  0.00     0.197 C 
BRANCH  16  17
HETATM   17  O1  UNL     1      -3.945   2.266   1.085  1.00  0.00    -0.398 OA
ATOM     18  H1  UNL     1      -3.970   2.863   1.823  1.00  0.00     0.209 HD
ENDBRANCH  16  17
ENDBRANCH  14  16
BRANCH  14  19
HETATM   19  C7  UNL     1      -4.134  -0.364   0.043  1.00  0.00     0.200 C 
BRANCH  19  20
HETATM   20  O2  UNL     1      -4.142  -1.053   1.250  1.00  0.00    -0.393 OA
HETATM   21  C8  UNL     1      -5.271  -1.817   1.418  1.00  0.00     0.201 C 
ENDBRANCH  19  20
ENDBRANCH  14  19
ENDBRANCH  12  14
ENDBRANCH   7  12
BRANCH  10  22
HETATM   22  N5  UNL     1       2.442  -2.079  -0.076  1.00  0.00    -0.127 N 
ATOM     23  H5  UNL     1       1.949  -2.946   0.139  1.00  0.00     0.205 HD
BRANCH  22  24
HETATM   24  N6  UNL     1       3.802  -2.149  -0.195  1.00  0.00    -0.259 N 
HETATM   25  C10 UNL     1       4.665  -2.346   0.912  1.00  0.00     0.201 C 
HETATM   26  N7  UNL     1       5.790  -2.926   0.729  1.00  0.00    -0.372 N 
HETATM   27  N8  UNL     1       4.271  -1.904   2.183  1.00  0.00    -0.062 NA
ATOM     28  H72 UNL     1       6.077  -3.248  -0.196  1.00  0.00     0.158 HD
ATOM     29  H71 UNL     1       6.411  -3.068   1.526  1.00  0.00     0.158 HD
ATOM     30  H6  UNL     1       4.215  -2.055  -1.123  1.00  0.00     0.190 HD
ENDBRANCH  22  24
ENDBRANCH  10  22
BRANCH  11  31
HETATM   31  N10 UNL     1       3.625   0.366  -0.660  1.00  0.00    -0.309 N 
ATOM     32 2H10 UNL     1       3.996   1.291  -0.875  1.00  0.00     0.178 HD
ATOM     33 1H10 UNL     1       4.241  -0.441  -0.563  1.00  0.00     0.178 HD
ENDBRANCH  11  31
TORSDOF 9
