REMARK  9 active torsions:
REMARK  status: ('A' for Active; 'I' for Inactive)
REMARK    1  A    between atoms: N1_1  and  N2_4 
REMARK    2  A    between atoms: N3_7  and  N4_8 
REMARK    3  A    between atoms: C3_15  and  C4_16 
REMARK       I    between atoms: C4_16  and  N7_18 
REMARK    4  A    between atoms: N7_18  and  N8_20 
REMARK    5  A    between atoms: C5_22  and  C6_23 
REMARK    6  A    between atoms: C9_28  and  N10_29 
REMARK    7  A    between atoms: N11_36  and  N12_37 
REMARK    8  A    between atoms: N12_37  and  C13_38 
REMARK    9  A    between atoms: C13_38  and  C14_39 
ROOT
HETATM    1  N2  UNL     1      -5.720   1.040   0.160  1.00  0.00    -0.133 N 
ATOM      2  H2  UNL     1      -6.680   0.722   0.294  1.00  0.00     0.205 HD
HETATM    3  C1  UNL     1      -4.928   0.116   0.430  1.00  0.00     0.765 A 
HETATM    4  N3  UNL     1      -5.491  -1.111   0.850  1.00  0.00    -0.021 N 
HETATM    5  N5  UNL     1      -4.704  -2.192   1.138  1.00  0.00    -0.250 N 
ATOM      6  H5  UNL     1      -5.122  -3.072   1.441  1.00  0.00     0.191 HD
HETATM    7  C2  UNL     1      -3.259  -2.065   1.005  1.00  0.00     0.169 A 
HETATM    8  N6  UNL     1      -2.529  -3.240   1.339  1.00  0.00    -0.079 NA
HETATM    9  C3  UNL     1      -2.661  -0.970   0.626  1.00  0.00     0.199 A 
HETATM   10  N11 UNL     1      -3.467   0.214   0.305  1.00  0.00    -0.006 N 
ENDROOT
BRANCH   9  11
HETATM   11  C4  UNL     1      -1.213  -0.815   0.478  1.00  0.00     0.293 C 
HETATM   12  O1  UNL     1      -0.754   0.340   0.144  1.00  0.00    -0.264 OA
HETATM   13  N7  UNL     1      -0.236  -1.787   0.653  1.00  0.00    -0.265 N 
ATOM     14  H7  UNL     1      -0.516  -2.730   0.921  1.00  0.00     0.190 HD
BRANCH  13  15
HETATM   15  N8  UNL     1       1.126  -1.504   0.470  1.00  0.00    -0.305 N 
HETATM   16  C5  UNL     1       1.576  -0.778  -0.456  1.00  0.00     0.163 C 
ATOM     17  H8  UNL     1       1.792  -1.911   1.127  1.00  0.00     0.186 HD
BRANCH  16  18
HETATM   18  C6  UNL     1       3.053  -0.569  -0.513  1.00  0.00     0.165 A 
HETATM   19  N9  UNL     1       3.671   0.174  -1.444  1.00  0.00    -0.333 N 
HETATM   20  C7  UNL     1       5.004   0.121  -1.161  1.00  0.00     0.070 A 
ATOM     21  H9  UNL     1       3.230   0.679  -2.213  1.00  0.00     0.168 HD
HETATM   22  C8  UNL     1       6.138   0.662  -1.734  1.00  0.00     0.068 A 
HETATM   23  C12 UNL     1       5.146  -0.667  -0.052  1.00  0.00     0.104 A 
HETATM   24  C9  UNL     1       7.391   0.428  -1.216  1.00  0.00     0.105 A 
HETATM   25  C10 UNL     1       7.512  -0.364  -0.103  1.00  0.00     0.039 A 
HETATM   26  C11 UNL     1       6.374  -0.922   0.491  1.00  0.00     0.042 A 
HETATM   27  O4  UNL     1       3.955  -1.050   0.292  1.00  0.00    -0.290 OA
BRANCH  24  28
HETATM   28  N10 UNL     1       8.547   1.006  -1.836  1.00  0.00    -0.116 N 
HETATM   29  O2  UNL     1       8.471   1.732  -2.841  1.00  0.00    -0.532 OA
HETATM   30  O3  UNL     1       9.802   0.778  -1.336  1.00  0.00    -0.532 OA
ENDBRANCH  24  28
ENDBRANCH  16  18
ENDBRANCH  13  15
ENDBRANCH   9  11
BRANCH  10  31
HETATM   31  N12 UNL     1      -3.011   1.352  -0.139  1.00  0.00    -0.309 NA
BRANCH  31  32
HETATM   32  C13 UNL     1      -2.596   2.383  -0.555  1.00  0.00     0.294 C 
BRANCH  32  33
HETATM   33  C14 UNL     1      -2.192   3.595   0.211  1.00  0.00     0.231 C 
HETATM   34  O5  UNL     1      -1.774   4.639  -0.352  1.00  0.00    -0.643 OA
HETATM   35  O6  UNL     1      -2.286   3.568   1.577  1.00  0.00    -0.643 OA
ENDBRANCH  32  33
ENDBRANCH  31  32
ENDBRANCH  10  31
BRANCH   4  36
HETATM   36  N4  UNL     1      -6.878  -1.214   0.974  1.00  0.00    -0.309 N 
ATOM     37  H42 UNL     1      -7.465  -0.408   0.759  1.00  0.00     0.179 HD
ATOM     38  H41 UNL     1      -7.284  -2.099   1.277  1.00  0.00     0.179 HD
ENDBRANCH   4  36
BRANCH   1  39
HETATM   39  N1  UNL     1      -5.717   2.311  -0.248  1.00  0.00    -0.331 N 
ATOM     40  H12 UNL     1      -4.748   2.603  -0.374  1.00  0.00     0.177 HD
ATOM     41  H11 UNL     1      -6.365   3.067  -0.469  1.00  0.00     0.177 HD
ENDBRANCH   1  39
TORSDOF 9
