REMARK  10 active torsions:
REMARK  status: ('A' for Active; 'I' for Inactive)
REMARK    1  A    between atoms: O1_2  and  C2_3 
REMARK    2  A    between atoms: C2_3  and  O2_4 
REMARK    3  A    between atoms: C2_3  and  C3_6 
REMARK    4  A    between atoms: C3_6  and  O3_7 
REMARK    5  A    between atoms: C3_6  and  C4_9 
REMARK    6  A    between atoms: C4_9  and  C5_13 
REMARK    7  A    between atoms: C5_13  and  O4_14 
REMARK    8  A    between atoms: N3_19  and  C7_20 
REMARK    9  A    between atoms: C8_23  and  N5_24 
REMARK   10  A    between atoms: N6_26  and  C9_28 
ROOT
HETATM    1  C7  UNL     1       1.000  -0.237  -0.192  1.00  0.00     0.728 A 
HETATM    2  N4  UNL     1       1.533  -0.746   0.936  1.00  0.00    -0.018 N 
ATOM      3  H4  UNL     1       0.913  -0.959   1.718  1.00  0.00     0.203 HD
HETATM    4  C8  UNL     1       2.868  -0.987   1.074  1.00  0.00     0.726 A 
HETATM    5  N11 UNL     1       3.698  -0.713   0.058  1.00  0.00    -0.020 N 
ATOM      6  H11 UNL     1       4.699  -0.887   0.145  1.00  0.00     0.203 HD
HETATM    7  C13 UNL     1       3.189  -0.205  -1.076  1.00  0.00     0.705 A 
HETATM    8  N12 UNL     1       3.981   0.055  -2.040  1.00  0.00    -0.234 N 
ATOM      9 1H12 UNL     1       3.594   0.441  -2.901  1.00  0.00     0.174 HD
ATOM     10 2H12 UNL     1       4.982  -0.120  -1.951  1.00  0.00     0.174 HD
HETATM   11  N13 UNL     1       1.848   0.030  -1.195  1.00  0.00    -0.020 N 
ATOM     12  H13 UNL     1       1.485   0.417  -2.066  1.00  0.00     0.203 HD
ENDROOT
BRANCH   1  13
HETATM   13  N3  UNL     1      -0.416   0.000  -0.289  1.00  0.00    -0.123 N 
HETATM   14  N2  UNL     1      -1.270  -0.274   0.779  1.00  0.00    -0.296 N 
HETATM   15  C6  UNL     1      -2.535  -0.526   0.648  1.00  0.00     0.124 C 
ATOM     16  H2  UNL     1      -0.876  -0.276   1.720  1.00  0.00     0.186 HD
HETATM   17  C5  UNL     1      -3.082  -0.520  -0.699  1.00  0.00     0.133 C 
HETATM   18  C15 UNL     1      -2.434   0.479  -1.614  1.00  0.00     0.072 C 
HETATM   19  C14 UNL     1      -0.945   0.522  -1.500  1.00  0.00     0.172 C 
BRANCH  17  20
HETATM   20  C4  UNL     1      -4.574  -0.242  -0.605  1.00  0.00     0.054 C 
HETATM   21  N1  UNL     1      -5.032   0.795  -1.126  1.00  0.00    -0.401 N 
ATOM     22  H12 UNL     1      -6.033   0.981  -1.063  1.00  0.00     0.155 HD
ATOM     23  H11 UNL     1      -4.470   1.508  -1.591  1.00  0.00     0.155 HD
BRANCH  20  24
HETATM   24  C3  UNL     1      -5.378  -1.262   0.061  1.00  0.00     0.221 C 
BRANCH  24  25
HETATM   25  C2  UNL     1      -6.798  -0.967   0.360  1.00  0.00     0.290 C 
BRANCH  25  26
HETATM   26  O1  UNL     1      -7.059   0.066   1.221  1.00  0.00    -0.363 OA
HETATM   27  C1  UNL     1      -8.159   0.824   0.876  1.00  0.00     0.204 C 
ENDBRANCH  25  26
BRANCH  25  28
HETATM   28  O2  UNL     1      -7.270  -2.163   1.052  1.00  0.00    -0.368 OA
ATOM     29  H2  UNL     1      -7.089  -2.879   0.455  1.00  0.00     0.212 HD
ENDBRANCH  25  28
ENDBRANCH  24  25
BRANCH  24  30
HETATM   30  O3  UNL     1      -5.439  -2.427  -0.794  1.00  0.00    -0.385 OA
ATOM     31  H3  UNL     1      -4.528  -2.616  -0.986  1.00  0.00     0.210 HD
ENDBRANCH  24  30
ENDBRANCH  20  24
ENDBRANCH  17  20
BRANCH  17  32
HETATM   32  O4  UNL     1      -2.985  -1.809  -1.228  1.00  0.00    -0.378 OA
ATOM     33  H4  UNL     1      -2.053  -1.983  -1.287  1.00  0.00     0.211 HD
ENDBRANCH  17  32
ENDBRANCH   1  13
BRANCH   4  34
HETATM   34  N5  UNL     1       3.266  -1.525   2.325  1.00  0.00    -0.117 N 
HETATM   35  N6  UNL     1       4.396  -1.312   2.827  1.00  0.00    -0.116 N 
ATOM     36  H6  UNL     1       4.609  -1.734   3.731  1.00  0.00     0.206 HD
ATOM     37  H5  UNL     1       2.606  -2.109   2.838  1.00  0.00     0.206 HD
BRANCH  35  38
HETATM   38  C9  UNL     1       5.394  -0.516   2.207  1.00  0.00     0.713 A 
HETATM   39  N7  UNL     1       6.418  -1.118   1.573  1.00  0.00    -0.172 N 
HETATM   40  C10 UNL     1       7.391  -0.453   0.971  1.00  0.00     0.138 A 
ATOM     41  H7  UNL     1       6.445  -2.137   1.556  1.00  0.00     0.186 HD
HETATM   42  N8  UNL     1       8.358  -1.052   0.372  1.00  0.00    -0.383 N 
HETATM   43  C11 UNL     1       7.356   0.929   0.994  1.00  0.00     0.066 A 
ATOM     44  H82 UNL     1       8.384  -2.072   0.355  1.00  0.00     0.157 HD
ATOM     45  H81 UNL     1       9.108  -0.539  -0.092  1.00  0.00     0.157 HD
HETATM   46  C12 UNL     1       8.425   1.699   0.333  1.00  0.00     0.074 C 
HETATM   47  N9  UNL     1       6.325   1.514   1.633  1.00  0.00    -0.287 N 
HETATM   48  N10 UNL     1       5.364   0.830   2.227  1.00  0.00    -0.130 N 
ATOM     49  H9  UNL     1       6.284   2.533   1.659  1.00  0.00     0.187 HD
ATOM     50  H10 UNL     1       4.603   1.319   2.698  1.00  0.00     0.205 HD
ENDBRANCH  35  38
ENDBRANCH   4  34
TORSDOF 10
