REMARK  12 active torsions:
REMARK  status: ('A' for Active; 'I' for Inactive)
REMARK    1  A    between atoms: O1_2  and  C2_3 
REMARK       I    between atoms: C2_3  and  N1_5 
REMARK    2  A    between atoms: N1_5  and  C3_7 
REMARK    3  A    between atoms: C4_8  and  N2_9 
REMARK    4  A    between atoms: N2_9  and  C5_11 
REMARK    5  A    between atoms: N4_18  and  C9_19 
REMARK    6  A    between atoms: C9_19  and  O3_20 
REMARK    7  A    between atoms: C9_19  and  O4_22 
REMARK    8  A    between atoms: C10_24  and  N5_25 
REMARK    9  A    between atoms: N5_25  and  N6_27 
REMARK   10  A    between atoms: C11_29  and  C12_30 
REMARK   11  A    between atoms: C13_36  and  N9_37 
REMARK   12  A    between atoms: C14_42  and  N11_43 
ROOT
HETATM    1  C3  UNL     1      -0.507  -1.050  -0.773  1.00  0.00     0.126 A 
HETATM    2  C4  UNL     1      -0.611   0.289  -0.488  1.00  0.00     0.155 A 
HETATM    3  N4  UNL     1       0.490   1.042  -0.793  1.00  0.00    -0.114 N 
HETATM    4  C10 UNL     1       1.606   0.542  -1.333  1.00  0.00     0.706 A 
HETATM    5  N10 UNL     1       1.736  -0.747  -1.622  1.00  0.00    -0.173 N 
ATOM      6  H10 UNL     1       2.591  -1.120  -2.036  1.00  0.00     0.186 HD
HETATM    7  C14 UNL     1       0.691  -1.532  -1.344  1.00  0.00     0.145 A 
ENDROOT
BRANCH   4   8
HETATM    8  N5  UNL     1       2.631   1.320  -1.590  1.00  0.00    -0.132 N 
ATOM      9  H5  UNL     1       2.559   2.313  -1.369  1.00  0.00     0.205 HD
BRANCH   8  10
HETATM   10  N6  UNL     1       3.790   0.853  -2.142  1.00  0.00    -0.295 N 
HETATM   11  C11 UNL     1       4.881   0.676  -1.501  1.00  0.00     0.143 C 
ATOM     12  H6  UNL     1       3.784   0.630  -3.137  1.00  0.00     0.186 HD
BRANCH  11  13
HETATM   13  C12 UNL     1       4.965   0.974  -0.078  1.00  0.00     0.126 A 
HETATM   14  N7  UNL     1       3.935   1.448   0.673  1.00  0.00    -0.275 N 
HETATM   15  N8  UNL     1       4.358   1.601   1.898  1.00  0.00    -0.199 N 
ATOM     16  H7  UNL     1       2.993   1.649   0.336  1.00  0.00     0.189 HD
HETATM   17  O5  UNL     1       5.586   1.260   1.991  1.00  0.00    -0.196 OA
ATOM     18  H8  UNL     1       3.789   1.944   2.672  1.00  0.00     0.216 HD
HETATM   19  C13 UNL     1       6.012   0.861   0.787  1.00  0.00     0.266 A 
BRANCH  19  20
HETATM   20  N9  UNL     1       7.315   0.407   0.483  1.00  0.00    -0.086 N 
HETATM   21  O6  UNL     1       7.647   0.057  -0.631  1.00  0.00    -0.530 OA
HETATM   22  O7  UNL     1       8.244   0.365   1.507  1.00  0.00    -0.530 OA
ENDBRANCH  19  20
ENDBRANCH  11  13
ENDBRANCH   8  10
ENDBRANCH   4   8
BRANCH   3  23
HETATM   23  C9  UNL     1       0.476   2.468  -0.545  1.00  0.00     0.391 C 
BRANCH  23  24
HETATM   24  O3  UNL     1       1.498   3.097  -1.272  1.00  0.00    -0.354 OA
ATOM     25  H3  UNL     1       1.489   4.033  -1.109  1.00  0.00     0.214 HD
ENDBRANCH  23  24
BRANCH  23  26
HETATM   26  O4  UNL     1       0.634   2.741   0.792  1.00  0.00    -0.354 OA
ATOM     27  H4  UNL     1       0.625   3.677   0.955  1.00  0.00     0.214 HD
ENDBRANCH  23  26
ENDBRANCH   3  23
BRANCH   2  28
HETATM   28  N2  UNL     1      -1.765   0.915   0.021  1.00  0.00    -0.367 N 
ATOM     29  H2  UNL     1      -1.623   1.892   0.277  1.00  0.00     0.161 HD
BRANCH  28  30
HETATM   30  C5  UNL     1      -3.075   0.456   0.245  1.00  0.00     0.110 C 
HETATM   31  C6  UNL     1      -3.843   1.591   0.990  1.00  0.00     0.054 C 
HETATM   32  C7  UNL     1      -5.263   1.163   0.688  1.00  0.00     0.234 C 
HETATM   33  N3  UNL     1      -5.209   0.938  -0.723  1.00  0.00    -0.073 N 
HETATM   34  C8  UNL     1      -3.917   0.363  -1.019  1.00  0.00     0.257 C 
ATOM     35  H32 UNL     1      -5.985   0.372  -1.066  1.00  0.00     0.277 HD
ATOM     36  H31 UNL     1      -5.406   1.777  -1.268  1.00  0.00     0.277 HD
ENDBRANCH  28  30
ENDBRANCH   2  28
BRANCH   7  37
HETATM   37  N11 UNL     1       0.794  -2.787  -1.616  1.00  0.00    -0.383 N 
ATOM     38 2H11 UNL     1      -0.004  -3.386  -1.404  1.00  0.00     0.157 HD
ATOM     39 1H11 UNL     1       1.659  -3.135  -2.028  1.00  0.00     0.157 HD
ENDBRANCH   7  37
BRANCH   1  40
HETATM   40  N1  UNL     1      -1.504  -2.018  -0.480  1.00  0.00    -0.296 N 
HETATM   41  C2  UNL     1      -1.447  -2.770   0.721  1.00  0.00     0.364 C 
HETATM   42  O2  UNL     1      -0.506  -2.584   1.539  1.00  0.00    -0.238 OA
ATOM     43  H1  UNL     1      -2.267  -2.174  -1.139  1.00  0.00     0.171 HD
BRANCH  41  44
HETATM   44  O1  UNL     1      -2.392  -3.727   1.058  1.00  0.00    -0.309 OA
HETATM   45  C1  UNL     1      -2.324  -4.473   2.261  1.00  0.00     0.215 C 
ENDBRANCH  41  44
ENDBRANCH   1  40
TORSDOF 12
