REMARK  10 active torsions:
REMARK  status: ('A' for Active; 'I' for Inactive)
REMARK    1  A    between atoms: O1_2  and  C2_3 
REMARK       I    between atoms: C2_3  and  N1_5 
REMARK    2  A    between atoms: N1_5  and  C3_7 
REMARK    3  A    between atoms: C3_7  and  C4_8 
REMARK    4  A    between atoms: N4_12  and  C5_13 
REMARK    5  A    between atoms: C6_16  and  N6_17 
REMARK    6  A    between atoms: C8_22  and  N8_23 
REMARK    7  A    between atoms: C9_25  and  C11_28 
REMARK    8  A    between atoms: C11_28  and  C12_29 
REMARK    9  A    between atoms: C13_34  and  N12_35 
REMARK   10  A    between atoms: C14_40  and  O3_41 
ROOT
HETATM    1  N8  UNL     1      -2.437  -1.814  -1.392  1.00  0.00    -0.334 N 
ATOM      2  H8  UNL     1      -2.228  -2.311  -2.258  1.00  0.00     0.168 HD
HETATM    3  C9  UNL     1      -3.512  -1.103  -1.375  1.00  0.00     0.099 C 
HETATM    4  C10 UNL     1      -4.336  -1.053  -2.549  1.00  0.00     0.113 C 
HETATM    5  N9  UNL     1      -4.993  -1.020  -3.517  1.00  0.00    -0.190 NA
ENDROOT
BRANCH   3   6
HETATM    6  C11 UNL     1      -3.937  -0.329  -0.186  1.00  0.00     0.147 C 
BRANCH   6   7
HETATM    7  C12 UNL     1      -4.043   1.124  -0.467  1.00  0.00     0.118 A 
HETATM    8  N10 UNL     1      -3.061   2.032  -0.333  1.00  0.00    -0.274 N 
HETATM    9  N11 UNL     1      -3.532   3.218  -0.677  1.00  0.00    -0.131 N 
ATOM     10  H10 UNL     1      -2.110   1.838  -0.018  1.00  0.00     0.189 HD
HETATM   11  C13 UNL     1      -4.830   3.105  -1.042  1.00  0.00     0.691 A 
ATOM     12  H11 UNL     1      -2.998   4.087  -0.669  1.00  0.00     0.205 HD
HETATM   13  N13 UNL     1      -5.131   1.782  -0.903  1.00  0.00    -0.178 N 
ATOM     14  H13 UNL     1      -6.038   1.359  -1.099  1.00  0.00     0.185 HD
BRANCH  11  15
HETATM   15  N12 UNL     1      -5.612   4.055  -1.437  1.00  0.00    -0.233 N 
ATOM     16 2H12 UNL     1      -5.387   5.044  -1.541  1.00  0.00     0.174 HD
ATOM     17 1H12 UNL     1      -6.590   3.970  -1.712  1.00  0.00     0.174 HD
ENDBRANCH  11  15
ENDBRANCH   6   7
ENDBRANCH   3   6
BRANCH   1  18
HETATM   18  C8  UNL     1      -1.529  -1.970  -0.339  1.00  0.00     0.161 A 
HETATM   19  N7  UNL     1      -1.812  -2.844   0.644  1.00  0.00    -0.170 N 
HETATM   20  C6  UNL     1      -0.910  -2.960   1.635  1.00  0.00     0.681 A 
HETATM   21  C7  UNL     1      -3.047  -3.641   0.644  1.00  0.00     0.177 C 
HETATM   22  N5  UNL     1       0.237  -2.258   1.688  1.00  0.00    -0.171 N 
HETATM   23  C5  UNL     1       0.560  -1.371   0.724  1.00  0.00     0.195 A 
ATOM     24  H5  UNL     1       0.874  -2.399   2.472  1.00  0.00     0.186 HD
HETATM   25  C14 UNL     1      -0.349  -1.232  -0.306  1.00  0.00     0.159 A 
BRANCH  20  26
HETATM   26  N6  UNL     1      -1.202  -3.814   2.582  1.00  0.00    -0.234 N 
ATOM     27  H62 UNL     1      -0.518  -3.902   3.334  1.00  0.00     0.174 HD
ATOM     28  H61 UNL     1      -2.071  -4.346   2.542  1.00  0.00     0.174 HD
ENDBRANCH  20  26
BRANCH  23  29
HETATM   29  N4  UNL     1       1.776  -0.627   0.778  1.00  0.00    -0.158 N 
HETATM   30  N3  UNL     1       1.920   0.687   0.810  1.00  0.00     0.004 NA
HETATM   31  N2  UNL     1       3.212   1.012   0.857  1.00  0.00    -0.269 N 
HETATM   32  C4  UNL     1       3.916  -0.136   0.854  1.00  0.00     0.128 A 
ATOM     33  H2  UNL     1       3.596   1.956   0.889  1.00  0.00     0.185 HD
HETATM   34  N14 UNL     1       3.014  -1.114   0.806  1.00  0.00    -0.265 N 
ATOM     35  H14 UNL     1       3.242  -2.108   0.792  1.00  0.00     0.190 HD
BRANCH  32  36
HETATM   36  C3  UNL     1       5.417  -0.259   0.896  1.00  0.00     0.203 C 
BRANCH  36  37
HETATM   37  N1  UNL     1       6.027   1.044   0.885  1.00  0.00    -0.330 N 
HETATM   38  C2  UNL     1       6.093   1.790  -0.306  1.00  0.00     0.360 C 
HETATM   39  O2  UNL     1       5.628   1.345  -1.377  1.00  0.00    -0.239 OA
ATOM     40  H1  UNL     1       6.414   1.429   1.746  1.00  0.00     0.165 HD
BRANCH  38  41
HETATM   41  O1  UNL     1       6.680   3.038  -0.299  1.00  0.00    -0.309 OA
HETATM   42  C1  UNL     1       6.767   3.826  -1.483  1.00  0.00     0.215 C 
ENDBRANCH  38  41
ENDBRANCH  36  37
ENDBRANCH  32  36
ENDBRANCH  23  29
BRANCH  25  43
HETATM   43  O3  UNL     1      -0.031  -0.322  -1.307  1.00  0.00    -0.354 OA
ATOM     44  H3  UNL     1      -0.656  -0.226  -2.016  1.00  0.00     0.218 HD
ENDBRANCH  25  43
ENDBRANCH   1  18
TORSDOF 10
