REMARK  6 active torsions:
REMARK  status: ('A' for Active; 'I' for Inactive)
REMARK    1  A    between atoms: S1_2  and  O1_3 
REMARK    2  A    between atoms: O1_3  and  C2_4 
REMARK    3  A    between atoms: C8_12  and  C9_13 
REMARK    4  A    between atoms: C9_13  and  O4_14 
REMARK    5  A    between atoms: C9_13  and  C10_16 
REMARK    6  A    between atoms: C10_16  and  O5_17 
ROOT
HETATM    1  C2  UNL     1      -0.137   0.671  -0.163  1.00  0.00     0.169 C 
HETATM    2  C3  UNL     1      -1.330  -0.175  -0.620  1.00  0.00     0.045 C 
HETATM    3  C4  UNL     1      -1.337  -1.419   0.188  1.00  0.00     0.043 C 
HETATM    4  C5  UNL     1      -2.298  -2.481  -0.178  1.00  0.00     0.175 C 
HETATM    5  O2  UNL     1      -1.619  -3.701  -0.166  1.00  0.00    -0.388 OA
HETATM    6  C6  UNL     1      -0.338  -3.453   0.379  1.00  0.00     0.199 C 
HETATM    7  C7  UNL     1      -0.029  -2.124  -0.232  1.00  0.00     0.152 C 
HETATM    8  O3  UNL     1       0.960  -1.422   0.383  1.00  0.00    -0.373 OA
HETATM    9  C8  UNL     1       1.119  -0.119  -0.084  1.00  0.00     0.183 C 
ENDROOT
BRANCH   9  10
HETATM   10  C9  UNL     1       2.264   0.450   0.680  1.00  0.00     0.173 C 
BRANCH  10  11
HETATM   11  O4  UNL     1       2.129   0.546   2.036  1.00  0.00    -0.391 OA
ATOM     12  H4  UNL     1       2.859   0.909   2.523  1.00  0.00     0.210 HD
ENDBRANCH  10  11
BRANCH  10  13
HETATM   13  C10 UNL     1       2.824   1.744   0.136  1.00  0.00     0.198 C 
BRANCH  13  14
HETATM   14  O5  UNL     1       2.953   1.653  -1.264  1.00  0.00    -0.398 OA
ATOM     15  H5  UNL     1       3.305   2.466  -1.606  1.00  0.00     0.209 HD
ENDBRANCH  13  14
ENDBRANCH  10  13
ENDBRANCH   9  10
BRANCH   1  16
HETATM   16  O1  UNL     1      -0.455   1.389   0.980  1.00  0.00    -0.312 OA
BRANCH  16  17
HETATM   17  S1  UNL     1      -0.857   2.989   0.827  1.00  0.00    -0.016 SA
HETATM   18  C1  UNL     1      -2.120   3.310  -0.435  1.00  0.00     0.123 C 
ENDBRANCH  16  17
ENDBRANCH   1  16
TORSDOF 6
