REMARK  6 active torsions:
REMARK  status: ('A' for Active; 'I' for Inactive)
REMARK    1  A    between atoms: O1_2  and  C2_3 
REMARK    2  A    between atoms: C2_3  and  C3_4 
REMARK    3  A    between atoms: C4_6  and  C5_7 
REMARK    4  A    between atoms: C6_8  and  C7_9 
REMARK    5  A    between atoms: C9_13  and  O5_14 
REMARK    6  A    between atoms: C10_16  and  O6_17 
ROOT
HETATM    1  C3  UNL     1      -0.951  -0.510  -0.381  1.00  0.00     0.177 C 
HETATM    2  O2  UNL     1       0.327  -0.870  -0.835  1.00  0.00    -0.372 OA
HETATM    3  C4  UNL     1       1.173  -0.778   0.266  1.00  0.00     0.147 C 
HETATM    4  C8  UNL     1       1.221   0.555   0.913  1.00  0.00     0.070 C 
HETATM    5  C9  UNL     1      -0.092   1.269   1.007  1.00  0.00     0.152 C 
HETATM    6  C10 UNL     1      -0.913   0.998  -0.259  1.00  0.00     0.180 C 
ENDROOT
BRANCH   3   7
HETATM    7  C5  UNL     1       2.547  -1.237  -0.047  1.00  0.00     0.011 C 
HETATM    8  C6  UNL     1       3.597  -0.664   0.504  1.00  0.00     0.083 C 
BRANCH   8   9
HETATM    9  C7  UNL     1       4.964  -1.069   0.238  1.00  0.00     0.198 C 
HETATM   10  O3  UNL     1       5.966  -0.534   0.754  1.00  0.00    -0.645 OA
HETATM   11  O4  UNL     1       5.157  -2.113  -0.644  1.00  0.00    -0.645 OA
ENDBRANCH   8   9
ENDBRANCH   3   7
BRANCH   1  12
HETATM   12  C2  UNL     1      -2.037  -1.008  -1.257  1.00  0.00     0.201 C 
BRANCH  12  13
HETATM   13  O1  UNL     1      -3.293  -0.652  -0.800  1.00  0.00    -0.393 OA
HETATM   14  C1  UNL     1      -3.626  -1.131   0.443  1.00  0.00     0.201 C 
ENDBRANCH  12  13
ENDBRANCH   1  12
BRANCH   5  15
HETATM   15  O5  UNL     1      -0.812   0.952   2.156  1.00  0.00    -0.393 OA
ATOM     16  H5  UNL     1      -1.645   1.405   2.216  1.00  0.00     0.210 HD
ENDBRANCH   5  15
BRANCH   6  17
HETATM   17  O6  UNL     1      -2.150   1.581  -0.230  1.00  0.00    -0.385 OA
HETATM   18  C11 UNL     1      -2.259   2.527  -1.246  1.00  0.00     0.202 C 
ENDBRANCH   6  17
TORSDOF 6
