REMARK  7 active torsions:
REMARK  status: ('A' for Active; 'I' for Inactive)
REMARK    1  A    between atoms: C2_2  and  O1_3 
REMARK    2  A    between atoms: O1_3  and  C3_4 
REMARK    3  A    between atoms: C3_4  and  C4_6 
REMARK    4  A    between atoms: C4_6  and  N1_7 
REMARK    5  A    between atoms: N1_7  and  C6_10 
REMARK    6  A    between atoms: C6_10  and  C7_11 
REMARK    7  A    between atoms: C7_11  and  O3_12 
ROOT
HETATM    1  N1  UNL     1       0.602  -0.250  -0.805  1.00  0.00    -0.308 N 
HETATM    2  C5  UNL     1       1.213  -0.830  -1.965  1.00  0.00     0.180 C 
HETATM    3  N2  UNL     1       1.717  -1.279  -2.903  1.00  0.00    -0.172 NA
ENDROOT
BRANCH   1   4
HETATM    4  C4  UNL     1       1.257   0.916  -0.280  1.00  0.00     0.245 C 
BRANCH   4   5
HETATM    5  C3  UNL     1       2.616   0.512   0.270  1.00  0.00     0.277 C 
HETATM    6  O2  UNL     1       3.381   1.358   0.772  1.00  0.00    -0.263 OA
BRANCH   5   7
HETATM    7  O1  UNL     1       3.006  -0.811   0.210  1.00  0.00    -0.321 OA
BRANCH   7   8
HETATM    8  C2  UNL     1       4.248  -1.275   0.693  1.00  0.00     0.174 C 
HETATM    9  C1  UNL     1       5.359  -0.584  -0.050  1.00  0.00     0.034 C 
ENDBRANCH   7   8
ENDBRANCH   5   7
ENDBRANCH   4   5
ENDBRANCH   1   4
BRANCH   1  10
HETATM   10  C6  UNL     1      -0.589  -0.811  -0.258  1.00  0.00     0.173 C 
BRANCH  10  11
HETATM   11  C7  UNL     1      -1.857  -0.056  -0.449  1.00  0.00     0.077 C 
HETATM   12  C8  UNL     1      -1.879   1.248   0.221  1.00  0.00     0.067 C 
HETATM   13  C9  UNL     1      -3.269   1.853   0.345  1.00  0.00     0.235 C 
HETATM   14  N3  UNL     1      -4.146   0.995   1.095  1.00  0.00    -0.075 N 
HETATM   15  C10 UNL     1      -3.591  -0.329   1.265  1.00  0.00     0.235 C 
ATOM     16  H32 UNL     1      -4.393   1.411   1.993  1.00  0.00     0.277 HD
ATOM     17  H31 UNL     1      -5.075   0.956   0.675  1.00  0.00     0.277 HD
HETATM   18  C11 UNL     1      -3.053  -0.893  -0.011  1.00  0.00     0.067 C 
BRANCH  11  19
HETATM   19  O3  UNL     1      -2.039   0.102  -1.854  1.00  0.00    -0.388 OA
ATOM     20  H3  UNL     1      -2.849   0.584  -1.976  1.00  0.00     0.210 HD
ENDBRANCH  11  19
ENDBRANCH  10  11
ENDBRANCH   1  10
TORSDOF 7
