REMARK  5 active torsions:
REMARK  status: ('A' for Active; 'I' for Inactive)
REMARK    1  A    between atoms: C5_7  and  C6_8 
REMARK    2  A    between atoms: C10_13  and  N1_14 
REMARK    3  A    between atoms: C11_21  and  C12_22 
REMARK    4  A    between atoms: C12_22  and  O1_23 
REMARK    5  A    between atoms: N3_25  and  O2_27 
ROOT
HETATM    1  C1  UNL     1      -3.169   0.739  -1.393  1.00  0.00     0.029 C 
HETATM    2  C2  UNL     1      -1.797   0.978  -0.816  1.00  0.00     0.038 C 
HETATM    3  C3  UNL     1      -1.784   2.120   0.165  1.00  0.00     0.029 C 
HETATM    4  S1  UNL     1      -0.643   1.364  -2.170  1.00  0.00    -0.137 SA
HETATM    5  C4  UNL     1       0.380  -0.105  -2.472  1.00  0.00     0.176 C 
HETATM    6  S2  UNL     1       2.089   0.330  -2.816  1.00  0.00    -0.135 SA
HETATM    7  C5  UNL     1       2.207  -0.736  -1.353  1.00  0.00     0.155 C 
HETATM    8  C10 UNL     1       0.730  -0.836  -1.216  1.00  0.00     0.322 C 
HETATM    9  N2  UNL     1       0.135  -0.211  -0.068  1.00  0.00    -0.024 N 
ATOM     10  H21 UNL     1       0.447   0.751   0.064  1.00  0.00     0.281 HD
ATOM     11  H22 UNL     1       0.484  -0.589   0.813  1.00  0.00     0.281 HD
HETATM   12  C11 UNL     1      -1.316  -0.322  -0.195  1.00  0.00     0.282 C 
ENDROOT
BRANCH  12  13
HETATM   13  C12 UNL     1      -1.972  -0.616   1.089  1.00  0.00     0.168 C 
HETATM   14  N3  UNL     1      -2.661  -1.691   1.239  1.00  0.00    -0.249 N 
ATOM     15  H3  UNL     1      -2.751  -2.342   0.459  1.00  0.00     0.196 HD
BRANCH  13  16
HETATM   16  O1  UNL     1      -1.874   0.246   2.172  1.00  0.00    -0.346 OA
ATOM     17  H1  UNL     1      -2.298   0.056   3.001  1.00  0.00     0.219 HD
ENDBRANCH  13  16
BRANCH  14  18
HETATM   18  O2  UNL     1      -3.276  -1.977   2.427  1.00  0.00    -0.288 OA
ATOM     19  H2  UNL     1      -3.785  -2.771   2.538  1.00  0.00     0.244 HD
ENDBRANCH  14  18
ENDBRANCH  12  13
BRANCH   8  20
HETATM   20  N1  UNL     1       0.303  -2.239  -1.332  1.00  0.00    -0.041 N 
ATOM     21  H13 UNL     1      -0.687  -2.323  -1.565  1.00  0.00     0.277 HD
ATOM     22  H12 UNL     1       0.686  -2.692  -2.162  1.00  0.00     0.277 HD
ATOM     23  H11 UNL     1       0.542  -2.738  -0.475  1.00  0.00     0.277 HD
ENDBRANCH   8  20
BRANCH   7  24
HETATM   24  C6  UNL     1       2.887   0.049  -0.254  1.00  0.00     0.001 A 
HETATM   25  C7  UNL     1       4.024  -0.284   0.427  1.00  0.00     0.016 A 
HETATM   26  C8  UNL     1       4.447   0.585   1.379  1.00  0.00     0.008 A 
HETATM   27  C9  UNL     1       3.699   1.710   1.569  1.00  0.00     0.050 A 
HETATM   28  S3  UNL     1       2.440   1.540   0.436  1.00  0.00    -0.105 SA
ENDBRANCH   7  24
TORSDOF 5
