REMARK  4 active torsions:
REMARK  status: ('A' for Active; 'I' for Inactive)
REMARK    1  A    between atoms: N1_1  and  C1_5 
REMARK    2  A    between atoms: C3_9  and  N3_10 
REMARK    3  A    between atoms: N3_10  and  O1_12 
REMARK    4  A    between atoms: C4_14  and  N4_15 
ROOT
HETATM    1  C1  UNL     1       3.169  -2.896   0.074  1.00  0.00     0.387 C 
HETATM    2  N2  UNL     1       1.781  -3.205   0.383  1.00  0.00    -0.343 N 
ATOM      3  H2  UNL     1       1.406  -4.120   0.634  1.00  0.00     0.163 HD
HETATM    4  C2  UNL     1       1.041  -1.988   0.270  1.00  0.00     0.091 A 
HETATM    5  C3  UNL     1      -0.313  -1.759   0.234  1.00  0.00     0.110 A 
HETATM    6  C4  UNL     1      -0.861  -0.487   0.119  1.00  0.00     0.070 A 
HETATM    7  C9  UNL     1       0.025   0.545   0.042  1.00  0.00     0.007 A 
HETATM    8  C10 UNL     1       1.399   0.354   0.075  1.00  0.00     0.106 A 
HETATM    9  C11 UNL     1       1.889  -0.918   0.189  1.00  0.00     0.094 A 
HETATM   10  N5  UNL     1       3.203  -1.461   0.251  1.00  0.00    -0.343 N 
ATOM     11  H5  UNL     1       4.051  -0.914   0.400  1.00  0.00     0.163 HD
HETATM   12  O2  UNL     1       2.496   1.193   0.016  1.00  0.00    -0.348 OA
HETATM   13  C12 UNL     1       2.797   2.525   0.255  1.00  0.00     0.176 C 
HETATM   14  C13 UNL     1       2.269   3.461  -0.807  1.00  0.00     0.027 C 
HETATM   15  C14 UNL     1       0.872   3.066  -1.256  1.00  0.00     0.002 C 
HETATM   16  C15 UNL     1       0.019   3.030  -0.025  1.00  0.00     0.005 C 
HETATM   17  C16 UNL     1      -0.803   1.751  -0.073  1.00  0.00     0.044 C 
ENDROOT
BRANCH   6  18
HETATM   18  N4  UNL     1      -2.245  -0.299   0.084  1.00  0.00    -0.378 N 
HETATM   19  C5  UNL     1      -3.064  -0.279  -1.138  1.00  0.00     0.123 C 
HETATM   20  C6  UNL     1      -4.291  -1.114  -0.738  1.00  0.00     0.021 C 
HETATM   21  C7  UNL     1      -4.368  -1.058   0.751  1.00  0.00     0.021 C 
HETATM   22  C8  UNL     1      -3.239  -0.104   1.137  1.00  0.00     0.123 C 
ENDBRANCH   6  18
BRANCH   5  23
HETATM   23  N3  UNL     1      -1.232  -2.849   0.316  1.00  0.00    -0.265 N 
ATOM     24  H3  UNL     1      -2.154  -2.730   0.735  1.00  0.00     0.194 HD
BRANCH  23  25
HETATM   25  O1  UNL     1      -0.872  -3.945  -0.139  1.00  0.00    -0.289 OA
ATOM     26  H1  UNL     1      -1.483  -4.670  -0.084  1.00  0.00     0.244 HD
ENDBRANCH  23  25
ENDBRANCH   5  23
BRANCH   1  27
HETATM   27  N1  UNL     1       4.098  -3.599   0.910  1.00  0.00    -0.041 N 
ATOM     28  H13 UNL     1       3.899  -3.433   1.896  1.00  0.00     0.279 HD
ATOM     29  H12 UNL     1       3.932  -4.605   0.874  1.00  0.00     0.279 HD
ATOM     30  H11 UNL     1       5.071  -3.382   0.693  1.00  0.00     0.279 HD
ENDBRANCH   1  27
TORSDOF 4
