REMARK  4 active torsions:
REMARK  status: ('A' for Active; 'I' for Inactive)
REMARK    1  A    between atoms: C1_2  and  O2_4 
REMARK    2  A    between atoms: O2_4  and  C2_5 
REMARK    3  A    between atoms: C2_5  and  C3_6 
REMARK    4  A    between atoms: C4_8  and  O3_9 
ROOT
HETATM    1  C3  UNL     1      -1.576  -0.043   0.159  1.00  0.00     0.020 A 
HETATM    2  S1  UNL     1      -2.668   1.118   0.825  1.00  0.00    -0.065 SA
HETATM    3  C4  UNL     1      -1.575   2.383   1.073  1.00  0.00     0.135 A 
HETATM    4  C5  UNL     1      -0.375   1.893   0.635  1.00  0.00     0.078 A 
HETATM    5  C6  UNL     1      -0.383   0.612   0.158  1.00  0.00     0.006 A 
HETATM    6  C7  UNL     1       0.887  -0.044  -0.332  1.00  0.00     0.041 C 
HETATM    7  C8  UNL     1       2.015   0.092   0.686  1.00  0.00     0.053 C 
HETATM    8  C9  UNL     1       2.364  -1.271   1.304  1.00  0.00     0.234 C 
HETATM    9  N2  UNL     1       2.992  -2.061   0.297  1.00  0.00    -0.075 N 
ATOM     10  H21 UNL     1       3.080  -3.038   0.578  1.00  0.00     0.277 HD
ATOM     11  H22 UNL     1       3.984  -1.842   0.203  1.00  0.00     0.277 HD
HETATM   12  C10 UNL     1       2.296  -1.922  -0.938  1.00  0.00     0.234 C 
HETATM   13  C11 UNL     1       0.809  -1.474  -0.643  1.00  0.00     0.053 C 
HETATM   14  S2  UNL     1       1.384   0.846  -1.842  1.00  0.00    -0.152 SA
HETATM   15  C12 UNL     1       1.581   2.599  -1.616  1.00  0.00     0.094 C 
HETATM   16  C13 UNL     1       1.822   3.061  -0.222  1.00  0.00     0.130 C 
HETATM   17  N3  UNL     1       0.746   2.829   0.702  1.00  0.00    -0.386 N 
ATOM     18  H3  UNL     1       0.768   3.411   1.539  1.00  0.00     0.159 HD
ENDROOT
BRANCH   1  19
HETATM   19  C2  UNL     1      -1.969  -1.427  -0.290  1.00  0.00     0.227 C 
BRANCH  19  20
HETATM   20  O2  UNL     1      -3.414  -1.505  -0.050  1.00  0.00    -0.301 OA
BRANCH  20  21
HETATM   21  C1  UNL     1      -4.102  -2.645  -0.352  1.00  0.00     0.372 C 
HETATM   22  N1  UNL     1      -5.502  -2.732  -0.124  1.00  0.00    -0.032 NA
HETATM   23  O1  UNL     1      -3.432  -3.613  -0.843  1.00  0.00    -0.242 OA
ENDBRANCH  20  21
ENDBRANCH  19  20
ENDBRANCH   1  19
BRANCH   3  24
HETATM   24  O3  UNL     1      -1.860   3.668   1.618  1.00  0.00    -0.352 OA
ATOM     25  H3  UNL     1      -1.246   4.379   1.757  1.00  0.00     0.218 HD
ENDBRANCH   3  24
TORSDOF 4
