REMARK  4 active torsions:
REMARK  status: ('A' for Active; 'I' for Inactive)
REMARK    1  A    between atoms: C5_7  and  S1_8 
REMARK    2  A    between atoms: S1_8  and  C6_9 
REMARK    3  A    between atoms: C7_12  and  N3_13 
REMARK    4  A    between atoms: C8_18  and  N5_19 
ROOT
HETATM    1  C6  UNL     1      -2.105  -0.041  -0.701  1.00  0.00     0.115 A 
HETATM    2  N2  UNL     1      -3.132   0.541  -1.417  1.00  0.00    -0.184 N 
ATOM      3  H2  UNL     1      -3.076   0.500  -2.435  1.00  0.00     0.185 HD
HETATM    4  C7  UNL     1      -4.176   1.144  -0.893  1.00  0.00     0.678 A 
HETATM    5  N4  UNL     1      -4.282   1.215   0.438  1.00  0.00    -0.176 N 
ATOM      6  H4  UNL     1      -5.092   1.682   0.845  1.00  0.00     0.186 HD
HETATM    7  C8  UNL     1      -3.354   0.690   1.257  1.00  0.00     0.138 A 
HETATM    8  C9  UNL     1      -2.253   0.055   0.658  1.00  0.00     0.122 A 
HETATM    9  C10 UNL     1      -1.298  -0.483   1.573  1.00  0.00     0.106 C 
HETATM   10  N6  UNL     1      -0.553  -0.900   2.328  1.00  0.00    -0.191 NA
ENDROOT
BRANCH   1  11
HETATM   11  S1  UNL     1      -0.853  -0.764  -1.613  1.00  0.00    -0.068 SA
BRANCH  11  12
HETATM   12  C5  UNL     1       0.521  -1.563  -0.822  1.00  0.00     0.043 A 
HETATM   13  C4  UNL     1       1.693  -0.934  -0.522  1.00  0.00     0.084 A 
HETATM   14  N1  UNL     1       1.984   0.406  -0.734  1.00  0.00    -0.361 N 
HETATM   15  C12 UNL     1       2.687  -1.673   0.043  1.00  0.00     0.102 A 
HETATM   16  C3  UNL     1       3.175   0.907  -0.394  1.00  0.00     0.113 A 
ATOM     17  H1  UNL     1       1.281   1.015  -1.154  1.00  0.00     0.165 HD
HETATM   18  C2  UNL     1       4.184   0.169   0.176  1.00  0.00     0.021 A 
HETATM   19  C1  UNL     1       5.491   0.738   0.544  1.00  0.00     0.069 C 
HETATM   20  N7  UNL     1       3.902  -1.128   0.382  1.00  0.00    -0.351 N 
ATOM     21  H7  UNL     1       4.612  -1.727   0.803  1.00  0.00     0.166 HD
HETATM   22  S2  UNL     1       2.000  -3.227   0.155  1.00  0.00    -0.081 SA
HETATM   23  C11 UNL     1       0.481  -2.921  -0.508  1.00  0.00     0.073 A 
ENDBRANCH  11  12
ENDBRANCH   1  11
BRANCH   7  24
HETATM   24  N5  UNL     1      -3.485   0.775   2.534  1.00  0.00    -0.384 N 
ATOM     25  H52 UNL     1      -4.284   1.236   2.969  1.00  0.00     0.157 HD
ATOM     26  H51 UNL     1      -2.781   0.377   3.155  1.00  0.00     0.157 HD
ENDBRANCH   7  24
BRANCH   4  27
HETATM   27  N3  UNL     1      -5.126   1.683  -1.617  1.00  0.00    -0.234 N 
ATOM     28  H32 UNL     1      -5.045   1.629  -2.632  1.00  0.00     0.174 HD
ATOM     29  H31 UNL     1      -5.936   2.151  -1.210  1.00  0.00     0.174 HD
ENDBRANCH   4  27
TORSDOF 4
