REMARK  8 active torsions:
REMARK  status: ('A' for Active; 'I' for Inactive)
REMARK    1  A    between atoms: C2_2  and  N1_3 
REMARK    2  A    between atoms: C2_2  and  C7_13 
REMARK       I    between atoms: N1_3  and  C3_5 
REMARK    3  A    between atoms: C3_5  and  C4_7 
REMARK    4  A    between atoms: C7_13  and  O3_15 
REMARK    5  A    between atoms: O3_15  and  C8_16 
REMARK    6  A    between atoms: C8_16  and  C9_17 
REMARK    7  A    between atoms: C9_17  and  N3_19 
REMARK    8  A    between atoms: N3_19  and  C10_21 
ROOT
HETATM    1  O3  UNL     1       1.566   0.507   0.693  1.00  0.00    -0.313 OA
ENDROOT
BRANCH   1   2
HETATM    2  C7  UNL     1       2.920   0.635   0.419  1.00  0.00     0.281 C 
HETATM    3  O2  UNL     1       3.550   1.605   0.911  1.00  0.00    -0.263 OA
BRANCH   2   4
HETATM    4  C2  UNL     1       3.541  -0.397  -0.450  1.00  0.00     0.180 C 
HETATM    5  C1  UNL     1       2.795  -0.457  -1.764  1.00  0.00     0.043 C 
BRANCH   4   6
HETATM    6  N1  UNL     1       4.921  -0.080  -0.602  1.00  0.00    -0.342 N 
HETATM    7  C3  UNL     1       5.954  -0.938  -0.151  1.00  0.00     0.269 C 
HETATM    8  O1  UNL     1       5.632  -2.012   0.400  1.00  0.00    -0.266 OA
ATOM      9  H1  UNL     1       5.175   0.799  -1.053  1.00  0.00     0.163 HD
BRANCH   7  10
HETATM   10  C4  UNL     1       7.383  -0.569  -0.330  1.00  0.00     0.107 A 
HETATM   11  C5  UNL     1       8.377  -1.413   0.113  1.00  0.00     0.086 A 
HETATM   12  S1  UNL     1       9.786  -0.550  -0.321  1.00  0.00    -0.094 SA
HETATM   13  C6  UNL     1       9.043   0.811  -1.029  1.00  0.00     0.138 A 
HETATM   14  N2  UNL     1       7.760   0.536  -0.898  1.00  0.00    -0.355 N 
ATOM     15  H2  UNL     1       7.061   1.194  -1.244  1.00  0.00     0.166 HD
ENDBRANCH   7  10
ENDBRANCH   4   6
ENDBRANCH   2   4
ENDBRANCH   1   2
BRANCH   1  16
HETATM   16  C8  UNL     1       0.911   1.455   1.513  1.00  0.00     0.247 C 
BRANCH  16  17
HETATM   17  C9  UNL     1      -0.514   1.028   1.602  1.00  0.00     0.098 C 
HETATM   18  S2  UNL     1      -1.120   0.717   3.093  1.00  0.00    -0.063 SA
BRANCH  17  19
HETATM   19  N3  UNL     1      -1.241   0.942   0.408  1.00  0.00    -0.373 N 
ATOM     20  H3  UNL     1      -0.756   1.185  -0.456  1.00  0.00     0.161 HD
BRANCH  19  21
HETATM   21  C10 UNL     1      -2.636   0.532   0.302  1.00  0.00     0.032 C 
HETATM   22  C11 UNL     1      -2.727  -0.871   0.573  1.00  0.00     0.035 C 
HETATM   23  C12 UNL     1      -3.906  -1.709   0.631  1.00  0.00    -0.012 C 
HETATM   24  C13 UNL     1      -4.839  -1.753  -0.535  1.00  0.00     0.009 C 
HETATM   25  C15 UNL     1      -5.073  -1.347   1.456  1.00  0.00     0.009 C 
HETATM   26  C14 UNL     1      -5.683  -0.791   0.214  1.00  0.00    -0.013 C 
HETATM   27  C16 UNL     1      -5.607   0.613  -0.061  1.00  0.00     0.009 C 
HETATM   28  C17 UNL     1      -4.437   1.458  -0.072  1.00  0.00    -0.009 C 
HETATM   29  C18 UNL     1      -3.508   1.482   1.069  1.00  0.00     0.035 C 
HETATM   30  C19 UNL     1      -3.272   1.099  -0.922  1.00  0.00     0.035 C 
ENDBRANCH  19  21
ENDBRANCH  17  19
ENDBRANCH  16  17
ENDBRANCH   1  16
TORSDOF 8
