REMARK  6 active torsions:
REMARK  status: ('A' for Active; 'I' for Inactive)
REMARK    1  A    between atoms: C2_2  and  N1_3 
REMARK    2  A    between atoms: N1_3  and  C3_5 
REMARK    3  A    between atoms: N2_8  and  C6_9 
REMARK    4  A    between atoms: C6_9  and  C7_10 
REMARK    5  A    between atoms: C7_10  and  N3_11 
REMARK    6  A    between atoms: C10_17  and  C11_18 
ROOT
HETATM    1  N3  UNL     1       0.027  -1.439   1.077  1.00  0.00    -0.282 N 
HETATM    2  C8  UNL     1       0.215  -0.164   1.401  1.00  0.00     0.328 A 
HETATM    3  O1  UNL     1      -0.534   0.664   1.997  1.00  0.00    -0.246 OA
HETATM    4  N4  UNL     1       1.455   0.234   0.980  1.00  0.00    -0.303 N 
ATOM      5  H4  UNL     1       1.872   1.158   1.089  1.00  0.00     0.171 HD
HETATM    6  C9  UNL     1       2.010  -0.834   0.396  1.00  0.00     0.104 A 
HETATM    7  C10 UNL     1       3.265  -1.006  -0.205  1.00  0.00     0.050 A 
HETATM    8  N5  UNL     1       3.500  -2.238  -0.692  1.00  0.00    -0.353 N 
ATOM      9  H5  UNL     1       4.406  -2.393  -1.134  1.00  0.00     0.166 HD
HETATM   10  C20 UNL     1       2.662  -3.277  -0.653  1.00  0.00     0.182 A 
HETATM   11  N6  UNL     1       1.460  -3.109  -0.078  1.00  0.00    -0.336 N 
ATOM     12  H6  UNL     1       0.794  -3.880  -0.031  1.00  0.00     0.168 HD
HETATM   13  C21 UNL     1       1.152  -1.907   0.433  1.00  0.00     0.141 A 
ENDROOT
BRANCH   1  14
HETATM   14  C7  UNL     1      -1.131  -2.279   1.314  1.00  0.00     0.166 C 
BRANCH  14  15
HETATM   15  C6  UNL     1      -2.075  -2.215   0.168  1.00  0.00     0.292 C 
BRANCH  15  16
HETATM   16  N2  UNL     1      -2.676  -0.938  -0.099  1.00  0.00     0.090 N 
HETATM   17  C5  UNL     1      -3.651  -0.585   0.930  1.00  0.00     0.274 C 
HETATM   18  C4  UNL     1      -4.334   0.690   0.530  1.00  0.00     0.055 C 
HETATM   19  C3  UNL     1      -5.286   0.399  -0.582  1.00  0.00     0.079 C 
HETATM   20  C23 UNL     1      -4.833  -0.867  -1.297  1.00  0.00     0.055 C 
HETATM   21  C22 UNL     1      -3.334  -0.963  -1.366  1.00  0.00     0.274 C 
BRANCH  19  22
HETATM   22  N1  UNL     1      -6.645   0.164  -0.175  1.00  0.00    -0.417 N 
ATOM     23  H1  UNL     1      -7.113  -0.730  -0.321  1.00  0.00     0.153 HD
BRANCH  22  24
HETATM   24  C2  UNL     1      -7.295   1.280   0.452  1.00  0.00     0.110 C 
HETATM   25  C1  UNL     1      -7.543   2.426  -0.510  1.00  0.00     0.026 C 
ENDBRANCH  22  24
ENDBRANCH  19  22
ENDBRANCH  15  16
ENDBRANCH  14  15
ENDBRANCH   1  14
BRANCH   7  26
HETATM   26  C11 UNL     1       4.268   0.045  -0.329  1.00  0.00     0.009 C 
HETATM   27  C12 UNL     1       5.488  -0.556  -1.042  1.00  0.00     0.021 C 
HETATM   28  C13 UNL     1       6.568   0.404  -0.543  1.00  0.00    -0.013 C 
HETATM   29  C14 UNL     1       6.309   1.759  -1.117  1.00  0.00     0.009 C 
HETATM   30  C18 UNL     1       6.275   0.331   0.959  1.00  0.00     0.010 C 
HETATM   31  C15 UNL     1       4.912   2.229  -0.822  1.00  0.00    -0.013 C 
HETATM   32  C16 UNL     1       4.777   2.189   0.701  1.00  0.00     0.010 C 
HETATM   33  C19 UNL     1       3.867   1.196  -1.213  1.00  0.00     0.021 C 
HETATM   34  C17 UNL     1       4.773   0.665   0.920  1.00  0.00     0.001 C 
ENDBRANCH   7  26
TORSDOF 6
