REMARK  7 active torsions:
REMARK  status: ('A' for Active; 'I' for Inactive)
REMARK    1  A    between atoms: N1_1  and  C1_5 
REMARK    2  A    between atoms: C1_5  and  C2_6 
REMARK    3  A    between atoms: N2_10  and  C6_11 
REMARK    4  A    between atoms: C6_11  and  O1_12 
REMARK    5  A    between atoms: C6_11  and  C7_14 
REMARK    6  A    between atoms: C8_15  and  O2_16 
REMARK    7  A    between atoms: N3_23  and  C13_24 
ROOT
HETATM    1  C7  UNL     1       0.076   1.460   0.154  1.00  0.00     0.121 A 
HETATM    2  C8  UNL     1      -0.238   2.863   0.143  1.00  0.00     0.110 A 
HETATM    3  C9  UNL     1      -1.608   3.039   0.098  1.00  0.00     0.034 A 
HETATM    4  C10 UNL     1      -2.505   4.066   0.061  1.00  0.00     0.024 A 
HETATM    5  C11 UNL     1      -3.827   3.743   0.012  1.00  0.00     0.053 A 
HETATM    6  S1  UNL     1      -3.802   2.037   0.019  1.00  0.00    -0.083 SA
HETATM    7  C12 UNL     1      -2.115   1.781   0.084  1.00  0.00     0.090 A 
HETATM    8  N3  UNL     1      -1.084   0.854   0.121  1.00  0.00    -0.330 N 
ENDROOT
BRANCH   1   9
HETATM    9  C6  UNL     1       1.430   1.008   0.286  1.00  0.00     0.169 C 
BRANCH   9  10
HETATM   10  N2  UNL     1       2.051  -0.087  -0.303  1.00  0.00    -0.354 N 
HETATM   11  C2  UNL     1       3.402  -0.565  -0.094  1.00  0.00     0.111 C 
HETATM   12  C3  UNL     1       3.702  -1.546  -1.154  1.00  0.00     0.028 C 
HETATM   13  C4  UNL     1       2.725  -1.193  -2.255  1.00  0.00     0.022 C 
HETATM   14  C5  UNL     1       1.505  -0.900  -1.371  1.00  0.00     0.125 C 
BRANCH  11  15
HETATM   15  C1  UNL     1       3.668  -1.040   1.296  1.00  0.00     0.254 C 
BRANCH  15  16
HETATM   16  N1  UNL     1       2.926  -2.192   1.686  1.00  0.00    -0.077 N 
ATOM     17  H13 UNL     1       1.928  -2.031   1.553  1.00  0.00     0.274 HD
ATOM     18  H12 UNL     1       3.074  -2.950   1.019  1.00  0.00     0.274 HD
ATOM     19  H11 UNL     1       3.108  -2.517   2.636  1.00  0.00     0.274 HD
ENDBRANCH  15  16
ENDBRANCH  11  15
ENDBRANCH   9  10
BRANCH   9  20
HETATM   20  O1  UNL     1       2.213   1.712   1.049  1.00  0.00    -0.344 OA
ATOM     21  H1  UNL     1       1.789   2.460   1.452  1.00  0.00     0.219 HD
ENDBRANCH   9  20
ENDBRANCH   1   9
BRANCH   2  22
HETATM   22  O2  UNL     1       0.764   3.840   0.176  1.00  0.00    -0.357 OA
ATOM     23  H2  UNL     1       0.557   4.767   0.169  1.00  0.00     0.217 HD
ENDBRANCH   2  22
BRANCH   8  24
HETATM   24  C13 UNL     1      -1.443  -0.544   0.218  1.00  0.00     0.091 C 
HETATM   25  C14 UNL     1      -2.421  -0.667   1.423  1.00  0.00     0.026 C 
HETATM   26  C15 UNL     1      -3.536  -1.550   0.955  1.00  0.00     0.002 C 
HETATM   27  C16 UNL     1      -3.101  -2.119  -0.380  1.00  0.00     0.002 C 
HETATM   28  C17 UNL     1      -2.271  -1.019  -0.953  1.00  0.00     0.026 C 
ENDBRANCH   8  24
TORSDOF 7
