REMARK  4 active torsions:
REMARK  status: ('A' for Active; 'I' for Inactive)
REMARK    1  A    between atoms: C1_4  and  N2_5 
REMARK    2  A    between atoms: C1_4  and  C14_24 
REMARK    3  A    between atoms: N2_5  and  C2_7 
REMARK    4  A    between atoms: N4_16  and  C9_17 
ROOT
HETATM    1  C2  UNL     1      -0.791   0.774  -0.388  1.00  0.00     0.119 C 
HETATM    2  C3  UNL     1      -0.748  -0.328  -1.382  1.00  0.00     0.030 C 
HETATM    3  C4  UNL     1       0.608  -0.831  -1.737  1.00  0.00     0.008 C 
HETATM    4  C5  UNL     1       1.676   0.227  -1.564  1.00  0.00     0.060 C 
HETATM    5  C6  UNL     1       1.679   0.528  -0.097  1.00  0.00     0.046 A 
HETATM    6  C7  UNL     1       0.419   0.789   0.459  1.00  0.00     0.006 A 
HETATM    7  C8  UNL     1       0.670   1.021   1.783  1.00  0.00     0.119 A 
HETATM    8  N3  UNL     1       2.014   0.905   2.002  1.00  0.00    -0.303 N 
ATOM      9  H3  UNL     1       2.482   1.028   2.900  1.00  0.00     0.186 HD
HETATM   10  N4  UNL     1       2.618   0.602   0.841  1.00  0.00    -0.244 N 
ENDROOT
BRANCH   1  11
HETATM   11  N2  UNL     1      -1.986   0.754   0.433  1.00  0.00    -0.367 N 
ATOM     12  H2  UNL     1      -1.899   0.659   1.445  1.00  0.00     0.161 HD
BRANCH  11  13
HETATM   13  C1  UNL     1      -3.296   0.866  -0.160  1.00  0.00     0.105 C 
HETATM   14  N1  UNL     1      -3.517   1.774  -1.040  1.00  0.00    -0.385 N 
ATOM     15  H12 UNL     1      -2.806   2.436  -1.351  1.00  0.00     0.157 HD
ATOM     16  H11 UNL     1      -4.443   1.853  -1.459  1.00  0.00     0.157 HD
BRANCH  13  17
HETATM   17  C14 UNL     1      -4.305  -0.073   0.281  1.00  0.00     0.010 A 
HETATM   18  C15 UNL     1      -5.578  -0.039  -0.230  1.00  0.00     0.032 A 
HETATM   19  C16 UNL     1      -6.518  -0.954   0.217  1.00  0.00     0.088 A 
HETATM   20  N6  UNL     1      -6.181  -1.861   1.140  1.00  0.00    -0.375 N 
HETATM   21  C17 UNL     1      -4.953  -1.938   1.672  1.00  0.00     0.088 A 
ATOM     22  H6  UNL     1      -6.890  -2.524   1.453  1.00  0.00     0.164 HD
HETATM   23  C18 UNL     1      -4.022  -1.026   1.224  1.00  0.00     0.032 A 
ENDBRANCH  13  17
ENDBRANCH  11  13
ENDBRANCH   1  11
BRANCH  10  24
HETATM   24  C9  UNL     1       4.022   0.394   0.633  1.00  0.00     0.127 A 
HETATM   25  C10 UNL     1       4.784  -0.341   1.517  1.00  0.00     0.050 A 
HETATM   26  C11 UNL     1       6.144  -0.538   1.308  1.00  0.00     0.005 A 
HETATM   27  C12 UNL     1       6.773   0.001   0.200  1.00  0.00     0.017 A 
HETATM   28  C13 UNL     1       5.978   0.729  -0.663  1.00  0.00     0.090 A 
HETATM   29  N5  UNL     1       4.662   0.905  -0.436  1.00  0.00    -0.351 N 
ATOM     30  H5  UNL     1       4.123   1.453  -1.107  1.00  0.00     0.166 HD
ENDBRANCH  10  24
TORSDOF 4
