REMARK  5 active torsions:
REMARK  status: ('A' for Active; 'I' for Inactive)
REMARK    1  A    between atoms: O1_1  and  N1_3 
REMARK    2  A    between atoms: C1_5  and  O2_6 
REMARK    3  A    between atoms: C1_5  and  C2_8 
REMARK    4  A    between atoms: C5_11  and  N2_12 
REMARK    5  A    between atoms: C6_14  and  N3_15 
ROOT
HETATM    1  N2  UNL     1       0.793   1.881  -1.517  1.00  0.00    -0.352 N 
ATOM      2  H2  UNL     1       0.991   2.659  -2.147  1.00  0.00     0.166 HD
HETATM    3  C6  UNL     1      -0.418   1.512  -1.401  1.00  0.00     0.179 C 
ENDROOT
BRANCH   1   4
HETATM    4  C5  UNL     1       1.894   1.291  -0.835  1.00  0.00     0.032 A 
HETATM    5  C4  UNL     1       2.816   0.495  -1.461  1.00  0.00     0.030 A 
HETATM    6  C3  UNL     1       3.869  -0.058  -0.768  1.00  0.00     0.018 A 
HETATM    7  C2  UNL     1       4.047   0.158   0.575  1.00  0.00     0.017 A 
HETATM    8  C18 UNL     1       3.108   0.970   1.220  1.00  0.00     0.018 A 
HETATM    9  C17 UNL     1       2.079   1.503   0.511  1.00  0.00     0.030 A 
BRANCH   7  10
HETATM   10  C1  UNL     1       5.136  -0.405   1.328  1.00  0.00     0.170 C 
HETATM   11  N1  UNL     1       6.059  -1.145   0.925  1.00  0.00    -0.247 N 
ATOM     12  H1  UNL     1       6.703  -1.402   1.673  1.00  0.00     0.196 HD
BRANCH  11  13
HETATM   13  O1  UNL     1       6.402  -1.675  -0.237  1.00  0.00    -0.288 OA
ATOM     14  H1  UNL     1       7.104  -2.238  -0.543  1.00  0.00     0.244 HD
ENDBRANCH  11  13
BRANCH  10  15
HETATM   15  O2  UNL     1       5.187  -0.090   2.718  1.00  0.00    -0.344 OA
ATOM     16  H2  UNL     1       4.485   0.473   3.024  1.00  0.00     0.219 HD
ENDBRANCH  10  15
ENDBRANCH   7  10
ENDBRANCH   1   4
BRANCH   3  17
HETATM   17  N3  UNL     1      -0.868   0.446  -0.567  1.00  0.00    -0.372 N 
HETATM   18  C7  UNL     1      -0.600  -0.908  -0.954  1.00  0.00     0.124 C 
HETATM   19  C8  UNL     1      -1.707  -1.868  -0.613  1.00  0.00     0.029 C 
HETATM   20  C9  UNL     1      -2.605  -1.384   0.483  1.00  0.00     0.024 C 
HETATM   21  C10 UNL     1      -1.948  -0.421   1.420  1.00  0.00     0.035 C 
HETATM   22  C16 UNL     1      -3.834  -0.738  -0.065  1.00  0.00    -0.023 A 
HETATM   23  C11 UNL     1      -1.581   0.818   0.638  1.00  0.00     0.090 C 
HETATM   24  C12 UNL     1      -2.825   1.542   0.249  1.00  0.00     0.066 C 
HETATM   25  C13 UNL     1      -3.914   0.621  -0.166  1.00  0.00    -0.025 A 
HETATM   26  C14 UNL     1      -5.145   0.932  -0.699  1.00  0.00     0.149 A 
HETATM   27  O3  UNL     1      -5.772  -0.198  -0.908  1.00  0.00    -0.334 OA
HETATM   28  C15 UNL     1      -5.040  -1.219  -0.550  1.00  0.00     0.149 A 
ENDBRANCH   3  17
TORSDOF 5
