REMARK  5 active torsions:
REMARK  status: ('A' for Active; 'I' for Inactive)
REMARK    1  A    between atoms: C2_2  and  C3_3 
REMARK    2  A    between atoms: C6_6  and  N1_7 
REMARK    3  A    between atoms: N1_7  and  C7_9 
REMARK    4  A    between atoms: C7_9  and  N2_11 
REMARK    5  A    between atoms: C11_15  and  N3_16 
ROOT
HETATM    1  N2  UNL     1      -0.825  -1.514   0.353  1.00  0.00    -0.356 N 
HETATM    2  C8  UNL     1      -1.692  -2.500   1.023  1.00  0.00     0.125 C 
HETATM    3  C9  UNL     1      -2.916  -1.767   1.592  1.00  0.00     0.022 C 
HETATM    4  C10 UNL     1      -3.563  -0.942   0.524  1.00  0.00     0.029 C 
HETATM    5  C11 UNL     1      -2.552   0.061   0.003  1.00  0.00     0.111 C 
HETATM    6  C14 UNL     1      -1.468  -0.769  -0.687  1.00  0.00     0.151 C 
ENDROOT
BRANCH   1   7
HETATM    7  C7  UNL     1       0.530  -1.354   0.744  1.00  0.00     0.175 C 
HETATM    8  S1  UNL     1       1.000  -2.353   1.975  1.00  0.00    -0.041 SA
BRANCH   7   9
HETATM    9  N1  UNL     1       1.354  -0.434   0.127  1.00  0.00    -0.314 N 
ATOM     10  H1  UNL     1       0.925   0.114  -0.619  1.00  0.00     0.170 HD
BRANCH   9  11
HETATM   11  C6  UNL     1       2.717  -0.150   0.392  1.00  0.00     0.150 A 
HETATM   12  C5  UNL     1       3.545  -0.707   1.309  1.00  0.00     0.059 A 
HETATM   13  C4  UNL     1       4.793  -0.080   1.171  1.00  0.00     0.041 A 
HETATM   14  C3  UNL     1       4.645   0.836   0.160  1.00  0.00     0.077 A 
HETATM   15  O1  UNL     1       3.435   0.758  -0.256  1.00  0.00    -0.294 OA
BRANCH  14  16
HETATM   16  C2  UNL     1       5.701   1.734  -0.339  1.00  0.00     0.027 C 
HETATM   17  C1  UNL     1       6.883   1.668   0.214  1.00  0.00     0.014 C 
ENDBRANCH  14  16
ENDBRANCH   9  11
ENDBRANCH   7   9
ENDBRANCH   1   7
BRANCH   5  18
HETATM   18  N3  UNL     1      -3.128   1.039  -0.872  1.00  0.00    -0.311 N 
HETATM   19  C12 UNL     1      -3.359   0.995  -2.193  1.00  0.00     0.202 A 
HETATM   20  N4  UNL     1      -3.920   2.159  -2.568  1.00  0.00    -0.294 N 
HETATM   21  N5  UNL     1      -4.053   2.948  -1.514  1.00  0.00    -0.275 N 
ATOM     22  H4  UNL     1      -4.200   2.397  -3.519  1.00  0.00     0.187 HD
HETATM   23  C13 UNL     1      -3.565   2.254  -0.476  1.00  0.00     0.194 A 
ATOM     24  H5  UNL     1      -4.446   3.889  -1.495  1.00  0.00     0.189 HD
HETATM   25  S2  UNL     1      -3.513   2.824   1.069  1.00  0.00    -0.039 SA
ENDBRANCH   5  18
TORSDOF 5
