REMARK  6 active torsions:
REMARK  status: ('A' for Active; 'I' for Inactive)
REMARK    1  A    between atoms: C3_5  and  S1_6 
REMARK    2  A    between atoms: S1_6  and  C4_7 
REMARK    3  A    between atoms: C4_7  and  C5_8 
REMARK       I    between atoms: C5_8  and  N2_10 
REMARK    4  A    between atoms: N2_10  and  C6_12 
REMARK    5  A    between atoms: C11_21  and  C12_22 
REMARK       I    between atoms: C12_22  and  N5_24 
REMARK    6  A    between atoms: N5_24  and  C13_26 
ROOT
HETATM    1  C1  UNL     1      -2.567  -0.492   1.767  1.00  0.00     0.071 C 
HETATM    2  C2  UNL     1      -1.419  -0.848   0.886  1.00  0.00     0.041 A 
HETATM    3  N1  UNL     1      -0.452  -1.694   1.387  1.00  0.00    -0.337 N 
ATOM      4  H1  UNL     1      -0.553  -2.087   2.323  1.00  0.00     0.168 HD
HETATM    5  C3  UNL     1       0.623  -2.000   0.642  1.00  0.00     0.159 A 
HETATM    6  N3  UNL     1       0.739  -1.478  -0.578  1.00  0.00    -0.279 N 
ATOM      7  H3  UNL     1       1.554  -1.708  -1.146  1.00  0.00     0.189 HD
HETATM    8  N4  UNL     1      -0.166  -0.682  -1.057  1.00  0.00    -0.292 N 
ATOM      9  H4  UNL     1      -0.034  -0.306  -1.996  1.00  0.00     0.187 HD
HETATM   10  C11 UNL     1      -1.304  -0.318  -0.355  1.00  0.00     0.138 A 
ENDROOT
BRANCH   5  11
HETATM   11  S1  UNL     1       1.883  -3.110   1.288  1.00  0.00    -0.083 SA
BRANCH  11  12
HETATM   12  C4  UNL     1       3.171  -3.301   0.054  1.00  0.00     0.185 C 
BRANCH  12  13
HETATM   13  C5  UNL     1       3.971  -2.099  -0.207  1.00  0.00     0.227 C 
HETATM   14  O1  UNL     1       3.642  -1.338  -1.146  1.00  0.00    -0.273 OA
HETATM   15  N2  UNL     1       5.116  -1.755   0.564  1.00  0.00    -0.356 N 
ATOM     16  H2  UNL     1       5.414  -2.351   1.337  1.00  0.00     0.162 HD
BRANCH  15  17
HETATM   17  C6  UNL     1       5.847  -0.565   0.246  1.00  0.00     0.084 C 
HETATM   18  C7  UNL     1       7.331  -0.870   0.022  1.00  0.00     0.025 C 
HETATM   19  C8  UNL     1       7.944   0.504   0.088  1.00  0.00     0.002 C 
HETATM   20  C9  UNL     1       7.205   1.144   1.241  1.00  0.00     0.002 C 
HETATM   21  C10 UNL     1       5.930   0.356   1.456  1.00  0.00     0.025 C 
ENDBRANCH  15  17
ENDBRANCH  12  13
ENDBRANCH  11  12
ENDBRANCH   5  11
BRANCH  10  22
HETATM   22  C12 UNL     1      -2.246   0.523  -1.020  1.00  0.00     0.271 C 
HETATM   23  O2  UNL     1      -1.796   1.289  -1.960  1.00  0.00    -0.266 OA
HETATM   24  N5  UNL     1      -3.607   0.623  -0.792  1.00  0.00    -0.351 N 
ATOM     25  H5  UNL     1      -4.034   0.036  -0.076  1.00  0.00     0.163 HD
BRANCH  24  26
HETATM   26  C13 UNL     1      -4.464   1.563  -1.562  1.00  0.00     0.084 C 
HETATM   27  C14 UNL     1      -5.250   0.746  -2.525  1.00  0.00     0.025 C 
HETATM   28  C15 UNL     1      -6.573   0.272  -2.035  1.00  0.00     0.002 C 
HETATM   29  C16 UNL     1      -7.378   1.416  -1.451  1.00  0.00     0.000 C 
HETATM   30  C17 UNL     1      -6.611   2.035  -0.315  1.00  0.00     0.002 C 
HETATM   31  C18 UNL     1      -5.227   2.473  -0.685  1.00  0.00     0.025 C 
ENDBRANCH  24  26
ENDBRANCH  10  22
TORSDOF 6
