REMARK  6 active torsions:
REMARK  status: ('A' for Active; 'I' for Inactive)
REMARK       I    between atoms: C1_4  and  N2_5 
REMARK       I    between atoms: C1_4  and  N4_24 
REMARK       I    between atoms: N2_5  and  C2_7 
REMARK    1  A    between atoms: C2_7  and  C3_9 
REMARK    2  A    between atoms: C6_12  and  S1_13 
REMARK    3  A    between atoms: S1_13  and  C7_14 
REMARK    4  A    between atoms: C7_14  and  C8_15 
REMARK    5  A    between atoms: C8_15  and  C9_16 
REMARK    6  A    between atoms: C9_16  and  N3_17 
ROOT
HETATM    1  C3  UNL     1       1.189   2.296   0.476  1.00  0.00     0.074 A 
HETATM    2  C4  UNL     1       0.564   3.398   0.987  1.00  0.00     0.026 A 
HETATM    3  C5  UNL     1      -0.775   3.417   0.966  1.00  0.00     0.027 A 
HETATM    4  C6  UNL     1      -1.410   2.331   0.436  1.00  0.00     0.042 A 
HETATM    5  S2  UNL     1      -0.124   1.314  -0.020  1.00  0.00    -0.078 SA
ENDROOT
BRANCH   1   6
HETATM    6  C2  UNL     1       2.640   2.008   0.373  1.00  0.00     0.276 C 
HETATM    7  N2  UNL     1       3.539   2.969   0.842  1.00  0.00    -0.155 N 
HETATM    8  C1  UNL     1       4.928   2.784   0.788  1.00  0.00     0.676 C 
ATOM      9  H2  UNL     1       3.172   3.835   1.237  1.00  0.00     0.187 HD
HETATM   10  N1  UNL     1       5.664   3.767   1.261  1.00  0.00    -0.234 N 
HETATM   11  N4  UNL     1       5.573   1.650   0.279  1.00  0.00    -0.218 N 
ATOM     12  H12 UNL     1       5.194   4.593   1.632  1.00  0.00     0.174 HD
ATOM     13  H11 UNL     1       6.674   3.632   1.222  1.00  0.00     0.174 HD
HETATM   14  C14 UNL     1       5.986   0.485   1.001  1.00  0.00     0.141 C 
HETATM   15  C17 UNL     1       5.989   1.483  -1.119  1.00  0.00     0.141 C 
HETATM   16  C15 UNL     1       6.951  -0.241   0.120  1.00  0.00     0.022 C 
HETATM   17  C16 UNL     1       7.331   0.746  -0.946  1.00  0.00     0.022 C 
HETATM   18  O1  UNL     1       2.983   0.924  -0.128  1.00  0.00    -0.266 OA
ENDBRANCH   1   6
BRANCH   4  19
HETATM   19  S1  UNL     1      -3.170   2.065   0.264  1.00  0.00    -0.123 SA
BRANCH  19  20
HETATM   20  C7  UNL     1      -3.489   0.454  -0.504  1.00  0.00     0.082 C 
BRANCH  20  21
HETATM   21  C8  UNL     1      -3.067  -0.623   0.441  1.00  0.00     0.041 C 
BRANCH  21  22
HETATM   22  C9  UNL     1      -3.294  -2.011  -0.113  1.00  0.00     0.273 C 
BRANCH  22  23
HETATM   23  N3  UNL     1      -4.670  -2.268  -0.417  1.00  0.00     0.092 N 
HETATM   24  C10 UNL     1      -4.774  -3.619  -0.937  1.00  0.00     0.298 C 
HETATM   25  C11 UNL     1      -6.188  -3.914  -1.400  1.00  0.00     0.198 C 
HETATM   26  O2  UNL     1      -7.130  -3.241  -0.626  1.00  0.00    -0.388 OA
HETATM   27  C12 UNL     1      -6.621  -3.146   0.662  1.00  0.00     0.198 C 
HETATM   28  C13 UNL     1      -5.552  -2.074   0.701  1.00  0.00     0.298 C 
ENDBRANCH  22  23
ENDBRANCH  21  22
ENDBRANCH  20  21
ENDBRANCH  19  20
ENDBRANCH   4  19
TORSDOF 6
