REMARK  0 active torsions:
REMARK  status: ('A' for Active; 'I' for Inactive)
ROOT
HETATM    1  C1  UNL     1      -2.139  -0.612  -0.049  1.00  0.00     0.029 C 
HETATM    2  C2  UNL     1      -1.999   0.888  -0.118  1.00  0.00     0.233 C 
HETATM    3  N1  UNL     1      -0.740   1.280  -0.767  1.00  0.00    -0.069 N 
ATOM      4  H11 UNL     1      -0.667   2.286  -0.921  1.00  0.00     0.277 HD
ATOM      5  H12 UNL     1      -0.688   0.993  -1.744  1.00  0.00     0.277 HD
HETATM    6  C3  UNL     1       0.314   0.763   0.017  1.00  0.00     0.217 C 
HETATM    7  C4  UNL     1       1.692   1.083  -0.409  1.00  0.00     0.062 C 
HETATM    8  C5  UNL     1       2.465  -0.052   0.278  1.00  0.00     0.235 C 
HETATM    9  N2  UNL     1       1.533  -1.132   0.448  1.00  0.00    -0.069 N 
ATOM     10  H21 UNL     1       1.448  -1.419   1.423  1.00  0.00     0.277 HD
ATOM     11  H22 UNL     1       1.886  -2.011   0.069  1.00  0.00     0.277 HD
HETATM   12  C6  UNL     1       0.285  -0.767  -0.115  1.00  0.00     0.216 C 
HETATM   13  C7  UNL     1      -0.920  -1.199   0.677  1.00  0.00     0.037 C 
ENDROOT
TORSDOF 0
