REMARK  0 active torsions:
REMARK  status: ('A' for Active; 'I' for Inactive)
ROOT
HETATM    1  C1  UNL     1      -0.770  -1.636  -0.115  1.00  0.00     0.013 C 
HETATM    2  C2  UNL     1      -1.795  -0.473   0.095  1.00  0.00     0.081 C 
HETATM    3  C3  UNL     1      -1.027   0.697  -0.024  1.00  0.00    -0.162 C 
HETATM    4  C4  UNL     1      -0.550   2.017  -0.041  1.00  0.00     0.218 C 
HETATM    5  N1  UNL     1       0.938   1.881  -0.263  1.00  0.00    -0.331 N 
ATOM      6  H1  UNL     1       1.462   2.563  -0.811  1.00  0.00     0.180 HD
HETATM    7  N2  UNL     1       1.526   0.834   0.288  1.00  0.00    -0.340 N 
ATOM      8  H2  UNL     1       1.989   0.992   1.183  1.00  0.00     0.179 HD
HETATM    9  C5  UNL     1       1.584  -0.508  -0.238  1.00  0.00     0.139 C 
HETATM   10  C6  UNL     1       0.577  -1.424   0.406  1.00  0.00     0.022 C 
ENDROOT
TORSDOF 0
