REMARK  1 active torsions:
REMARK  status: ('A' for Active; 'I' for Inactive)
REMARK    1  A    between atoms: O1_1  and  C1_3 
ROOT
HETATM    1  C1  UNL     1      -1.263  -0.369   0.043  1.00  0.00     0.119 C 
HETATM    2  C2  UNL     1      -0.198  -1.403  -0.254  1.00  0.00     0.033 C 
HETATM    3  C3  UNL     1       1.024  -0.691   0.340  1.00  0.00     0.018 C 
HETATM    4  C4  UNL     1       0.861   0.630  -0.423  1.00  0.00     0.061 C 
HETATM    5  S1  UNL     1       2.069   1.852   0.074  1.00  0.00    -0.092 SA
HETATM    6  C5  UNL     1      -0.550   0.981   0.002  1.00  0.00     0.047 C 
ENDROOT
BRANCH   1   7
HETATM    7  O1  UNL     1      -2.261  -0.374  -0.927  1.00  0.00    -0.396 OA
ATOM      8  H1  UNL     1      -2.929   0.275  -0.741  1.00  0.00     0.210 HD
ENDBRANCH   1   7
TORSDOF 1
