REMARK  1 active torsions:
REMARK  status: ('A' for Active; 'I' for Inactive)
REMARK    1  A    between atoms: O1_1  and  C1_3 
ROOT
HETATM    1  C1  UNL     1       0.911   0.108  -0.046  1.00  0.00     0.116 C 
HETATM    2  S1  UNL     1       2.328  -0.125  -1.119  1.00  0.00    -0.056 SA
HETATM    3  C2  UNL     1       0.090  -1.188  -0.077  1.00  0.00     0.050 C 
HETATM    4  C3  UNL     1      -1.170  -0.689   0.639  1.00  0.00     0.004 C 
HETATM    5  C4  UNL     1      -1.461   0.556  -0.212  1.00  0.00     0.004 C 
HETATM    6  C5  UNL     1      -0.077   1.106  -0.542  1.00  0.00     0.050 C 
ENDROOT
BRANCH   1   7
HETATM    7  O1  UNL     1       1.343   0.354   1.254  1.00  0.00    -0.379 OA
ATOM      8  H1  UNL     1       0.592   0.477   1.823  1.00  0.00     0.211 HD
ENDBRANCH   1   7
TORSDOF 1
