REMARK  4 active torsions:
REMARK  status: ('A' for Active; 'I' for Inactive)
REMARK    1  A    between atoms: C2_2  and  C3_3 
REMARK    2  A    between atoms: C4_4  and  C5_5 
REMARK    3  A    between atoms: C6_6  and  C7_7 
REMARK    4  A    between atoms: C8_8  and  C9_9 
ROOT
HETATM    1  C7  UNL     1       2.047  -0.122   0.029  1.00  0.00    -0.070 C 
HETATM    2  C8  UNL     1       3.244   0.027  -0.144  1.00  0.00    -0.029 C 
ENDROOT
BRANCH   1   3
HETATM    3  C6  UNL     1       0.640  -0.296   0.221  1.00  0.00     0.073 C 
HETATM    4  C5  UNL     1      -0.238   0.680   0.069  1.00  0.00     0.073 C 
BRANCH   4   5
HETATM    5  C4  UNL     1      -1.646   0.481   0.268  1.00  0.00    -0.078 C 
HETATM    6  C3  UNL     1      -2.834   0.331   0.429  1.00  0.00    -0.102 C 
BRANCH   6   7
HETATM    7  C2  UNL     1      -4.286   0.172   0.613  1.00  0.00     0.090 C 
HETATM    8  C1  UNL     1      -4.680  -1.277   0.669  1.00  0.00     0.018 C 
ENDBRANCH   6   7
ENDBRANCH   4   5
ENDBRANCH   1   3
BRANCH   2   9
HETATM    9  C9  UNL     1       4.657   0.227  -0.344  1.00  0.00     0.165 C 
HETATM   10  N1  UNL     1       5.435  -0.780  -0.225  1.00  0.00    -0.381 N 
ATOM     11  H12 UNL     1       5.093  -1.713   0.005  1.00  0.00     0.158 HD
ATOM     12  H11 UNL     1       6.435  -0.638  -0.367  1.00  0.00     0.158 HD
HETATM   13  N2  UNL     1       5.137   1.537  -0.667  1.00  0.00    -0.073 NA
ENDBRANCH   2   9
TORSDOF 4
