REMARK  1 active torsions:
REMARK  status: ('A' for Active; 'I' for Inactive)
REMARK       I    between atoms: N1_2  and  C2_4 
REMARK       I    between atoms: C2_4  and  N3_10 
REMARK    1  A    between atoms: N2_5  and  C3_7 
ROOT
HETATM    1  C1  UNL     1       0.430   2.226   0.343  1.00  0.00     0.165 C 
HETATM    2  N1  UNL     1      -0.291   1.148  -0.315  1.00  0.00    -0.231 N 
ATOM      3  H1  UNL     1      -0.630   1.288  -1.267  1.00  0.00     0.177 HD
HETATM    4  C2  UNL     1      -0.535  -0.084   0.323  1.00  0.00     0.673 C 
HETATM    5  N2  UNL     1       0.335  -1.031   0.232  1.00  0.00    -0.186 N 
ATOM      6  H2  UNL     1       0.140  -1.915   0.702  1.00  0.00     0.185 HD
HETATM    7  N3  UNL     1      -1.708  -0.366   1.085  1.00  0.00    -0.231 N 
ATOM      8  H3  UNL     1      -1.636  -0.393   2.102  1.00  0.00     0.177 HD
HETATM    9  C5  UNL     1      -2.994  -0.615   0.473  1.00  0.00     0.165 C 
ENDROOT
BRANCH   5  10
HETATM   10  C3  UNL     1       1.538  -0.907  -0.482  1.00  0.00     0.090 C 
HETATM   11  C4  UNL     1       2.787  -1.524   0.037  1.00  0.00     0.082 C 
HETATM   12  S1  UNL     1       1.633  -0.096  -1.893  1.00  0.00    -0.065 SA
ENDBRANCH   5  10
TORSDOF 1
