REMARK  0 active torsions:
REMARK  status: ('A' for Active; 'I' for Inactive)
REMARK       I    between atoms: N1_2  and  C2_4 
REMARK       I    between atoms: C2_4  and  N4_10 
REMARK       I    between atoms: N2_5  and  C3_7 
ROOT
HETATM    1  C1  UNL     1       1.052   1.899  -0.957  1.00  0.00     0.165 C 
HETATM    2  N1  UNL     1       0.165   0.793  -1.186  1.00  0.00    -0.230 N 
ATOM      3  H1  UNL     1      -0.264   0.709  -2.107  1.00  0.00     0.177 HD
HETATM    4  C2  UNL     1      -0.151  -0.185  -0.218  1.00  0.00     0.678 C 
HETATM    5  N2  UNL     1       0.623  -1.109   0.186  1.00  0.00    -0.144 N 
ATOM      6  H2  UNL     1       0.246  -1.741   0.893  1.00  0.00     0.188 HD
HETATM    7  C3  UNL     1       1.933  -1.354  -0.232  1.00  0.00     0.346 C 
HETATM    8  N3  UNL     1       2.926  -1.752   0.691  1.00  0.00    -0.039 NA
HETATM    9  O1  UNL     1       2.249  -1.225  -1.433  1.00  0.00    -0.250 OA
HETATM   10  N4  UNL     1      -1.467  -0.132   0.362  1.00  0.00    -0.227 N 
HETATM   11  C4  UNL     1      -2.454  -1.115   0.011  1.00  0.00     0.168 C 
HETATM   12  C5  UNL     1      -1.708   0.953   1.295  1.00  0.00     0.168 C 
ENDROOT
TORSDOF 0
