REMARK  3 active torsions:
REMARK  status: ('A' for Active; 'I' for Inactive)
REMARK    1  A    between atoms: C3_3  and  O1_5 
REMARK    2  A    between atoms: C3_3  and  C5_7 
REMARK    3  A    between atoms: C6_8  and  C7_9 
ROOT
HETATM    1  C1  UNL     1      -3.238  -0.881   1.162  1.00  0.00     0.016 C 
HETATM    2  C2  UNL     1      -2.430  -0.482   0.358  1.00  0.00    -0.066 C 
HETATM    3  C3  UNL     1      -1.431  -0.013  -0.622  1.00  0.00     0.181 C 
HETATM    4  C4  UNL     1      -1.594   1.485  -0.716  1.00  0.00     0.075 C 
ENDROOT
BRANCH   3   5
HETATM    5  O1  UNL     1      -1.644  -0.564  -1.880  1.00  0.00    -0.367 OA
ATOM      6  H1  UNL     1      -1.001  -0.262  -2.511  1.00  0.00     0.212 HD
ENDBRANCH   3   5
BRANCH   3   7
HETATM    7  C5  UNL     1      -0.070  -0.267  -0.130  1.00  0.00    -0.053 C 
HETATM    8  C6  UNL     1       1.038  -0.480   0.289  1.00  0.00    -0.067 C 
BRANCH   8   9
HETATM    9  C7  UNL     1       2.378  -0.729   0.819  1.00  0.00     0.257 A 
HETATM   10  N1  UNL     1       3.465  -0.568  -0.089  1.00  0.00    -0.335 N 
HETATM   11  C8  UNL     1       3.271   0.443   0.976  1.00  0.00     0.254 A 
ATOM     12  H1  UNL     1       3.995  -0.906  -0.893  1.00  0.00     0.164 HD
HETATM   13  O2  UNL     1       3.674   1.496   1.501  1.00  0.00    -0.270 OA
ENDBRANCH   8   9
ENDBRANCH   3   7
TORSDOF 3
