REMARK  1 active torsions:
REMARK  status: ('A' for Active; 'I' for Inactive)
REMARK       I    between atoms: C2_2  and  N1_4 
REMARK       I    between atoms: C3_6  and  N3_8 
REMARK    1  A    between atoms: N3_8  and  C4_10 
ROOT
HETATM    1  C1  UNL     1       3.355   0.782   1.116  1.00  0.00     0.117 C 
HETATM    2  C2  UNL     1       2.998  -0.513   0.483  1.00  0.00     0.220 C 
HETATM    3  O1  UNL     1       3.913  -1.301   0.127  1.00  0.00    -0.274 OA
HETATM    4  N1  UNL     1       1.661  -0.917   0.255  1.00  0.00    -0.302 N 
ATOM      5  H1  UNL     1       1.274  -1.666   0.829  1.00  0.00     0.171 HD
HETATM    6  C3  UNL     1       0.912  -0.383  -0.643  1.00  0.00     0.191 C 
HETATM    7  N2  UNL     1       1.486   0.655  -1.421  1.00  0.00    -0.063 NA
HETATM    8  N3  UNL     1      -0.428  -0.750  -0.910  1.00  0.00    -0.356 N 
ATOM      9  H3  UNL     1      -0.603  -1.369  -1.702  1.00  0.00     0.163 HD
ENDROOT
BRANCH   8  10
HETATM   10  C4  UNL     1      -1.557  -0.310  -0.142  1.00  0.00     0.021 C 
HETATM   11  C5  UNL     1      -1.710   1.198  -0.137  1.00  0.00     0.037 C 
HETATM   12  C6  UNL     1      -2.826  -0.867  -0.755  1.00  0.00     0.037 C 
HETATM   13  C7  UNL     1      -1.520  -0.761   1.295  1.00  0.00     0.037 C 
ENDBRANCH   8  10
TORSDOF 1
