REMARK  0 active torsions:
REMARK  status: ('A' for Active; 'I' for Inactive)
ROOT
HETATM    1  N1  UNL     1      -2.518   2.517  -0.383  1.00  0.00    -0.088 NA
HETATM    2  C1  UNL     1      -1.795   1.325  -0.134  1.00  0.00     0.089 C 
HETATM    3  N2  UNL     1      -0.622   1.082  -0.508  1.00  0.00    -0.373 N 
ATOM      4  H2  UNL     1      -0.135   1.802  -1.042  1.00  0.00     0.161 HD
HETATM    5  C2  UNL     1       0.084  -0.143  -0.235  1.00  0.00     0.031 C 
HETATM    6  C3  UNL     1       1.076  -0.308  -1.343  1.00  0.00     0.031 C 
HETATM    7  C4  UNL     1       2.461  -0.679  -0.958  1.00  0.00     0.002 C 
HETATM    8  C5  UNL     1       2.874   0.324   0.132  1.00  0.00     0.000 C 
HETATM    9  C6  UNL     1       2.096  -0.121   1.333  1.00  0.00     0.002 C 
HETATM   10  C7  UNL     1       0.636  -0.047   1.141  1.00  0.00     0.031 C 
HETATM   11  C8  UNL     1      -0.865  -1.312  -0.300  1.00  0.00     0.031 C 
HETATM   12  C9  UNL     1      -2.313  -0.993  -0.209  1.00  0.00     0.010 C 
HETATM   13  C10 UNL     1      -2.495   0.245   0.638  1.00  0.00     0.073 C 
ENDROOT
TORSDOF 0
