REMARK  0 active torsions:
REMARK  status: ('A' for Active; 'I' for Inactive)
ROOT
HETATM    1  C1  UNL     1      -1.614  -1.516  -0.550  1.00  0.00     0.018 C 
HETATM    2  C2  UNL     1      -1.010  -0.423   0.343  1.00  0.00    -0.007 C 
HETATM    3  C3  UNL     1      -1.710  -0.596   1.700  1.00  0.00     0.018 C 
HETATM    4  C4  UNL     1      -1.447   0.885  -0.194  1.00  0.00     0.095 C 
HETATM    5  C5  UNL     1      -0.466   1.575  -1.046  1.00  0.00     0.113 C 
HETATM    6  N1  UNL     1      -0.816   2.603  -1.703  1.00  0.00    -0.383 N 
ATOM      7  H11 UNL     1      -0.136   3.081  -2.294  1.00  0.00     0.157 HD
ATOM      8  H12 UNL     1      -1.772   2.953  -1.644  1.00  0.00     0.157 HD
HETATM    9  O1  UNL     1       0.808   1.108  -1.125  1.00  0.00    -0.326 OA
HETATM   10  C6  UNL     1       1.374   0.190  -0.244  1.00  0.00     0.093 C 
HETATM   11  C7  UNL     1       2.266   0.999   0.709  1.00  0.00     0.049 C 
HETATM   12  C8  UNL     1       2.364  -0.624  -1.093  1.00  0.00     0.049 C 
HETATM   13  C9  UNL     1       0.430  -0.656   0.510  1.00  0.00     0.212 C 
HETATM   14  F1  UNL     1       0.716  -1.989   0.167  1.00  0.00    -0.245 F 
ENDROOT
TORSDOF 0
