REMARK  0 active torsions:
REMARK  status: ('A' for Active; 'I' for Inactive)
ROOT
HETATM    1  N1  UNL     1       0.707   2.242   0.391  1.00  0.00    -0.404 N 
ATOM      2  H11 UNL     1       1.723   2.327   0.366  1.00  0.00     0.155 HD
ATOM      3  H12 UNL     1       0.114   3.002   0.724  1.00  0.00     0.155 HD
HETATM    4  C1  UNL     1       0.170   1.152  -0.005  1.00  0.00    -0.001 C 
HETATM    5  C2  UNL     1      -1.291   1.030   0.031  1.00  0.00     0.055 C 
HETATM    6  C3  UNL     1      -1.818  -0.343   0.164  1.00  0.00     0.026 C 
HETATM    7  C4  UNL     1      -0.890  -1.446  -0.185  1.00  0.00     0.084 C 
HETATM    8 CL1  UNL     1      -1.453  -2.921   0.676  1.00  0.00    -0.125 Cl
HETATM    9  C5  UNL     1       0.531  -1.224   0.202  1.00  0.00     0.047 C 
HETATM   10  C6  UNL     1       1.045   0.031  -0.496  1.00  0.00     0.056 A 
HETATM   11  C7  UNL     1       2.554   0.271  -0.325  1.00  0.00     0.101 A 
HETATM   12  S1  UNL     1       1.887   0.003  -1.904  1.00  0.00    -0.150 SA
ENDROOT
TORSDOF 0
