REMARK  0 active torsions:
REMARK  status: ('A' for Active; 'I' for Inactive)
ROOT
HETATM    1  C1  UNL     1      -1.518  -0.755  -1.466  1.00  0.00     0.021 C 
HETATM    2  C2  UNL     1      -0.843  -0.278  -0.205  1.00  0.00    -0.011 C 
HETATM    3  C3  UNL     1      -1.720  -0.627   1.001  1.00  0.00     0.021 C 
HETATM    4  C4  UNL     1       0.500  -0.648  -0.108  1.00  0.00     0.065 C 
HETATM    5  N1  UNL     1       1.572  -1.462  -0.049  1.00  0.00    -0.393 N 
ATOM      6  H1  UNL     1       1.620  -2.479  -0.117  1.00  0.00     0.159 HD
HETATM    7  C5  UNL     1       2.685  -0.455   0.146  1.00  0.00     0.199 C 
HETATM    8  S1  UNL     1       2.127   1.235   0.126  1.00  0.00    -0.102 SA
HETATM    9  C6  UNL     1       0.546   1.828   0.290  1.00  0.00     0.050 C 
HETATM   10 CL1  UNL     1       0.280   2.259   2.038  1.00  0.00    -0.081 Cl
HETATM   11  C7  UNL     1      -0.759   1.284  -0.187  1.00  0.00     0.072 C 
ENDROOT
TORSDOF 0
