REMARK  0 active torsions:
REMARK  status: ('A' for Active; 'I' for Inactive)
ROOT
HETATM    1  S1  UNL     1       1.030   2.517  -0.322  1.00  0.00    -0.085 SA
HETATM    2  C1  UNL     1       0.599   1.211  -0.013  1.00  0.00     0.038 C 
HETATM    3  C2  UNL     1       1.365   0.057  -0.596  1.00  0.00     0.217 C 
HETATM    4 CL1  UNL     1       2.901   0.031   0.344  1.00  0.00    -0.097 Cl
HETATM    5  N1  UNL     1       0.659  -1.161  -0.493  1.00  0.00    -0.388 N 
ATOM      6  H1  UNL     1       1.002  -2.012  -0.938  1.00  0.00     0.156 HD
HETATM    7  C3  UNL     1      -0.535  -1.153   0.248  1.00  0.00     0.142 C 
HETATM    8  C4  UNL     1      -1.465  -0.020   0.008  1.00  0.00     0.056 C 
HETATM    9  C5  UNL     1      -0.557   0.876   0.846  1.00  0.00     0.095 C 
HETATM   10  S2  UNL     1      -0.217  -0.541   1.920  1.00  0.00    -0.134 SA
ENDROOT
TORSDOF 0
