REMARK  2 active torsions:
REMARK  status: ('A' for Active; 'I' for Inactive)
REMARK    1  A    between atoms: O1_3  and  N2_4 
REMARK    2  A    between atoms: C5_9  and  O2_10 
ROOT
HETATM    1  N1  UNL     1       5.279   0.873   0.080  1.00  0.00    -0.162 NA
HETATM    2  C1  UNL     1       4.227   0.612  -0.328  1.00  0.00     0.253 C 
HETATM    3  O1  UNL     1       2.979   0.279  -0.822  1.00  0.00    -0.159 OA
ENDROOT
BRANCH   3   4
HETATM    4  N2  UNL     1       2.164  -0.416   0.045  1.00  0.00    -0.258 N 
HETATM    5  C2  UNL     1       0.929  -0.121   0.159  1.00  0.00     0.011 C 
HETATM    6  C3  UNL     1       0.103  -0.908   1.111  1.00  0.00     0.057 C 
HETATM    7  C7  UNL     1       0.341   0.966  -0.628  1.00  0.00     0.057 C 
HETATM    8  C4  UNL     1      -1.316  -0.340   1.009  1.00  0.00     0.037 C 
HETATM    9  C5  UNL     1      -1.719  -0.461  -0.441  1.00  0.00     0.118 C 
HETATM   10  C6  UNL     1      -0.976   0.548  -1.270  1.00  0.00     0.037 C 
ATOM     11  H2  UNL     1       2.554  -1.176   0.603  1.00  0.00     0.195 HD
BRANCH   9  12
HETATM   12  O2  UNL     1      -3.092  -0.333  -0.554  1.00  0.00    -0.396 OA
ATOM     13  H2  UNL     1      -3.346  -0.409  -1.466  1.00  0.00     0.210 HD
ENDBRANCH   9  12
ENDBRANCH   3   4
TORSDOF 2
