REMARK  2 active torsions:
REMARK  status: ('A' for Active; 'I' for Inactive)
REMARK    1  A    between atoms: O1_1  and  N1_3 
REMARK    2  A    between atoms: N1_3  and  N2_5 
ROOT
HETATM    1  N2  UNL     1       1.514   0.004   0.712  1.00  0.00    -0.221 N 
HETATM    2  C1  UNL     1       1.045  -1.362   0.562  1.00  0.00     0.390 C 
HETATM    3  N3  UNL     1       0.205  -1.386  -0.608  1.00  0.00    -0.057 N 
ATOM      4  H31 UNL     1       0.137  -2.325  -1.001  1.00  0.00     0.279 HD
ATOM      5  H32 UNL     1       0.650  -0.917  -1.397  1.00  0.00     0.279 HD
HETATM    6  C2  UNL     1      -1.116  -0.826  -0.327  1.00  0.00     0.235 C 
HETATM    7  C3  UNL     1      -1.228   0.607  -0.687  1.00  0.00     0.039 C 
HETATM    8  C4  UNL     1      -0.985   1.569   0.433  1.00  0.00     0.101 C 
HETATM    9  S1  UNL     1       0.564   1.347   1.285  1.00  0.00    -0.033 SA
ENDROOT
BRANCH   1  10
HETATM   10  N1  UNL     1       2.846   0.278   0.370  1.00  0.00    -0.201 N 
ATOM     11  H1  UNL     1       3.583  -0.229   0.860  1.00  0.00     0.216 HD
BRANCH  10  12
HETATM   12  O1  UNL     1       3.175   1.096  -0.488  1.00  0.00    -0.274 OA
ATOM     13  H1  UNL     1       4.077   1.282  -0.720  1.00  0.00     0.246 HD
ENDBRANCH  10  12
ENDBRANCH   1  10
TORSDOF 2
