REMARK  1 active torsions:
REMARK  status: ('A' for Active; 'I' for Inactive)
REMARK    1  A    between atoms: N1_4  and  C4_5 
ROOT
HETATM    1  C4  UNL     1       0.542  -0.347   0.036  1.00  0.00     0.101 C 
HETATM    2  N2  UNL     1       1.238  -0.905  -0.894  1.00  0.00    -0.377 N 
ATOM      3  H2  UNL     1       0.809  -1.345  -1.709  1.00  0.00     0.160 HD
HETATM    4  C5  UNL     1       2.676  -0.863  -0.699  1.00  0.00     0.148 C 
HETATM    5  C6  UNL     1       3.162   0.504  -0.276  1.00  0.00     0.252 C 
HETATM    6  N3  UNL     1       2.225   1.209   0.575  1.00  0.00    -0.067 N 
ATOM      7  H31 UNL     1       1.742   1.960   0.082  1.00  0.00     0.277 HD
ATOM      8  H32 UNL     1       2.694   1.778   1.280  1.00  0.00     0.277 HD
HETATM    9  C7  UNL     1       1.305   0.254   1.161  1.00  0.00     0.307 C 
ENDROOT
BRANCH   1  10
HETATM   10  N1  UNL     1      -0.868  -0.265   0.064  1.00  0.00    -0.370 N 
HETATM   11  C3  UNL     1      -1.632   0.908  -0.316  1.00  0.00     0.124 C 
HETATM   12  C2  UNL     1      -3.061   0.626   0.097  1.00  0.00     0.021 C 
HETATM   13  C1  UNL     1      -2.876  -0.439   1.157  1.00  0.00     0.021 C 
HETATM   14  C8  UNL     1      -1.812  -1.299   0.463  1.00  0.00     0.124 C 
ENDBRANCH   1  10
TORSDOF 1
