REMARK  1 active torsions:
REMARK  status: ('A' for Active; 'I' for Inactive)
REMARK    1  A    between atoms: C1_4  and  N2_5 
ROOT
HETATM    1  N2  UNL     1      -0.288  -0.967   0.589  1.00  0.00    -0.341 N 
ATOM      2  H2  UNL     1      -0.325  -1.858   1.084  1.00  0.00     0.167 HD
HETATM    3  C2  UNL     1       0.848  -0.443   0.278  1.00  0.00     0.131 A 
HETATM    4  S1  UNL     1       1.466   0.914  -0.487  1.00  0.00    -0.020 SA
HETATM    5  S2  UNL     1       3.396   0.435  -0.255  1.00  0.00    -0.010 SA
HETATM    6  S3  UNL     1       2.389  -1.078   0.604  1.00  0.00    -0.020 SA
ENDROOT
BRANCH   1   7
HETATM    7  C1  UNL     1      -1.485  -0.295   0.237  1.00  0.00     0.174 C 
HETATM    8  N1  UNL     1      -1.518   0.929  -0.149  1.00  0.00    -0.395 N 
ATOM      9  H12 UNL     1      -0.630   1.428  -0.199  1.00  0.00     0.156 HD
ATOM     10  H11 UNL     1      -2.380   1.413  -0.402  1.00  0.00     0.156 HD
ENDBRANCH   1   7
TORSDOF 1
