REMARK  2 active torsions:
REMARK  status: ('A' for Active; 'I' for Inactive)
REMARK    1  A    between atoms: C2_2  and  C3_7 
REMARK    2  A    between atoms: N1_3  and  O1_5 
ROOT
HETATM    1  C3  UNL     1      -0.050  -0.008   0.364  1.00  0.00     0.112 C 
HETATM    2  C4  UNL     1      -0.216   0.631   1.662  1.00  0.00     0.077 C 
HETATM    3  N2  UNL     1      -0.352   1.144   2.700  1.00  0.00    -0.196 NA
HETATM    4  C5  UNL     1      -1.061   0.677  -0.569  1.00  0.00     0.059 C 
HETATM    5  C6  UNL     1      -2.315  -0.082  -0.216  1.00  0.00     0.169 C 
HETATM    6  O2  UNL     1      -1.977  -1.087   0.659  1.00  0.00    -0.389 OA
HETATM    7  C7  UNL     1      -0.622  -1.386   0.375  1.00  0.00     0.198 C 
ENDROOT
BRANCH   1   8
HETATM    8  C2  UNL     1       1.292   0.127  -0.188  1.00  0.00     0.031 C 
HETATM    9  C1  UNL     1       1.765   1.540  -0.425  1.00  0.00     0.067 C 
HETATM   10  N1  UNL     1       2.099  -0.820  -0.486  1.00  0.00    -0.276 N 
ATOM     11  H1  UNL     1       3.016  -0.585  -0.867  1.00  0.00     0.193 HD
BRANCH  10  12
HETATM   12  O1  UNL     1       1.773  -2.141  -0.311  1.00  0.00    -0.290 OA
ATOM     13  H1  UNL     1       2.372  -2.844  -0.532  1.00  0.00     0.244 HD
ENDBRANCH  10  12
ENDBRANCH   1   8
TORSDOF 2
