REMARK  2 active torsions:
REMARK  status: ('A' for Active; 'I' for Inactive)
REMARK    1  A    between atoms: O1_1  and  N1_3 
REMARK    2  A    between atoms: C1_5  and  C2_6 
ROOT
HETATM    1  C2  UNL     1       0.856  -0.202  -0.289  1.00  0.00     0.263 C 
HETATM    2  C3  UNL     1       0.795  -1.534   0.462  1.00  0.00     0.043 C 
HETATM    3  C4  UNL     1      -0.675  -1.788   0.714  1.00  0.00     0.038 C 
HETATM    4  C5  UNL     1      -1.325  -0.610   0.064  1.00  0.00     0.224 C 
HETATM    5  C6  UNL     1      -1.457   0.540   1.034  1.00  0.00     0.037 C 
HETATM    6  C7  UNL     1      -1.564   1.717   0.071  1.00  0.00     0.032 C 
HETATM    7  C8  UNL     1      -0.862   1.227  -1.184  1.00  0.00     0.274 C 
HETATM    8  N2  UNL     1      -0.426  -0.107  -0.934  1.00  0.00     0.102 N 
ENDROOT
BRANCH   1   9
HETATM    9  C1  UNL     1       1.971  -0.329  -1.265  1.00  0.00     0.122 C 
HETATM   10  N1  UNL     1       3.107   0.226  -1.038  1.00  0.00    -0.282 N 
ATOM     11  H1  UNL     1       3.834   0.104  -1.743  1.00  0.00     0.192 HD
BRANCH  10  12
HETATM   12  O1  UNL     1       3.423   0.959   0.055  1.00  0.00    -0.290 OA
ATOM     13  H1  UNL     1       4.263   1.369   0.223  1.00  0.00     0.244 HD
ENDBRANCH  10  12
ENDBRANCH   1   9
TORSDOF 2
