REMARK  1 active torsions:
REMARK  status: ('A' for Active; 'I' for Inactive)
REMARK    1  A    between atoms: C2_2  and  C3_3 
ROOT
HETATM    1  C3  UNL     1       1.066   0.445   0.547  1.00  0.00     0.130 C 
HETATM    2  S1  UNL     1      -0.185   1.665   0.026  1.00  0.00    -0.150 SA
HETATM    3  C4  UNL     1      -1.779   0.995   0.578  1.00  0.00     0.076 C 
HETATM    4  C5  UNL     1      -2.228  -0.172  -0.229  1.00  0.00     0.020 C 
HETATM    5  C6  UNL     1      -1.192  -1.170  -0.570  1.00  0.00     0.076 C 
HETATM    6  S2  UNL     1       0.236  -1.165   0.546  1.00  0.00    -0.150 SA
ENDROOT
BRANCH   1   7
HETATM    7  C2  UNL     1       2.252   0.472  -0.327  1.00  0.00    -0.011 C 
HETATM    8  C1  UNL     1       3.271  -0.342  -0.111  1.00  0.00     0.009 C 
ENDBRANCH   1   7
TORSDOF 1
