REMARK  2 active torsions:
REMARK  status: ('A' for Active; 'I' for Inactive)
REMARK    1  A    between atoms: C2_2  and  C3_3 
REMARK    2  A    between atoms: C5_5  and  O1_6 
ROOT
HETATM    1  C3  UNL     1      -0.865   0.058   0.431  1.00  0.00     0.129 C 
HETATM    2  C4  UNL     1      -0.781   1.569   0.606  1.00  0.00     0.092 C 
HETATM    3  C5  UNL     1       0.713   1.869   0.778  1.00  0.00     0.263 C 
HETATM    4  O2  UNL     1       1.353   0.672   1.035  1.00  0.00    -0.326 OA
HETATM    5  C6  UNL     1       1.300  -0.230  -0.006  1.00  0.00     0.160 C 
HETATM    6  C7  UNL     1       2.378   0.098  -0.984  1.00  0.00     0.078 C 
HETATM    7  C8  UNL     1       1.535  -1.625   0.539  1.00  0.00     0.078 C 
HETATM    8  O3  UNL     1       0.019  -0.256  -0.604  1.00  0.00    -0.350 OA
ENDROOT
BRANCH   1   9
HETATM    9  C2  UNL     1      -2.286  -0.309   0.095  1.00  0.00     0.028 C 
HETATM   10  C1  UNL     1      -2.466  -1.776  -0.095  1.00  0.00     0.007 C 
ENDBRANCH   1   9
BRANCH   3  11
HETATM   11  O1  UNL     1       1.139   2.508  -0.361  1.00  0.00    -0.371 OA
ATOM     12  H1  UNL     1       2.065   2.694  -0.254  1.00  0.00     0.212 HD
ENDBRANCH   3  11
TORSDOF 2
