REMARK  3 active torsions:
REMARK  status: ('A' for Active; 'I' for Inactive)
REMARK    1  A    between atoms: C4_4  and  C5_5 
REMARK    2  A    between atoms: C5_5  and  N1_6 
REMARK    3  A    between atoms: C7_8  and  C8_9 
ROOT
HETATM    1  N1  UNL     1       1.922  -1.128   1.439  1.00  0.00    -0.298 N 
HETATM    2  C6  UNL     1       1.020  -1.097   0.429  1.00  0.00     0.129 A 
HETATM    3  C7  UNL     1      -0.167  -1.581   0.924  1.00  0.00     0.079 A 
HETATM    4  O1  UNL     1       0.068  -1.874   2.180  1.00  0.00    -0.264 OA
HETATM    5  C18 UNL     1       1.298  -1.613   2.501  1.00  0.00     0.372 A 
HETATM    6  O2  UNL     1       1.856  -1.776   3.626  1.00  0.00    -0.238 OA
ENDROOT
BRANCH   3   7
HETATM    7  C8  UNL     1      -1.462  -1.750   0.217  1.00  0.00     0.053 C 
HETATM    8  C9  UNL     1      -1.293  -2.735  -0.916  1.00  0.00     0.012 C 
HETATM    9  C10 UNL     1      -0.934  -1.948  -2.142  1.00  0.00     0.002 C 
HETATM   10  C11 UNL     1      -1.435  -0.561  -1.851  1.00  0.00     0.010 C 
HETATM   11  C12 UNL     1      -1.960  -0.517  -0.459  1.00  0.00    -0.031 C 
HETATM   12  C13 UNL     1      -1.525   0.754   0.233  1.00  0.00     0.010 C 
HETATM   13  C17 UNL     1      -3.477  -0.567  -0.402  1.00  0.00     0.010 C 
HETATM   14  C14 UNL     1      -2.641   1.689   0.562  1.00  0.00     0.001 C 
HETATM   15  C15 UNL     1      -3.608   1.878  -0.586  1.00  0.00     0.000 C 
HETATM   16  C16 UNL     1      -4.141   0.569  -1.101  1.00  0.00     0.001 C 
ENDBRANCH   3   7
BRANCH   1  17
HETATM   17  C5  UNL     1       3.292  -0.688   1.284  1.00  0.00     0.161 C 
BRANCH  17  18
HETATM   18  C4  UNL     1       3.497   0.723   1.570  1.00  0.00    -0.005 C 
HETATM   19  C2  UNL     1       3.969   1.518   0.629  1.00  0.00    -0.090 C 
HETATM   20  C1  UNL     1       4.201   2.985   0.869  1.00  0.00     0.042 C 
HETATM   21  C3  UNL     1       4.295   0.992  -0.722  1.00  0.00     0.042 C 
ENDBRANCH  17  18
ENDBRANCH   1  17
TORSDOF 3
