REMARK  4 active torsions:
REMARK  status: ('A' for Active; 'I' for Inactive)
REMARK    1  A    between atoms: C2_2  and  C3_3 
REMARK    2  A    between atoms: C3_3  and  C4_4 
REMARK    3  A    between atoms: C4_4  and  O2_6 
REMARK    4  A    between atoms: O2_6  and  C5_7 
ROOT
HETATM    1  C5  UNL     1       1.070   0.154  -0.648  1.00  0.00     0.141 C 
HETATM    2  C6  UNL     1       1.294   1.629  -0.713  1.00  0.00     0.033 C 
HETATM    3  C7  UNL     1       0.114   2.453  -1.092  1.00  0.00     0.003 C 
HETATM    4  C8  UNL     1      -1.160   1.879  -0.554  1.00  0.00     0.013 C 
HETATM    5  C9  UNL     1      -0.795   1.032   0.643  1.00  0.00     0.066 C 
HETATM    6  C10 UNL     1      -1.898   0.871   1.591  1.00  0.00     0.135 C 
HETATM    7  O3  UNL     1      -1.604   0.582   2.737  1.00  0.00    -0.297 OA
HETATM    8  C11 UNL     1      -3.377   0.984   1.483  1.00  0.00     0.112 C 
HETATM    9  C12 UNL     1      -3.858   0.068   0.404  1.00  0.00    -0.081 C 
HETATM   10  C13 UNL     1      -5.165   0.524  -0.138  1.00  0.00     0.043 C 
HETATM   11  C14 UNL     1      -3.377  -1.046  -0.162  1.00  0.00    -0.024 C 
HETATM   12  C15 UNL     1      -2.104  -1.815   0.105  1.00  0.00     0.028 C 
HETATM   13  C16 UNL     1      -0.933  -1.193  -0.539  1.00  0.00     0.016 C 
HETATM   14  C17 UNL     1      -0.113  -0.240   0.255  1.00  0.00    -0.007 C 
HETATM   15  C18 UNL     1       0.408  -0.914   1.501  1.00  0.00     0.018 C 
ENDROOT
BRANCH   1  16
HETATM   16  O2  UNL     1       2.254  -0.414  -0.098  1.00  0.00    -0.315 OA
BRANCH  16  17
HETATM   17  C4  UNL     1       3.084  -1.264  -0.757  1.00  0.00     0.262 C 
HETATM   18  O1  UNL     1       2.818  -1.593  -1.942  1.00  0.00    -0.265 OA
BRANCH  17  19
HETATM   19  C3  UNL     1       4.320  -1.830  -0.116  1.00  0.00     0.137 C 
BRANCH  19  20
HETATM   20  C2  UNL     1       5.484  -1.160  -0.713  1.00  0.00    -0.027 C 
HETATM   21  C1  UNL     1       6.360  -0.458  -0.043  1.00  0.00     0.007 C 
ENDBRANCH  19  20
ENDBRANCH  17  19
ENDBRANCH  16  17
ENDBRANCH   1  16
TORSDOF 4
