REMARK  3 active torsions:
REMARK  status: ('A' for Active; 'I' for Inactive)
REMARK    1  A    between atoms: C2_2  and  C3_4 
REMARK    2  A    between atoms: C3_4  and  C4_5 
REMARK    3  A    between atoms: C4_5  and  C5_6 
ROOT
HETATM    1  C5  UNL     1       1.886  -0.807   0.574  1.00  0.00     0.111 C 
HETATM    2  C6  UNL     1       2.358  -1.256   1.941  1.00  0.00     0.054 C 
HETATM    3  C7  UNL     1       1.369   0.587   0.737  1.00  0.00     0.012 C 
HETATM    4  C8  UNL     1       0.145   0.941   0.392  1.00  0.00     0.013 C 
HETATM    5  C9  UNL     1      -0.774  -0.084  -0.186  1.00  0.00     0.115 C 
HETATM    6  C10 UNL     1      -1.543  -0.742   0.916  1.00  0.00     0.050 C 
HETATM    7  C11 UNL     1      -2.694   0.066   1.404  1.00  0.00    -0.015 C 
HETATM    8  C12 UNL     1      -3.529  -0.807   2.326  1.00  0.00     0.010 C 
HETATM    9  C13 UNL     1      -3.502   0.713   0.337  1.00  0.00     0.013 C 
HETATM   10  C14 UNL     1      -3.094   0.328  -1.061  1.00  0.00    -0.044 C 
HETATM   11  C15 UNL     1      -3.620  -1.037  -1.460  1.00  0.00     0.015 C 
HETATM   12  C16 UNL     1      -3.786   1.330  -1.997  1.00  0.00     0.015 C 
HETATM   13  C17 UNL     1      -1.625   0.467  -1.285  1.00  0.00     0.054 C 
HETATM   14  O2  UNL     1       0.076  -1.071  -0.738  1.00  0.00    -0.224 OA
HETATM   15  O3  UNL     1       0.821  -1.604   0.205  1.00  0.00    -0.225 OA
ENDROOT
BRANCH   1  16
HETATM   16  C4  UNL     1       3.004  -0.823  -0.437  1.00  0.00     0.052 C 
BRANCH  16  17
HETATM   17  C3  UNL     1       4.144   0.063  -0.090  1.00  0.00     0.081 C 
BRANCH  17  18
HETATM   18  C2  UNL     1       5.196  -0.016  -1.138  1.00  0.00     0.123 C 
HETATM   19  C1  UNL     1       6.466   0.792  -1.025  1.00  0.00     0.091 C 
HETATM   20  O1  UNL     1       5.027  -0.738  -2.090  1.00  0.00    -0.298 OA
ENDBRANCH  17  18
ENDBRANCH  16  17
ENDBRANCH   1  16
TORSDOF 3
