REMARK  5 active torsions:
REMARK  status: ('A' for Active; 'I' for Inactive)
REMARK    1  A    between atoms: C3_3  and  C4_4 
REMARK    2  A    between atoms: C5_5  and  C6_6 
REMARK    3  A    between atoms: C6_6  and  C7_8 
REMARK       I    between atoms: N1_9  and  C8_11 
REMARK    4  A    between atoms: C8_11  and  O3_13 
REMARK    5  A    between atoms: O3_13  and  C9_14 
ROOT
HETATM    1  C4  UNL     1      -1.141  -0.451  -0.333  1.00  0.00     0.012 C 
HETATM    2  C5  UNL     1       0.037  -0.093  -0.044  1.00  0.00     0.057 C 
ENDROOT
BRANCH   2   3
HETATM    3  C6  UNL     1       0.895   0.583   0.854  1.00  0.00     0.187 C 
HETATM    4  O1  UNL     1       0.671   1.199   1.907  1.00  0.00    -0.287 OA
BRANCH   3   5
HETATM    5  C7  UNL     1       2.368   0.594   0.526  1.00  0.00     0.148 C 
HETATM    6  N1  UNL     1       3.154   1.199   1.325  1.00  0.00    -0.309 N 
HETATM    7  C8  UNL     1       4.545   1.218   1.028  1.00  0.00     0.364 C 
ATOM      8  H1  UNL     1       2.794   1.660   2.160  1.00  0.00     0.170 HD
HETATM    9  O2  UNL     1       5.404   1.578   1.899  1.00  0.00    -0.238 OA
BRANCH   7  10
HETATM   10  O3  UNL     1       5.051   0.850  -0.211  1.00  0.00    -0.299 OA
BRANCH  10  11
HETATM   11  C9  UNL     1       6.452   0.876  -0.487  1.00  0.00     0.125 C 
HETATM   12  C10 UNL     1       6.726   1.758  -1.693  1.00  0.00     0.040 C 
HETATM   13  C11 UNL     1       6.827  -0.545  -0.883  1.00  0.00     0.040 C 
ENDBRANCH  10  11
ENDBRANCH   7  10
ENDBRANCH   3   5
ENDBRANCH   2   3
BRANCH   1  14
HETATM   14  C3  UNL     1      -2.511  -0.462   0.004  1.00  0.00    -0.048 C 
HETATM   15  C2  UNL     1      -3.360  -1.095  -0.886  1.00  0.00    -0.077 C 
HETATM   16  C1  UNL     1      -2.871  -1.730  -2.119  1.00  0.00     0.044 C 
HETATM   17  C17 UNL     1      -4.815  -1.124  -0.638  1.00  0.00     0.034 C 
HETATM   18  C16 UNL     1      -5.223  -1.379   0.772  1.00  0.00     0.005 C 
HETATM   19  C15 UNL     1      -4.186  -0.990   1.755  1.00  0.00     0.014 C 
HETATM   20  C12 UNL     1      -3.217   0.065   1.160  1.00  0.00    -0.020 C 
HETATM   21  C13 UNL     1      -2.431   0.605   2.312  1.00  0.00     0.020 C 
HETATM   22  C14 UNL     1      -4.099   1.212   0.681  1.00  0.00     0.020 C 
ENDBRANCH   1  14
TORSDOF 5
