REMARK  3 active torsions:
REMARK  status: ('A' for Active; 'I' for Inactive)
REMARK    1  A    between atoms: N1_8  and  C7_10 
REMARK    2  A    between atoms: C7_10  and  C10_13 
REMARK    3  A    between atoms: C10_13  and  C11_14 
ROOT
HETATM    1  C1  UNL     1      -5.859  -0.903  -0.028  1.00  0.00     0.015 C 
HETATM    2  C2  UNL     1      -4.456  -0.312  -0.220  1.00  0.00    -0.034 C 
HETATM    3  C3  UNL     1      -4.644   1.194  -0.337  1.00  0.00     0.015 C 
HETATM    4  C4  UNL     1      -3.922  -0.887  -1.510  1.00  0.00     0.095 C 
HETATM    5  C5  UNL     1      -2.494  -0.553  -1.723  1.00  0.00     0.179 C 
HETATM    6  O1  UNL     1      -2.062  -0.520  -2.892  1.00  0.00    -0.291 OA
HETATM    7  C6  UNL     1      -1.613  -0.266  -0.546  1.00  0.00     0.121 C 
HETATM    8  N1  UNL     1      -0.570   0.320  -0.694  1.00  0.00    -0.376 N 
ATOM      9  H1  UNL     1      -0.454   0.540  -1.683  1.00  0.00     0.160 HD
HETATM   10  C17 UNL     1      -2.175  -0.767   0.703  1.00  0.00     0.179 C 
HETATM   11  O2  UNL     1      -1.493  -1.283   1.619  1.00  0.00    -0.291 OA
HETATM   12  C18 UNL     1      -3.650  -0.691   0.973  1.00  0.00     0.095 C 
ENDROOT
BRANCH   8  13
HETATM   13  C7  UNL     1       0.563   0.817   0.025  1.00  0.00     0.023 C 
HETATM   14  C8  UNL     1       0.131   1.370   1.346  1.00  0.00     0.038 C 
HETATM   15  C9  UNL     1       1.095   2.031  -0.776  1.00  0.00     0.038 C 
BRANCH  13  16
HETATM   16  C10 UNL     1       1.577  -0.243   0.093  1.00  0.00     0.034 C 
BRANCH  16  17
HETATM   17  C11 UNL     1       2.849  -0.163   0.792  1.00  0.00    -0.012 C 
HETATM   18  C12 UNL     1       3.584  -1.541   0.667  1.00  0.00     0.005 C 
HETATM   19  C13 UNL     1       4.382  -1.639  -0.581  1.00  0.00     0.000 C 
HETATM   20  C14 UNL     1       5.419  -0.523  -0.674  1.00  0.00     0.000 C 
HETATM   21  C15 UNL     1       4.602   0.741  -0.807  1.00  0.00     0.000 C 
HETATM   22  C16 UNL     1       3.810   0.916   0.469  1.00  0.00     0.005 C 
ENDBRANCH  16  17
ENDBRANCH  13  16
ENDBRANCH   8  13
TORSDOF 3
