REMARK  10 active torsions:
REMARK  status: ('A' for Active; 'I' for Inactive)
REMARK       I    between atoms: C2_2  and  N1_4 
REMARK    1  A    between atoms: C4_6  and  C5_7 
REMARK    2  A    between atoms: C5_7  and  C8_10 
REMARK    3  A    between atoms: C12_14  and  N2_15 
REMARK       I    between atoms: N2_15  and  C13_17 
REMARK    4  A    between atoms: C13_17  and  C14_19 
REMARK    5  A    between atoms: C14_19  and  C16_21 
REMARK    6  A    between atoms: C21_29  and  C22_30 
REMARK    7  A    between atoms: C23_31  and  C24_32 
REMARK    8  A    between atoms: C24_32  and  O3_33 
REMARK    9  A    between atoms: C24_32  and  C25_35 
REMARK   10  A    between atoms: C25_35  and  O4_38 
ROOT
HETATM    1  C16 UNL     1       6.322   2.261  -0.389  1.00  0.00     0.053 C 
HETATM    2  C17 UNL     1       7.178   1.335  -1.221  1.00  0.00     0.032 C 
HETATM    3  C18 UNL     1       6.837   3.668  -0.568  1.00  0.00     0.032 C 
HETATM    4  C19 UNL     1       6.554   1.909   1.034  1.00  0.00     0.069 C 
HETATM    5  N3  UNL     1       6.719   1.624   2.144  1.00  0.00    -0.196 NA
ENDROOT
BRANCH   1   6
HETATM    6  C14 UNL     1       4.870   2.137  -0.717  1.00  0.00     0.096 C 
HETATM    7  C15 UNL     1       4.091   3.028   0.242  1.00  0.00     0.021 C 
BRANCH   6   8
HETATM    8  C13 UNL     1       4.371   0.734  -0.473  1.00  0.00     0.227 C 
HETATM    9  N2  UNL     1       3.023   0.397  -0.673  1.00  0.00    -0.327 N 
ATOM     10  H2  UNL     1       2.421   1.155  -0.994  1.00  0.00     0.169 HD
HETATM   11  O2  UNL     1       5.244  -0.074  -0.088  1.00  0.00    -0.273 OA
BRANCH   9  12
HETATM   12  C12 UNL     1       2.393  -0.843  -0.491  1.00  0.00     0.035 A 
HETATM   13  C11 UNL     1       3.000  -1.904   0.125  1.00  0.00     0.029 A 
HETATM   14  C10 UNL     1       2.275  -3.094   0.239  1.00  0.00     0.003 A 
HETATM   15  C9  UNL     1       0.991  -3.235  -0.241  1.00  0.00     0.008 A 
HETATM   16  C8  UNL     1       0.379  -2.180  -0.857  1.00  0.00    -0.042 A 
HETATM   17  C20 UNL     1       1.084  -1.015  -0.970  1.00  0.00     0.037 A 
BRANCH  16  18
HETATM   18  C5  UNL     1      -0.997  -2.245  -1.393  1.00  0.00     0.023 C 
HETATM   19  C6  UNL     1      -1.119  -3.553  -2.169  1.00  0.00     0.027 C 
HETATM   20  C7  UNL     1      -1.225  -1.091  -2.376  1.00  0.00     0.027 C 
BRANCH  18  21
HETATM   21  C4  UNL     1      -2.023  -2.187  -0.323  1.00  0.00     0.039 A 
HETATM   22  C3  UNL     1      -2.249  -3.038   0.723  1.00  0.00     0.127 A 
HETATM   23  N1  UNL     1      -3.314  -2.604   1.485  1.00  0.00    -0.277 N 
HETATM   24  C2  UNL     1      -3.787  -3.276   2.631  1.00  0.00     0.225 C 
HETATM   25  C21 UNL     1      -3.749  -1.461   0.892  1.00  0.00     0.114 A 
HETATM   26  C1  UNL     1      -3.123  -4.543   3.087  1.00  0.00     0.118 C 
HETATM   27  O1  UNL     1      -4.736  -2.884   3.305  1.00  0.00    -0.273 OA
HETATM   28  N4  UNL     1      -2.955  -1.238  -0.188  1.00  0.00    -0.343 N 
ATOM     29  H4  UNL     1      -3.058  -0.443  -0.819  1.00  0.00     0.167 HD
BRANCH  25  30
HETATM   30  C22 UNL     1      -4.844  -0.625   1.327  1.00  0.00     0.051 C 
HETATM   31  C23 UNL     1      -5.351   0.454   0.830  1.00  0.00     0.039 C 
BRANCH  31  32
HETATM   32  C24 UNL     1      -5.074   1.281  -0.328  1.00  0.00     0.076 C 
BRANCH  32  33
HETATM   33  O3  UNL     1      -4.506   0.712  -1.426  1.00  0.00    -0.362 OA
ATOM     34  H3  UNL     1      -4.324   1.254  -2.185  1.00  0.00     0.217 HD
ENDBRANCH  32  33
BRANCH  32  35
HETATM   35  C25 UNL     1      -4.418   2.615  -0.021  1.00  0.00     0.099 C 
HETATM   36  C26 UNL     1      -2.929   2.483   0.178  1.00  0.00     0.053 C 
HETATM   37  C27 UNL     1      -4.989   3.288   1.187  1.00  0.00     0.053 C 
BRANCH  35  38
HETATM   38  O4  UNL     1      -4.581   3.491  -1.116  1.00  0.00    -0.384 OA
ATOM     39  H4  UNL     1      -4.170   4.326  -0.924  1.00  0.00     0.211 HD
ENDBRANCH  35  38
ENDBRANCH  32  35
ENDBRANCH  31  32
ENDBRANCH  25  30
ENDBRANCH  18  21
ENDBRANCH  16  18
ENDBRANCH   9  12
ENDBRANCH   6   8
ENDBRANCH   1   6
TORSDOF 10
