REMARK  9 active torsions:
REMARK  status: ('A' for Active; 'I' for Inactive)
REMARK    1  A    between atoms: O1_2  and  C2_3 
REMARK    2  A    between atoms: C3_5  and  C4_6 
REMARK    3  A    between atoms: C4_6  and  O3_7 
REMARK    4  A    between atoms: C5_9  and  S1_10 
REMARK    5  A    between atoms: S1_10  and  S2_11 
REMARK    6  A    between atoms: S2_11  and  C6_12 
REMARK    7  A    between atoms: C9_16  and  O5_17 
REMARK    8  A    between atoms: O5_17  and  C10_18 
REMARK    9  A    between atoms: C15_23  and  C16_24 
ROOT
HETATM    1  C2  UNL     1       1.552  -1.322   0.672  1.00  0.00     0.289 C 
HETATM    2  O2  UNL     1       2.913  -0.959   0.477  1.00  0.00    -0.350 OA
HETATM    3  C3  UNL     1       2.962  -0.019  -0.589  1.00  0.00     0.163 C 
HETATM    4  C5  UNL     1       2.599   1.295  -0.073  1.00  0.00     0.092 C 
HETATM    5  C8  UNL     1       1.729   1.025   1.181  1.00  0.00     0.056 C 
HETATM    6  C9  UNL     1       0.755  -0.059   0.779  1.00  0.00     0.185 C 
ENDROOT
BRANCH   6   7
HETATM    7  O5  UNL     1      -0.048   0.251  -0.323  1.00  0.00    -0.340 OA
BRANCH   7   8
HETATM    8  C10 UNL     1      -1.422   0.439  -0.312  1.00  0.00     0.083 A 
HETATM    9  C11 UNL     1      -1.947   1.694  -0.097  1.00  0.00    -0.021 A 
HETATM   10  C12 UNL     1      -1.121   2.922   0.099  1.00  0.00     0.052 C 
HETATM   11  C13 UNL     1      -3.341   1.825  -0.087  1.00  0.00    -0.036 A 
HETATM   12  C14 UNL     1      -3.920   3.160   0.144  1.00  0.00     0.050 C 
HETATM   13  C15 UNL     1      -4.185   0.754  -0.282  1.00  0.00     0.054 A 
HETATM   14  C17 UNL     1      -3.638  -0.489  -0.496  1.00  0.00    -0.032 A 
HETATM   15  C18 UNL     1      -2.273  -0.658  -0.514  1.00  0.00    -0.017 A 
HETATM   16  C22 UNL     1      -4.513  -1.659  -0.689  1.00  0.00     0.040 C 
HETATM   17  C19 UNL     1      -1.778  -2.025  -0.793  1.00  0.00     0.042 C 
HETATM   18  C20 UNL     1      -2.591  -2.749  -1.833  1.00  0.00     0.005 C 
HETATM   19  C21 UNL     1      -4.028  -2.383  -1.910  1.00  0.00     0.005 C 
BRANCH  13  20
HETATM   20  C16 UNL     1      -5.639   0.871  -0.269  1.00  0.00     0.210 C 
HETATM   21  O6  UNL     1      -6.229   0.725   0.823  1.00  0.00    -0.644 OA
HETATM   22  O7  UNL     1      -6.385   1.135  -1.397  1.00  0.00    -0.644 OA
ENDBRANCH  13  20
ENDBRANCH   7   8
ENDBRANCH   6   7
BRANCH   1  23
HETATM   23  O1  UNL     1       1.562  -2.044   1.882  1.00  0.00    -0.363 OA
HETATM   24  C1  UNL     1       1.187  -3.371   1.686  1.00  0.00     0.204 C 
ENDBRANCH   1  23
BRANCH   4  25
HETATM   25  S1  UNL     1       3.777   2.563   0.225  1.00  0.00    -0.082 SA
BRANCH  25  26
HETATM   26  S2  UNL     1       5.034   2.248   1.831  1.00  0.00    -0.020 SA
BRANCH  26  27
HETATM   27  C6  UNL     1       6.559   1.506   1.393  1.00  0.00     0.192 C 
HETATM   28  C7  UNL     1       7.452   1.067   2.551  1.00  0.00     0.105 C 
HETATM   29  O4  UNL     1       7.011   1.295   0.297  1.00  0.00    -0.285 OA
ENDBRANCH  26  27
ENDBRANCH  25  26
ENDBRANCH   4  25
BRANCH   3  30
HETATM   30  C4  UNL     1       4.159  -0.212  -1.429  1.00  0.00     0.197 C 
BRANCH  30  31
HETATM   31  O3  UNL     1       4.051  -1.514  -2.010  1.00  0.00    -0.398 OA
ATOM     32  H3  UNL     1       4.822  -1.638  -2.551  1.00  0.00     0.209 HD
ENDBRANCH  30  31
ENDBRANCH   3  30
TORSDOF 9
