REMARK  9 active torsions:
REMARK  status: ('A' for Active; 'I' for Inactive)
REMARK    1  A    between atoms: O1_2  and  C2_3 
REMARK    2  A    between atoms: C5_6  and  N1_7 
REMARK    3  A    between atoms: N1_7  and  C6_9 
REMARK    4  A    between atoms: C7_12  and  N3_13 
REMARK    5  A    between atoms: N3_13  and  C8_15 
REMARK    6  A    between atoms: C8_15  and  C9_16 
REMARK    7  A    between atoms: C11_18  and  O2_19 
REMARK    8  A    between atoms: C13_21  and  O3_22 
REMARK    9  A    between atoms: C15_24  and  O4_25 
ROOT
HETATM    1  C2  UNL     1       7.151   0.948  -0.388  1.00  0.00     0.089 A 
HETATM    2  C3  UNL     1       6.501   0.280  -1.420  1.00  0.00     0.040 A 
HETATM    3  C4  UNL     1       5.128   0.394  -1.494  1.00  0.00     0.033 A 
HETATM    4  C5  UNL     1       4.371   1.130  -0.604  1.00  0.00     0.050 A 
HETATM    5  C22 UNL     1       5.079   1.780   0.412  1.00  0.00     0.055 A 
HETATM    6  C23 UNL     1       6.435   1.693   0.521  1.00  0.00     0.080 A 
HETATM    7  C24 UNL     1       7.158   2.360   1.563  1.00  0.00     0.102 C 
HETATM    8  N5  UNL     1       7.762   2.896   2.417  1.00  0.00    -0.191 NA
ENDROOT
BRANCH   1   9
HETATM    9  O1  UNL     1       8.545   0.852  -0.287  1.00  0.00    -0.354 OA
HETATM   10  C1  UNL     1       9.288   0.090  -1.212  1.00  0.00     0.210 C 
ENDBRANCH   1   9
BRANCH   4  11
HETATM   11  N1  UNL     1       2.972   1.221  -0.712  1.00  0.00    -0.192 N 
ATOM     12  H1  UNL     1       2.573   2.013  -1.217  1.00  0.00     0.184 HD
BRANCH  11  13
HETATM   13  C6  UNL     1       2.156   0.334  -0.193  1.00  0.00     0.684 A 
HETATM   14  N2  UNL     1       0.826   0.485  -0.337  1.00  0.00    -0.175 N 
HETATM   15  C7  UNL     1       0.059  -0.465   0.220  1.00  0.00     0.136 A 
ATOM     16  H2  UNL     1       0.424   1.276  -0.840  1.00  0.00     0.186 HD
HETATM   17  C18 UNL     1       0.622  -1.552   0.910  1.00  0.00     0.076 A 
HETATM   18  S1  UNL     1       0.013  -2.921   1.730  1.00  0.00    -0.096 SA
HETATM   19  C21 UNL     1       1.973  -1.689   1.046  1.00  0.00     0.070 A 
HETATM   20  C19 UNL     1       1.483  -3.627   2.222  1.00  0.00     0.053 A 
HETATM   21  C20 UNL     1       2.419  -2.762   1.724  1.00  0.00     0.039 A 
HETATM   22  N4  UNL     1       2.712  -0.688   0.457  1.00  0.00    -0.190 N 
ATOM     23  H4  UNL     1       3.729  -0.730   0.521  1.00  0.00     0.184 HD
BRANCH  15  24
HETATM   24  N3  UNL     1      -1.228  -0.457   0.163  1.00  0.00    -0.370 N 
ATOM     25  H3  UNL     1      -1.760  -1.208   0.604  1.00  0.00     0.161 HD
BRANCH  24  26
HETATM   26  C8  UNL     1      -1.927   0.615  -0.525  1.00  0.00     0.160 C 
BRANCH  26  27
HETATM   27  C9  UNL     1      -3.393   0.502  -0.375  1.00  0.00    -0.035 A 
HETATM   28  C10 UNL     1      -4.015   1.013   0.741  1.00  0.00     0.048 A 
HETATM   29  C11 UNL     1      -5.405   0.917   0.897  1.00  0.00     0.104 A 
HETATM   30  C13 UNL     1      -6.122   0.295  -0.106  1.00  0.00     0.135 A 
HETATM   31  C15 UNL     1      -5.530  -0.226  -1.231  1.00  0.00     0.104 A 
HETATM   32  C17 UNL     1      -4.153  -0.111  -1.349  1.00  0.00     0.048 A 
BRANCH  29  33
HETATM   33  O2  UNL     1      -6.041   1.428   2.017  1.00  0.00    -0.353 OA
HETATM   34  C12 UNL     1      -5.236   2.054   3.007  1.00  0.00     0.210 C 
ENDBRANCH  29  33
BRANCH  30  35
HETATM   35  O3  UNL     1      -7.491   0.195   0.038  1.00  0.00    -0.351 OA
HETATM   36  C14 UNL     1      -8.003  -0.959   0.689  1.00  0.00     0.210 C 
ENDBRANCH  30  35
BRANCH  31  37
HETATM   37  O4  UNL     1      -6.313  -0.834  -2.191  1.00  0.00    -0.353 OA
HETATM   38  C16 UNL     1      -5.667  -1.357  -3.336  1.00  0.00     0.210 C 
ENDBRANCH  31  37
ENDBRANCH  26  27
ENDBRANCH  24  26
ENDBRANCH  15  24
ENDBRANCH  11  13
ENDBRANCH   4  11
TORSDOF 9
