REMARK  9 active torsions:
REMARK  status: ('A' for Active; 'I' for Inactive)
REMARK    1  A    between atoms: O1_2  and  C2_3 
REMARK    2  A    between atoms: C4_5  and  O2_6 
REMARK    3  A    between atoms: C6_8  and  O3_9 
REMARK    4  A    between atoms: C8_11  and  C9_12 
REMARK    5  A    between atoms: C11_14  and  O4_15 
REMARK    6  A    between atoms: C12_17  and  C13_18 
REMARK    7  A    between atoms: C13_18  and  O5_21 
REMARK    8  A    between atoms: C19_26  and  O6_27 
REMARK    9  A    between atoms: C21_29  and  O7_30 
ROOT
HETATM    1  C9  UNL     1       1.377  -0.816  -0.979  1.00  0.00    -0.032 C 
HETATM    2  C10 UNL     1       1.723  -2.210  -0.600  1.00  0.00     0.073 C 
HETATM    3  C11 UNL     1       0.563  -3.065  -0.159  1.00  0.00     0.133 C 
HETATM    4  C12 UNL     1      -0.723  -2.682  -0.851  1.00  0.00     0.082 C 
HETATM    5  C16 UNL     1      -1.030  -1.292  -0.541  1.00  0.00    -0.037 A 
HETATM    6  C17 UNL     1      -2.280  -0.800  -0.198  1.00  0.00     0.023 A 
HETATM    7  C18 UNL     1      -2.527   0.515   0.059  1.00  0.00     0.011 A 
HETATM    8  C19 UNL     1      -3.809   0.958   0.401  1.00  0.00     0.112 A 
HETATM    9  C21 UNL     1      -4.086   2.274   0.664  1.00  0.00     0.102 A 
HETATM   10  C23 UNL     1      -3.026   3.187   0.579  1.00  0.00     0.040 A 
HETATM   11  C24 UNL     1      -1.767   2.744   0.242  1.00  0.00     0.015 A 
HETATM   12  C25 UNL     1      -1.507   1.418  -0.019  1.00  0.00    -0.022 A 
HETATM   13  C26 UNL     1      -0.225   0.955  -0.364  1.00  0.00     0.025 A 
HETATM   14  C27 UNL     1       0.011  -0.369  -0.619  1.00  0.00    -0.021 A 
ENDROOT
BRANCH   1  15
HETATM   15  C8  UNL     1       2.416   0.194  -0.764  1.00  0.00     0.010 A 
HETATM   16  C6  UNL     1       2.734   0.766   0.450  1.00  0.00     0.112 A 
HETATM   17  C4  UNL     1       3.739   1.728   0.600  1.00  0.00     0.105 A 
HETATM   18  C3  UNL     1       4.435   2.117  -0.509  1.00  0.00     0.076 A 
HETATM   19  C2  UNL     1       4.176   1.593  -1.755  1.00  0.00     0.071 A 
HETATM   20  C28 UNL     1       3.186   0.658  -1.845  1.00  0.00     0.051 A 
BRANCH  16  21
HETATM   21  O3  UNL     1       2.078   0.435   1.616  1.00  0.00    -0.352 OA
HETATM   22  C7  UNL     1       2.473  -0.514   2.569  1.00  0.00     0.210 C 
ENDBRANCH  16  21
BRANCH  17  23
HETATM   23  O2  UNL     1       4.024   2.275   1.846  1.00  0.00    -0.353 OA
HETATM   24  C5  UNL     1       5.038   3.247   1.998  1.00  0.00     0.210 C 
ENDBRANCH  17  23
BRANCH  19  25
HETATM   25  O1  UNL     1       4.916   2.025  -2.850  1.00  0.00    -0.356 OA
HETATM   26  C1  UNL     1       5.923   2.997  -2.666  1.00  0.00     0.210 C 
ENDBRANCH  19  25
ENDBRANCH   1  15
BRANCH   3  27
HETATM   27  O4  UNL     1       0.368  -3.092   1.216  1.00  0.00    -0.394 OA
ATOM     28  H4  UNL     1      -0.363  -3.631   1.494  1.00  0.00     0.210 HD
ENDBRANCH   3  27
BRANCH   4  29
HETATM   29  C13 UNL     1      -1.769  -3.694  -0.557  1.00  0.00     0.061 C 
HETATM   30  C14 UNL     1      -2.128  -3.885   0.874  1.00  0.00     0.046 C 
HETATM   31  C15 UNL     1      -1.189  -5.049  -1.018  1.00  0.00     0.046 C 
BRANCH  29  32
HETATM   32  O5  UNL     1      -2.909  -3.560  -1.386  1.00  0.00    -0.390 OA
ATOM     33  H5  UNL     1      -3.578  -4.207  -1.198  1.00  0.00     0.210 HD
ENDBRANCH  29  32
ENDBRANCH   4  29
BRANCH   8  34
HETATM   34  O6  UNL     1      -4.857   0.050   0.484  1.00  0.00    -0.352 OA
HETATM   35  C20 UNL     1      -5.682  -0.281  -0.603  1.00  0.00     0.210 C 
ENDBRANCH   8  34
BRANCH   9  36
HETATM   36  O7  UNL     1      -5.357   2.721   1.005  1.00  0.00    -0.353 OA
HETATM   37  C22 UNL     1      -5.627   4.084   1.274  1.00  0.00     0.210 C 
ENDBRANCH   9  36
TORSDOF 9
