REMARK  1 active torsions:
REMARK  status: ('A' for Active; 'I' for Inactive)
REMARK    1  A    between atoms: C2_3  and  C3_4 
ROOT
HETATM    1  N1  UNL     1      -2.386  -1.232   1.747  1.00  0.00    -0.197 NA
HETATM    2  C1  UNL     1      -2.427  -0.778   0.688  1.00  0.00     0.060 C 
HETATM    3  C2  UNL     1      -2.489  -0.225  -0.660  1.00  0.00     0.139 C 
ENDROOT
BRANCH   3   4
HETATM    4  C3  UNL     1      -1.133   0.272  -1.105  1.00  0.00     0.069 C 
HETATM    5  C4  UNL     1      -0.698   1.341  -0.142  1.00  0.00     0.089 C 
HETATM    6  S1  UNL     1       1.030   1.806  -0.343  1.00  0.00    -0.168 SA
HETATM    7  C5  UNL     1       1.991   0.813   0.852  1.00  0.00     0.074 C 
HETATM    8  C6  UNL     1       2.353  -0.474   0.107  1.00  0.00     0.020 C 
HETATM    9  C7  UNL     1       1.112  -1.339   0.091  1.00  0.00     0.075 C 
HETATM   10  S2  UNL     1       0.063  -1.039  -1.331  1.00  0.00    -0.163 SA
ENDBRANCH   3   4
TORSDOF 1
