REMARK  3 active torsions:
REMARK  status: ('A' for Active; 'I' for Inactive)
REMARK    1  A    between atoms: C2_2  and  S1_3 
REMARK    2  A    between atoms: S1_3  and  C3_4 
REMARK    3  A    between atoms: C3_4  and  N1_6 
ROOT
HETATM    1  N1  UNL     1       0.859  -0.239  -0.331  1.00  0.00    -0.367 N 
HETATM    2  C4  UNL     1       1.575   1.010  -0.067  1.00  0.00     0.124 C 
HETATM    3  C5  UNL     1       3.024   0.599   0.046  1.00  0.00     0.021 C 
HETATM    4  C6  UNL     1       2.876  -0.795   0.619  1.00  0.00     0.021 C 
HETATM    5  C7  UNL     1       1.800  -1.348  -0.293  1.00  0.00     0.124 C 
ENDROOT
BRANCH   1   6
HETATM    6  C3  UNL     1      -0.539  -0.289  -0.579  1.00  0.00     0.136 C 
HETATM    7  S2  UNL     1      -1.218  -1.741  -0.859  1.00  0.00    -0.053 SA
BRANCH   6   8
HETATM    8  S1  UNL     1      -1.524   1.198  -0.582  1.00  0.00    -0.101 SA
BRANCH   8   9
HETATM    9  C2  UNL     1      -3.264   0.822  -0.898  1.00  0.00     0.077 C 
HETATM   10  C1  UNL     1      -3.906   0.036   0.215  1.00  0.00     0.016 C 
ENDBRANCH   8   9
ENDBRANCH   6   8
ENDBRANCH   1   6
TORSDOF 3
