REMARK  3 active torsions:
REMARK  status: ('A' for Active; 'I' for Inactive)
REMARK    1  A    between atoms: S1_3  and  C2_4 
REMARK    2  A    between atoms: C2_4  and  N2_5 
REMARK    3  A    between atoms: N2_5  and  C3_7 
ROOT
HETATM    1  N1  UNL     1       5.577   1.024   0.187  1.00  0.00    -0.183 NA
HETATM    2  C1  UNL     1       4.837   0.147   0.034  1.00  0.00     0.147 C 
HETATM    3  S1  UNL     1       3.711  -1.229  -0.219  1.00  0.00     0.051 SA
ENDROOT
BRANCH   3   4
HETATM    4  C2  UNL     1       2.275  -1.153   0.552  1.00  0.00     0.016 C 
BRANCH   4   5
HETATM    5  N2  UNL     1       1.168  -1.017   1.161  1.00  0.00    -0.345 N 
ATOM      6  H2  UNL     1       0.899  -1.643   1.920  1.00  0.00     0.170 HD
BRANCH   5   7
HETATM    7  C3  UNL     1       0.310   0.055   0.736  1.00  0.00     0.095 C 
HETATM    8  C4  UNL     1       0.135   0.029  -0.785  1.00  0.00     0.031 C 
HETATM    9  C5  UNL     1      -1.334  -0.226  -1.030  1.00  0.00    -0.012 C 
HETATM   10  C6  UNL     1      -2.126   1.012  -0.702  1.00  0.00     0.005 C 
HETATM   11  C9  UNL     1      -1.658  -1.077   0.212  1.00  0.00     0.011 C 
HETATM   12  C7  UNL     1      -1.833   1.184   0.786  1.00  0.00     0.007 C 
HETATM   13  C8  UNL     1      -1.099  -0.062   1.223  1.00  0.00     0.009 C 
ENDBRANCH   5   7
ENDBRANCH   4   5
ENDBRANCH   3   4
TORSDOF 3
