REMARK  0 active torsions:
REMARK  status: ('A' for Active; 'I' for Inactive)
ROOT
HETATM    1  N1  UNL     1      -0.347   1.627  -1.474  1.00  0.00    -0.386 N 
ATOM      2  H11 UNL     1       0.614   1.831  -1.747  1.00  0.00     0.157 HD
ATOM      3  H12 UNL     1      -0.935   2.325  -1.929  1.00  0.00     0.157 HD
HETATM    4  C1  UNL     1      -0.783   0.689  -0.713  1.00  0.00     0.126 A 
HETATM    5  N2  UNL     1      -2.124   0.405  -0.332  1.00  0.00    -0.296 N 
ATOM      6  H2  UNL     1      -2.942   0.954  -0.598  1.00  0.00     0.172 HD
HETATM    7  C2  UNL     1      -2.146  -0.757   0.473  1.00  0.00     0.323 A 
HETATM    8  O1  UNL     1      -3.206  -1.269   0.972  1.00  0.00    -0.247 OA
HETATM    9  N3  UNL     1      -0.814  -1.227   0.615  1.00  0.00    -0.312 N 
ATOM     10  H3  UNL     1      -0.529  -2.071   1.112  1.00  0.00     0.166 HD
HETATM   11  C3  UNL     1       0.062  -0.315  -0.059  1.00  0.00     0.244 A 
HETATM   12  C4  UNL     1       0.986  -0.981  -1.000  1.00  0.00     0.269 C 
HETATM   13  O2  UNL     1       0.706  -2.026  -1.636  1.00  0.00    -0.269 OA
HETATM   14  N4  UNL     1       2.177  -0.206  -1.005  1.00  0.00    -0.288 N 
ATOM     15  H4  UNL     1       2.902  -0.256  -1.721  1.00  0.00     0.172 HD
HETATM   16  C5  UNL     1       2.214   0.646   0.126  1.00  0.00     0.297 C 
HETATM   17  O3  UNL     1       3.147   1.456   0.398  1.00  0.00    -0.264 OA
HETATM   18  C6  UNL     1       0.989   0.383   0.863  1.00  0.00     0.262 C 
HETATM   19  O4  UNL     1       0.737   0.677   2.041  1.00  0.00    -0.283 OA
ENDROOT
TORSDOF 0
