REMARK  3 active torsions:
REMARK  status: ('A' for Active; 'I' for Inactive)
REMARK    1  A    between atoms: N1_1  and  N2_4 
REMARK    2  A    between atoms: N2_4  and  C1_6 
REMARK    3  A    between atoms: C1_6  and  N3_7 
ROOT
HETATM    1  C1  UNL     1       0.197   0.867  -0.160  1.00  0.00     0.138 C 
HETATM    2  C3  UNL     1      -1.047   0.187   0.095  1.00  0.00     0.093 A 
HETATM    3  C4  UNL     1      -1.441  -0.882  -0.684  1.00  0.00     0.113 A 
HETATM    4  N6  UNL     1      -2.598  -1.520  -0.451  1.00  0.00    -0.318 N 
ATOM      5  H6  UNL     1      -2.869  -2.308  -1.039  1.00  0.00     0.170 HD
HETATM    6  C5  UNL     1      -3.405  -1.126   0.555  1.00  0.00     0.327 A 
HETATM    7  O1  UNL     1      -4.493  -1.751   0.749  1.00  0.00    -0.247 OA
HETATM    8  N7  UNL     1      -3.028  -0.085   1.318  1.00  0.00    -0.275 N 
ATOM      9  H7  UNL     1      -3.641   0.210   2.078  1.00  0.00     0.173 HD
HETATM   10  C6  UNL     1      -1.876   0.584   1.121  1.00  0.00     0.264 A 
HETATM   11  O2  UNL     1      -1.563   1.568   1.875  1.00  0.00    -0.267 OA
ENDROOT
BRANCH   1  12
HETATM   12  N2  UNL     1       0.462   1.958   0.497  1.00  0.00    -0.291 N 
ATOM     13  H2  UNL     1      -0.223   2.296   1.173  1.00  0.00     0.188 HD
BRANCH  12  14
HETATM   14  N1  UNL     1       1.640   2.689   0.321  1.00  0.00    -0.344 N 
ATOM     15  H12 UNL     1       2.314   2.336  -0.359  1.00  0.00     0.176 HD
ATOM     16  H11 UNL     1       1.848   3.544   0.836  1.00  0.00     0.176 HD
ENDBRANCH  12  14
ENDBRANCH   1  12
BRANCH   1  17
HETATM   17  N3  UNL     1       1.170   0.435  -1.084  1.00  0.00    -0.317 N 
HETATM   18  C2  UNL     1       2.158  -0.325  -0.797  1.00  0.00     0.202 C 
HETATM   19  N4  UNL     1       3.103  -0.726  -1.767  1.00  0.00    -0.066 NA
HETATM   20  N5  UNL     1       2.303  -0.776   0.536  1.00  0.00    -0.066 NA
ATOM     21  H3  UNL     1       1.080   0.751  -2.050  1.00  0.00     0.169 HD
ENDBRANCH   1  17
TORSDOF 3
