REMARK  6 active torsions:
REMARK  status: ('A' for Active; 'I' for Inactive)
REMARK    1  A    between atoms: C7_8  and  N2_9 
REMARK    2  A    between atoms: N2_9  and  C8_11 
REMARK    3  A    between atoms: C18_25  and  C19_26 
REMARK    4  A    between atoms: C19_26  and  N4_27 
REMARK    5  A    between atoms: N4_27  and  C21_29 
REMARK    6  A    between atoms: C21_29  and  C22_30 
ROOT
HETATM    1  C1  UNL     1       3.417  -4.523   1.291  1.00  0.00     0.148 C 
HETATM    2  N1  UNL     1       2.289  -3.746   0.888  1.00  0.00    -0.391 N 
HETATM    3  C2  UNL     1       1.100  -4.437   0.666  1.00  0.00     0.099 C 
HETATM    4  C3  UNL     1      -0.042  -3.587   0.308  1.00  0.00     0.015 A 
HETATM    5  C4  UNL     1      -1.157  -4.427   0.151  1.00  0.00     0.016 A 
HETATM    6  C5  UNL     1      -2.358  -3.896  -0.183  1.00  0.00     0.003 A 
HETATM    7  C6  UNL     1      -2.460  -2.529  -0.363  1.00  0.00     0.032 A 
HETATM    8  C7  UNL     1      -1.388  -1.689  -0.215  1.00  0.00     0.063 A 
HETATM    9  C17 UNL     1      -0.128  -2.215   0.131  1.00  0.00     0.107 A 
HETATM   10  O1  UNL     1       0.787  -1.190   0.222  1.00  0.00    -0.336 OA
HETATM   11  C18 UNL     1       2.194  -1.334   0.533  1.00  0.00     0.185 C 
HETATM   12  C26 UNL     1       2.614  -2.650   0.013  1.00  0.00     0.159 C 
ENDROOT
BRANCH   8  13
HETATM   13  N2  UNL     1      -1.479  -0.282  -0.410  1.00  0.00    -0.383 N 
ATOM     14  H2  UNL     1      -0.646   0.302  -0.342  1.00  0.00     0.160 HD
BRANCH  13  15
HETATM   15  C8  UNL     1      -2.745   0.303  -0.701  1.00  0.00     0.082 C 
HETATM   16  C9  UNL     1      -2.624   1.796  -1.034  1.00  0.00     0.025 C 
HETATM   17  C10 UNL     1      -3.944   2.248  -1.551  1.00  0.00     0.009 C 
HETATM   18  C11 UNL     1      -5.151   1.793  -0.821  1.00  0.00     0.015 C 
HETATM   19  C12 UNL     1      -5.775   2.918  -0.010  1.00  0.00     0.237 C 
HETATM   20  C15 UNL     1      -5.048   0.542  -0.031  1.00  0.00    -0.005 C 
HETATM   21  N3  UNL     1      -7.152   2.580   0.227  1.00  0.00    -0.075 N 
HETATM   22  C13 UNL     1      -7.346   1.219   0.619  1.00  0.00     0.232 C 
ATOM     23  H32 UNL     1      -7.567   3.215   0.909  1.00  0.00     0.277 HD
ATOM     24  H31 UNL     1      -7.724   2.807  -0.586  1.00  0.00     0.277 HD
HETATM   25  C14 UNL     1      -6.032   0.649   1.141  1.00  0.00     0.032 C 
HETATM   26  C16 UNL     1      -3.675   0.301   0.522  1.00  0.00     0.030 C 
ENDBRANCH  13  15
ENDBRANCH   8  13
BRANCH  11  27
HETATM   27  C19 UNL     1       2.935  -0.152  -0.011  1.00  0.00     0.091 C 
BRANCH  27  28
HETATM   28  N4  UNL     1       4.288  -0.061   0.243  1.00  0.00    -0.393 N 
HETATM   29  C20 UNL     1       5.274  -0.866  -0.307  1.00  0.00     0.148 C 
BRANCH  28  30
HETATM   30  C21 UNL     1       4.743   1.102   0.959  1.00  0.00     0.153 C 
BRANCH  30  31
HETATM   31  C22 UNL     1       4.621   2.377   0.177  1.00  0.00     0.139 C 
HETATM   32  C23 UNL     1       5.585   2.433  -0.988  1.00  0.00     0.035 C 
HETATM   33  C24 UNL     1       5.662   3.942  -1.216  1.00  0.00     0.029 C 
HETATM   34  C25 UNL     1       5.435   4.460   0.177  1.00  0.00     0.168 C 
HETATM   35  O2  UNL     1       5.090   3.408   0.982  1.00  0.00    -0.384 OA
ENDBRANCH  30  31
ENDBRANCH  28  30
ENDBRANCH  27  28
ENDBRANCH  11  27
TORSDOF 6
