REMARK  8 active torsions:
REMARK  status: ('A' for Active; 'I' for Inactive)
REMARK    1  A    between atoms: C10_10  and  O1_11 
REMARK    2  A    between atoms: C11_13  and  O2_14 
REMARK    3  A    between atoms: O2_14  and  S1_15 
REMARK    4  A    between atoms: S1_15  and  C12_18 
REMARK    5  A    between atoms: C12_18  and  C13_19 
REMARK    6  A    between atoms: C13_19  and  C14_20 
REMARK    7  A    between atoms: C14_20  and  N1_21 
REMARK    8  A    between atoms: C19_26  and  O5_27 
ROOT
HETATM    1  C1  UNL     1      -5.047  -2.765   0.078  1.00  0.00     0.010 C 
HETATM    2  C2  UNL     1      -4.848  -1.799  -1.038  1.00  0.00    -0.014 C 
HETATM    3  C3  UNL     1      -6.217  -1.237  -1.405  1.00  0.00     0.005 C 
HETATM    4  C4  UNL     1      -6.458  -0.229  -0.338  1.00  0.00     0.005 C 
HETATM    5  C5  UNL     1      -5.100   0.073   0.322  1.00  0.00    -0.010 C 
HETATM    6  C6  UNL     1      -5.066   1.535   0.531  1.00  0.00     0.005 C 
HETATM    7  C7  UNL     1      -3.770   2.193   0.799  1.00  0.00     0.006 C 
HETATM    8  C8  UNL     1      -2.571   1.542   0.197  1.00  0.00    -0.001 C 
HETATM    9  C9  UNL     1      -1.381   2.506   0.260  1.00  0.00     0.039 C 
HETATM   10  C10 UNL     1      -0.418   1.966  -0.804  1.00  0.00     0.151 C 
HETATM   11  C11 UNL     1       0.074   0.618  -0.391  1.00  0.00     0.200 C 
HETATM   12  C19 UNL     1      -0.679   0.005   0.746  1.00  0.00     0.159 C 
HETATM   13  C20 UNL     1      -2.169   0.240   0.747  1.00  0.00    -0.011 C 
HETATM   14  C21 UNL     1      -2.648  -0.059   2.140  1.00  0.00     0.018 C 
HETATM   15  C22 UNL     1      -2.792  -0.838  -0.156  1.00  0.00     0.017 C 
HETATM   16  C23 UNL     1      -4.148  -0.507  -0.631  1.00  0.00    -0.006 C 
ENDROOT
BRANCH  11  17
HETATM   17  O2  UNL     1       0.231  -0.257  -1.459  1.00  0.00    -0.265 OA
BRANCH  17  18
HETATM   18  S1  UNL     1       1.768  -0.754  -1.759  1.00  0.00     0.265 S 
HETATM   19  O3  UNL     1       2.288  -0.184  -3.072  1.00  0.00    -0.199 OA
HETATM   20  O4  UNL     1       1.789  -2.263  -1.965  1.00  0.00    -0.199 OA
BRANCH  18  21
HETATM   21  C12 UNL     1       2.949  -0.393  -0.520  1.00  0.00     0.172 C 
BRANCH  21  22
HETATM   22  C13 UNL     1       4.295  -0.928  -0.964  1.00  0.00     0.047 C 
BRANCH  22  23
HETATM   23  C14 UNL     1       5.273  -0.584   0.160  1.00  0.00     0.273 C 
BRANCH  23  24
HETATM   24  N1  UNL     1       6.592  -1.047  -0.142  1.00  0.00     0.088 N 
HETATM   25  C15 UNL     1       7.174  -0.322  -1.226  1.00  0.00     0.272 C 
HETATM   26  C16 UNL     1       8.524   0.185  -0.723  1.00  0.00     0.032 C 
HETATM   27  C17 UNL     1       8.371   0.177   0.801  1.00  0.00     0.032 C 
HETATM   28  C18 UNL     1       7.473  -1.015   0.986  1.00  0.00     0.272 C 
ENDBRANCH  23  24
ENDBRANCH  22  23
ENDBRANCH  21  22
ENDBRANCH  18  21
ENDBRANCH  17  18
ENDBRANCH  11  17
BRANCH  10  29
HETATM   29  O1  UNL     1       0.576   2.859  -1.111  1.00  0.00    -0.393 OA
ATOM     30  H1  UNL     1       1.173   2.524  -1.770  1.00  0.00     0.210 HD
ENDBRANCH  10  29
BRANCH  12  31
HETATM   31  O5  UNL     1      -0.079   0.364   1.956  1.00  0.00    -0.392 OA
ATOM     32  H5  UNL     1      -0.557  -0.025   2.678  1.00  0.00     0.210 HD
ENDBRANCH  12  31
TORSDOF 8
