REMARK  7 active torsions:
REMARK  status: ('A' for Active; 'I' for Inactive)
REMARK    1  A    between atoms: O1_1  and  C1_3 
REMARK    2  A    between atoms: C1_3  and  C2_4 
REMARK    3  A    between atoms: C5_7  and  O2_8 
REMARK    4  A    between atoms: O2_8  and  C6_9 
REMARK    5  A    between atoms: C8_11  and  C9_12 
REMARK    6  A    between atoms: C12_15  and  C13_16 
REMARK    7  A    between atoms: N3_29  and  C21_31 
ROOT
HETATM    1  C6  UNL     1      -1.057   0.438  -0.030  1.00  0.00     0.114 A 
HETATM    2  C7  UNL     1       0.304   0.079   0.005  1.00  0.00     0.055 A 
HETATM    3  C8  UNL     1       1.298   0.892  -0.463  1.00  0.00     0.009 A 
HETATM    4  C19 UNL     1       0.917   2.104  -0.982  1.00  0.00     0.103 A 
HETATM    5  N2  UNL     1      -0.371   2.449  -1.017  1.00  0.00    -0.349 N 
ATOM      6  H2  UNL     1      -0.615   3.358  -1.410  1.00  0.00     0.167 HD
HETATM    7  C20 UNL     1      -1.366   1.668  -0.564  1.00  0.00     0.135 A 
HETATM    8  N3  UNL     1      -2.593   2.092  -0.635  1.00  0.00    -0.369 N 
ATOM      9  H3  UNL     1      -3.352   1.505  -0.289  1.00  0.00     0.161 HD
ENDROOT
BRANCH   3  10
HETATM   10  C9  UNL     1       2.693   0.486  -0.407  1.00  0.00     0.043 A 
HETATM   11  C10 UNL     1       3.715   1.258  -0.856  1.00  0.00     0.031 A 
HETATM   12  C11 UNL     1       5.038   0.813  -0.773  1.00  0.00     0.011 A 
HETATM   13  C12 UNL     1       5.301  -0.424  -0.229  1.00  0.00    -0.038 A 
HETATM   14  C18 UNL     1       4.261  -1.186   0.216  1.00  0.00     0.096 A 
HETATM   15  N1  UNL     1       3.006  -0.721   0.118  1.00  0.00    -0.365 N 
ATOM     16  H1  UNL     1       2.246  -1.310   0.458  1.00  0.00     0.165 HD
BRANCH  13  17
HETATM   17  C13 UNL     1       6.721  -0.862  -0.156  1.00  0.00     0.024 C 
HETATM   18  C14 UNL     1       6.979  -2.124  -0.945  1.00  0.00     0.036 C 
HETATM   19  C15 UNL     1       8.458  -2.408  -0.865  1.00  0.00     0.168 C 
HETATM   20  O3  UNL     1       9.031  -2.002   0.330  1.00  0.00    -0.391 OA
HETATM   21  C16 UNL     1       8.178  -2.096   1.405  1.00  0.00     0.168 C 
HETATM   22  C17 UNL     1       7.062  -1.091   1.304  1.00  0.00     0.036 C 
ENDBRANCH  13  17
ENDBRANCH   3  10
BRANCH   1  23
HETATM   23  O2  UNL     1      -1.966  -0.421   0.450  1.00  0.00    -0.342 OA
BRANCH  23  24
HETATM   24  C5  UNL     1      -3.290  -0.556   0.636  1.00  0.00     0.129 C 
HETATM   25  C4  UNL     1      -3.539  -0.752   2.141  1.00  0.00     0.033 C 
HETATM   26  C3  UNL     1      -5.010  -0.805   2.393  1.00  0.00     0.009 C 
HETATM   27  C2  UNL     1      -5.529  -2.062   1.727  1.00  0.00     0.009 C 
HETATM   28  C26 UNL     1      -5.345  -1.869   0.234  1.00  0.00     0.009 C 
HETATM   29  C25 UNL     1      -3.859  -1.816  -0.040  1.00  0.00     0.033 C 
BRANCH  27  30
HETATM   30  C1  UNL     1      -6.948  -2.281   2.122  1.00  0.00     0.168 C 
BRANCH  30  31
HETATM   31  O1  UNL     1      -7.761  -1.217   1.741  1.00  0.00    -0.400 OA
ATOM     32  H1  UNL     1      -8.666  -1.357   1.993  1.00  0.00     0.209 HD
ENDBRANCH  30  31
ENDBRANCH  27  30
ENDBRANCH  23  24
ENDBRANCH   1  23
BRANCH   8  33
HETATM   33  C21 UNL     1      -2.887   3.371  -1.193  1.00  0.00     0.083 C 
HETATM   34  C22 UNL     1      -3.140   3.298  -2.697  1.00  0.00     0.025 C 
HETATM   35  C23 UNL     1      -4.206   4.375  -2.461  1.00  0.00     0.004 C 
HETATM   36  C24 UNL     1      -4.362   3.756  -1.064  1.00  0.00     0.025 C 
ENDBRANCH   8  33
TORSDOF 7
