REMARK  7 active torsions:
REMARK  status: ('A' for Active; 'I' for Inactive)
REMARK    1  A    between atoms: C3_4  and  S1_5 
REMARK    2  A    between atoms: S1_5  and  O2_7 
REMARK    3  A    between atoms: O2_7  and  C4_8 
REMARK    4  A    between atoms: C4_8  and  C5_9 
REMARK    5  A    between atoms: C5_9  and  N2_10 
REMARK    6  A    between atoms: C9_14  and  C10_15 
REMARK    7  A    between atoms: C21_31  and  N5_32 
ROOT
HETATM    1  N2  UNL     1      -0.591  -1.919  -0.178  1.00  0.00     0.091 N 
HETATM    2  C6  UNL     1      -0.499  -2.405   1.147  1.00  0.00     0.272 C 
HETATM    3  C7  UNL     1      -0.128  -1.296   2.144  1.00  0.00     0.031 C 
HETATM    4  C8  UNL     1       0.883  -0.379   1.494  1.00  0.00     0.015 C 
HETATM    5  C9  UNL     1       1.609  -1.215   0.436  1.00  0.00     0.071 C 
HETATM    6  C19 UNL     1       0.667  -1.427  -0.704  1.00  0.00     0.283 C 
ENDROOT
BRANCH   1   7
HETATM    7  C5  UNL     1      -1.685  -1.052  -0.427  1.00  0.00     0.299 C 
BRANCH   7   8
HETATM    8  C4  UNL     1      -2.985  -1.801  -0.389  1.00  0.00     0.218 C 
BRANCH   8   9
HETATM    9  O2  UNL     1      -4.073  -0.954  -0.647  1.00  0.00    -0.290 OA
BRANCH   9  10
HETATM   10  S1  UNL     1      -5.513  -1.780  -0.603  1.00  0.00     0.192 S 
HETATM   11  O1  UNL     1      -5.507  -2.995   0.566  1.00  0.00    -0.223 OA
BRANCH  10  12
HETATM   12  C3  UNL     1      -6.876  -0.727  -0.435  1.00  0.00     0.091 A 
HETATM   13  C2  UNL     1      -6.764   0.393   0.360  1.00  0.00     0.133 A 
HETATM   14  N1  UNL     1      -7.816   1.218   0.497  1.00  0.00    -0.197 N 
HETATM   15  C1  UNL     1      -7.705   2.415   1.345  1.00  0.00     0.175 C 
HETATM   16  C21 UNL     1      -8.999   1.016  -0.106  1.00  0.00     0.677 A 
HETATM   17  N4  UNL     1      -9.127  -0.075  -0.887  1.00  0.00    -0.201 N 
HETATM   18  C20 UNL     1      -8.086  -0.935  -1.052  1.00  0.00     0.130 A 
ATOM     19  H4  UNL     1     -10.013  -0.258  -1.359  1.00  0.00     0.183 HD
BRANCH  16  20
HETATM   20  N5  UNL     1      -9.975   1.852   0.069  1.00  0.00    -0.234 N 
ATOM     21  H52 UNL     1      -9.878   2.678   0.660  1.00  0.00     0.174 HD
ATOM     22  H51 UNL     1     -10.873   1.699  -0.389  1.00  0.00     0.174 HD
ENDBRANCH  16  20
ENDBRANCH  10  12
ENDBRANCH   9  10
ENDBRANCH   8   9
ENDBRANCH   7   8
ENDBRANCH   1   7
BRANCH   5  23
HETATM   23  C10 UNL     1       2.857  -0.508   0.002  1.00  0.00     0.057 A 
HETATM   24  N3  UNL     1       4.103  -0.909   0.160  1.00  0.00    -0.356 N 
HETATM   25  C11 UNL     1       5.077  -0.173  -0.275  1.00  0.00     0.023 A 
ATOM     26  H3  UNL     1       4.300  -1.796   0.623  1.00  0.00     0.166 HD
HETATM   27  C12 UNL     1       4.755   1.010  -0.890  1.00  0.00     0.007 A 
HETATM   28  C18 UNL     1       6.443  -0.766  -0.019  1.00  0.00     0.058 C 
HETATM   29  S2  UNL     1       3.041   0.985  -0.800  1.00  0.00    -0.079 SA
HETATM   30  C13 UNL     1       5.455   2.166  -1.538  1.00  0.00     0.048 C 
HETATM   31  C14 UNL     1       6.541   2.746  -0.695  1.00  0.00     0.005 C 
HETATM   32  C15 UNL     1       7.902   2.207  -1.077  1.00  0.00     0.000 C 
HETATM   33  C16 UNL     1       8.132   0.971  -0.216  1.00  0.00     0.000 C 
HETATM   34  C17 UNL     1       7.487  -0.198  -0.919  1.00  0.00     0.006 C 
ENDBRANCH   5  23
TORSDOF 7
