REMARK  9 active torsions:
REMARK  status: ('A' for Active; 'I' for Inactive)
REMARK    1  A    between atoms: C2_2  and  O2_4 
REMARK    2  A    between atoms: O2_4  and  C3_5 
REMARK    3  A    between atoms: C3_5  and  C4_6 
REMARK    4  A    between atoms: C7_9  and  C8_10 
REMARK    5  A    between atoms: C12_14  and  C13_15 
REMARK    6  A    between atoms: C14_16  and  C15_17 
REMARK    7  A    between atoms: N1_24  and  C22_25 
REMARK    8  A    between atoms: C24_29  and  O4_30 
REMARK    9  A    between atoms: C25_32  and  O5_33 
ROOT
HETATM    1  C22 UNL     1      -4.268   2.513   1.426  1.00  0.00     0.247 C 
HETATM    2  C23 UNL     1      -4.599   2.402   2.863  1.00  0.00     0.079 C 
HETATM    3  N2  UNL     1      -4.850   2.294   3.993  1.00  0.00    -0.196 NA
ENDROOT
BRANCH   1   4
HETATM    4  N1  UNL     1      -4.732   1.422   0.635  1.00  0.00    -0.368 N 
HETATM    5  C15 UNL     1      -4.184   0.132   0.802  1.00  0.00     0.026 C 
HETATM    6  C16 UNL     1      -5.090  -0.870   0.937  1.00  0.00     0.003 C 
HETATM    7  C17 UNL     1      -6.523  -0.494   0.863  1.00  0.00     0.040 C 
HETATM    8  C18 UNL     1      -6.694   0.348  -0.385  1.00  0.00    -0.028 C 
HETATM    9  C19 UNL     1      -6.324  -0.531  -1.561  1.00  0.00     0.016 C 
HETATM   10  C20 UNL     1      -8.164   0.746  -0.417  1.00  0.00     0.016 C 
HETATM   11  C21 UNL     1      -5.794   1.548  -0.387  1.00  0.00     0.133 C 
BRANCH   5  12
HETATM   12  C14 UNL     1      -2.785  -0.151   0.862  1.00  0.00     0.027 C 
HETATM   13  C13 UNL     1      -1.730   0.565   0.751  1.00  0.00     0.007 C 
BRANCH  13  14
HETATM   14  C12 UNL     1      -0.379  -0.070   0.873  1.00  0.00     0.148 C 
HETATM   15  C10 UNL     1      -0.333  -1.507   0.509  1.00  0.00     0.017 C 
HETATM   16  C9  UNL     1       0.994  -1.593  -0.275  1.00  0.00     0.039 C 
HETATM   17  C11 UNL     1      -0.292  -2.429   1.698  1.00  0.00     0.013 C 
HETATM   18  C8  UNL     1       1.638  -0.300   0.173  1.00  0.00     0.133 C 
HETATM   19  O3  UNL     1       0.560   0.577   0.071  1.00  0.00    -0.376 OA
BRANCH  18  20
HETATM   20  C7  UNL     1       2.761   0.013  -0.793  1.00  0.00     0.068 C 
HETATM   21  C6  UNL     1       3.443   1.269  -0.473  1.00  0.00    -0.020 C 
HETATM   22  C5  UNL     1       4.702   1.468  -0.934  1.00  0.00    -0.021 C 
HETATM   23  C4  UNL     1       5.275   0.387  -1.722  1.00  0.00     0.064 C 
HETATM   24  C25 UNL     1       5.100  -0.886  -0.833  1.00  0.00     0.157 C 
HETATM   25  C24 UNL     1       3.652  -1.206  -0.828  1.00  0.00     0.157 C 
BRANCH  23  26
HETATM   26  C3  UNL     1       6.689   0.451  -2.152  1.00  0.00     0.190 C 
BRANCH  26  27
HETATM   27  O2  UNL     1       7.636   0.462  -1.206  1.00  0.00    -0.321 OA
BRANCH  27  28
HETATM   28  C2  UNL     1       8.136   1.167  -0.208  1.00  0.00     0.254 C 
HETATM   29  C1  UNL     1       9.299   0.625   0.581  1.00  0.00     0.126 C 
HETATM   30  O1  UNL     1       7.651   2.274   0.083  1.00  0.00    -0.266 OA
ENDBRANCH  27  28
ENDBRANCH  26  27
ENDBRANCH  23  26
BRANCH  24  31
HETATM   31  O5  UNL     1       5.563  -0.541   0.427  1.00  0.00    -0.392 OA
ATOM     32  H5  UNL     1       5.457  -1.315   0.968  1.00  0.00     0.210 HD
ENDBRANCH  24  31
BRANCH  25  33
HETATM   33  O4  UNL     1       3.383  -1.955  -1.996  1.00  0.00    -0.392 OA
ATOM     34  H4  UNL     1       3.943  -2.722  -2.018  1.00  0.00     0.210 HD
ENDBRANCH  25  33
ENDBRANCH  18  20
ENDBRANCH  13  14
ENDBRANCH   5  12
ENDBRANCH   1   4
TORSDOF 9
