REMARK  8 active torsions:
REMARK  status: ('A' for Active; 'I' for Inactive)
REMARK    1  A    between atoms: C2_2  and  C3_3 
REMARK       I    between atoms: N3_9  and  C5_11 
REMARK       I    between atoms: C5_11  and  N4_13 
REMARK    2  A    between atoms: N4_13  and  C6_15 
REMARK    3  A    between atoms: C10_19  and  S1_20 
REMARK    4  A    between atoms: S1_20  and  C11_21 
REMARK    5  A    between atoms: C11_21  and  N5_23 
REMARK    6  A    between atoms: N5_23  and  C12_24 
REMARK    7  A    between atoms: N5_23  and  C14_26 
REMARK    8  A    between atoms: C14_26  and  C15_27 
ROOT
HETATM    1  C15 UNL     1      -5.843  -0.631  -2.833  1.00  0.00     0.143 C 
HETATM    2  C16 UNL     1      -7.204  -0.230  -3.050  1.00  0.00     0.060 C 
HETATM    3  N6  UNL     1      -8.319   0.081  -3.262  1.00  0.00    -0.197 NA
ENDROOT
BRANCH   1   4
HETATM    4  C14 UNL     1      -5.508  -1.074  -1.471  1.00  0.00     0.138 C 
BRANCH   4   5
HETATM    5  N5  UNL     1      -5.608  -0.150  -0.385  1.00  0.00    -0.366 N 
BRANCH   5   6
HETATM    6  C11 UNL     1      -4.404   0.313   0.284  1.00  0.00     0.137 C 
HETATM    7  S2  UNL     1      -4.561   1.367   1.502  1.00  0.00    -0.053 SA
BRANCH   6   8
HETATM    8  S1  UNL     1      -2.814  -0.239  -0.209  1.00  0.00    -0.090 SA
BRANCH   8   9
HETATM    9  C10 UNL     1      -1.431   0.341   0.705  1.00  0.00     0.018 C 
HETATM   10  C9  UNL     1      -1.178   1.834   0.618  1.00  0.00     0.026 C 
HETATM   11  C8  UNL     1      -0.015   1.964   1.603  1.00  0.00    -0.006 C 
HETATM   12  C7  UNL     1       1.229   1.588   0.783  1.00  0.00     0.036 C 
HETATM   13  C18 UNL     1      -0.165   0.848   2.597  1.00  0.00    -0.006 C 
HETATM   14  C6  UNL     1       1.085   0.075   0.787  1.00  0.00     0.036 C 
HETATM   15  C19 UNL     1       0.929  -0.178   2.274  1.00  0.00     0.036 C 
HETATM   16  C20 UNL     1      -0.187  -0.310   0.121  1.00  0.00     0.052 C 
HETATM   17  C17 UNL     1      -1.470   0.137   2.199  1.00  0.00     0.026 C 
BRANCH  14  18
HETATM   18  N4  UNL     1       2.177  -0.616   0.198  1.00  0.00    -0.333 N 
HETATM   19  C5  UNL     1       3.529  -0.560   0.633  1.00  0.00     0.323 C 
HETATM   20  N3  UNL     1       4.560  -1.286  -0.013  1.00  0.00    -0.273 N 
HETATM   21  O1  UNL     1       3.888   0.143   1.624  1.00  0.00    -0.247 OA
HETATM   22  C4  UNL     1       5.597  -0.694  -0.469  1.00  0.00     0.248 A 
ATOM     23  H3  UNL     1       4.473  -2.297  -0.116  1.00  0.00     0.174 HD
HETATM   24  N2  UNL     1       5.891   0.610  -0.430  1.00  0.00    -0.263 N 
HETATM   25  O2  UNL     1       6.596  -1.300  -1.082  1.00  0.00    -0.264 OA
HETATM   26  N1  UNL     1       7.063   0.766  -1.021  1.00  0.00    -0.280 N 
ATOM     27  H2  UNL     1       5.317   1.347  -0.020  1.00  0.00     0.190 HD
HETATM   28  C3  UNL     1       7.504  -0.434  -1.430  1.00  0.00     0.141 A 
ATOM     29  H1  UNL     1       7.552   1.652  -1.146  1.00  0.00     0.189 HD
ATOM     30  H4  UNL     1       1.973  -1.205  -0.609  1.00  0.00     0.165 HD
BRANCH  28  31
HETATM   31  C2  UNL     1       8.795  -0.723  -2.148  1.00  0.00     0.081 C 
HETATM   32  C1  UNL     1       9.863  -1.011  -1.115  1.00  0.00     0.013 C 
ENDBRANCH  28  31
ENDBRANCH  14  18
ENDBRANCH   8   9
ENDBRANCH   6   8
ENDBRANCH   5   6
BRANCH   5  33
HETATM   33  C12 UNL     1      -6.856   0.366   0.101  1.00  0.00     0.120 C 
HETATM   34  C13 UNL     1      -7.709  -0.712   0.743  1.00  0.00     0.026 C 
ENDBRANCH   5  33
ENDBRANCH   4   5
ENDBRANCH   1   4
TORSDOF 8
