REMARK  10 active torsions:
REMARK  status: ('A' for Active; 'I' for Inactive)
REMARK    1  A    between atoms: C2_2  and  O2_4 
REMARK    2  A    between atoms: O2_4  and  C3_5 
REMARK    3  A    between atoms: C3_5  and  C4_6 
REMARK    4  A    between atoms: C4_6  and  C5_7 
REMARK    5  A    between atoms: C10_12  and  C22_30 
REMARK    6  A    between atoms: C11_13  and  O3_14 
REMARK    7  A    between atoms: O3_14  and  C12_15 
REMARK    8  A    between atoms: C12_15  and  C13_17 
REMARK    9  A    between atoms: C13_17  and  O5_18 
REMARK   10  A    between atoms: C21_27  and  O6_28 
ROOT
HETATM    1  C5  UNL     1       2.370  -0.590  -0.087  1.00  0.00    -0.077 C 
HETATM    2  C6  UNL     1       1.675  -0.993  -1.145  1.00  0.00     0.006 C 
HETATM    3  C7  UNL     1       0.498  -1.716  -0.662  1.00  0.00    -0.070 C 
HETATM    4  C8  UNL     1       0.340  -1.500   0.787  1.00  0.00     0.026 C 
HETATM    5  C9  UNL     1       1.688  -1.006   1.180  1.00  0.00     0.043 C 
HETATM    6  C10 UNL     1      -0.833  -0.612   1.215  1.00  0.00     0.030 C 
HETATM    7  C11 UNL     1      -0.868   0.668   0.503  1.00  0.00     0.138 C 
HETATM    8  C14 UNL     1      -1.168   0.707  -0.937  1.00  0.00     0.042 C 
HETATM    9  C15 UNL     1      -1.486  -0.490  -1.724  1.00  0.00    -0.034 C 
HETATM   10  C16 UNL     1      -1.238  -0.087  -3.208  1.00  0.00     0.016 C 
HETATM   11  C17 UNL     1      -3.015  -0.799  -1.812  1.00  0.00     0.015 C 
HETATM   12  C18 UNL     1      -3.420  -1.007  -0.450  1.00  0.00    -0.009 C 
HETATM   13  C19 UNL     1      -4.782  -1.325   0.034  1.00  0.00     0.007 C 
HETATM   14  C20 UNL     1      -4.550  -1.546   1.537  1.00  0.00     0.032 C 
HETATM   15  C21 UNL     1      -3.230  -1.031   2.087  1.00  0.00     0.123 C 
HETATM   16  C22 UNL     1      -2.006  -1.483   1.378  1.00  0.00     0.026 C 
HETATM   17  C23 UNL     1      -2.563  -2.107   0.126  1.00  0.00    -0.003 C 
HETATM   18  C24 UNL     1      -1.630  -2.729  -0.815  1.00  0.00     0.015 C 
HETATM   19  C25 UNL     1      -0.709  -1.711  -1.508  1.00  0.00     0.023 C 
ENDROOT
BRANCH   1  20
HETATM   20  C4  UNL     1       3.656   0.187  -0.093  1.00  0.00     0.061 C 
BRANCH  20  21
HETATM   21  C3  UNL     1       4.127   0.492  -1.469  1.00  0.00     0.183 C 
BRANCH  21  22
HETATM   22  O2  UNL     1       5.330   1.207  -1.441  1.00  0.00    -0.321 OA
BRANCH  22  23
HETATM   23  C2  UNL     1       5.577   2.434  -0.912  1.00  0.00     0.254 C 
HETATM   24  C1  UNL     1       6.942   3.077  -0.957  1.00  0.00     0.126 C 
HETATM   25  O1  UNL     1       4.631   3.054  -0.366  1.00  0.00    -0.266 OA
ENDBRANCH  22  23
ENDBRANCH  21  22
ENDBRANCH  20  21
ENDBRANCH   1  20
BRANCH   7  26
HETATM   26  O3  UNL     1       0.285   1.423   0.852  1.00  0.00    -0.314 OA
BRANCH  26  27
HETATM   27  C12 UNL     1       0.316   2.562   1.599  1.00  0.00     0.282 C 
HETATM   28  O4  UNL     1      -0.788   3.020   2.043  1.00  0.00    -0.263 OA
BRANCH  27  29
HETATM   29  C13 UNL     1       1.558   3.303   1.927  1.00  0.00     0.275 C 
BRANCH  29  30
HETATM   30  O5  UNL     1       1.281   4.419   2.704  1.00  0.00    -0.391 OA
ATOM     31  H5  UNL     1       2.077   4.894   2.914  1.00  0.00     0.210 HD
ENDBRANCH  29  30
ENDBRANCH  27  29
ENDBRANCH  26  27
ENDBRANCH   7  26
BRANCH  15  32
HETATM   32  O6  UNL     1      -3.307   0.295   2.462  1.00  0.00    -0.395 OA
ATOM     33  H6  UNL     1      -2.482   0.617   2.806  1.00  0.00     0.210 HD
ENDBRANCH  15  32
TORSDOF 10
