REMARK  7 active torsions:
REMARK  status: ('A' for Active; 'I' for Inactive)
REMARK    1  A    between atoms: C2_2  and  C3_3 
REMARK    2  A    between atoms: C2_2  and  C8_11 
REMARK    3  A    between atoms: C3_3  and  N1_4 
REMARK    4  A    between atoms: C11_14  and  N2_15 
REMARK       I    between atoms: N2_15  and  C12_17 
REMARK    5  A    between atoms: C12_17  and  C13_19 
REMARK    6  A    between atoms: C13_19  and  O4_21 
REMARK    7  A    between atoms: C13_19  and  C15_23 
ROOT
HETATM    1  C15 UNL     1       4.204  -1.156  -0.381  1.00  0.00     0.088 C 
HETATM    2  C16 UNL     1       4.425  -2.380  -1.151  1.00  0.00     0.072 C 
HETATM    3  N3  UNL     1       4.623  -3.358  -1.776  1.00  0.00    -0.196 NA
HETATM    4  C17 UNL     1       3.401  -0.216  -1.248  1.00  0.00     0.028 C 
HETATM    5  C18 UNL     1       4.239   0.555  -2.223  1.00  0.00     0.002 C 
HETATM    6  C19 UNL     1       4.190   2.046  -1.910  1.00  0.00     0.000 C 
HETATM    7  C20 UNL     1       5.538   2.568  -1.540  1.00  0.00     0.000 C 
HETATM    8  C21 UNL     1       6.345   1.628  -0.684  1.00  0.00     0.000 C 
HETATM    9  C22 UNL     1       5.494   0.887   0.324  1.00  0.00     0.002 C 
HETATM   10  C23 UNL     1       5.526  -0.591   0.022  1.00  0.00     0.028 C 
ENDROOT
BRANCH   1  11
HETATM   11  C13 UNL     1       3.353  -1.524   0.819  1.00  0.00     0.155 C 
HETATM   12  C14 UNL     1       4.051  -2.567   1.672  1.00  0.00     0.058 C 
BRANCH  11  13
HETATM   13  C12 UNL     1       2.049  -2.090   0.396  1.00  0.00     0.254 C 
HETATM   14  N2  UNL     1       0.806  -1.508   0.788  1.00  0.00    -0.354 N 
ATOM     15  H2  UNL     1       0.818  -0.676   1.378  1.00  0.00     0.162 HD
HETATM   16  O3  UNL     1       1.994  -3.114  -0.330  1.00  0.00    -0.270 OA
BRANCH  14  17
HETATM   17  C11 UNL     1      -0.461  -2.050   0.383  1.00  0.00     0.084 C 
HETATM   18  C10 UNL     1      -1.355  -2.285   1.575  1.00  0.00     0.025 C 
HETATM   19  C9  UNL     1      -2.729  -2.373   0.944  1.00  0.00     0.007 C 
HETATM   20  C8  UNL     1      -2.655  -1.638  -0.346  1.00  0.00    -0.008 C 
HETATM   21  C24 UNL     1      -1.274  -1.022  -0.412  1.00  0.00     0.030 C 
BRANCH  20  22
HETATM   22  C2  UNL     1      -3.738  -0.605  -0.522  1.00  0.00     0.001 C 
HETATM   23  C1  UNL     1      -3.583   0.088  -1.857  1.00  0.00     0.011 C 
BRANCH  22  24
HETATM   24  C3  UNL     1      -3.745   0.433   0.553  1.00  0.00     0.125 C 
BRANCH  24  25
HETATM   25  N1  UNL     1      -4.884   1.321   0.278  1.00  0.00    -0.195 NA
HETATM   26  C4  UNL     1      -4.983   2.356   1.250  1.00  0.00     0.146 C 
HETATM   27  C5  UNL     1      -6.237   2.388   2.038  1.00  0.00     0.184 C 
HETATM   28  O1  UNL     1      -7.393   2.210   1.324  1.00  0.00    -0.388 OA
HETATM   29  C6  UNL     1      -7.297   2.504  -0.013  1.00  0.00     0.195 C 
HETATM   30  C7  UNL     1      -6.855   1.226  -0.724  1.00  0.00     0.220 C 
HETATM   31  O2  UNL     1      -5.988   0.569   0.149  1.00  0.00    -0.301 OA
ENDBRANCH  24  25
ENDBRANCH  22  24
ENDBRANCH  20  22
ENDBRANCH  14  17
ENDBRANCH  11  13
BRANCH  11  32
HETATM   32  O4  UNL     1       3.164  -0.387   1.630  1.00  0.00    -0.379 OA
ATOM     33  H4  UNL     1       3.999  -0.024   1.901  1.00  0.00     0.211 HD
ENDBRANCH  11  32
ENDBRANCH   1  11
TORSDOF 7
