REMARK  3 active torsions:
REMARK  status: ('A' for Active; 'I' for Inactive)
REMARK    1  A    between atoms: C3_10  and  C4_11 
REMARK       I    between atoms: C4_11  and  N5_13 
REMARK    2  A    between atoms: N5_13  and  C5_15 
REMARK    3  A    between atoms: C6_18  and  N7_19 
ROOT
HETATM    1  C5  UNL     1       1.697  -0.532   0.774  1.00  0.00     0.148 A 
HETATM    2  N6  UNL     1       1.774   0.776   0.474  1.00  0.00    -0.173 N 
ATOM      3  H6  UNL     1       0.939   1.353   0.578  1.00  0.00     0.186 HD
HETATM    4  C6  UNL     1       2.910   1.354   0.042  1.00  0.00     0.700 A 
HETATM    5  N8  UNL     1       4.029   0.618  -0.106  1.00  0.00    -0.064 N 
HETATM    6  N9  UNL     1       5.244   0.920  -0.501  1.00  0.00    -0.228 N 
ATOM      7  H9  UNL     1       5.574   1.842  -0.788  1.00  0.00     0.193 HD
HETATM    8  C7  UNL     1       5.973  -0.206  -0.458  1.00  0.00     0.341 A 
HETATM    9  O2  UNL     1       7.200  -0.333  -0.765  1.00  0.00    -0.245 OA
HETATM   10  N10 UNL     1       5.222  -1.232  -0.035  1.00  0.00    -0.290 N 
ATOM     11  H10 UNL     1       5.508  -2.203   0.094  1.00  0.00     0.172 HD
HETATM   12  C8  UNL     1       3.996  -0.691   0.183  1.00  0.00     0.174 A 
HETATM   13  C9  UNL     1       2.824  -1.300   0.631  1.00  0.00     0.135 A 
HETATM   14  C10 UNL     1       2.804  -2.706   0.936  1.00  0.00     0.107 C 
HETATM   15  N11 UNL     1       2.775  -3.844   1.196  1.00  0.00    -0.191 NA
ENDROOT
BRANCH   1  16
HETATM   16  N5  UNL     1       0.588  -1.083   1.193  1.00  0.00    -0.305 N 
HETATM   17  C4  UNL     1      -0.602  -0.324   1.355  1.00  0.00     0.291 C 
HETATM   18  O1  UNL     1      -0.652   0.495   2.311  1.00  0.00    -0.264 OA
ATOM     19  H5  UNL     1       0.577  -2.080   1.408  1.00  0.00     0.170 HD
BRANCH  17  20
HETATM   20  C3  UNL     1      -1.701  -0.517   0.427  1.00  0.00     0.180 A 
HETATM   21  N4  UNL     1      -1.724  -1.366  -0.612  1.00  0.00    -0.320 N 
HETATM   22  C2  UNL     1      -2.894  -1.301  -1.274  1.00  0.00     0.169 A 
ATOM     23  H4  UNL     1      -0.953  -1.982  -0.868  1.00  0.00     0.169 HD
HETATM   24  N3  UNL     1      -3.632  -1.763  -2.298  1.00  0.00    -0.268 N 
HETATM   25  C12 UNL     1      -3.654  -0.357  -0.616  1.00  0.00     0.173 A 
HETATM   26  N2  UNL     1      -4.806  -1.159  -2.312  1.00  0.00    -0.238 N 
ATOM     27  H3  UNL     1      -3.330  -2.474  -2.964  1.00  0.00     0.190 HD
HETATM   28  N1  UNL     1      -4.811  -0.318  -1.301  1.00  0.00    -0.263 N 
ATOM     29  H2  UNL     1      -5.563  -1.315  -2.978  1.00  0.00     0.208 HD
HETATM   30  C1  UNL     1      -5.917   0.558  -0.945  1.00  0.00     0.181 C 
HETATM   31  N12 UNL     1      -2.906   0.098   0.405  1.00  0.00    -0.315 N 
HETATM   32  C11 UNL     1      -3.316   1.104   1.359  1.00  0.00     0.159 C 
ENDBRANCH  17  20
ENDBRANCH   1  16
BRANCH   4  33
HETATM   33  N7  UNL     1       2.909   2.611  -0.226  1.00  0.00    -0.233 N 
ATOM     34  H72 UNL     1       2.062   3.168  -0.114  1.00  0.00     0.174 HD
ATOM     35  H71 UNL     1       3.770   3.049  -0.553  1.00  0.00     0.174 HD
ENDBRANCH   4  33
TORSDOF 3
