REMARK  16 active torsions:
REMARK  status: ('A' for Active; 'I' for Inactive)
REMARK    1  A    between atoms: N1_1  and  C1_4 
REMARK    2  A    between atoms: N4_13  and  C5_14 
REMARK    3  A    between atoms: C5_14  and  O2_15 
REMARK    4  A    between atoms: O2_15  and  C6_16 
REMARK    5  A    between atoms: C6_16  and  C7_17 
REMARK    6  A    between atoms: C7_17  and  O3_18 
REMARK    7  A    between atoms: O3_18  and  C8_19 
REMARK    8  A    between atoms: C8_19  and  C9_20 
REMARK    9  A    between atoms: C9_20  and  S1_21 
REMARK   10  A    between atoms: S1_21  and  C10_22 
REMARK   11  A    between atoms: C10_22  and  C11_23 
REMARK   12  A    between atoms: C11_23  and  C12_24 
REMARK   13  A    between atoms: C12_24  and  C13_25 
REMARK   14  A    between atoms: C14_28  and  N6_29 
REMARK   15  A    between atoms: C19_38  and  N9_39 
REMARK   16  A    between atoms: C20_42  and  C21_43 
ROOT
HETATM    1  S1  UNL     1      -0.203  -0.751  -3.185  1.00  0.00    -0.167 SA
ENDROOT
BRANCH   1   2
HETATM    2  C9  UNL     1       0.802  -0.422  -1.706  1.00  0.00     0.100 C 
BRANCH   2   3
HETATM    3  C8  UNL     1       1.770  -1.591  -1.545  1.00  0.00     0.178 C 
BRANCH   3   4
HETATM    4  O3  UNL     1       2.582  -1.647  -0.536  1.00  0.00    -0.388 OA
BRANCH   4   5
HETATM    5  C7  UNL     1       3.584  -0.886  -0.192  1.00  0.00     0.193 C 
BRANCH   5   6
HETATM    6  C6  UNL     1       3.382   0.564   0.143  1.00  0.00     0.196 C 
BRANCH   6   7
HETATM    7  O2  UNL     1       4.574   1.167   0.527  1.00  0.00    -0.369 OA
BRANCH   7   8
HETATM    8  C5  UNL     1       5.513   1.118  -0.447  1.00  0.00     0.301 C 
BRANCH   8   9
HETATM    9  N4  UNL     1       6.727   1.843  -0.024  1.00  0.00    -0.305 N 
HETATM   10  C4  UNL     1       6.981   3.143  -0.239  1.00  0.00     0.187 A 
HETATM   11  N3  UNL     1       8.181   3.461   0.280  1.00  0.00    -0.345 N 
HETATM   12  C3  UNL     1       8.724   2.361   0.845  1.00  0.00     0.147 A 
ATOM     13  H3  UNL     1       8.612   4.385   0.251  1.00  0.00     0.167 HD
HETATM   14  C2  UNL     1       9.913   2.138   1.503  1.00  0.00     0.290 A 
HETATM   15  C22 UNL     1       7.782   1.352   0.637  1.00  0.00     0.158 A 
HETATM   16  N2  UNL     1      10.158   0.899   1.955  1.00  0.00    -0.154 N 
HETATM   17  O1  UNL     1      10.759   3.037   1.692  1.00  0.00    -0.265 OA
HETATM   18  C1  UNL     1       9.244  -0.093   1.757  1.00  0.00     0.680 A 
ATOM     19  H2  UNL     1      11.029   0.699   2.447  1.00  0.00     0.187 HD
HETATM   20  N10 UNL     1       8.084   0.125   1.115  1.00  0.00    -0.174 N 
ATOM     21  H10 UNL     1       7.425  -0.643   0.987  1.00  0.00     0.186 HD
BRANCH  18  22
HETATM   22  N1  UNL     1       9.515  -1.272   2.207  1.00  0.00    -0.234 N 
ATOM     23  H12 UNL     1      10.396  -1.437   2.694  1.00  0.00     0.174 HD
ATOM     24  H11 UNL     1       8.831  -2.014   2.059  1.00  0.00     0.174 HD
ENDBRANCH  18  22
ENDBRANCH   8   9
ENDBRANCH   7   8
ENDBRANCH   6   7
ENDBRANCH   5   6
ENDBRANCH   4   5
ENDBRANCH   3   4
ENDBRANCH   2   3
ENDBRANCH   1   2
BRANCH   1  25
HETATM   25  C10 UNL     1      -1.286  -2.135  -3.015  1.00  0.00     0.074 C 
BRANCH  25  26
HETATM   26  C11 UNL     1      -2.536  -1.905  -2.238  1.00  0.00     0.016 C 
BRANCH  26  27
HETATM   27  C12 UNL     1      -2.286  -1.413  -0.867  1.00  0.00     0.059 C 
BRANCH  27  28
HETATM   28  C13 UNL     1      -3.546  -1.300  -0.056  1.00  0.00     0.047 A 
HETATM   29  N5  UNL     1      -4.245  -0.141   0.022  1.00  0.00    -0.194 N 
HETATM   30  C14 UNL     1      -5.383  -0.039   0.711  1.00  0.00     0.682 A 
ATOM     31  H5  UNL     1      -3.888   0.682  -0.463  1.00  0.00     0.184 HD
HETATM   32  N8  UNL     1      -5.853  -1.120   1.348  1.00  0.00    -0.176 N 
HETATM   33  C19 UNL     1      -5.240  -2.301   1.333  1.00  0.00     0.133 A 
ATOM     34  H8  UNL     1      -6.725  -1.033   1.871  1.00  0.00     0.186 HD
HETATM   35  C20 UNL     1      -4.039  -2.387   0.599  1.00  0.00     0.107 A 
BRANCH  30  36
HETATM   36  N6  UNL     1      -6.123   1.167   0.796  1.00  0.00    -0.214 N 
HETATM   37  C15 UNL     1      -5.599   2.349   0.103  1.00  0.00     0.160 C 
HETATM   38  C16 UNL     1      -6.741   2.822  -0.797  1.00  0.00     0.134 C 
HETATM   39  N7  UNL     1      -7.844   3.219   0.026  1.00  0.00    -0.418 N 
HETATM   40  C17 UNL     1      -7.769   2.779   1.388  1.00  0.00     0.134 C 
ATOM     41  H7  UNL     1      -8.623   3.773  -0.330  1.00  0.00     0.153 HD
HETATM   42  C18 UNL     1      -7.351   1.312   1.509  1.00  0.00     0.160 C 
ENDBRANCH  30  36
BRANCH  33  43
HETATM   43  N9  UNL     1      -5.711  -3.318   1.950  1.00  0.00    -0.384 N 
ATOM     44  H92 UNL     1      -6.580  -3.256   2.481  1.00  0.00     0.157 HD
ATOM     45  H91 UNL     1      -5.241  -4.223   1.939  1.00  0.00     0.157 HD
ENDBRANCH  33  43
BRANCH  35  46
HETATM   46  C21 UNL     1      -3.400  -3.676   0.631  1.00  0.00     0.215 C 
HETATM   47  O4  UNL     1      -3.665  -4.551  -0.215  1.00  0.00    -0.644 OA
HETATM   48  O5  UNL     1      -2.459  -3.962   1.629  1.00  0.00    -0.644 OA
ENDBRANCH  35  46
ENDBRANCH  27  28
ENDBRANCH  26  27
ENDBRANCH  25  26
ENDBRANCH   1  25
TORSDOF 16
