REMARK  17 active torsions:
REMARK  status: ('A' for Active; 'I' for Inactive)
REMARK    1  A    between atoms: N1_1  and  C1_4 
REMARK    2  A    between atoms: N4_12  and  C5_13 
REMARK    3  A    between atoms: C5_13  and  C6_14 
REMARK    4  A    between atoms: C6_14  and  S1_15 
REMARK    5  A    between atoms: S1_15  and  C7_18 
REMARK    6  A    between atoms: C7_18  and  C8_19 
REMARK    7  A    between atoms: C8_19  and  C9_20 
REMARK    8  A    between atoms: C9_20  and  C10_21 
REMARK    9  A    between atoms: C10_21  and  C11_22 
REMARK   10  A    between atoms: C11_22  and  N5_23 
REMARK   11  A    between atoms: C13_25  and  C14_26 
REMARK   12  A    between atoms: C14_26  and  C15_27 
REMARK   13  A    between atoms: C15_27  and  N6_28 
REMARK       I    between atoms: N6_28  and  C16_30 
REMARK   14  A    between atoms: C16_30  and  C17_32 
REMARK   15  A    between atoms: C17_32  and  N7_33 
REMARK   16  A    between atoms: C17_32  and  C18_37 
REMARK   17  A    between atoms: C18_37  and  N8_38 
ROOT
HETATM    1  C11 UNL     1       1.155  -1.800  -1.771  1.00  0.00     0.133 C 
ENDROOT
BRANCH   1   2
HETATM    2  C10 UNL     1      -0.103  -1.432  -1.053  1.00  0.00     0.020 C 
BRANCH   2   3
HETATM    3  C9  UNL     1      -0.848  -0.271  -1.616  1.00  0.00     0.002 C 
BRANCH   3   4
HETATM    4  C8  UNL     1      -2.102   0.058  -0.854  1.00  0.00     0.015 C 
BRANCH   4   5
HETATM    5  C7  UNL     1      -3.031  -1.123  -0.877  1.00  0.00     0.140 C 
BRANCH   5   6
HETATM    6  S1  UNL     1      -4.555  -0.715   0.022  1.00  0.00     0.146 S 
HETATM    7  O1  UNL     1      -5.097   0.483  -0.700  1.00  0.00    -0.228 OA
HETATM    8  O2  UNL     1      -4.116  -0.301   1.382  1.00  0.00    -0.228 OA
BRANCH   6   9
HETATM    9  C6  UNL     1      -5.575  -2.121  -0.042  1.00  0.00     0.160 C 
BRANCH   9  10
HETATM   10  C5  UNL     1      -6.885  -2.069   0.634  1.00  0.00     0.146 C 
BRANCH  10  11
HETATM   11  N4  UNL     1      -7.818  -1.081   0.227  1.00  0.00    -0.326 N 
HETATM   12  C2  UNL     1      -8.017   0.134   0.767  1.00  0.00     0.154 A 
HETATM   13  N2  UNL     1      -7.450   0.768   1.834  1.00  0.00    -0.174 N 
HETATM   14  C3  UNL     1      -8.996   0.824   0.084  1.00  0.00     0.120 A 
HETATM   15  C1  UNL     1      -7.845   1.998   2.175  1.00  0.00     0.678 A 
ATOM     16  H2  UNL     1      -6.721   0.301   2.374  1.00  0.00     0.186 HD
HETATM   17  N11 UNL     1      -8.814   2.663   1.487  1.00  0.00    -0.177 N 
HETATM   18  C21 UNL     1      -9.414   2.092   0.423  1.00  0.00     0.162 A 
ATOM     19  H11 UNL     1      -9.088   3.601   1.779  1.00  0.00     0.185 HD
HETATM   20  N10 UNL     1     -10.415   2.805  -0.271  1.00  0.00    -0.080 NA
HETATM   21  N3  UNL     1      -9.383  -0.018  -0.889  1.00  0.00    -0.346 N 
HETATM   22  C4  UNL     1      -8.688  -1.158  -0.815  1.00  0.00     0.185 A 
ATOM     23  H3  UNL     1     -10.103   0.183  -1.583  1.00  0.00     0.167 HD
BRANCH  15  24
HETATM   24  N1  UNL     1      -7.304   2.588   3.182  1.00  0.00    -0.234 N 
ATOM     25  H12 UNL     1      -6.578   2.090   3.697  1.00  0.00     0.174 HD
ATOM     26  H11 UNL     1      -7.606   3.527   3.442  1.00  0.00     0.174 HD
ENDBRANCH  15  24
ENDBRANCH  10  11
ENDBRANCH   9  10
ENDBRANCH   6   9
ENDBRANCH   5   6
ENDBRANCH   4   5
ENDBRANCH   3   4
ENDBRANCH   2   3
ENDBRANCH   1   2
BRANCH   1  27
HETATM   27  N5  UNL     1       2.156  -0.779  -1.834  1.00  0.00    -0.309 N 
HETATM   28  C12 UNL     1       3.054  -0.640  -0.836  1.00  0.00     0.106 A 
HETATM   29  C13 UNL     1       4.038   0.353  -0.861  1.00  0.00    -0.003 A 
HETATM   30  C19 UNL     1       4.085   1.212  -1.937  1.00  0.00     0.112 A 
HETATM   31  S2  UNL     1       5.217   2.411  -2.032  1.00  0.00    -0.060 SA
HETATM   32  N9  UNL     1       3.174   1.051  -2.924  1.00  0.00    -0.299 N 
HETATM   33  C20 UNL     1       2.225   0.070  -2.871  1.00  0.00     0.327 A 
ATOM     34  H9  UNL     1       3.196   1.678  -3.728  1.00  0.00     0.171 HD
HETATM   35  O4  UNL     1       1.444   0.033  -3.856  1.00  0.00    -0.246 OA
BRANCH  29  36
HETATM   36  C14 UNL     1       5.007   0.466   0.254  1.00  0.00     0.063 C 
BRANCH  36  37
HETATM   37  C15 UNL     1       6.355  -0.094  -0.131  1.00  0.00     0.127 C 
BRANCH  37  38
HETATM   38  N6  UNL     1       7.255   0.037   0.987  1.00  0.00    -0.359 N 
HETATM   39  C16 UNL     1       8.587  -0.426   0.853  1.00  0.00     0.249 C 
HETATM   40  O3  UNL     1       8.974  -0.954  -0.248  1.00  0.00    -0.271 OA
ATOM     41  H6  UNL     1       6.938   0.456   1.861  1.00  0.00     0.162 HD
BRANCH  39  42
HETATM   42  C17 UNL     1       9.583  -0.327   1.958  1.00  0.00     0.299 C 
BRANCH  42  43
HETATM   43  N7  UNL     1      10.790  -1.053   1.582  1.00  0.00    -0.065 N 
ATOM     44  H73 UNL     1      10.595  -2.020   1.322  1.00  0.00     0.275 HD
ATOM     45  H72 UNL     1      11.169  -0.737   0.689  1.00  0.00     0.275 HD
ATOM     46  H71 UNL     1      11.471  -0.985   2.338  1.00  0.00     0.275 HD
ENDBRANCH  42  43
BRANCH  42  47
HETATM   47  C18 UNL     1      10.036   1.127   2.135  1.00  0.00     0.272 C 
BRANCH  47  48
HETATM   48  N8  UNL     1       8.964   2.020   2.458  1.00  0.00    -0.077 N 
ATOM     49  H83 UNL     1       8.218   1.955   1.766  1.00  0.00     0.274 HD
ATOM     50  H82 UNL     1       8.458   1.695   3.282  1.00  0.00     0.274 HD
ATOM     51  H81 UNL     1       9.265   2.987   2.576  1.00  0.00     0.274 HD
ENDBRANCH  47  48
ENDBRANCH  42  47
ENDBRANCH  39  42
ENDBRANCH  37  38
ENDBRANCH  36  37
ENDBRANCH  29  36
ENDBRANCH   1  27
TORSDOF 17
