REMARK  6 active torsions:
REMARK  status: ('A' for Active; 'I' for Inactive)
REMARK    1  A    between atoms: C2_2  and  C3_3 
REMARK    2  A    between atoms: C3_3  and  N1_5 
REMARK    3  A    between atoms: N1_5  and  C5_8 
REMARK    4  A    between atoms: C5_8  and  C6_9 
REMARK    5  A    between atoms: C6_9  and  N2_10 
REMARK    6  A    between atoms: N5_16  and  C8_18 
ROOT
HETATM    1  N2  UNL     1       0.336  -0.529   0.808  1.00  0.00    -0.238 N 
HETATM    2  N3  UNL     1       0.692  -0.824  -0.443  1.00  0.00    -0.236 N 
ATOM      3  H3  UNL     1       0.083  -1.263  -1.134  1.00  0.00     0.208 HD
HETATM    4  N4  UNL     1       1.940  -0.469  -0.660  1.00  0.00    -0.266 N 
ATOM      5  H4  UNL     1       2.437  -0.593  -1.542  1.00  0.00     0.190 HD
HETATM    6  C7  UNL     1       2.464   0.078   0.443  1.00  0.00     0.188 A 
HETATM    7  N5  UNL     1       3.653   0.543   0.632  1.00  0.00    -0.367 N 
ATOM      8  H5  UNL     1       3.874   0.927   1.551  1.00  0.00     0.161 HD
HETATM    9  C11 UNL     1       1.423   0.030   1.366  1.00  0.00     0.308 A 
HETATM   10  O1  UNL     1       1.467   0.433   2.530  1.00  0.00    -0.262 OA
ENDROOT
BRANCH   1  11
HETATM   11  C6  UNL     1      -0.952  -0.801   1.327  1.00  0.00     0.181 C 
BRANCH  11  12
HETATM   12  C5  UNL     1      -2.016   0.200   1.216  1.00  0.00     0.254 C 
BRANCH  12  13
HETATM   13  N1  UNL     1      -2.366   0.580  -0.142  1.00  0.00    -0.070 N 
ATOM     14  H12 UNL     1      -1.549   0.933  -0.640  1.00  0.00     0.277 HD
ATOM     15  H11 UNL     1      -2.943   1.421  -0.144  1.00  0.00     0.277 HD
BRANCH  13  16
HETATM   16  C3  UNL     1      -3.002  -0.478  -0.889  1.00  0.00     0.181 C 
HETATM   17  C4  UNL     1      -3.245   0.037  -2.283  1.00  0.00     0.040 C 
BRANCH  16  18
HETATM   18  C2  UNL     1      -4.315  -0.928  -0.305  1.00  0.00     0.028 C 
HETATM   19  C1  UNL     1      -5.347   0.152  -0.209  1.00  0.00     0.007 C 
ENDBRANCH  16  18
ENDBRANCH  13  16
ENDBRANCH  12  13
ENDBRANCH  11  12
ENDBRANCH   1  11
BRANCH   7  20
HETATM   20  C8  UNL     1       4.680   0.556  -0.361  1.00  0.00     0.075 C 
HETATM   21  C9  UNL     1       5.842  -0.351  -0.022  1.00  0.00     0.031 C 
HETATM   22  C10 UNL     1       5.256   1.943  -0.588  1.00  0.00     0.031 C 
ENDBRANCH   7  20
TORSDOF 6
