REMARK  8 active torsions:
REMARK  status: ('A' for Active; 'I' for Inactive)
REMARK    1  A    between atoms: C2_2  and  C3_3 
REMARK    2  A    between atoms: C3_3  and  C4_4 
REMARK    3  A    between atoms: C4_4  and  N1_5 
REMARK    4  A    between atoms: N1_5  and  C5_7 
REMARK    5  A    between atoms: C6_10  and  N3_11 
REMARK    6  A    between atoms: N3_11  and  C7_13 
REMARK    7  A    between atoms: C9_17  and  N5_18 
REMARK    8  A    between atoms: N5_18  and  C10_20 
ROOT
HETATM    1  C10 UNL     1      -2.830   3.162   1.760  1.00  0.00     0.262 C 
HETATM    2  C11 UNL     1      -3.305   2.582   3.017  1.00  0.00     0.079 C 
HETATM    3  N6  UNL     1      -3.671   2.136   4.018  1.00  0.00    -0.196 NA
ENDROOT
BRANCH   1   4
HETATM    4  N5  UNL     1      -1.540   2.683   1.386  1.00  0.00    -0.213 N 
ATOM      5  H5  UNL     1      -0.732   3.156   1.792  1.00  0.00     0.178 HD
BRANCH   4   6
HETATM    6  C9  UNL     1      -1.306   1.707   0.582  1.00  0.00     0.708 A 
HETATM    7  N4  UNL     1      -2.268   0.991  -0.026  1.00  0.00    -0.021 N 
HETATM    8  C6  UNL     1      -2.003  -0.027  -0.865  1.00  0.00     0.707 A 
ATOM      9  H4  UNL     1      -3.243   1.230   0.157  1.00  0.00     0.203 HD
HETATM   10  N2  UNL     1      -0.708  -0.317  -1.082  1.00  0.00    -0.022 N 
HETATM   11  C5  UNL     1       0.313   0.374  -0.494  1.00  0.00     0.707 A 
ATOM     12  H2  UNL     1      -0.478  -1.085  -1.712  1.00  0.00     0.203 HD
HETATM   13  N7  UNL     1      -0.022   1.387   0.339  1.00  0.00    -0.021 N 
ATOM     14  H7  UNL     1       0.718   1.921   0.794  1.00  0.00     0.203 HD
BRANCH   8  15
HETATM   15  N3  UNL     1      -2.965  -0.692  -1.431  1.00  0.00    -0.225 N 
ATOM     16  H3  UNL     1      -3.921  -0.411  -1.215  1.00  0.00     0.177 HD
BRANCH  15  17
HETATM   17  C7  UNL     1      -2.788  -1.781  -2.329  1.00  0.00     0.133 C 
HETATM   18  C8  UNL     1      -2.643  -3.055  -1.488  1.00  0.00     0.027 C 
ENDBRANCH  15  17
ENDBRANCH   8  15
BRANCH  11  19
HETATM   19  N1  UNL     1       1.540   0.061  -0.732  1.00  0.00    -0.225 N 
ATOM     20  H1  UNL     1       1.781  -0.705  -1.361  1.00  0.00     0.177 HD
BRANCH  19  21
HETATM   21  C4  UNL     1       2.563   0.842  -0.069  1.00  0.00     0.138 C 
BRANCH  21  22
HETATM   22  C3  UNL     1       3.900   0.247  -0.456  1.00  0.00     0.020 C 
BRANCH  22  23
HETATM   23  C2  UNL     1       3.907  -1.191   0.012  1.00  0.00    -0.003 C 
HETATM   24  C1  UNL     1       3.726  -1.292   1.503  1.00  0.00     0.005 C 
ENDBRANCH  22  23
ENDBRANCH  21  22
ENDBRANCH  19  21
ENDBRANCH  11  19
ENDBRANCH   4   6
ENDBRANCH   1   4
TORSDOF 8
