REMARK  5 active torsions:
REMARK  status: ('A' for Active; 'I' for Inactive)
REMARK       I    between atoms: C1_4  and  N3_6 
REMARK    1  A    between atoms: C2_8  and  C3_9 
REMARK    2  A    between atoms: C4_12  and  C5_13 
REMARK    3  A    between atoms: C5_13  and  C6_14 
REMARK    4  A    between atoms: C6_14  and  C7_15 
REMARK    5  A    between atoms: C7_15  and  N5_16 
ROOT
HETATM    1  C3  UNL     1       2.746   0.761   0.481  1.00  0.00     0.137 A 
HETATM    2  N4  UNL     1       2.025  -0.364   0.755  1.00  0.00    -0.329 N 
ATOM      3  H4  UNL     1       2.337  -1.316   0.562  1.00  0.00     0.168 HD
HETATM    4  C4  UNL     1       0.849  -0.044   1.314  1.00  0.00     0.097 A 
HETATM    5  N6  UNL     1       0.842   1.299   1.386  1.00  0.00    -0.287 N 
ATOM      6  H6  UNL     1       0.082   1.863   1.765  1.00  0.00     0.188 HD
HETATM    7  N7  UNL     1       1.967   1.775   0.892  1.00  0.00    -0.283 N 
ATOM      8  H7  UNL     1       2.210   2.764   0.831  1.00  0.00     0.188 HD
ENDROOT
BRANCH   1   9
HETATM    9  C2  UNL     1       4.068   0.828  -0.125  1.00  0.00     0.140 C 
HETATM   10  N3  UNL     1       4.700  -0.235  -0.471  1.00  0.00    -0.337 N 
HETATM   11  C1  UNL     1       5.974  -0.223  -1.057  1.00  0.00     0.185 C 
ATOM     12  H3  UNL     1       4.251  -1.137  -0.311  1.00  0.00     0.168 HD
HETATM   13  N1  UNL     1       6.557  -1.319  -1.381  1.00  0.00    -0.374 N 
HETATM   14  N2  UNL     1       6.643   1.003  -1.304  1.00  0.00    -0.064 NA
ATOM     15  H12 UNL     1       7.484  -1.310  -1.807  1.00  0.00     0.158 HD
ATOM     16  H11 UNL     1       6.076  -2.201  -1.203  1.00  0.00     0.158 HD
ENDBRANCH   1   9
BRANCH   4  17
HETATM   17  C5  UNL     1      -0.186  -1.026   1.741  1.00  0.00     0.080 C 
BRANCH  17  18
HETATM   18  C6  UNL     1      -1.157  -1.328   0.629  1.00  0.00     0.038 C 
BRANCH  18  19
HETATM   19  C7  UNL     1      -1.893  -0.113   0.153  1.00  0.00     0.272 C 
BRANCH  19  20
HETATM   20  N5  UNL     1      -2.801  -0.498  -0.910  1.00  0.00     0.088 N 
HETATM   21  C8  UNL     1      -3.887  -1.334  -0.427  1.00  0.00     0.272 C 
HETATM   22  C9  UNL     1      -4.539  -0.444   0.586  1.00  0.00     0.032 C 
HETATM   23  C10 UNL     1      -4.411   0.925  -0.090  1.00  0.00     0.032 C 
HETATM   24  C11 UNL     1      -3.560   0.689  -1.324  1.00  0.00     0.272 C 
ENDBRANCH  19  20
ENDBRANCH  18  19
ENDBRANCH  17  18
ENDBRANCH   4  17
TORSDOF 5
