REMARK  7 active torsions:
REMARK  status: ('A' for Active; 'I' for Inactive)
REMARK    1  A    between atoms: N1_2  and  C4_5 
REMARK    2  A    between atoms: C4_5  and  C5_6 
REMARK    3  A    between atoms: C5_6  and  C6_7 
REMARK    4  A    between atoms: C6_7  and  C7_8 
REMARK    5  A    between atoms: C8_11  and  N3_12 
REMARK    6  A    between atoms: C9_17  and  N5_18 
REMARK    7  A    between atoms: N5_18  and  C10_20 
ROOT
HETATM    1  C7  UNL     1       2.304   0.131  -0.286  1.00  0.00     0.071 A 
HETATM    2  N2  UNL     1       3.059   0.105  -1.403  1.00  0.00    -0.192 N 
ATOM      3  H2  UNL     1       2.884   0.619  -2.266  1.00  0.00     0.184 HD
HETATM    4  C8  UNL     1       4.095  -0.734  -1.160  1.00  0.00     0.677 A 
HETATM    5  N4  UNL     1       3.960  -1.211   0.104  1.00  0.00    -0.175 N 
ATOM      6  H4  UNL     1       4.600  -1.865   0.555  1.00  0.00     0.186 HD
HETATM    7  C9  UNL     1       2.862  -0.695   0.670  1.00  0.00     0.144 A 
ENDROOT
BRANCH   1   8
HETATM    8  C6  UNL     1       1.055   0.926  -0.102  1.00  0.00     0.063 C 
BRANCH   8   9
HETATM    9  C5  UNL     1      -0.175   0.046  -0.192  1.00  0.00     0.034 C 
BRANCH   9  10
HETATM   10  C4  UNL     1      -1.385   0.919   0.003  1.00  0.00     0.236 C 
BRANCH  10  11
HETATM   11  N1  UNL     1      -2.625   0.178  -0.064  1.00  0.00    -0.079 N 
HETATM   12  C1  UNL     1      -3.690   1.144  -0.259  1.00  0.00     0.271 C 
HETATM   13  C2  UNL     1      -2.652  -0.747  -1.175  1.00  0.00     0.271 C 
HETATM   14  C3  UNL     1      -2.911  -0.529   1.162  1.00  0.00     0.271 C 
ENDBRANCH  10  11
ENDBRANCH   9  10
ENDBRANCH   8   9
ENDBRANCH   1   8
BRANCH   7  15
HETATM   15  N5  UNL     1       2.311  -0.893   1.965  1.00  0.00    -0.341 N 
ATOM     16  H5  UNL     1       1.681  -1.684   2.094  1.00  0.00     0.167 HD
BRANCH  15  17
HETATM   17  C10 UNL     1       2.545  -0.160   2.969  1.00  0.00     0.171 C 
HETATM   18  S1  UNL     1       3.003   1.033   3.975  1.00  0.00    -0.074 SA
ENDBRANCH  15  17
ENDBRANCH   7  15
BRANCH   4  19
HETATM   19  N3  UNL     1       5.028  -1.000  -2.021  1.00  0.00    -0.234 N 
ATOM     20  H32 UNL     1       5.129  -0.642  -2.971  1.00  0.00     0.174 HD
ATOM     21  H31 UNL     1       5.808  -1.632  -1.838  1.00  0.00     0.174 HD
ENDBRANCH   4  19
TORSDOF 7
