REMARK  2 active torsions:
REMARK  status: ('A' for Active; 'I' for Inactive)
REMARK    1  A    between atoms: C4_5  and  C5_6 
REMARK    2  A    between atoms: C11_14  and  O3_16 
ROOT
HETATM    1  C1  UNL     1      -0.413   2.797  -0.998  1.00  0.00     0.047 C 
HETATM    2  C2  UNL     1       0.275   1.757  -0.586  1.00  0.00     0.049 C 
HETATM    3  O1  UNL     1       1.580   1.968  -0.197  1.00  0.00    -0.355 OA
HETATM    4  C3  UNL     1       2.425   0.998   0.345  1.00  0.00     0.187 C 
HETATM    5  C4  UNL     1       2.015  -0.431   0.107  1.00  0.00     0.077 C 
HETATM    6  C6  UNL     1       0.742  -0.684  -0.526  1.00  0.00     0.025 C 
HETATM    7  C7  UNL     1      -0.386  -1.370   0.173  1.00  0.00     0.045 C 
HETATM    8  C8  UNL     1      -1.379  -1.488  -1.004  1.00  0.00     0.091 C 
HETATM    9 CL1  UNL     1      -0.844  -2.685  -2.170  1.00  0.00    -0.124 Cl
HETATM   10  C9  UNL     1      -1.192  -0.070  -1.575  1.00  0.00     0.040 C 
HETATM   11  C10 UNL     1      -0.281   0.467  -0.535  1.00  0.00     0.045 C 
HETATM   12  C11 UNL     1      -0.868  -0.071   0.741  1.00  0.00     0.074 C 
HETATM   13  C12 UNL     1      -2.350  -0.040   0.892  1.00  0.00     0.047 C 
ENDROOT
BRANCH  12  14
HETATM   14  O3  UNL     1      -0.298   0.366   1.916  1.00  0.00    -0.389 OA
ATOM     15  H3  UNL     1      -0.604   1.190   2.276  1.00  0.00     0.210 HD
ENDBRANCH  12  14
BRANCH   5  16
HETATM   16  C5  UNL     1       2.280  -1.245   1.356  1.00  0.00     0.238 C 
HETATM   17  O2  UNL     1       2.288  -2.454   1.354  1.00  0.00    -0.306 OA
ENDBRANCH   5  16
TORSDOF 2
