REMARK  4 active torsions:
REMARK  status: ('A' for Active; 'I' for Inactive)
REMARK    1  A    between atoms: C2_2  and  C3_3 
REMARK    2  A    between atoms: C3_3  and  N1_6 
REMARK    3  A    between atoms: N1_6  and  C5_8 
REMARK    4  A    between atoms: C5_8  and  N2_10 
ROOT
HETATM    1  C5  UNL     1      -0.223   0.121   0.702  1.00  0.00     0.171 C 
HETATM    2  S1  UNL     1       0.274   0.954   2.017  1.00  0.00    -0.041 SA
ENDROOT
BRANCH   1   3
HETATM    3  N1  UNL     1       0.637  -0.564  -0.187  1.00  0.00    -0.345 N 
ATOM      4  H1  UNL     1       0.180  -1.050  -0.958  1.00  0.00     0.163 HD
BRANCH   3   5
HETATM    5  C3  UNL     1       2.045  -0.665  -0.149  1.00  0.00     0.105 C 
HETATM    6  C4  UNL     1       2.621  -1.230   1.118  1.00  0.00     0.056 C 
HETATM    7 CL1  UNL     1       2.691  -1.679  -1.486  1.00  0.00    -0.096 Cl
BRANCH   5   8
HETATM    8  C2  UNL     1       2.664   0.700  -0.351  1.00  0.00     0.043 C 
HETATM    9  C1  UNL     1       4.183   0.592  -0.475  1.00  0.00     0.009 C 
ENDBRANCH   5   8
ENDBRANCH   3   5
ENDBRANCH   1   3
BRANCH   1  10
HETATM   10  N2  UNL     1      -1.637   0.117   0.500  1.00  0.00    -0.354 N 
HETATM   11  C6  UNL     1      -2.159  -0.605  -0.633  1.00  0.00     0.151 C 
HETATM   12  C7  UNL     1      -3.622  -0.645  -0.738  1.00  0.00     0.187 C 
HETATM   13  O1  UNL     1      -4.339   0.301  -0.085  1.00  0.00    -0.388 OA
HETATM   14  C8  UNL     1      -3.642   1.370   0.406  1.00  0.00     0.187 C 
HETATM   15  C9  UNL     1      -2.581   0.783   1.350  1.00  0.00     0.151 C 
ENDBRANCH   1  10
TORSDOF 4
