REMARK  9 active torsions:
REMARK  status: ('A' for Active; 'I' for Inactive)
REMARK    1  A    between atoms: C2_2  and  C3_3 
REMARK    2  A    between atoms: C3_3  and  C4_4 
REMARK    3  A    between atoms: C4_4  and  C5_5 
REMARK    4  A    between atoms: C6_8  and  N2_9 
REMARK    5  A    between atoms: N3_11  and  C7_13 
REMARK    6  A    between atoms: C7_13  and  C8_14 
REMARK    7  A    between atoms: C10_16  and  O1_17 
REMARK    8  A    between atoms: C11_19  and  N4_20 
REMARK    9  A    between atoms: C17_32  and  C18_33 
ROOT
HETATM    1  N2  UNL     1       0.453  -0.548  -2.094  1.00  0.00    -0.290 N 
ATOM      2  H2  UNL     1       0.427  -0.953  -3.030  1.00  0.00     0.188 HD
HETATM    3  N3  UNL     1      -0.531   0.063  -1.727  1.00  0.00    -0.332 N 
ATOM      4  H3  UNL     1      -1.306   0.126  -2.387  1.00  0.00     0.180 HD
ENDROOT
BRANCH   3   5
HETATM    5  C7  UNL     1      -0.710   0.702  -0.463  1.00  0.00     0.171 C 
BRANCH   5   6
HETATM    6  C8  UNL     1      -2.010   1.509  -0.593  1.00  0.00     0.146 C 
HETATM    7  C9  UNL     1      -2.359   2.263   0.659  1.00  0.00     0.070 C 
HETATM    8  C10 UNL     1      -3.894   2.044   0.652  1.00  0.00     0.170 C 
HETATM    9  C11 UNL     1      -3.880   0.598   0.208  1.00  0.00     0.261 C 
HETATM   10  O4  UNL     1      -3.021   0.643  -0.882  1.00  0.00    -0.356 OA
BRANCH   8  11
HETATM   11  O1  UNL     1      -4.466   2.264   1.872  1.00  0.00    -0.391 OA
ATOM     12  H1  UNL     1      -5.406   2.130   1.868  1.00  0.00     0.210 HD
ENDBRANCH   8  11
BRANCH   9  13
HETATM   13  N4  UNL     1      -5.163   0.064  -0.131  1.00  0.00    -0.277 N 
HETATM   14  C12 UNL     1      -6.208   0.781  -0.533  1.00  0.00     0.146 A 
HETATM   15  C13 UNL     1      -7.425   0.195  -0.861  1.00  0.00     0.199 A 
HETATM   16  F1  UNL     1      -8.441   0.984  -1.260  1.00  0.00    -0.199 F 
HETATM   17  C14 UNL     1      -7.575  -1.173  -0.775  1.00  0.00     0.289 A 
HETATM   18  O2  UNL     1      -8.658  -1.742  -1.064  1.00  0.00    -0.265 OA
HETATM   19  N5  UNL     1      -6.489  -1.875  -0.361  1.00  0.00    -0.273 N 
HETATM   20  C15 UNL     1      -5.318  -1.271  -0.049  1.00  0.00     0.331 A 
ATOM     21  H5  UNL     1      -6.557  -2.890  -0.283  1.00  0.00     0.173 HD
HETATM   22  O3  UNL     1      -4.349  -1.995   0.331  1.00  0.00    -0.246 OA
ENDBRANCH   9  13
ENDBRANCH   5   6
ENDBRANCH   3   5
BRANCH   1  23
HETATM   23  C6  UNL     1       1.634  -0.748  -1.337  1.00  0.00     0.122 A 
HETATM   24  N1  UNL     1       2.505   0.245  -1.153  1.00  0.00    -0.331 N 
HETATM   25  C5  UNL     1       3.658   0.070  -0.427  1.00  0.00     0.083 A 
ATOM     26  H1  UNL     1       2.310   1.159  -1.562  1.00  0.00     0.168 HD
HETATM   27  N6  UNL     1       3.867  -1.137   0.089  1.00  0.00    -0.342 N 
HETATM   28  C17 UNL     1       3.044  -2.185  -0.049  1.00  0.00     0.121 A 
ATOM     29  H6  UNL     1       4.719  -1.276   0.632  1.00  0.00     0.167 HD
HETATM   30  C16 UNL     1       1.910  -1.994  -0.770  1.00  0.00     0.084 A 
BRANCH  25  31
HETATM   31  C4  UNL     1       4.480   1.265  -0.266  1.00  0.00     0.076 C 
BRANCH  31  32
HETATM   32  C3  UNL     1       5.828   1.197   0.286  1.00  0.00     0.007 C 
BRANCH  32  33
HETATM   33  C2  UNL     1       6.898   0.543  -0.490  1.00  0.00    -0.004 C 
HETATM   34  C1  UNL     1       6.853  -0.876  -0.857  1.00  0.00     0.005 C 
ENDBRANCH  32  33
ENDBRANCH  31  32
ENDBRANCH  25  31
BRANCH  28  35
HETATM   35  C18 UNL     1       3.441  -3.466   0.580  1.00  0.00     0.432 C 
HETATM   36  F2  UNL     1       4.384  -3.300   1.559  1.00  0.00    -0.165 F 
HETATM   37  F3  UNL     1       4.024  -4.233  -0.435  1.00  0.00    -0.165 F 
HETATM   38  F4  UNL     1       2.395  -4.200   1.057  1.00  0.00    -0.165 F 
ENDBRANCH  28  35
ENDBRANCH   1  23
TORSDOF 9
