REMARK  7 active torsions:
REMARK  status: ('A' for Active; 'I' for Inactive)
REMARK    1  A    between atoms: O1_2  and  C2_3 
REMARK    2  A    between atoms: C4_5  and  C5_6 
REMARK    3  A    between atoms: C10_11  and  O2_12 
REMARK    4  A    between atoms: O2_12  and  C11_13 
REMARK    5  A    between atoms: C12_17  and  O3_18 
REMARK    6  A    between atoms: C16_33  and  O4_34 
REMARK    7  A    between atoms: C18_36  and  O5_37 
ROOT
HETATM    1  C5  UNL     1      -0.607  -2.588   0.317  1.00  0.00     0.050 A 
HETATM    2  C6  UNL     1       0.753  -2.781   0.237  1.00  0.00     0.091 A 
HETATM    3  C7  UNL     1       1.603  -1.634  -0.002  1.00  0.00     0.063 A 
HETATM    4  C8  UNL     1       2.417  -1.639  -1.113  1.00  0.00     0.035 A 
HETATM    5  C9  UNL     1       3.273  -0.599  -1.433  1.00  0.00     0.044 A 
HETATM    6  C10 UNL     1       3.300   0.492  -0.584  1.00  0.00     0.129 A 
HETATM    7  C12 UNL     1       2.468   0.483   0.540  1.00  0.00     0.177 A 
HETATM    8  N1  UNL     1       1.662  -0.549   0.797  1.00  0.00    -0.333 N 
ATOM      9  H1  UNL     1       1.070  -0.516   1.627  1.00  0.00     0.168 HD
HETATM   10  N2  UNL     1       1.224  -4.031   0.390  1.00  0.00    -0.283 N 
ATOM     11  H2  UNL     1       2.230  -4.190   0.334  1.00  0.00     0.188 HD
HETATM   12  N3  UNL     1       0.419  -5.066   0.612  1.00  0.00    -0.241 N 
ATOM     13  H3  UNL     1       0.811  -6.001   0.722  1.00  0.00     0.208 HD
HETATM   14  N4  UNL     1      -0.887  -4.886   0.690  1.00  0.00    -0.271 N 
ATOM     15  H4  UNL     1      -1.485  -5.694   0.862  1.00  0.00     0.190 HD
HETATM   16  C14 UNL     1      -1.462  -3.665   0.550  1.00  0.00     0.128 A 
HETATM   17  N5  UNL     1      -2.736  -3.504   0.620  1.00  0.00    -0.384 N 
ATOM     18  H51 UNL     1      -3.361  -4.292   0.790  1.00  0.00     0.157 HD
ATOM     19  H52 UNL     1      -3.168  -2.586   0.515  1.00  0.00     0.157 HD
ENDROOT
BRANCH   1  20
HETATM   20  C4  UNL     1      -1.116  -1.238   0.146  1.00  0.00    -0.014 A 
HETATM   21  C3  UNL     1      -1.151  -0.589  -1.060  1.00  0.00     0.052 A 
HETATM   22  C2  UNL     1      -1.649   0.714  -1.130  1.00  0.00     0.105 A 
HETATM   23  C18 UNL     1      -2.109   1.369  -0.012  1.00  0.00     0.135 A 
HETATM   24  C16 UNL     1      -2.077   0.721   1.216  1.00  0.00     0.105 A 
HETATM   25  C15 UNL     1      -1.585  -0.560   1.273  1.00  0.00     0.052 A 
BRANCH  22  26
HETATM   26  O1  UNL     1      -1.679   1.357  -2.349  1.00  0.00    -0.353 OA
HETATM   27  C1  UNL     1      -1.254   0.844  -3.571  1.00  0.00     0.210 C 
ENDBRANCH  22  26
BRANCH  23  28
HETATM   28  O5  UNL     1      -2.586   2.654  -0.164  1.00  0.00    -0.351 OA
HETATM   29  C19 UNL     1      -3.938   2.959  -0.437  1.00  0.00     0.210 C 
ENDBRANCH  23  28
BRANCH  24  30
HETATM   30  O4  UNL     1      -2.538   1.392   2.315  1.00  0.00    -0.353 OA
HETATM   31  C17 UNL     1      -2.607   0.964   3.633  1.00  0.00     0.210 C 
ENDBRANCH  24  30
ENDBRANCH   1  20
BRANCH   7  32
HETATM   32  O3  UNL     1       2.512   1.575   1.371  1.00  0.00    -0.339 OA
HETATM   33  C13 UNL     1       1.775   1.786   2.532  1.00  0.00     0.211 C 
ENDBRANCH   7  32
BRANCH   6  34
HETATM   34  O2  UNL     1       4.124   1.577  -0.822  1.00  0.00    -0.251 OA
BRANCH  34  35
HETATM   35  C11 UNL     1       4.994   1.720  -1.896  1.00  0.00     0.530 C 
HETATM   36  F1  UNL     1       4.287   1.685  -3.088  1.00  0.00    -0.144 F 
HETATM   37  F2  UNL     1       5.962   0.725  -1.941  1.00  0.00    -0.144 F 
HETATM   38  F3  UNL     1       5.688   2.927  -1.759  1.00  0.00    -0.144 F 
ENDBRANCH  34  35
ENDBRANCH   6  34
TORSDOF 7
