REMARK  10 active torsions:
REMARK  status: ('A' for Active; 'I' for Inactive)
REMARK    1  A    between atoms: C4_5  and  C5_6 
REMARK    2  A    between atoms: C5_6  and  O1_7 
REMARK    3  A    between atoms: O1_7  and  C6_8 
REMARK    4  A    between atoms: C6_8  and  C7_9 
REMARK    5  A    between atoms: C10_12  and  N1_13 
REMARK    6  A    between atoms: N1_13  and  C11_15 
REMARK    7  A    between atoms: C12_22  and  S2_23 
REMARK    8  A    between atoms: S2_23  and  C13_24 
REMARK    9  A    between atoms: C13_24  and  C14_25 
REMARK   10  A    between atoms: C15_31  and  O2_32 
ROOT
HETATM    1  N1  UNL     1       1.792   0.905  -0.758  1.00  0.00    -0.218 N 
ATOM      2  H1  UNL     1       1.890   0.791  -1.767  1.00  0.00     0.178 HD
ENDROOT
BRANCH   1   3
HETATM    3  C10 UNL     1       0.473   1.093  -0.233  1.00  0.00     0.128 C 
HETATM    4  C9  UNL     1      -0.501   0.757  -1.374  1.00  0.00     0.029 C 
HETATM    5  C8  UNL     1      -1.800   0.479  -0.632  1.00  0.00     0.011 C 
HETATM    6  C7  UNL     1      -1.408  -0.030   0.708  1.00  0.00     0.040 C 
HETATM    7  C15 UNL     1       0.080   0.084   0.812  1.00  0.00     0.147 C 
BRANCH   6   8
HETATM    8  C6  UNL     1      -2.038   0.753   1.871  1.00  0.00     0.175 C 
BRANCH   8   9
HETATM    9  O1  UNL     1      -3.286   0.802   2.066  1.00  0.00    -0.384 OA
BRANCH   9  10
HETATM   10  C5  UNL     1      -4.454   1.069   1.655  1.00  0.00     0.232 C 
BRANCH  10  11
HETATM   11  C4  UNL     1      -4.963   0.195   0.536  1.00  0.00     0.075 A 
HETATM   12  S1  UNL     1      -4.973  -1.520   0.460  1.00  0.00    -0.085 SA
HETATM   13  C3  UNL     1      -5.714  -1.704  -1.069  1.00  0.00     0.076 A 
HETATM   14  C2  UNL     1      -5.911  -0.396  -1.435  1.00  0.00     0.012 A 
HETATM   15  C1  UNL     1      -6.565  -0.082  -2.770  1.00  0.00     0.068 C 
HETATM   16  N6  UNL     1      -5.528   0.524  -0.617  1.00  0.00    -0.355 N 
ATOM     17  H6  UNL     1      -5.660   1.506  -0.857  1.00  0.00     0.166 HD
ENDBRANCH  10  11
ENDBRANCH   9  10
ENDBRANCH   8   9
ENDBRANCH   6   8
BRANCH   7  18
HETATM   18  O2  UNL     1       0.671  -1.131   0.447  1.00  0.00    -0.393 OA
ATOM     19  H2  UNL     1       1.616  -1.059   0.513  1.00  0.00     0.210 HD
ENDBRANCH   7  18
ENDBRANCH   1   3
BRANCH   1  20
HETATM   20  C11 UNL     1       2.872   0.870  -0.037  1.00  0.00     0.696 A 
HETATM   21  N2  UNL     1       2.861   1.009   1.303  1.00  0.00    -0.118 N 
HETATM   22  N3  UNL     1       3.967   0.972   2.024  1.00  0.00    -0.226 N 
ATOM     23  H2  UNL     1       1.968   1.147   1.777  1.00  0.00     0.207 HD
HETATM   24  N4  UNL     1       5.141   0.793   1.441  1.00  0.00    -0.264 N 
ATOM     25  H3  UNL     1       3.916   1.082   3.037  1.00  0.00     0.209 HD
HETATM   26  C12 UNL     1       5.205   0.647   0.096  1.00  0.00     0.175 A 
ATOM     27  H4  UNL     1       5.993   0.765   2.001  1.00  0.00     0.190 HD
HETATM   28  N5  UNL     1       4.058   0.687  -0.639  1.00  0.00    -0.168 N 
ATOM     29  H5  UNL     1       4.101   0.577  -1.652  1.00  0.00     0.186 HD
BRANCH  26  30
HETATM   30  S2  UNL     1       6.790   0.399  -0.666  1.00  0.00    -0.083 SA
BRANCH  30  31
HETATM   31  C13 UNL     1       7.232  -1.328  -0.870  1.00  0.00     0.199 C 
BRANCH  31  32
HETATM   32  C14 UNL     1       7.430  -2.016   0.461  1.00  0.00     0.396 C 
HETATM   33  F1  UNL     1       6.326  -2.012   1.257  1.00  0.00    -0.170 F 
HETATM   34  F2  UNL     1       8.428  -1.323   1.151  1.00  0.00    -0.170 F 
HETATM   35  F3  UNL     1       7.891  -3.307   0.266  1.00  0.00    -0.170 F 
ENDBRANCH  31  32
ENDBRANCH  30  31
ENDBRANCH  26  30
ENDBRANCH   1  20
TORSDOF 10
