REMARK  10 active torsions:
REMARK  status: ('A' for Active; 'I' for Inactive)
REMARK    1  A    between atoms: O1_2  and  C2_3 
REMARK    2  A    between atoms: C4_5  and  O2_6 
REMARK    3  A    between atoms: O2_6  and  C5_7 
REMARK    4  A    between atoms: C5_7  and  C6_8 
REMARK    5  A    between atoms: C8_10  and  O3_11 
REMARK    6  A    between atoms: O3_11  and  C9_12 
REMARK    7  A    between atoms: C11_14  and  N1_15 
REMARK    8  A    between atoms: C13_20  and  N2_21 
REMARK    9  A    between atoms: C15_27  and  C16_28 
REMARK   10  A    between atoms: C17_34  and  O4_35 
ROOT
HETATM    1  C6  UNL     1       1.049   0.694   2.000  1.00  0.00     0.010 A 
HETATM    2  C7  UNL     1      -0.109   0.154   1.508  1.00  0.00     0.054 A 
HETATM    3  C8  UNL     1      -0.809   0.906   0.620  1.00  0.00     0.089 A 
HETATM    4  C15 UNL     1      -0.279   2.133   0.308  1.00  0.00     0.080 A 
HETATM    5  S1  UNL     1       1.144   2.209   1.234  1.00  0.00    -0.088 SA
ENDROOT
BRANCH   3   6
HETATM    6  O3  UNL     1      -2.030   0.506   0.008  1.00  0.00    -0.342 OA
BRANCH   6   7
HETATM    7  C9  UNL     1      -2.619  -0.730   0.285  1.00  0.00     0.166 C 
HETATM    8  C10 UNL     1      -2.659  -1.480  -1.043  1.00  0.00     0.068 C 
HETATM    9  C11 UNL     1      -3.580  -0.728  -1.966  1.00  0.00     0.188 C 
HETATM   10  C12 UNL     1      -5.010  -0.791  -1.477  1.00  0.00     0.068 C 
HETATM   11  C13 UNL     1      -5.092  -1.107  -0.008  1.00  0.00     0.221 C 
HETATM   12  C14 UNL     1      -4.016  -0.478   0.810  1.00  0.00     0.229 C 
HETATM   13  F1  UNL     1      -4.136  -0.947   2.104  1.00  0.00    -0.244 F 
BRANCH   9  14
HETATM   14  N1  UNL     1      -3.508  -1.228  -3.327  1.00  0.00    -0.075 N 
ATOM     15  H13 UNL     1      -2.549  -1.222  -3.674  1.00  0.00     0.274 HD
ATOM     16  H12 UNL     1      -3.685  -2.232  -3.363  1.00  0.00     0.274 HD
ATOM     17  H11 UNL     1      -4.132  -0.718  -3.952  1.00  0.00     0.274 HD
ENDBRANCH   9  14
BRANCH  11  18
HETATM   18  N2  UNL     1      -5.180  -2.518   0.271  1.00  0.00    -0.072 N 
ATOM     19  H23 UNL     1      -5.961  -2.938  -0.233  1.00  0.00     0.274 HD
ATOM     20  H22 UNL     1      -4.407  -3.021  -0.164  1.00  0.00     0.274 HD
ATOM     21  H21 UNL     1      -5.236  -2.732   1.267  1.00  0.00     0.274 HD
ENDBRANCH  11  18
ENDBRANCH   6   7
ENDBRANCH   3   6
BRANCH   4  22
HETATM   22  C16 UNL     1      -0.850   3.164  -0.645  1.00  0.00     0.396 C 
HETATM   23  F2  UNL     1       0.137   3.408  -1.585  1.00  0.00    -0.208 F 
HETATM   24  F3  UNL     1      -1.017   4.331   0.078  1.00  0.00    -0.208 F 
ENDBRANCH   4  22
BRANCH   1  25
HETATM   25  C5  UNL     1       1.998   0.071   3.002  1.00  0.00     0.223 C 
BRANCH  25  26
HETATM   26  O2  UNL     1       3.241   0.708   2.809  1.00  0.00    -0.330 OA
BRANCH  26  27
HETATM   27  C4  UNL     1       3.860   0.595   1.579  1.00  0.00     0.149 A 
HETATM   28  C3  UNL     1       5.074   1.204   1.341  1.00  0.00     0.112 A 
HETATM   29  C2  UNL     1       5.646   1.054   0.092  1.00  0.00     0.148 A 
HETATM   30  N4  UNL     1       5.029   0.331  -0.860  1.00  0.00    -0.302 N 
HETATM   31  C17 UNL     1       3.829  -0.272  -0.626  1.00  0.00     0.227 A 
ATOM     32  H4  UNL     1       5.468   0.232  -1.775  1.00  0.00     0.171 HD
HETATM   33  N3  UNL     1       3.304  -0.109   0.586  1.00  0.00    -0.302 N 
ATOM     34  H3  UNL     1       2.407  -0.556   0.773  1.00  0.00     0.171 HD
BRANCH  29  35
HETATM   35  O1  UNL     1       6.864   1.668  -0.141  1.00  0.00    -0.341 OA
HETATM   36  C1  UNL     1       7.485   1.548  -1.385  1.00  0.00     0.211 C 
ENDBRANCH  29  35
BRANCH  31  37
HETATM   37  O4  UNL     1       3.208  -1.021  -1.638  1.00  0.00    -0.327 OA
HETATM   38  C18 UNL     1       1.965  -1.615  -1.314  1.00  0.00     0.213 C 
ENDBRANCH  31  37
ENDBRANCH  26  27
ENDBRANCH  25  26
ENDBRANCH   1  25
TORSDOF 10
