REMARK  1 active torsions:
REMARK  status: ('A' for Active; 'I' for Inactive)
REMARK    1  A    between atoms: O1_1  and  C1_3 
ROOT
HETATM    1  C1  UNL     1      -0.778  -1.162  -0.676  1.00  0.00     0.123 C 
HETATM    2  C2  UNL     1      -2.104  -1.179   0.017  1.00  0.00     0.034 C 
HETATM    3  C3  UNL     1      -2.645   0.132   0.407  1.00  0.00     0.029 C 
HETATM    4  C4  UNL     1      -2.108   1.311  -0.322  1.00  0.00     0.168 C 
HETATM    5  O2  UNL     1      -0.916   1.749   0.242  1.00  0.00    -0.386 OA
HETATM    6  C5  UNL     1       0.111   1.536  -0.667  1.00  0.00     0.236 C 
HETATM    7  C6  UNL     1       1.024   0.493  -0.101  1.00  0.00     0.187 C 
HETATM    8  C7  UNL     1       0.374  -0.810   0.196  1.00  0.00     0.102 C 
HETATM    9  O3  UNL     1       2.155   0.380  -0.911  1.00  0.00    -0.351 OA
HETATM   10  C8  UNL     1       3.193  -0.040  -0.086  1.00  0.00     0.198 C 
HETATM   11  C9  UNL     1       2.817   0.581   1.233  1.00  0.00     0.198 C 
HETATM   12  O4  UNL     1       1.517   1.005   1.121  1.00  0.00    -0.351 OA
ENDROOT
BRANCH   1  13
HETATM   13  O1  UNL     1      -0.567  -2.495  -1.113  1.00  0.00    -0.395 OA
ATOM     14  H1  UNL     1       0.275  -2.484  -1.553  1.00  0.00     0.210 HD
ENDBRANCH   1  13
TORSDOF 1
