REMARK  1 active torsions:
REMARK  status: ('A' for Active; 'I' for Inactive)
REMARK    1  A    between atoms: O1_1  and  C1_3 
ROOT
HETATM    1  C1  UNL     1       0.804   1.110  -0.047  1.00  0.00     0.180 C 
HETATM    2  C2  UNL     1       1.747   0.168   0.654  1.00  0.00     0.180 C 
HETATM    3  C3  UNL     1       2.396  -0.660  -0.392  1.00  0.00     0.032 C 
HETATM    4  C4  UNL     1       1.687  -1.661  -0.877  1.00  0.00     0.136 C 
HETATM    5  O2  UNL     1       0.407  -1.828  -0.351  1.00  0.00    -0.332 OA
HETATM    6  C5  UNL     1       0.041  -1.310   0.913  1.00  0.00     0.272 C 
HETATM    7  O3  UNL     1       1.129  -0.690   1.531  1.00  0.00    -0.349 OA
HETATM    8  C6  UNL     1      -1.051  -0.294   0.851  1.00  0.00     0.075 C 
HETATM    9  C7  UNL     1      -2.120  -0.611  -0.162  1.00  0.00     0.038 C 
HETATM   10  C8  UNL     1      -1.910   0.496  -1.179  1.00  0.00     0.168 C 
HETATM   11  O4  UNL     1      -1.462   1.575  -0.444  1.00  0.00    -0.383 OA
HETATM   12  C9  UNL     1      -0.589   1.087   0.522  1.00  0.00     0.161 C 
ENDROOT
BRANCH   1  13
HETATM   13  O1  UNL     1       1.306   2.419  -0.013  1.00  0.00    -0.390 OA
ATOM     14  H1  UNL     1       0.711   3.013  -0.455  1.00  0.00     0.210 HD
ENDBRANCH   1  13
TORSDOF 1
