REMARK  1 active torsions:
REMARK  status: ('A' for Active; 'I' for Inactive)
REMARK    1  A    between atoms: O1_1  and  C1_3 
ROOT
HETATM    1  C1  UNL     1      -1.689  -1.113   0.100  1.00  0.00     0.148 C 
HETATM    2  C2  UNL     1      -2.272   0.041   0.928  1.00  0.00     0.036 C 
HETATM    3  C3  UNL     1      -1.367   1.237   0.620  1.00  0.00     0.026 C 
HETATM    4  C4  UNL     1      -0.076   0.558   0.328  1.00  0.00     0.101 C 
HETATM    5  C5  UNL     1      -0.502  -0.548  -0.617  1.00  0.00     0.170 C 
HETATM    6  O2  UNL     1       0.502  -1.468  -0.828  1.00  0.00    -0.365 OA
HETATM    7  C6  UNL     1       1.671  -0.844  -1.263  1.00  0.00     0.200 C 
HETATM    8  C7  UNL     1       2.478  -0.377  -0.096  1.00  0.00     0.059 C 
HETATM    9  C8  UNL     1       2.186   1.002   0.288  1.00  0.00     0.106 C 
HETATM   10  N1  UNL     1       0.925   1.443  -0.271  1.00  0.00    -0.249 NA
HETATM   11  S1  UNL     1       1.129   0.787  -1.934  1.00  0.00    -0.050 SA
ENDROOT
BRANCH   1  12
HETATM   12  O1  UNL     1      -2.665  -1.492  -0.822  1.00  0.00    -0.393 OA
ATOM     13  H1  UNL     1      -2.304  -2.206  -1.334  1.00  0.00     0.210 HD
ENDBRANCH   1  12
TORSDOF 1
