REMARK  2 active torsions:
REMARK  status: ('A' for Active; 'I' for Inactive)
REMARK    1  A    between atoms: C5_5  and  O1_6 
REMARK    2  A    between atoms: C6_8  and  O2_9 
ROOT
HETATM    1  C1  UNL     1       1.874  -0.104  -0.982  1.00  0.00     0.016 C 
HETATM    2  C2  UNL     1       0.801   0.306   0.002  1.00  0.00    -0.036 C 
HETATM    3  C3  UNL     1       1.500   0.826   1.215  1.00  0.00     0.016 C 
HETATM    4  C4  UNL     1       0.051   1.474  -0.650  1.00  0.00     0.044 C 
HETATM    5  C5  UNL     1      -1.411   1.235  -0.273  1.00  0.00     0.148 C 
HETATM    6  C6  UNL     1      -1.519  -0.255  -0.424  1.00  0.00     0.155 C 
HETATM    7  C7  UNL     1      -0.227  -0.726   0.248  1.00  0.00    -0.012 C 
HETATM    8  C8  UNL     1       0.156  -2.113  -0.200  1.00  0.00     0.018 C 
HETATM    9  C9  UNL     1      -0.598  -0.851   1.733  1.00  0.00     0.018 C 
ENDROOT
BRANCH   5  10
HETATM   10  O1  UNL     1      -2.281   1.896  -1.105  1.00  0.00    -0.393 OA
ATOM     11  H1  UNL     1      -3.190   1.747  -0.871  1.00  0.00     0.210 HD
ENDBRANCH   5  10
BRANCH   6  12
HETATM   12  O2  UNL     1      -1.654  -0.694  -1.702  1.00  0.00    -0.392 OA
ATOM     13  H2  UNL     1      -1.722  -1.637  -1.798  1.00  0.00     0.210 HD
ENDBRANCH   6  12
TORSDOF 2
