REMARK  2 active torsions:
REMARK  status: ('A' for Active; 'I' for Inactive)
REMARK    1  A    between atoms: C2_2  and  O1_3 
REMARK    2  A    between atoms: C6_8  and  O2_9 
ROOT
HETATM    1  C1  UNL     1       2.621   0.275   0.298  1.00  0.00     0.046 C 
HETATM    2  C2  UNL     1       1.297  -0.324  -0.095  1.00  0.00     0.058 C 
HETATM    3  C3  UNL     1       0.683   0.401  -1.282  1.00  0.00     0.042 C 
HETATM    4  C4  UNL     1      -0.456   1.216  -0.760  1.00  0.00    -0.009 C 
HETATM    5  C5  UNL     1      -1.769   0.495  -0.772  1.00  0.00     0.036 C 
HETATM    6  C6  UNL     1      -1.756  -0.834  -0.110  1.00  0.00     0.119 C 
HETATM    7  C7  UNL     1      -0.836  -0.972   1.044  1.00  0.00     0.039 C 
HETATM    8  C8  UNL     1       0.327  -0.035   1.050  1.00  0.00     0.022 C 
HETATM    9  C9  UNL     1      -0.062   1.389   0.713  1.00  0.00     0.012 C 
ENDROOT
BRANCH   2  10
HETATM   10  O1  UNL     1       1.355  -1.668  -0.354  1.00  0.00    -0.390 OA
ATOM     11  H1  UNL     1       0.519  -2.046  -0.602  1.00  0.00     0.210 HD
ENDBRANCH   2  10
BRANCH   6  12
HETATM   12  O2  UNL     1      -3.087  -1.112   0.280  1.00  0.00    -0.396 OA
ATOM     13  H2  UNL     1      -3.079  -1.962   0.704  1.00  0.00     0.210 HD
ENDBRANCH   6  12
TORSDOF 2
