REMARK  2 active torsions:
REMARK  status: ('A' for Active; 'I' for Inactive)
REMARK    1  A    between atoms: C5_5  and  N1_6 
REMARK    2  A    between atoms: C8_12  and  O1_13 
ROOT
HETATM    1  C1  UNL     1       2.110  -0.658   0.937  1.00  0.00     0.016 C 
HETATM    2  C2  UNL     1       0.854  -0.528   0.190  1.00  0.00    -0.029 C 
HETATM    3  C3  UNL     1       0.016  -1.789   0.032  1.00  0.00     0.012 C 
HETATM    4  C4  UNL     1      -1.447  -1.340   0.150  1.00  0.00     0.040 C 
HETATM    5  C5  UNL     1      -1.298   0.130  -0.175  1.00  0.00     0.131 C 
HETATM    6  C6  UNL     1      -0.586   0.173  -1.541  1.00  0.00     0.047 C 
HETATM    7  C7  UNL     1       0.838   0.362  -1.024  1.00  0.00     0.026 C 
HETATM    8  C8  UNL     1       0.600   1.521  -0.082  1.00  0.00     0.130 C 
HETATM    9  C9  UNL     1      -0.153   0.506   0.719  1.00  0.00     0.059 C 
ENDROOT
BRANCH   5  10
HETATM   10  N1  UNL     1      -2.452   0.904  -0.096  1.00  0.00    -0.070 N 
ATOM     11  H13 UNL     1      -3.180   0.495  -0.682  1.00  0.00     0.275 HD
ATOM     12  H12 UNL     1      -2.874   0.798   0.827  1.00  0.00     0.275 HD
ATOM     13  H11 UNL     1      -2.352   1.895  -0.315  1.00  0.00     0.275 HD
ENDBRANCH   5  10
BRANCH   8  14
HETATM   14  O1  UNL     1       1.697   2.097   0.479  1.00  0.00    -0.395 OA
ATOM     15  H1  UNL     1       1.548   2.825   1.071  1.00  0.00     0.210 HD
ENDBRANCH   8  14
TORSDOF 2
