REMARK  6 active torsions:
REMARK  status: ('A' for Active; 'I' for Inactive)
REMARK    1  A    between atoms: C9_11  and  C10_12 
REMARK    2  A    between atoms: C10_12  and  C11_13 
REMARK    3  A    between atoms: C10_12  and  C12_16 
REMARK    4  A    between atoms: C11_13  and  O3_14 
REMARK    5  A    between atoms: C12_16  and  O4_17 
REMARK    6  A    between atoms: C16_23  and  O6_24 
ROOT
HETATM    1  C1  UNL     1      -4.368   0.927   0.195  1.00  0.00     0.017 C 
HETATM    2  C2  UNL     1      -3.053   0.315  -0.350  1.00  0.00    -0.019 C 
HETATM    3  C3  UNL     1      -3.235   0.394  -1.875  1.00  0.00     0.017 C 
HETATM    4  C4  UNL     1      -2.011   1.300   0.031  1.00  0.00     0.046 C 
HETATM    5  C5  UNL     1      -0.597   0.967  -0.044  1.00  0.00     0.153 C 
HETATM    6  O1  UNL     1      -0.018   1.049   1.245  1.00  0.00    -0.370 OA
HETATM    7  C6  UNL     1       0.233  -0.216   1.694  1.00  0.00     0.085 C 
HETATM    8  C7  UNL     1      -0.230  -0.477   3.112  1.00  0.00     0.049 C 
HETATM    9  C8  UNL     1       1.746  -0.407   1.721  1.00  0.00     0.209 C 
HETATM   10  O2  UNL     1       2.242   0.338   0.651  1.00  0.00    -0.358 OA
HETATM   11  C9  UNL     1       2.145  -0.464  -0.466  1.00  0.00     0.268 C 
HETATM   12  O5  UNL     1       1.003  -0.476  -1.134  1.00  0.00    -0.352 OA
HETATM   13  C13 UNL     1      -0.201  -0.383  -0.565  1.00  0.00     0.160 C 
HETATM   14  C14 UNL     1      -0.418  -1.191   0.698  1.00  0.00     0.056 C 
HETATM   15  C15 UNL     1      -1.819  -1.333   1.115  1.00  0.00     0.042 C 
HETATM   16  C16 UNL     1      -2.905  -1.071   0.125  1.00  0.00     0.126 C 
ENDROOT
BRANCH  11  17
HETATM   17  C10 UNL     1       3.278  -0.076  -1.397  1.00  0.00     0.088 C 
BRANCH  17  18
HETATM   18  C11 UNL     1       4.625  -0.278  -0.739  1.00  0.00     0.175 C 
BRANCH  18  19
HETATM   19  O3  UNL     1       5.596   0.105  -1.672  1.00  0.00    -0.400 OA
ATOM     20  H3  UNL     1       6.442  -0.022  -1.259  1.00  0.00     0.209 HD
ENDBRANCH  18  19
ENDBRANCH  17  18
BRANCH  17  21
HETATM   21  C12 UNL     1       3.151   1.383  -1.817  1.00  0.00     0.175 C 
BRANCH  21  22
HETATM   22  O4  UNL     1       3.193   2.217  -0.703  1.00  0.00    -0.400 OA
ATOM     23  H4  UNL     1       3.114   3.127  -0.965  1.00  0.00     0.209 HD
ENDBRANCH  21  22
ENDBRANCH  17  21
ENDBRANCH  11  17
BRANCH  16  24
HETATM   24  O6  UNL     1      -2.968  -2.049  -0.902  1.00  0.00    -0.395 OA
ATOM     25  H6  UNL     1      -2.873  -2.943  -0.596  1.00  0.00     0.210 HD
ENDBRANCH  16  24
TORSDOF 6
