REMARK  9 active torsions:
REMARK  status: ('A' for Active; 'I' for Inactive)
REMARK    1  A    between atoms: C1_4  and  C2_6 
REMARK       I    between atoms: C2_6  and  N3_8 
REMARK    2  A    between atoms: N3_8  and  C3_9 
REMARK    3  A    between atoms: C3_9  and  C4_10 
REMARK    4  A    between atoms: C4_10  and  N4_11 
REMARK    5  A    between atoms: N4_11  and  C5_13 
REMARK    6  A    between atoms: C9_17  and  C10_18 
REMARK    7  A    between atoms: C11_20  and  N5_21 
REMARK    8  A    between atoms: N5_21  and  N6_22 
REMARK    9  A    between atoms: N5_21  and  O3_25 
ROOT
HETATM    1  C5  UNL     1      -1.463  -0.095   0.043  1.00  0.00     0.060 A 
HETATM    2  C6  UNL     1      -0.993   1.080  -0.565  1.00  0.00     0.031 A 
HETATM    3  C7  UNL     1      -1.960   2.025  -0.833  1.00  0.00     0.003 A 
HETATM    4  C8  UNL     1      -3.264   1.870  -0.539  1.00  0.00     0.017 A 
HETATM    5  C9  UNL     1      -3.723   0.691   0.080  1.00  0.00     0.035 A 
HETATM    6  C11 UNL     1      -2.809  -0.307   0.367  1.00  0.00     0.120 A 
ENDROOT
BRANCH   1   7
HETATM    7  N4  UNL     1      -0.453  -1.088   0.254  1.00  0.00    -0.382 N 
ATOM      8  H4  UNL     1      -0.696  -2.079   0.265  1.00  0.00     0.160 HD
BRANCH   7   9
HETATM    9  C4  UNL     1       0.909  -0.668   0.450  1.00  0.00     0.179 C 
BRANCH   9  10
HETATM   10  C3  UNL     1       1.870  -0.849  -0.700  1.00  0.00     0.179 C 
BRANCH  10  11
HETATM   11  N3  UNL     1       3.141  -0.411  -0.328  1.00  0.00    -0.380 NA
HETATM   12  C2  UNL     1       4.405   0.020   0.048  1.00  0.00     0.356 C 
HETATM   13  O1  UNL     1       4.928  -0.483   1.097  1.00  0.00    -0.248 OA
BRANCH  12  14
HETATM   14  C1  UNL     1       5.189   1.062  -0.686  1.00  0.00     0.193 C 
HETATM   15  N1  UNL     1       4.826   1.584  -1.732  1.00  0.00    -0.382 N 
ATOM     16  H12 UNL     1       5.360   2.294  -2.232  1.00  0.00     0.157 HD
ATOM     17  H11 UNL     1       3.996   1.290  -2.247  1.00  0.00     0.157 HD
HETATM   18  N2  UNL     1       6.362   1.477   0.041  1.00  0.00    -0.076 NA
ENDBRANCH  12  14
ENDBRANCH  10  11
ENDBRANCH   9  10
ENDBRANCH   7   9
ENDBRANCH   1   7
BRANCH   6  19
HETATM   19  N5  UNL     1      -3.181  -1.522   0.971  1.00  0.00    -0.167 N 
BRANCH  19  20
HETATM   20  N6  UNL     1      -4.463  -2.025   1.002  1.00  0.00    -0.319 N 
ATOM     21  H62 UNL     1      -5.144  -1.432   0.528  1.00  0.00     0.179 HD
ATOM     22  H61 UNL     1      -4.733  -2.906   1.440  1.00  0.00     0.179 HD
ENDBRANCH  19  20
BRANCH  19  23
HETATM   23  O3  UNL     1      -2.264  -2.321   1.609  1.00  0.00    -0.268 OA
ATOM     24  H3  UNL     1      -2.515  -3.141   2.017  1.00  0.00     0.247 HD
ENDBRANCH  19  23
ENDBRANCH   6  19
BRANCH   5  25
HETATM   25  C10 UNL     1      -5.096   0.717   0.591  1.00  0.00     0.272 C 
HETATM   26  O2  UNL     1      -5.689   0.095   1.427  1.00  0.00    -0.301 OA
ENDBRANCH   5  25
TORSDOF 9
