REMARK  8 active torsions:
REMARK  status: ('A' for Active; 'I' for Inactive)
REMARK    1  A    between atoms: C2_3  and  N2_4 
REMARK    2  A    between atoms: N2_4  and  C3_6 
REMARK    3  A    between atoms: C3_6  and  C4_7 
REMARK    4  A    between atoms: C4_7  and  S1_8 
REMARK    5  A    between atoms: S1_8  and  S2_9 
REMARK    6  A    between atoms: S2_9  and  C5_10 
REMARK    7  A    between atoms: C7_15  and  N5_16 
REMARK    8  A    between atoms: C8_21  and  N7_22 
ROOT
HETATM    1  N1  UNL     1       6.441  -0.340   1.475  1.00  0.00    -0.196 NA
HETATM    2  C1  UNL     1       5.849  -0.009   0.519  1.00  0.00     0.078 C 
HETATM    3  C2  UNL     1       5.120   0.437  -0.659  1.00  0.00     0.238 C 
ENDROOT
BRANCH   3   4
HETATM    4  N2  UNL     1       3.748   0.650  -0.360  1.00  0.00    -0.409 N 
ATOM      5  H2  UNL     1       3.331   1.581  -0.347  1.00  0.00     0.154 HD
BRANCH   4   6
HETATM    6  C3  UNL     1       2.973  -0.561  -0.071  1.00  0.00     0.125 C 
BRANCH   6   7
HETATM    7  C4  UNL     1       1.750  -0.040   0.630  1.00  0.00     0.105 C 
BRANCH   7   8
HETATM    8  S1  UNL     1       0.546  -1.214   1.184  1.00  0.00    -0.090 SA
BRANCH   8   9
HETATM    9  S2  UNL     1      -0.838  -1.875  -0.340  1.00  0.00    -0.051 SA
BRANCH   9  10
HETATM   10  C5  UNL     1      -2.217  -0.681  -0.270  1.00  0.00     0.097 A 
HETATM   11  C6  UNL     1      -3.231  -0.833   0.652  1.00  0.00     0.153 A 
HETATM   12  N3  UNL     1      -3.196  -1.956   1.495  1.00  0.00    -0.081 NA
HETATM   13  N4  UNL     1      -4.177   0.118   0.705  1.00  0.00    -0.178 N 
HETATM   14  C7  UNL     1      -4.176   1.208  -0.117  1.00  0.00     0.678 A 
ATOM     15  H4  UNL     1      -4.928   0.022   1.388  1.00  0.00     0.185 HD
HETATM   16  N6  UNL     1      -3.140   1.349  -1.026  1.00  0.00    -0.176 N 
HETATM   17  C8  UNL     1      -2.176   0.401  -1.091  1.00  0.00     0.135 A 
ATOM     18  H6  UNL     1      -3.104   2.161  -1.642  1.00  0.00     0.186 HD
BRANCH  14  19
HETATM   19  N5  UNL     1      -5.125   1.894  -0.240  1.00  0.00    -0.234 N 
ATOM     20  H52 UNL     1      -5.888   1.790   0.429  1.00  0.00     0.174 HD
ATOM     21  H51 UNL     1      -5.124   2.708  -0.854  1.00  0.00     0.174 HD
ENDBRANCH  14  19
BRANCH  17  22
HETATM   22  N7  UNL     1      -1.276   0.421  -2.074  1.00  0.00    -0.384 N 
ATOM     23  H72 UNL     1      -0.550  -0.293  -2.123  1.00  0.00     0.157 HD
ATOM     24  H71 UNL     1      -1.245   1.233  -2.690  1.00  0.00     0.157 HD
ENDBRANCH  17  22
ENDBRANCH   9  10
ENDBRANCH   8   9
ENDBRANCH   7   8
ENDBRANCH   6   7
ENDBRANCH   4   6
ENDBRANCH   3   4
TORSDOF 8
