REMARK  9 active torsions:
REMARK  status: ('A' for Active; 'I' for Inactive)
REMARK    1  A    between atoms: N1_1  and  N2_4 
REMARK    2  A    between atoms: N2_4  and  C1_6 
REMARK    3  A    between atoms: C3_13  and  N5_14 
REMARK    4  A    between atoms: N5_14  and  C4_16 
REMARK    5  A    between atoms: C8_20  and  O2_21 
REMARK    6  A    between atoms: O2_21  and  C9_22 
REMARK    7  A    between atoms: C9_22  and  C10_23 
REMARK    8  A    between atoms: C10_23  and  O3_24 
REMARK    9  A    between atoms: O3_24  and  N6_25 
ROOT
HETATM    1  N5  UNL     1      -2.069  -0.516  -0.059  1.00  0.00    -0.352 N 
ATOM      2  H5  UNL     1      -2.151  -1.532  -0.097  1.00  0.00     0.166 HD
ENDROOT
BRANCH   1   3
HETATM    3  C3  UNL     1      -3.260   0.272  -0.249  1.00  0.00     0.149 A 
HETATM    4  C1  UNL     1      -4.523  -0.266   0.039  1.00  0.00     0.167 A 
HETATM    5  N3  UNL     1      -5.430   0.814  -0.160  1.00  0.00    -0.280 N 
HETATM    6  N4  UNL     1      -4.780   1.817  -0.509  1.00  0.00    -0.263 N 
ATOM      7  H3  UNL     1      -6.442   0.773  -0.037  1.00  0.00     0.189 HD
HETATM    8  C2  UNL     1      -3.425   1.615  -0.634  1.00  0.00     0.290 A 
ATOM      9  H4  UNL     1      -5.219   2.720  -0.689  1.00  0.00     0.190 HD
HETATM   10  O1  UNL     1      -2.648   2.505  -1.003  1.00  0.00    -0.264 OA
BRANCH   4  11
HETATM   11  N2  UNL     1      -4.935  -1.595   0.159  1.00  0.00    -0.289 N 
ATOM     12  H2  UNL     1      -5.873  -1.811  -0.178  1.00  0.00     0.188 HD
BRANCH  11  13
HETATM   13  N1  UNL     1      -4.230  -2.622   0.670  1.00  0.00    -0.344 N 
ATOM     14  H12 UNL     1      -3.295  -2.386   1.001  1.00  0.00     0.176 HD
ATOM     15  H11 UNL     1      -4.531  -3.593   0.758  1.00  0.00     0.176 HD
ENDBRANCH  11  13
ENDBRANCH   4  11
ENDBRANCH   1   3
BRANCH   1  16
HETATM   16  C4  UNL     1      -0.813   0.036   0.174  1.00  0.00     0.016 A 
HETATM   17  C5  UNL     1      -0.509   1.258   0.515  1.00  0.00     0.025 A 
HETATM   18  C6  UNL     1       0.699   1.972   0.543  1.00  0.00     0.004 A 
HETATM   19  C7  UNL     1       1.794   1.145   0.135  1.00  0.00     0.033 A 
HETATM   20  C8  UNL     1       1.682  -0.172  -0.151  1.00  0.00     0.052 A 
HETATM   21  C11 UNL     1       0.343  -0.751  -0.161  1.00  0.00     0.121 A 
BRANCH  20  22
HETATM   22  O2  UNL     1       2.708  -1.020  -0.387  1.00  0.00    -0.353 OA
BRANCH  22  23
HETATM   23  C9  UNL     1       3.896  -0.465  -0.422  1.00  0.00     0.204 C 
BRANCH  23  24
HETATM   24  C10 UNL     1       5.187  -1.287   0.069  1.00  0.00     0.227 C 
BRANCH  24  25
HETATM   25  O3  UNL     1       6.083  -0.361  -0.335  1.00  0.00    -0.285 OA
BRANCH  25  26
HETATM   26  N6  UNL     1       6.955   0.218   0.415  1.00  0.00    -0.311 N 
ATOM     27  H62 UNL     1       6.955  -0.058   1.397  1.00  0.00     0.184 HD
ATOM     28  H61 UNL     1       7.632   0.917   0.110  1.00  0.00     0.184 HD
ENDBRANCH  25  26
ENDBRANCH  24  25
ENDBRANCH  23  24
ENDBRANCH  22  23
ENDBRANCH  20  22
ENDBRANCH   1  16
TORSDOF 9
