REMARK  9 active torsions:
REMARK  status: ('A' for Active; 'I' for Inactive)
REMARK    1  A    between atoms: N1_1  and  C1_4 
REMARK    2  A    between atoms: C2_7  and  N3_8 
REMARK    3  A    between atoms: N3_8  and  C3_10 
REMARK    4  A    between atoms: C3_10  and  O1_11 
REMARK    5  A    between atoms: C3_10  and  C4_13 
REMARK    6  A    between atoms: C8_21  and  C9_22 
REMARK    7  A    between atoms: C9_22  and  N6_23 
REMARK    8  A    between atoms: C9_22  and  C10_27 
REMARK    9  A    between atoms: C10_27  and  C11_28 
ROOT
HETATM    1  C1  UNL     1      -0.815  -2.331  -0.224  1.00  0.00     0.677 A 
HETATM    2  N2  UNL     1       0.392  -1.694  -0.216  1.00  0.00    -0.177 N 
ATOM      3  H2  UNL     1       1.246  -2.228  -0.377  1.00  0.00     0.185 HD
HETATM    4  C2  UNL     1       0.466  -0.369   0.002  1.00  0.00     0.121 A 
HETATM    5  C7  UNL     1      -0.714   0.311   0.215  1.00  0.00     0.076 A 
HETATM    6  C8  UNL     1      -1.925  -0.328   0.207  1.00  0.00     0.061 A 
HETATM    7  N7  UNL     1      -1.959  -1.650  -0.014  1.00  0.00    -0.194 N 
ATOM      8  H7  UNL     1      -2.853  -2.142  -0.023  1.00  0.00     0.184 HD
ENDROOT
BRANCH   4   9
HETATM    9  N3  UNL     1       1.735   0.293   0.009  1.00  0.00    -0.345 N 
ATOM     10  H3  UNL     1       1.794   1.298   0.174  1.00  0.00     0.164 HD
BRANCH   9  11
HETATM   11  C3  UNL     1       2.939  -0.490  -0.223  1.00  0.00     0.272 C 
BRANCH  11  12
HETATM   12  O1  UNL     1       3.004  -1.449   0.784  1.00  0.00    -0.371 OA
ATOM     13  H1  UNL     1       3.790  -1.960   0.633  1.00  0.00     0.212 HD
ENDBRANCH  11  12
BRANCH  11  14
HETATM   14  C4  UNL     1       4.140   0.354  -0.303  1.00  0.00     0.074 A 
HETATM   15  C5  UNL     1       4.468   1.391   0.546  1.00  0.00     0.118 A 
HETATM   16  N4  UNL     1       5.626   1.960   0.202  1.00  0.00    -0.360 N 
HETATM   17  C6  UNL     1       6.051   1.274  -0.892  1.00  0.00     0.180 A 
ATOM     18  H4  UNL     1       6.092   2.742   0.662  1.00  0.00     0.166 HD
HETATM   19  N5  UNL     1       5.162   0.309  -1.199  1.00  0.00    -0.351 N 
ATOM     20  H5  UNL     1       5.242  -0.347  -1.976  1.00  0.00     0.166 HD
ENDBRANCH  11  14
ENDBRANCH   9  11
ENDBRANCH   4   9
BRANCH   1  21
HETATM   21  N1  UNL     1      -0.832  -3.602  -0.437  1.00  0.00    -0.234 N 
ATOM     22  H12 UNL     1       0.034  -4.117  -0.596  1.00  0.00     0.174 HD
ATOM     23  H11 UNL     1      -1.734  -4.078  -0.443  1.00  0.00     0.174 HD
ENDBRANCH   1  21
BRANCH   6  24
HETATM   24  C9  UNL     1      -3.196   0.398   0.435  1.00  0.00     0.239 C 
BRANCH  24  25
HETATM   25  N6  UNL     1      -4.083  -0.262   1.335  1.00  0.00    -0.069 N 
ATOM     26  H63 UNL     1      -4.265  -1.216   1.024  1.00  0.00     0.275 HD
ATOM     27  H62 UNL     1      -3.617  -0.456   2.221  1.00  0.00     0.275 HD
ATOM     28  H61 UNL     1      -4.958   0.238   1.492  1.00  0.00     0.275 HD
ENDBRANCH  24  25
BRANCH  24  29
HETATM   29  C10 UNL     1      -3.950   0.586  -0.868  1.00  0.00     0.108 C 
BRANCH  29  30
HETATM   30  C11 UNL     1      -5.201   1.319  -0.536  1.00  0.00     0.233 C 
HETATM   31  O2  UNL     1      -6.184   0.797  -0.043  1.00  0.00    -0.307 OA
ENDBRANCH  29  30
ENDBRANCH  24  29
ENDBRANCH   6  24
TORSDOF 9
