REMARK  2 active torsions:
REMARK  status: ('A' for Active; 'I' for Inactive)
REMARK    1  A    between atoms: O1_1  and  C1_3 
REMARK    2  A    between atoms: C4_6  and  C5_7 
ROOT
HETATM    1  C1  UNL     1      -1.741  -0.558  -0.148  1.00  0.00     0.319 C 
HETATM    2  C2  UNL     1      -1.372   0.476   0.885  1.00  0.00     0.063 C 
HETATM    3  C3  UNL     1      -0.097   1.054   0.286  1.00  0.00     0.041 C 
HETATM    4  C4  UNL     1       0.535  -0.158  -0.359  1.00  0.00     0.212 C 
HETATM    5  N1  UNL     1      -0.461  -1.189  -0.407  1.00  0.00    -0.042 N 
ATOM      6  H11 UNL     1      -0.446  -1.720  -1.278  1.00  0.00     0.281 HD
ATOM      7  H12 UNL     1      -0.263  -1.966   0.223  1.00  0.00     0.281 HD
ENDROOT
BRANCH   4   8
HETATM    8  C5  UNL     1       1.703  -0.661   0.395  1.00  0.00     0.018 C 
HETATM    9  C6  UNL     1       2.945  -0.304   0.129  1.00  0.00     0.082 C 
HETATM   10 CL1  UNL     1       3.188   0.838  -1.207  1.00  0.00    -0.097 Cl
ENDBRANCH   4   8
BRANCH   1  11
HETATM   11  O1  UNL     1      -2.299   0.002  -1.287  1.00  0.00    -0.370 OA
ATOM     12  H1  UNL     1      -2.532  -0.650  -1.938  1.00  0.00     0.212 HD
ENDBRANCH   1  11
TORSDOF 2
