REMARK  2 active torsions:
REMARK  status: ('A' for Active; 'I' for Inactive)
REMARK    1  A    between atoms: O1_2  and  N1_3 
REMARK    2  A    between atoms: N1_3  and  C2_4 
ROOT
HETATM    1  C2  UNL     1       0.673  -0.121   0.610  1.00  0.00     0.199 C 
HETATM    2  C3  UNL     1      -0.246  -1.253   0.995  1.00  0.00     0.047 C 
HETATM    3  C4  UNL     1      -1.626  -0.653   1.241  1.00  0.00     0.041 C 
HETATM    4  C5  UNL     1      -2.326  -0.602  -0.084  1.00  0.00     0.171 C 
HETATM    5  F1  UNL     1      -3.682  -0.799   0.116  1.00  0.00    -0.249 F 
HETATM    6  C6  UNL     1      -2.117   0.647  -0.852  1.00  0.00     0.056 C 
HETATM    7  C7  UNL     1      -0.733   1.191  -0.840  1.00  0.00     0.118 C 
HETATM    8  N2  UNL     1      -0.041   1.092   0.395  1.00  0.00    -0.403 N 
ATOM      9  H2  UNL     1      -0.054   1.843   1.085  1.00  0.00     0.154 HD
ENDROOT
BRANCH   1  10
HETATM   10  N1  UNL     1       1.487  -0.545  -0.491  1.00  0.00    -0.076 NA
BRANCH  10  11
HETATM   11  O1  UNL     1       2.349   0.388  -0.922  1.00  0.00    -0.289 OA
HETATM   12  C1  UNL     1       3.590   0.263  -0.304  1.00  0.00     0.231 C 
ENDBRANCH  10  11
ENDBRANCH   1  10
TORSDOF 2
