REMARK  4 active torsions:
REMARK  status: ('A' for Active; 'I' for Inactive)
REMARK    1  A    between atoms: N1_2  and  C2_4 
REMARK    2  A    between atoms: C2_4  and  N2_6 
REMARK    3  A    between atoms: N2_6  and  C3_8 
REMARK    4  A    between atoms: C7_12  and  C8_13 
ROOT
HETATM    1  C3  UNL     1       0.984  -0.922  -0.043  1.00  0.00     0.040 A 
HETATM    2  C4  UNL     1       0.637   0.334   0.299  1.00  0.00     0.037 A 
HETATM    3  C5  UNL     1      -0.717   0.757   0.347  1.00  0.00    -0.050 A 
HETATM    4  C6  UNL     1      -0.993   2.141   0.717  1.00  0.00     0.049 C 
HETATM    5  C7  UNL     1      -1.737  -0.096   0.047  1.00  0.00    -0.013 A 
HETATM    6  C11 UNL     1      -1.345  -1.382  -0.299  1.00  0.00     0.020 A 
HETATM    7  C12 UNL     1      -0.071  -1.801  -0.351  1.00  0.00    -0.035 A 
HETATM    8  C13 UNL     1       0.306  -3.189  -0.732  1.00  0.00     0.050 C 
ENDROOT
BRANCH   1   9
HETATM    9  N2  UNL     1       2.306  -1.403  -0.045  1.00  0.00    -0.333 N 
ATOM     10  H2  UNL     1       2.384  -2.419   0.000  1.00  0.00     0.168 HD
BRANCH   9  11
HETATM   11  C2  UNL     1       3.510  -0.745  -0.097  1.00  0.00     0.171 C 
HETATM   12  S1  UNL     1       4.863  -1.753  -0.012  1.00  0.00    -0.041 SA
BRANCH  11  13
HETATM   13  N1  UNL     1       3.850   0.612  -0.206  1.00  0.00    -0.371 N 
HETATM   14  C1  UNL     1       5.262   1.052  -0.217  1.00  0.00     0.148 C 
ATOM     15  H1  UNL     1       3.109   1.309  -0.279  1.00  0.00     0.161 HD
ENDBRANCH  11  13
ENDBRANCH   9  11
ENDBRANCH   1   9
BRANCH   5  16
HETATM   16  C8  UNL     1      -3.130   0.317   0.099  1.00  0.00     0.124 C 
HETATM   17  C9  UNL     1      -3.490   1.466  -0.817  1.00  0.00     0.057 C 
HETATM   18  C10 UNL     1      -3.717   0.455   1.480  1.00  0.00     0.057 C 
HETATM   19  F1  UNL     1      -3.861  -0.769  -0.455  1.00  0.00    -0.238 F 
ENDBRANCH   5  16
TORSDOF 4
