REMARK  4 active torsions:
REMARK  status: ('A' for Active; 'I' for Inactive)
REMARK    1  A    between atoms: C2_2  and  N1_4 
REMARK    2  A    between atoms: N1_4  and  C4_6 
REMARK    3  A    between atoms: C4_6  and  N2_8 
REMARK    4  A    between atoms: N2_8  and  C5_10 
ROOT
HETATM    1  C5  UNL     1      -0.523  -0.930   0.278  1.00  0.00     0.117 C 
HETATM    2  C6  UNL     1      -1.199  -0.096   1.309  1.00  0.00     0.028 C 
HETATM    3  C7  UNL     1      -1.545   1.286   0.875  1.00  0.00     0.002 C 
HETATM    4  C8  UNL     1      -2.908   1.567   0.415  1.00  0.00     0.000 C 
HETATM    5  C9  UNL     1      -3.871   0.429   0.335  1.00  0.00     0.000 C 
HETATM    6  C10 UNL     1      -3.680  -0.413  -0.912  1.00  0.00     0.003 C 
HETATM    7  C11 UNL     1      -2.657  -1.484  -0.749  1.00  0.00     0.039 C 
HETATM    8  C12 UNL     1      -1.259  -1.043  -1.036  1.00  0.00     0.192 C 
HETATM    9  F1  UNL     1      -1.152   0.043  -1.846  1.00  0.00    -0.247 F 
ENDROOT
BRANCH   1  10
HETATM   10  N2  UNL     1       0.883  -0.669   0.096  1.00  0.00    -0.360 N 
ATOM     11  H2  UNL     1       1.163  -0.240  -0.786  1.00  0.00     0.162 HD
BRANCH  10  12
HETATM   12  C4  UNL     1       1.902  -0.949   1.016  1.00  0.00     0.168 C 
HETATM   13  S1  UNL     1       1.520  -1.674   2.427  1.00  0.00    -0.041 SA
BRANCH  12  14
HETATM   14  N1  UNL     1       3.257  -0.640   0.752  1.00  0.00    -0.363 N 
ATOM     15  H1  UNL     1       3.971  -0.868   1.444  1.00  0.00     0.162 HD
BRANCH  14  16
HETATM   16  C2  UNL     1       3.638  -0.007  -0.483  1.00  0.00     0.075 C 
HETATM   17  C1  UNL     1       5.178   0.038  -0.515  1.00  0.00     0.032 C 
HETATM   18  C3  UNL     1       3.144   1.434  -0.531  1.00  0.00     0.032 C 
ENDBRANCH  14  16
ENDBRANCH  12  14
ENDBRANCH  10  12
ENDBRANCH   1  10
TORSDOF 4
