REMARK  3 active torsions:
REMARK  status: ('A' for Active; 'I' for Inactive)
REMARK    1  A    between atoms: C1_2  and  N1_3 
REMARK    2  A    between atoms: C1_2  and  N2_6 
REMARK    3  A    between atoms: N2_6  and  C2_8 
ROOT
HETATM    1  C2  UNL     1       0.888   0.275   0.341  1.00  0.00     0.033 C 
HETATM    2  C3  UNL     1       0.567   0.343  -1.110  1.00  0.00     0.035 C 
HETATM    3  C4  UNL     1      -0.831   0.718  -1.468  1.00  0.00    -0.012 C 
HETATM    4  C5  UNL     1      -1.766  -0.458  -1.552  1.00  0.00     0.005 C 
HETATM    5  C6  UNL     1      -1.611  -1.472  -0.494  1.00  0.00     0.005 C 
HETATM    6  C7  UNL     1      -1.196  -1.022   0.846  1.00  0.00    -0.012 C 
HETATM    7  C8  UNL     1      -1.836   0.240   1.344  1.00  0.00     0.009 C 
HETATM    8  C9  UNL     1      -1.193   1.482   0.839  1.00  0.00    -0.012 C 
HETATM    9  C10 UNL     1      -1.484   1.752  -0.620  1.00  0.00     0.009 C 
HETATM   10  C11 UNL     1       0.275   1.530   1.013  1.00  0.00     0.035 C 
HETATM   11  C12 UNL     1       0.307  -0.943   1.008  1.00  0.00     0.035 C 
ENDROOT
BRANCH   1  12
HETATM   12  N2  UNL     1       2.280   0.332   0.642  1.00  0.00    -0.357 N 
ATOM     13  H2  UNL     1       2.546   1.123   1.229  1.00  0.00     0.162 HD
BRANCH  12  14
HETATM   14  C1  UNL     1       3.346  -0.492   0.283  1.00  0.00     0.182 C 
HETATM   15  S1  UNL     1       4.870  -0.100   0.835  1.00  0.00    -0.040 SA
BRANCH  14  16
HETATM   16  N1  UNL     1       3.252  -1.635  -0.510  1.00  0.00    -0.275 N 
HETATM   17 CL1  UNL     1       4.730  -2.553  -0.857  1.00  0.00     0.013 Cl
ATOM     18  H1  UNL     1       2.352  -1.937  -0.883  1.00  0.00     0.183 HD
ENDBRANCH  14  16
ENDBRANCH  12  14
ENDBRANCH   1  12
TORSDOF 3
