REMARK  2 active torsions:
REMARK  status: ('A' for Active; 'I' for Inactive)
REMARK    1  A    between atoms: C10_10  and  N1_11 
REMARK       I    between atoms: N1_11  and  C11_13 
REMARK       I    between atoms: C11_13  and  N2_15 
REMARK    2  A    between atoms: N2_15  and  C12_17 
ROOT
HETATM    1  C1  UNL     1      -0.710  -0.570  -1.900  1.00  0.00     0.017 C 
HETATM    2  C2  UNL     1      -1.305  -0.115  -0.840  1.00  0.00    -0.057 C 
HETATM    3  C3  UNL     1      -2.599   0.646  -0.995  1.00  0.00     0.017 C 
HETATM    4  C4  UNL     1      -3.707  -0.126  -0.284  1.00  0.00     0.014 C 
HETATM    5  C5  UNL     1      -3.244  -0.459   1.096  1.00  0.00    -0.011 C 
HETATM    6  C6  UNL     1      -3.225   0.868   1.860  1.00  0.00     0.009 C 
HETATM    7  C7  UNL     1      -2.137   1.692   1.184  1.00  0.00    -0.011 C 
HETATM    8  C8  UNL     1      -2.404   1.953  -0.267  1.00  0.00     0.014 C 
HETATM    9  C9  UNL     1      -0.860   0.956   1.384  1.00  0.00     0.040 C 
HETATM   10  C10 UNL     1      -0.837  -0.314   0.530  1.00  0.00     0.058 C 
HETATM   11  C15 UNL     1      -1.938  -1.191   1.181  1.00  0.00     0.040 C 
ENDROOT
BRANCH  10  12
HETATM   12  N1  UNL     1       0.431  -0.939   0.574  1.00  0.00    -0.330 N 
HETATM   13  C11 UNL     1       1.598  -0.281   0.061  1.00  0.00     0.317 C 
HETATM   14  O1  UNL     1       1.555   0.885  -0.443  1.00  0.00    -0.247 OA
HETATM   15  N2  UNL     1       2.868  -0.903   0.092  1.00  0.00    -0.339 N 
ATOM     16  H2  UNL     1       2.960  -1.839   0.487  1.00  0.00     0.164 HD
ATOM     17  H1  UNL     1       0.517  -1.872   0.977  1.00  0.00     0.165 HD
BRANCH  15  18
HETATM   18  C12 UNL     1       4.024  -0.238  -0.422  1.00  0.00     0.078 C 
HETATM   19  C13 UNL     1       4.650  -1.011  -1.569  1.00  0.00     0.032 C 
HETATM   20  C14 UNL     1       5.075  -0.122   0.674  1.00  0.00     0.032 C 
ENDBRANCH  15  18
ENDBRANCH  10  12
TORSDOF 2
