REMARK  2 active torsions:
REMARK  status: ('A' for Active; 'I' for Inactive)
REMARK    1  A    between atoms: C2_2  and  N1_4 
REMARK       I    between atoms: N1_4  and  C4_6 
REMARK       I    between atoms: C4_6  and  N2_8 
REMARK    2  A    between atoms: N2_8  and  C5_10 
ROOT
HETATM    1  C5  UNL     1      -1.070   0.104  -0.758  1.00  0.00     0.056 C 
HETATM    2  C6  UNL     1      -1.840   0.831  -1.858  1.00  0.00     0.038 C 
HETATM    3  C7  UNL     1      -3.199   0.934  -1.178  1.00  0.00    -0.010 C 
HETATM    4  C8  UNL     1      -3.783  -0.406  -0.835  1.00  0.00     0.009 C 
HETATM    5  C9  UNL     1      -2.808  -1.283  -0.092  1.00  0.00    -0.010 C 
HETATM    6  C10 UNL     1      -2.382  -0.542   1.164  1.00  0.00     0.033 C 
HETATM    7  C11 UNL     1      -1.639   0.645   0.536  1.00  0.00     0.063 C 
HETATM    8 CL1  UNL     1      -0.488   1.404   1.601  1.00  0.00    -0.117 Cl
HETATM    9  C12 UNL     1      -2.751   1.594   0.114  1.00  0.00     0.033 C 
HETATM   10  C13 UNL     1      -1.461  -1.334  -0.830  1.00  0.00     0.038 C 
ENDROOT
BRANCH   1  11
HETATM   11  N2  UNL     1       0.329   0.350  -0.818  1.00  0.00    -0.332 N 
HETATM   12  C4  UNL     1       1.342  -0.213  -0.017  1.00  0.00     0.317 C 
HETATM   13  N1  UNL     1       2.688   0.183  -0.229  1.00  0.00    -0.339 N 
HETATM   14  O1  UNL     1       1.101  -1.074   0.902  1.00  0.00    -0.247 OA
ATOM     15  H1  UNL     1       2.912   0.866  -0.953  1.00  0.00     0.164 HD
ATOM     16  H2  UNL     1       0.637   1.015  -1.527  1.00  0.00     0.165 HD
BRANCH  13  17
HETATM   17  C2  UNL     1       3.740  -0.384   0.583  1.00  0.00     0.078 C 
HETATM   18  C1  UNL     1       4.456   0.709   1.348  1.00  0.00     0.032 C 
HETATM   19  C3  UNL     1       4.720  -1.053  -0.369  1.00  0.00     0.032 C 
ENDBRANCH  13  17
ENDBRANCH   1  11
TORSDOF 2
