REMARK  5 active torsions:
REMARK  status: ('A' for Active; 'I' for Inactive)
REMARK    1  A    between atoms: C2_2  and  N1_3 
REMARK    2  A    between atoms: C2_2  and  C10_15 
REMARK    3  A    between atoms: N1_3  and  C3_5 
REMARK    4  A    between atoms: C3_5  and  N2_7 
REMARK    5  A    between atoms: N2_7  and  C4_9 
ROOT
HETATM    1  C3  UNL     1       0.020   0.340   0.392  1.00  0.00     0.172 C 
HETATM    2  S1  UNL     1      -0.119   0.476  -1.221  1.00  0.00    -0.041 SA
ENDROOT
BRANCH   1   3
HETATM    3  N1  UNL     1       1.320   0.475   0.945  1.00  0.00    -0.337 N 
ATOM      4  H1  UNL     1       1.430   0.387   1.955  1.00  0.00     0.168 HD
BRANCH   3   5
HETATM    5  C2  UNL     1       2.473   0.726   0.160  1.00  0.00     0.009 C 
HETATM    6  C1  UNL     1       2.473   1.795  -0.614  1.00  0.00     0.039 C 
BRANCH   5   7
HETATM    7  C10 UNL     1       3.645  -0.149   0.181  1.00  0.00    -0.009 C 
HETATM    8  C11 UNL     1       3.323  -1.569  -0.253  1.00  0.00     0.021 C 
HETATM    9  C12 UNL     1       4.093  -0.259   1.645  1.00  0.00     0.021 C 
HETATM   10  C13 UNL     1       4.815   0.411  -0.579  1.00  0.00     0.021 C 
ENDBRANCH   5   7
ENDBRANCH   3   5
ENDBRANCH   1   3
BRANCH   1  11
HETATM   11  N2  UNL     1      -1.097   0.093   1.186  1.00  0.00    -0.362 N 
ATOM     12  H2  UNL     1      -0.911   0.014   2.186  1.00  0.00     0.162 HD
BRANCH  11  13
HETATM   13  C4  UNL     1      -2.456  -0.065   0.809  1.00  0.00     0.083 C 
HETATM   14  C5  UNL     1      -3.047   1.157   0.197  1.00  0.00     0.025 C 
HETATM   15  C6  UNL     1      -4.504   1.005  -0.152  1.00  0.00     0.002 C 
HETATM   16  C7  UNL     1      -4.812  -0.311  -0.821  1.00  0.00     0.000 C 
HETATM   17  C8  UNL     1      -4.193  -1.488  -0.102  1.00  0.00     0.002 C 
HETATM   18  C9  UNL     1      -2.676  -1.243  -0.154  1.00  0.00     0.025 C 
ENDBRANCH  11  13
ENDBRANCH   1  11
TORSDOF 5
