REMARK  2 active torsions:
REMARK  status: ('A' for Active; 'I' for Inactive)
REMARK    1  A    between atoms: C2_2  and  C4_5 
REMARK    2  A    between atoms: N2_7  and  O1_8 
ROOT
HETATM    1  C1  UNL     1       2.458  -0.951   0.857  1.00  0.00     0.026 C 
HETATM    2  C2  UNL     1       1.478  -0.599  -0.282  1.00  0.00     0.096 C 
HETATM    3  C3  UNL     1       2.045   0.539  -0.950  1.00  0.00     0.064 C 
HETATM    4  N1  UNL     1       2.526   1.444  -1.489  1.00  0.00    -0.197 NA
ENDROOT
BRANCH   2   5
HETATM    5  C4  UNL     1       0.168  -0.391   0.319  1.00  0.00     0.042 C 
HETATM    6  C5  UNL     1      -0.020   0.690   1.344  1.00  0.00     0.129 C 
HETATM    7  N2  UNL     1      -1.450   0.616   0.985  1.00  0.00    -0.190 NA
HETATM    8  C6  UNL     1      -0.956   0.270  -0.365  1.00  0.00     0.037 C 
HETATM    9  C7  UNL     1      -0.789   1.525  -1.121  1.00  0.00     0.034 C 
HETATM   10  C8  UNL     1      -1.827  -0.745  -1.067  1.00  0.00     0.034 C 
BRANCH   7  11
HETATM   11  O1  UNL     1      -2.005  -0.475   1.595  1.00  0.00    -0.312 OA
ATOM     12  H1  UNL     1      -2.925  -0.523   1.364  1.00  0.00     0.237 HD
ENDBRANCH   7  11
ENDBRANCH   2   5
TORSDOF 2
