REMARK  3 active torsions:
REMARK  status: ('A' for Active; 'I' for Inactive)
REMARK    1  A    between atoms: O1_2  and  C2_3 
REMARK    2  A    between atoms: C2_3  and  N1_4 
REMARK    3  A    between atoms: N1_4  and  C3_6 
ROOT
HETATM    1  C2  UNL     1       0.946   0.005   0.375  1.00  0.00     0.130 C 
HETATM    2  C7  UNL     1       1.534  -1.124  -0.456  1.00  0.00     0.061 C 
HETATM    3  C8  UNL     1       2.274  -1.480   0.849  1.00  0.00     0.010 C 
HETATM    4  C9  UNL     1       0.963  -0.980   1.505  1.00  0.00     0.061 C 
ENDROOT
BRANCH   1   5
HETATM    5  O1  UNL     1       2.008   0.905   0.620  1.00  0.00    -0.366 OA
HETATM    6  C1  UNL     1       2.358   1.656  -0.468  1.00  0.00     0.204 C 
ENDBRANCH   1   5
BRANCH   1   7
HETATM    7  N1  UNL     1      -0.166   0.674  -0.029  1.00  0.00    -0.384 N 
ATOM      8  H1  UNL     1      -0.029   1.668  -0.213  1.00  0.00     0.157 HD
BRANCH   7   9
HETATM    9  C3  UNL     1      -1.446   0.216  -0.227  1.00  0.00     0.017 C 
HETATM   10  C4  UNL     1      -1.671  -0.833  -1.273  1.00  0.00     0.037 C 
HETATM   11  C5  UNL     1      -2.290   1.424  -0.697  1.00  0.00     0.037 C 
HETATM   12  C6  UNL     1      -2.121  -0.240   1.051  1.00  0.00     0.037 C 
ENDBRANCH   7   9
ENDBRANCH   1   7
TORSDOF 3
