REMARK  2 active torsions:
REMARK  status: ('A' for Active; 'I' for Inactive)
REMARK    1  A    between atoms: N1_2  and  O1_3 
REMARK    2  A    between atoms: N1_2  and  C2_5 
ROOT
HETATM    1  C2  UNL     1       0.633  -0.622   0.069  1.00  0.00     0.108 C 
HETATM    2  C3  UNL     1       0.048   0.090   1.207  1.00  0.00     0.030 C 
HETATM    3  C4  UNL     1      -1.438   0.297   1.185  1.00  0.00     0.036 C 
HETATM    4  C5  UNL     1      -1.937   1.126   0.047  1.00  0.00     0.151 A 
HETATM    5  O2  UNL     1      -3.297   0.651  -0.340  1.00  0.00    -0.375 OA
HETATM    6  C6  UNL     1      -2.221   0.453  -1.162  1.00  0.00     0.151 A 
HETATM    7  C7  UNL     1      -1.522  -0.890  -1.230  1.00  0.00     0.036 C 
HETATM    8  C8  UNL     1      -0.072  -0.631  -1.228  1.00  0.00     0.030 C 
ENDROOT
BRANCH   1   9
HETATM    9  N1  UNL     1       1.947  -0.108  -0.159  1.00  0.00    -0.296 N 
HETATM   10  C1  UNL     1       2.896  -0.275   0.858  1.00  0.00     0.178 C 
BRANCH   9  11
HETATM   11  O1  UNL     1       2.031   0.947  -0.941  1.00  0.00    -0.292 OA
ATOM     12  H1  UNL     1       1.387   1.060  -1.631  1.00  0.00     0.244 HD
ENDBRANCH   9  11
ENDBRANCH   1   9
TORSDOF 2
