REMARK  2 active torsions:
REMARK  status: ('A' for Active; 'I' for Inactive)
REMARK    1  A    between atoms: C3_3  and  C4_4 
REMARK    2  A    between atoms: C7_8  and  O2_10 
ROOT
HETATM    1  C4  UNL     1      -0.160  -0.621  -0.225  1.00  0.00     0.183 C 
HETATM    2  C5  UNL     1       0.339  -2.057  -0.357  1.00  0.00     0.084 C 
HETATM    3  O1  UNL     1       0.047   0.077  -1.391  1.00  0.00    -0.347 OA
HETATM    4  C6  UNL     1       1.186   0.837  -1.258  1.00  0.00     0.239 C 
HETATM    5  C7  UNL     1       1.556   0.738   0.207  1.00  0.00     0.183 C 
HETATM    6  C8  UNL     1       2.913   0.069   0.315  1.00  0.00     0.081 C 
HETATM    7  O3  UNL     1       0.546  -0.009   0.789  1.00  0.00    -0.314 OA
ENDROOT
BRANCH   1   8
HETATM    8  C3  UNL     1      -1.623  -0.643   0.041  1.00  0.00     0.036 C 
HETATM    9  C2  UNL     1      -2.278   0.452   0.370  1.00  0.00    -0.030 C 
HETATM   10  C1  UNL     1      -3.740   0.435   0.637  1.00  0.00     0.036 C 
ENDBRANCH   1   8
BRANCH   5  11
HETATM   11  O2  UNL     1       1.571   2.013   0.814  1.00  0.00    -0.364 OA
ATOM     12  H2  UNL     1       1.803   1.951   1.733  1.00  0.00     0.213 HD
ENDBRANCH   5  11
TORSDOF 2
