REMARK  3 active torsions:
REMARK  status: ('A' for Active; 'I' for Inactive)
REMARK    1  A    between atoms: C2_3  and  C4_6 
REMARK    2  A    between atoms: N3_10  and  N4_12 
REMARK    3  A    between atoms: N4_12  and  C8_14 
ROOT
HETATM    1  N1  UNL     1       4.356   2.728  -0.340  1.00  0.00    -0.196 NA
HETATM    2  C1  UNL     1       4.749   1.668  -0.079  1.00  0.00     0.080 C 
HETATM    3  C2  UNL     1       5.255   0.347   0.267  1.00  0.00     0.222 C 
HETATM    4  C3  UNL     1       5.390   0.183   1.703  1.00  0.00     0.080 C 
HETATM    5  N2  UNL     1       5.515   0.053   2.855  1.00  0.00    -0.196 NA
ENDROOT
BRANCH   3   6
HETATM    6  C4  UNL     1       4.285  -0.692  -0.264  1.00  0.00     0.114 C 
HETATM    7  C5  UNL     1       4.180  -0.552  -1.770  1.00  0.00     0.035 C 
HETATM    8  C6  UNL     1       2.815  -1.184  -2.049  1.00  0.00     0.080 C 
HETATM    9  C7  UNL     1       2.062  -0.792  -0.849  1.00  0.00     0.092 C 
HETATM   10  N3  UNL     1       0.777  -0.785  -0.757  1.00  0.00    -0.288 N 
HETATM   11  N9  UNL     1       2.926  -0.416   0.215  1.00  0.00    -0.372 N 
ATOM     12  H3  UNL     1       0.239  -1.072  -1.574  1.00  0.00     0.188 HD
ATOM     13  H9  UNL     1       2.657  -0.034   1.122  1.00  0.00     0.161 HD
BRANCH  10  14
HETATM   14  N4  UNL     1       0.081  -0.414   0.378  1.00  0.00    -0.285 N 
ATOM     15  H4  UNL     1       0.563  -0.302   1.270  1.00  0.00     0.188 HD
BRANCH  14  16
HETATM   16  C8  UNL     1      -1.321  -0.191   0.279  1.00  0.00     0.130 C 
HETATM   17  N5  UNL     1      -2.054  -0.896  -0.513  1.00  0.00    -0.369 N 
HETATM   18  C9  UNL     1      -3.475  -0.767  -0.701  1.00  0.00     0.112 C 
ATOM     19  H5  UNL     1      -1.581  -1.615  -1.060  1.00  0.00     0.161 HD
HETATM   20  C10 UNL     1      -4.185  -2.069  -0.552  1.00  0.00     0.100 C 
HETATM   21  C12 UNL     1      -4.125   0.305   0.086  1.00  0.00     0.113 C 
HETATM   22  S1  UNL     1      -4.621  -2.010   1.233  1.00  0.00    -0.165 SA
HETATM   23  C11 UNL     1      -4.711  -0.178   1.346  1.00  0.00     0.097 C 
HETATM   24  N6  UNL     1      -3.120   1.321   0.229  1.00  0.00    -0.170 NA
HETATM   25  N7  UNL     1      -3.456   2.464   0.875  1.00  0.00     0.019 NA
HETATM   26  C13 UNL     1      -2.019   0.842   1.064  1.00  0.00     0.269 C 
HETATM   27  O1  UNL     1      -2.310   2.970   1.381  1.00  0.00    -0.153 OA
HETATM   28  N8  UNL     1      -1.312   2.091   1.203  1.00  0.00    -0.046 NA
ENDBRANCH  14  16
ENDBRANCH  10  14
ENDBRANCH   3   6
TORSDOF 3
