REMARK  5 active torsions:
REMARK  status: ('A' for Active; 'I' for Inactive)
REMARK    1  A    between atoms: C2_2  and  O1_3 
REMARK    2  A    between atoms: N1_6  and  N2_8 
REMARK    3  A    between atoms: N2_8  and  C4_10 
REMARK    4  A    between atoms: C11_21  and  N5_22 
REMARK    5  A    between atoms: N8_29  and  O3_30 
ROOT
HETATM    1  C4  UNL     1       0.414   0.442   0.672  1.00  0.00     0.244 A 
HETATM    2  N3  UNL     1      -0.107  -0.731   0.682  1.00  0.00    -0.328 N 
ATOM      3  H3  UNL     1       0.423  -1.521   1.050  1.00  0.00     0.165 HD
HETATM    4  C5  UNL     1      -1.437  -0.932   0.175  1.00  0.00     0.109 A 
HETATM    5  C6  UNL     1      -2.354  -1.500   1.252  1.00  0.00     0.054 C 
HETATM    6  C7  UNL     1      -3.704  -1.724   0.570  1.00  0.00     0.004 C 
HETATM    7  C8  UNL     1      -3.526  -2.809  -0.466  1.00  0.00     0.000 C 
HETATM    8  C9  UNL     1      -2.655  -2.231  -1.573  1.00  0.00     0.004 C 
HETATM    9  C10 UNL     1      -1.297  -1.965  -0.953  1.00  0.00     0.054 C 
HETATM   10  N4  UNL     1      -2.084   0.256  -0.315  1.00  0.00    -0.329 N 
ATOM     11  H4  UNL     1      -3.030   0.156  -0.683  1.00  0.00     0.165 HD
HETATM   12  C11 UNL     1      -1.568   1.433  -0.327  1.00  0.00     0.231 A 
HETATM   13  O2  UNL     1      -0.282   1.537   0.179  1.00  0.00    -0.245 OA
ENDROOT
BRANCH   1  14
HETATM   14  N2  UNL     1       1.745   0.644   1.179  1.00  0.00    -0.264 N 
ATOM     15  H2  UNL     1       1.934   1.351   1.890  1.00  0.00     0.190 HD
BRANCH  14  16
HETATM   16  N1  UNL     1       2.758  -0.146   0.676  1.00  0.00    -0.290 N 
HETATM   17  C3  UNL     1       3.871   0.326   0.231  1.00  0.00     0.132 C 
HETATM   18  C2  UNL     1       5.082  -0.305  -0.345  1.00  0.00     0.196 C 
HETATM   19  S1  UNL     1       4.680   1.901   0.007  1.00  0.00     0.008 SA
HETATM   20  C1  UNL     1       5.282  -1.750   0.030  1.00  0.00     0.075 C 
HETATM   21  N8  UNL     1       5.878   0.652   0.366  1.00  0.00    -0.090 NA
ATOM     22  H1  UNL     1       2.618  -1.156   0.655  1.00  0.00     0.187 HD
BRANCH  18  23
HETATM   23  O1  UNL     1       5.067  -0.135  -1.737  1.00  0.00    -0.367 OA
ATOM     24  H1  UNL     1       4.941   0.776  -1.974  1.00  0.00     0.212 HD
ENDBRANCH  18  23
BRANCH  21  25
HETATM   25  O3  UNL     1       7.096   0.865  -0.175  1.00  0.00    -0.299 OA
ATOM     26  H3  UNL     1       7.624   1.499   0.296  1.00  0.00     0.238 HD
ENDBRANCH  21  25
ENDBRANCH  14  16
ENDBRANCH   1  14
BRANCH  12  27
HETATM   27  N5  UNL     1      -2.300   2.527  -0.835  1.00  0.00    -0.298 N 
HETATM   28  C12 UNL     1      -2.243   3.717  -0.420  1.00  0.00     0.204 C 
HETATM   29  N6  UNL     1      -3.034   4.722  -1.021  1.00  0.00    -0.066 NA
HETATM   30  N7  UNL     1      -1.390   4.069   0.649  1.00  0.00    -0.066 NA
ATOM     31  H5  UNL     1      -2.935   2.338  -1.611  1.00  0.00     0.171 HD
ENDBRANCH  12  27
TORSDOF 5
