REMARK  6 active torsions:
REMARK  status: ('A' for Active; 'I' for Inactive)
REMARK    1  A    between atoms: C3_5  and  N2_6 
REMARK    2  A    between atoms: N2_6  and  C4_8 
REMARK    3  A    between atoms: C5_10  and  S2_11 
REMARK    4  A    between atoms: S2_11  and  N3_12 
REMARK    5  A    between atoms: S2_11  and  N4_16 
REMARK    6  A    between atoms: N4_16  and  N5_18 
REMARK       I    between atoms: N7_23  and  C6_24 
ROOT
HETATM    1  C4  UNL     1       0.909  -0.203  -0.965  1.00  0.00     0.192 A 
HETATM    2  S1  UNL     1       1.385  -0.028   0.669  1.00  0.00    -0.020 SA
HETATM    3  C5  UNL     1       3.063  -0.240   0.449  1.00  0.00     0.189 A 
HETATM    4  N6  UNL     1       3.132  -0.427  -0.851  1.00  0.00    -0.272 N 
ATOM      5  H6  UNL     1       4.040  -0.585  -1.289  1.00  0.00     0.189 HD
HETATM    6  N7  UNL     1       2.078  -0.413  -1.573  1.00  0.00    -0.183 N 
HETATM    7  C6  UNL     1       2.170  -0.622  -3.007  1.00  0.00     0.356 C 
HETATM    8  N8  UNL     1       0.981  -0.598  -3.759  1.00  0.00    -0.038 NA
HETATM    9  O2  UNL     1       3.275  -0.820  -3.577  1.00  0.00    -0.249 OA
ENDROOT
BRANCH   1  10
HETATM   10  N2  UNL     1      -0.293  -0.148  -1.502  1.00  0.00    -0.168 N 
ATOM     11  H2  UNL     1      -0.398  -0.276  -2.508  1.00  0.00     0.186 HD
BRANCH  10  12
HETATM   12  C3  UNL     1      -1.436   0.085  -0.711  1.00  0.00     0.681 A 
HETATM   13  N1  UNL     1      -1.655   0.932   0.387  1.00  0.00    -0.197 N 
HETATM   14  C2  UNL     1      -2.861   0.847   0.833  1.00  0.00     0.028 A 
ATOM     15  H1  UNL     1      -0.942   1.544   0.785  1.00  0.00     0.183 HD
HETATM   16  C1  UNL     1      -3.483   1.585   1.985  1.00  0.00     0.066 C 
HETATM   17  C7  UNL     1      -3.560  -0.138  -0.013  1.00  0.00     0.079 A 
HETATM   18  N9  UNL     1      -2.559  -0.545  -0.946  1.00  0.00    -0.212 N 
HETATM   19  C8  UNL     1      -4.774   0.456  -0.698  1.00  0.00     0.045 C 
HETATM   20  C9  UNL     1      -3.982  -1.373   0.782  1.00  0.00     0.045 C 
ATOM     21  H9  UNL     1      -2.699  -1.229  -1.690  1.00  0.00     0.179 HD
ENDBRANCH  10  12
ENDBRANCH   1  10
BRANCH   3  22
HETATM   22  S2  UNL     1       4.405  -0.224   1.608  1.00  0.00     0.174 S 
HETATM   23  O1  UNL     1       4.115   0.801   2.635  1.00  0.00    -0.220 OA
BRANCH  22  24
HETATM   24  N3  UNL     1       4.714  -1.780   2.236  1.00  0.00    -0.338 N 
ATOM     25  H32 UNL     1       4.183  -2.608   1.968  1.00  0.00     0.167 HD
ATOM     26  H31 UNL     1       5.486  -1.771   2.903  1.00  0.00     0.167 HD
ENDBRANCH  22  24
BRANCH  22  27
HETATM   27  N4  UNL     1       5.661   0.279   0.782  1.00  0.00    -0.245 N 
ATOM     28  H4  UNL     1       6.374  -0.364   0.436  1.00  0.00     0.198 HD
BRANCH  27  29
HETATM   29  N5  UNL     1       5.733   1.656   0.556  1.00  0.00    -0.337 N 
ATOM     30  H52 UNL     1       5.012   2.286   0.908  1.00  0.00     0.177 HD
ATOM     31  H51 UNL     1       6.541   1.980   0.025  1.00  0.00     0.177 HD
ENDBRANCH  27  29
ENDBRANCH  22  27
ENDBRANCH   3  22
TORSDOF 6
