REMARK  6 active torsions:
REMARK  status: ('A' for Active; 'I' for Inactive)
REMARK    1  A    between atoms: C2_2  and  C3_3 
REMARK    2  A    between atoms: C3_3  and  C4_4 
REMARK    3  A    between atoms: C4_4  and  O1_5 
REMARK    4  A    between atoms: C5_7  and  C6_8 
REMARK    5  A    between atoms: C6_8  and  C7_9 
REMARK       I    between atoms: C7_9  and  N1_11 
REMARK       I    between atoms: N1_11  and  C8_13 
REMARK    6  A    between atoms: C21_30  and  O3_31 
ROOT
HETATM    1  C4  UNL     1       1.467   0.938  -0.114  1.00  0.00     0.070 C 
HETATM    2  C5  UNL     1       2.652  -0.091  -0.110  1.00  0.00     0.057 C 
HETATM    3  C9  UNL     1       2.754  -0.566  -1.522  1.00  0.00    -0.080 C 
HETATM    4  C10 UNL     1       3.928  -0.129  -2.309  1.00  0.00     0.043 C 
HETATM    5  C11 UNL     1       1.940  -1.313  -2.248  1.00  0.00    -0.024 C 
HETATM    6  C12 UNL     1       0.653  -1.962  -1.998  1.00  0.00     0.028 C 
HETATM    7  C13 UNL     1      -0.568  -1.137  -2.085  1.00  0.00     0.014 C 
HETATM    8  C14 UNL     1      -0.706   0.056  -1.163  1.00  0.00    -0.033 C 
HETATM    9  C15 UNL     1      -0.721   1.259  -2.074  1.00  0.00     0.016 C 
HETATM   10  C16 UNL     1      -2.159  -0.045  -0.660  1.00  0.00    -0.001 C 
HETATM   11  C17 UNL     1      -2.790   1.227  -0.269  1.00  0.00     0.007 C 
HETATM   12  C18 UNL     1      -4.308   0.951  -0.268  1.00  0.00     0.012 C 
HETATM   13  C19 UNL     1      -4.652  -0.164   0.664  1.00  0.00    -0.014 C 
HETATM   14  C20 UNL     1      -4.976   0.431   2.025  1.00  0.00     0.018 C 
HETATM   15  C21 UNL     1      -5.967  -0.774   0.158  1.00  0.00     0.126 C 
HETATM   16  C22 UNL     1      -5.548  -1.912  -0.746  1.00  0.00     0.033 C 
HETATM   17  C23 UNL     1      -4.274  -2.409  -0.147  1.00  0.00     0.008 C 
HETATM   18  C24 UNL     1      -3.730  -1.293   0.740  1.00  0.00     0.001 C 
HETATM   19  C25 UNL     1      -2.308  -1.071   0.396  1.00  0.00    -0.005 C 
HETATM   20  C26 UNL     1      -1.519  -0.706   1.595  1.00  0.00     0.006 C 
HETATM   21  C27 UNL     1      -0.328   0.173   1.361  1.00  0.00     0.009 C 
HETATM   22  C28 UNL     1       0.249   0.102  -0.026  1.00  0.00     0.029 C 
ENDROOT
BRANCH   2  23
HETATM   23  C6  UNL     1       3.884   0.398   0.489  1.00  0.00     0.115 C 
BRANCH  23  24
HETATM   24  C7  UNL     1       4.891  -0.713   0.457  1.00  0.00     0.224 C 
HETATM   25  O2  UNL     1       4.621  -1.876   0.078  1.00  0.00    -0.273 OA
HETATM   26  N1  UNL     1       6.220  -0.440   0.877  1.00  0.00    -0.301 N 
HETATM   27  C8  UNL     1       7.189  -1.453   0.861  1.00  0.00     0.188 C 
ATOM     28  H1  UNL     1       6.471   0.497   1.192  1.00  0.00     0.171 HD
HETATM   29  N2  UNL     1       8.390  -1.166   1.251  1.00  0.00    -0.373 N 
HETATM   30  N3  UNL     1       6.884  -2.780   0.429  1.00  0.00    -0.064 NA
ATOM     31  H22 UNL     1       8.608  -0.218   1.559  1.00  0.00     0.158 HD
ATOM     32  H21 UNL     1       9.095  -1.903   1.239  1.00  0.00     0.158 HD
ENDBRANCH  23  24
ENDBRANCH   2  23
BRANCH   1  33
HETATM   33  C3  UNL     1       1.753   1.947   0.919  1.00  0.00     0.038 C 
BRANCH  33  34
HETATM   34  C2  UNL     1       0.991   3.239   0.874  1.00  0.00    -0.002 C 
HETATM   35  C1  UNL     1       1.460   4.098   2.063  1.00  0.00     0.005 C 
ENDBRANCH  33  34
ENDBRANCH   1  33
BRANCH   1  36
HETATM   36  O1  UNL     1       1.716   1.558  -1.338  1.00  0.00    -0.389 OA
ATOM     37  H1  UNL     1       1.531   0.907  -2.005  1.00  0.00     0.210 HD
ENDBRANCH   1  36
BRANCH  15  38
HETATM   38  O3  UNL     1      -6.682   0.128  -0.608  1.00  0.00    -0.395 OA
ATOM     39  H3  UNL     1      -7.496  -0.249  -0.921  1.00  0.00     0.210 HD
ENDBRANCH  15  38
TORSDOF 6
