REMARK  7 active torsions:
REMARK  status: ('A' for Active; 'I' for Inactive)
REMARK    1  A    between atoms: C2_2  and  C3_3 
REMARK    2  A    between atoms: C3_3  and  C4_4 
REMARK    3  A    between atoms: C4_4  and  C5_5 
REMARK    4  A    between atoms: C5_5  and  C6_6 
REMARK    5  A    between atoms: C8_8  and  O1_9 
REMARK    6  A    between atoms: C16_18  and  O2_19 
REMARK    7  A    between atoms: C25_29  and  C26_30 
REMARK       I    between atoms: C26_30  and  N1_32 
REMARK       I    between atoms: N1_32  and  C27_33 
ROOT
HETATM    1  C6  UNL     1      -0.034  -0.354   0.288  1.00  0.00     0.006 C 
HETATM    2  C7  UNL     1      -0.809  -0.252  -0.988  1.00  0.00     0.033 C 
HETATM    3  C8  UNL     1      -1.062   1.259  -1.211  1.00  0.00     0.128 C 
HETATM    4  C9  UNL     1      -1.951   1.759  -0.181  1.00  0.00     0.027 C 
HETATM    5  C10 UNL     1      -3.066   1.061   0.418  1.00  0.00     0.013 C 
HETATM    6  C11 UNL     1      -3.715  -0.101  -0.158  1.00  0.00    -0.009 C 
HETATM    7  C12 UNL     1      -3.299  -0.257  -1.603  1.00  0.00     0.010 C 
HETATM    8  C13 UNL     1      -1.975  -0.934  -1.439  1.00  0.00    -0.002 C 
HETATM    9  C14 UNL     1      -2.521  -2.125  -0.687  1.00  0.00    -0.003 C 
HETATM   10  C15 UNL     1      -1.542  -3.153  -0.380  1.00  0.00     0.038 C 
HETATM   11  C16 UNL     1      -0.560  -2.865   0.694  1.00  0.00     0.127 C 
HETATM   12  C17 UNL     1      -0.390  -1.516   1.214  1.00  0.00    -0.006 C 
HETATM   13  C18 UNL     1       0.753  -1.696   2.234  1.00  0.00     0.019 C 
HETATM   14  C19 UNL     1      -1.534  -1.351   2.163  1.00  0.00     0.013 C 
HETATM   15  C20 UNL     1      -2.913  -1.576   1.749  1.00  0.00     0.006 C 
HETATM   16  C21 UNL     1      -3.349  -1.487   0.352  1.00  0.00    -0.006 C 
HETATM   17  C22 UNL     1      -0.945   2.047   0.950  1.00  0.00    -0.011 C 
HETATM   18  C23 UNL     1      -1.658   2.482   2.221  1.00  0.00     0.020 C 
HETATM   19  C24 UNL     1      -0.400   3.414   0.522  1.00  0.00     0.020 C 
HETATM   20  C25 UNL     1       0.049   0.947   1.090  1.00  0.00     0.021 C 
ENDROOT
BRANCH  20  21
HETATM   21  C26 UNL     1       1.443   1.477   1.401  1.00  0.00     0.322 C 
HETATM   22  O3  UNL     1       1.955   1.203   2.558  1.00  0.00    -0.252 OA
HETATM   23  N1  UNL     1       2.267   2.221   0.641  1.00  0.00    -0.334 NA
HETATM   24  C27 UNL     1       3.110   2.981  -0.135  1.00  0.00     0.264 C 
HETATM   25  N2  UNL     1       2.799   3.368  -1.378  1.00  0.00    -0.362 N 
HETATM   26  N3  UNL     1       4.404   3.480   0.176  1.00  0.00    -0.049 NA
ATOM     27  H22 UNL     1       1.870   3.010  -1.601  1.00  0.00     0.159 HD
ATOM     28  H21 UNL     1       3.424   3.932  -1.954  1.00  0.00     0.159 HD
ENDBRANCH  20  21
BRANCH   1  29
HETATM   29  C5  UNL     1       1.382  -0.537  -0.238  1.00  0.00     0.016 C 
BRANCH  29  30
HETATM   30  C4  UNL     1       1.786  -1.658  -1.085  1.00  0.00     0.001 C 
BRANCH  30  31
HETATM   31  C3  UNL     1       3.274  -1.613  -1.495  1.00  0.00    -0.000 C 
BRANCH  31  32
HETATM   32  C2  UNL     1       3.600  -0.438  -2.344  1.00  0.00    -0.005 C 
HETATM   33  C1  UNL     1       5.078  -0.476  -2.671  1.00  0.00     0.005 C 
ENDBRANCH  31  32
ENDBRANCH  30  31
ENDBRANCH  29  30
ENDBRANCH   1  29
BRANCH   3  34
HETATM   34  O1  UNL     1      -1.326   1.580  -2.541  1.00  0.00    -0.395 OA
ATOM     35  H1  UNL     1      -1.481   2.507  -2.678  1.00  0.00     0.210 HD
ENDBRANCH   3  34
BRANCH  11  36
HETATM   36  O2  UNL     1      -1.171  -3.647   1.758  1.00  0.00    -0.395 OA
ATOM     37  H2  UNL     1      -0.542  -3.463   2.446  1.00  0.00     0.210 HD
ENDBRANCH  11  36
TORSDOF 7
