REMARK  8 active torsions:
REMARK  status: ('A' for Active; 'I' for Inactive)
REMARK    1  A    between atoms: C2_2  and  C3_3 
REMARK    2  A    between atoms: C10_10  and  C11_11 
REMARK    3  A    between atoms: C11_11  and  N1_13 
REMARK    4  A    between atoms: N1_13  and  N2_15 
REMARK    5  A    between atoms: N2_15  and  C12_16 
REMARK    6  A    between atoms: C12_16  and  C14_18 
REMARK       I    between atoms: C14_18  and  N3_20 
REMARK    7  A    between atoms: N3_20  and  N4_22 
REMARK       I    between atoms: N4_22  and  C15_24 
REMARK    8  A    between atoms: C15_24  and  C16_26 
ROOT
HETATM    1  C12 UNL     1       0.713   0.001  -0.441  1.00  0.00     0.189 C 
HETATM    2  C13 UNL     1       0.384  -0.946  -1.584  1.00  0.00     0.040 C 
ENDROOT
BRANCH   1   3
HETATM    3  N2  UNL     1      -0.226  -0.173   0.658  1.00  0.00    -0.126 NA
BRANCH   3   4
HETATM    4  N1  UNL     1      -1.536   0.039   0.292  1.00  0.00    -0.296 N 
ATOM      5  H1  UNL     1      -1.855   0.976   0.046  1.00  0.00     0.183 HD
BRANCH   4   6
HETATM    6  C11 UNL     1      -2.437  -1.053   0.259  1.00  0.00     0.097 C 
HETATM    7  S1  UNL     1      -1.920  -2.569   0.656  1.00  0.00    -0.064 SA
BRANCH   6   8
HETATM    8  C10 UNL     1      -3.849  -0.872  -0.129  1.00  0.00     0.015 C 
HETATM    9  C9  UNL     1      -3.862  -0.344  -1.551  1.00  0.00     0.021 C 
HETATM   10  C7  UNL     1      -5.289  -0.188  -1.974  1.00  0.00    -0.012 C 
HETATM   11  C6  UNL     1      -5.957  -1.539  -1.927  1.00  0.00     0.009 C 
HETATM   12  C8  UNL     1      -5.975   0.836  -1.105  1.00  0.00     0.014 C 
HETATM   13  C5  UNL     1      -6.013  -1.983  -0.481  1.00  0.00    -0.012 C 
HETATM   14  C4  UNL     1      -6.672  -0.949   0.393  1.00  0.00     0.014 C 
HETATM   15  C23 UNL     1      -4.606  -2.170  -0.016  1.00  0.00     0.021 C 
HETATM   16  C3  UNL     1      -5.931   0.378   0.311  1.00  0.00    -0.039 C 
HETATM   17  C24 UNL     1      -4.494   0.164   0.737  1.00  0.00     0.026 C 
BRANCH  16  18
HETATM   18  C2  UNL     1      -6.603   1.318   1.273  1.00  0.00     0.005 C 
HETATM   19  C1  UNL     1      -6.005   2.677   1.325  1.00  0.00     0.006 C 
ENDBRANCH  16  18
ENDBRANCH   6   8
ENDBRANCH   4   6
ENDBRANCH   3   4
ENDBRANCH   1   3
BRANCH   1  20
HETATM   20  C14 UNL     1       2.057  -0.335   0.057  1.00  0.00     0.257 C 
HETATM   21  O1  UNL     1       2.211  -0.696   1.241  1.00  0.00    -0.270 OA
HETATM   22  N3  UNL     1       3.164  -0.249  -0.805  1.00  0.00    -0.266 N 
ATOM     23  H3  UNL     1       3.013   0.050  -1.769  1.00  0.00     0.190 HD
BRANCH  22  24
HETATM   24  N4  UNL     1       4.482  -0.562  -0.386  1.00  0.00    -0.263 N 
HETATM   25  C15 UNL     1       5.396   0.491  -0.297  1.00  0.00     0.272 C 
HETATM   26  O2  UNL     1       4.970   1.675  -0.599  1.00  0.00    -0.266 OA
ATOM     27  H4  UNL     1       4.752  -1.519  -0.158  1.00  0.00     0.190 HD
BRANCH  25  28
HETATM   28  C16 UNL     1       6.778   0.335   0.110  1.00  0.00     0.063 A 
HETATM   29  C17 UNL     1       7.477  -0.804   0.337  1.00  0.00     0.022 A 
HETATM   30  C18 UNL     1       7.093  -2.224   0.221  1.00  0.00     0.069 C 
HETATM   31  N5  UNL     1       8.748  -0.431   0.722  1.00  0.00    -0.362 N 
HETATM   32  C19 UNL     1       8.837   0.893   0.733  1.00  0.00     0.012 A 
ATOM     33  H5  UNL     1       9.503  -1.074   0.961  1.00  0.00     0.165 HD
HETATM   34  C20 UNL     1      10.039   1.719   1.092  1.00  0.00     0.068 C 
HETATM   35  C21 UNL     1       7.640   1.405   0.361  1.00  0.00    -0.022 A 
HETATM   36  C22 UNL     1       7.285   2.824   0.234  1.00  0.00     0.051 C 
ENDBRANCH  25  28
ENDBRANCH  22  24
ENDBRANCH   1  20
TORSDOF 8
