REMARK  3 active torsions:
REMARK  status: ('A' for Active; 'I' for Inactive)
REMARK    1  A    between atoms: N1_4  and  N2_6 
REMARK    2  A    between atoms: C4_8  and  C5_9 
REMARK    3  A    between atoms: C6_10  and  C7_11 
ROOT
HETATM    1  C5  UNL     1       0.279   0.389   0.750  1.00  0.00     0.021 C 
HETATM    2  C6  UNL     1       1.352   0.645   1.404  1.00  0.00     0.032 C 
ENDROOT
BRANCH   1   3
HETATM    3  C4  UNL     1       0.061  -0.503  -0.351  1.00  0.00     0.107 C 
HETATM    4  N2  UNL     1      -1.172  -0.569  -0.840  1.00  0.00    -0.312 N 
ATOM      5  H2  UNL     1      -1.383  -1.188  -1.623  1.00  0.00     0.186 HD
BRANCH   4   6
HETATM    6  N1  UNL     1      -2.169   0.210  -0.277  1.00  0.00    -0.310 N 
HETATM    7  C2  UNL     1      -3.359   0.126  -0.703  1.00  0.00    -0.004 C 
HETATM    8  C1  UNL     1      -3.688  -0.808  -1.809  1.00  0.00     0.064 C 
HETATM    9  C3  UNL     1      -4.447   0.956  -0.112  1.00  0.00     0.064 C 
ATOM     10  H1  UNL     1      -1.945   0.853   0.482  1.00  0.00     0.186 HD
ENDBRANCH   4   6
ENDBRANCH   1   3
BRANCH   2  11
HETATM   11  C7  UNL     1       2.699   0.157   1.293  1.00  0.00     0.049 A 
HETATM   12  C8  UNL     1       3.263  -0.744   0.445  1.00  0.00     0.120 A 
HETATM   13  N3  UNL     1       4.586  -0.830   0.789  1.00  0.00    -0.341 N 
HETATM   14  C9  UNL     1       4.863  -0.025   1.809  1.00  0.00     0.176 A 
ATOM     15  H3  UNL     1       5.267  -1.431   0.325  1.00  0.00     0.167 HD
HETATM   16  S1  UNL     1       6.333   0.179   2.537  1.00  0.00    -0.041 SA
HETATM   17  N4  UNL     1       3.714   0.578   2.119  1.00  0.00    -0.332 N 
ATOM     18  H4  UNL     1       3.603   1.260   2.869  1.00  0.00     0.168 HD
ENDBRANCH   2  11
TORSDOF 3
