REMARK  4 active torsions:
REMARK  status: ('A' for Active; 'I' for Inactive)
REMARK    1  A    between atoms: C3_5  and  N2_6 
REMARK    2  A    between atoms: C4_10  and  S2_11 
REMARK    3  A    between atoms: S2_11  and  C5_12 
REMARK    4  A    between atoms: C5_12  and  C7_14 
ROOT
HETATM    1  C1  UNL     1       2.670  -2.454  -0.359  1.00  0.00     0.070 C 
HETATM    2  C2  UNL     1       2.657  -0.967  -0.063  1.00  0.00     0.031 A 
HETATM    3  N1  UNL     1       3.751  -0.260   0.050  1.00  0.00    -0.339 N 
ATOM      4  H1  UNL     1       4.668  -0.694  -0.058  1.00  0.00     0.168 HD
HETATM    5  C3  UNL     1       3.638   1.040   0.310  1.00  0.00     0.143 A 
HETATM    6  S1  UNL     1       1.959   1.284   0.399  1.00  0.00    -0.045 SA
HETATM    7  C4  UNL     1       1.461  -0.325   0.094  1.00  0.00     0.067 A 
ENDROOT
BRANCH   7   8
HETATM    8  S2  UNL     1      -0.203  -1.018   0.015  1.00  0.00    -0.116 SA
BRANCH   8   9
HETATM    9  C5  UNL     1      -1.386   0.320   0.290  1.00  0.00     0.053 C 
HETATM   10  C6  UNL     1      -1.367   1.280  -0.862  1.00  0.00     0.022 C 
BRANCH   9  11
HETATM   11  C7  UNL     1      -2.716  -0.273   0.594  1.00  0.00    -0.001 A 
HETATM   12  C8  UNL     1      -3.914   0.557   0.869  1.00  0.00     0.006 A 
HETATM   13  C9  UNL     1      -3.804  -0.253  -0.390  1.00  0.00     0.006 A 
ENDBRANCH   9  11
ENDBRANCH   8   9
ENDBRANCH   7   8
BRANCH   5  14
HETATM   14  N2  UNL     1       4.589   1.922   0.462  1.00  0.00    -0.380 N 
ATOM     15  H22 UNL     1       5.597   1.776   0.409  1.00  0.00     0.158 HD
ATOM     16  H21 UNL     1       4.502   2.919   0.661  1.00  0.00     0.158 HD
ENDBRANCH   5  14
TORSDOF 4
