REMARK  4 active torsions:
REMARK  status: ('A' for Active; 'I' for Inactive)
REMARK    1  A    between atoms: C2_2  and  C4_4 
REMARK    2  A    between atoms: C4_4  and  N1_5 
REMARK    3  A    between atoms: C4_4  and  N2_10 
REMARK    4  A    between atoms: N1_5  and  C5_7 
ROOT
HETATM    1  C4  UNL     1      -0.278  -0.047   0.371  1.00  0.00     0.216 C 
ENDROOT
BRANCH   1   2
HETATM    2  C2  UNL     1      -0.783  -1.362  -0.014  1.00  0.00    -0.051 C 
HETATM    3  C1  UNL     1      -1.600  -1.975   0.834  1.00  0.00     0.017 C 
HETATM    4  C3  UNL     1      -0.515  -2.090  -1.264  1.00  0.00     0.046 C 
ENDBRANCH   1   2
BRANCH   1   5
HETATM    5  N1  UNL     1       0.896   0.460  -0.194  1.00  0.00    -0.394 N 
ATOM      6  H1  UNL     1       0.888   1.310  -0.757  1.00  0.00     0.155 HD
BRANCH   5   7
HETATM    7  C5  UNL     1       2.101  -0.253   0.045  1.00  0.00     0.070 C 
HETATM    8  C6  UNL     1       2.929  -0.264  -1.222  1.00  0.00     0.031 C 
HETATM    9  C7  UNL     1       2.954   0.366   1.135  1.00  0.00     0.031 C 
ENDBRANCH   5   7
ENDBRANCH   1   5
BRANCH   1  10
HETATM   10  N2  UNL     1      -1.356   0.908   0.302  1.00  0.00    -0.307 N 
HETATM   11  C8  UNL     1      -2.064   1.223  -0.790  1.00  0.00     0.113 A 
HETATM   12  C9  UNL     1      -3.030   2.165  -0.454  1.00  0.00     0.107 A 
HETATM   13  N3  UNL     1      -2.900   2.410   0.841  1.00  0.00    -0.342 N 
HETATM   14  C10 UNL     1      -1.889   1.653   1.301  1.00  0.00     0.179 A 
ATOM     15  H3  UNL     1      -3.466   3.057   1.391  1.00  0.00     0.167 HD
HETATM   16  S1  UNL     1      -1.390   1.656   2.853  1.00  0.00    -0.040 SA
ENDBRANCH   1  10
TORSDOF 4
