REMARK  5 active torsions:
REMARK  status: ('A' for Active; 'I' for Inactive)
REMARK    1  A    between atoms: C2_2  and  O1_3 
REMARK    2  A    between atoms: O1_3  and  C3_4 
REMARK    3  A    between atoms: C3_4  and  C4_6 
REMARK    4  A    between atoms: C6_10  and  N2_11 
REMARK       I    between atoms: N2_11  and  C7_13 
REMARK    5  A    between atoms: C7_13  and  C8_15 
ROOT
HETATM    1  C4  UNL     1       1.650   0.688   0.726  1.00  0.00     0.079 A 
HETATM    2  C5  UNL     1       1.642   1.311   1.962  1.00  0.00     0.105 A 
HETATM    3  N1  UNL     1       2.770   1.872   2.676  1.00  0.00    -0.093 NA
HETATM    4  S1  UNL     1       0.023   1.258   2.423  1.00  0.00    -0.056 SA
HETATM    5  C6  UNL     1      -0.653   0.431   1.026  1.00  0.00     0.085 A 
HETATM    6  C11 UNL     1       0.453   0.244   0.260  1.00  0.00    -0.009 A 
HETATM    7  C12 UNL     1       0.298  -0.387  -1.131  1.00  0.00     0.052 C 
ENDROOT
BRANCH   5   8
HETATM    8  N2  UNL     1      -2.044   0.129   0.920  1.00  0.00    -0.318 N 
HETATM    9  C7  UNL     1      -2.849  -0.571   0.080  1.00  0.00     0.261 C 
HETATM   10  O3  UNL     1      -2.619  -1.233  -0.939  1.00  0.00    -0.269 OA
ATOM     11  H2  UNL     1      -2.577   0.553   1.680  1.00  0.00     0.169 HD
BRANCH   9  12
HETATM   12  C8  UNL     1      -4.348  -0.562   0.431  1.00  0.00     0.176 C 
HETATM   13  C9  UNL     1      -4.752   0.889   0.366  1.00  0.00     0.062 C 
HETATM   14  C10 UNL     1      -5.107  -1.469  -0.463  1.00  0.00     0.062 C 
HETATM   15  F1  UNL     1      -4.506  -0.967   1.746  1.00  0.00    -0.233 F 
ENDBRANCH   9  12
ENDBRANCH   5   8
BRANCH   1  16
HETATM   16  C3  UNL     1       2.962   0.532   0.034  1.00  0.00     0.296 C 
HETATM   17  O2  UNL     1       4.024   0.972   0.568  1.00  0.00    -0.259 OA
BRANCH  16  18
HETATM   18  O1  UNL     1       3.169  -0.065  -1.179  1.00  0.00    -0.318 OA
BRANCH  18  19
HETATM   19  C2  UNL     1       4.405  -0.205  -1.811  1.00  0.00     0.174 C 
HETATM   20  C1  UNL     1       5.403  -1.002  -0.995  1.00  0.00     0.034 C 
ENDBRANCH  18  19
ENDBRANCH  16  18
ENDBRANCH   1  16
TORSDOF 5
