REMARK  5 active torsions:
REMARK  status: ('A' for Active; 'I' for Inactive)
REMARK    1  A    between atoms: C2_2  and  O1_3 
REMARK    2  A    between atoms: O1_3  and  C3_4 
REMARK    3  A    between atoms: C3_4  and  C4_6 
REMARK    4  A    between atoms: C5_8  and  S2_9 
REMARK    5  A    between atoms: C8_13  and  N1_14 
REMARK       I    between atoms: N1_14  and  C9_16 
ROOT
HETATM    1  C4  UNL     1       0.040   0.866  -0.685  1.00  0.00     0.110 A 
HETATM    2  S1  UNL     1      -0.884   2.294  -0.761  1.00  0.00    -0.073 SA
HETATM    3  C5  UNL     1      -2.446   1.589  -0.894  1.00  0.00     0.066 A 
HETATM    4  C7  UNL     1      -2.177   0.247  -0.873  1.00  0.00     0.086 A 
HETATM    5 CL1  UNL     1      -3.537  -0.901  -0.990  1.00  0.00    -0.080 Cl
HETATM    6  C8  UNL     1      -0.899  -0.129  -0.766  1.00  0.00     0.083 A 
ENDROOT
BRANCH   1   7
HETATM    7  C3  UNL     1       1.504   0.784  -0.561  1.00  0.00     0.302 C 
HETATM    8  O2  UNL     1       2.208   1.825  -0.500  1.00  0.00    -0.259 OA
BRANCH   7   9
HETATM    9  O1  UNL     1       2.169  -0.423  -0.507  1.00  0.00    -0.317 OA
BRANCH   9  10
HETATM   10  C2  UNL     1       3.580  -0.509  -0.388  1.00  0.00     0.174 C 
HETATM   11  C1  UNL     1       4.093   0.144   0.862  1.00  0.00     0.034 C 
ENDBRANCH   9  10
ENDBRANCH   7   9
ENDBRANCH   1   7
BRANCH   6  12
HETATM   12  N1  UNL     1      -0.442  -1.502  -0.729  1.00  0.00    -0.308 N 
HETATM   13  C9  UNL     1      -0.319  -2.185   0.509  1.00  0.00     0.333 C 
HETATM   14  N2  UNL     1       0.117  -3.511   0.611  1.00  0.00    -0.040 NA
HETATM   15  O3  UNL     1      -0.619  -1.562   1.586  1.00  0.00    -0.251 OA
ATOM     16  H1  UNL     1      -0.207  -1.982  -1.598  1.00  0.00     0.170 HD
ENDBRANCH   6  12
BRANCH   3  17
HETATM   17  S2  UNL     1      -4.022   2.451  -1.027  1.00  0.00    -0.125 SA
HETATM   18  C6  UNL     1      -4.698   2.754   0.614  1.00  0.00     0.096 C 
ENDBRANCH   3  17
TORSDOF 5
