REMARK  7 active torsions:
REMARK  status: ('A' for Active; 'I' for Inactive)
REMARK    1  A    between atoms: C2_2  and  C3_3 
REMARK    2  A    between atoms: C3_3  and  N1_4 
REMARK    3  A    between atoms: C4_5  and  O1_6 
REMARK    4  A    between atoms: C5_8  and  C6_9 
REMARK    5  A    between atoms: C10_14  and  N2_15 
REMARK    6  A    between atoms: N2_15  and  N3_17 
REMARK    7  A    between atoms: C11_19  and  C13_21 
ROOT
HETATM    1  N1  UNL     1       0.211   0.477   0.025  1.00  0.00    -0.303 N 
HETATM    2  C4  UNL     1      -0.790   0.832  -0.768  1.00  0.00     0.158 A 
HETATM    3  C5  UNL     1      -1.801  -0.049  -0.967  1.00  0.00     0.045 A 
HETATM    4  S1  UNL     1      -1.325  -1.368  -0.030  1.00  0.00    -0.052 SA
HETATM    5  C10 UNL     1       0.191  -0.714   0.591  1.00  0.00     0.168 A 
ENDROOT
BRANCH   5   6
HETATM    6  N2  UNL     1       0.968  -1.384   1.366  1.00  0.00    -0.280 N 
ATOM      7  H2  UNL     1       0.612  -2.308   1.610  1.00  0.00     0.189 HD
BRANCH   6   8
HETATM    8  N3  UNL     1       2.143  -1.100   1.907  1.00  0.00    -0.306 N 
HETATM    9  C11 UNL     1       3.233  -1.761   1.916  1.00  0.00     0.013 C 
HETATM   10  C12 UNL     1       3.348  -3.067   1.259  1.00  0.00     0.066 C 
ATOM     11  H3  UNL     1       2.182  -0.206   2.397  1.00  0.00     0.186 HD
BRANCH   9  12
HETATM   12  C13 UNL     1       4.425  -1.204   2.606  1.00  0.00     0.168 C 
HETATM   13 CL1  UNL     1       5.776  -0.992   1.443  1.00  0.00    -0.124 Cl
ENDBRANCH   9  12
ENDBRANCH   6   8
ENDBRANCH   5   6
BRANCH   1  14
HETATM   14  C3  UNL     1       1.349   1.428   0.255  1.00  0.00     0.160 C 
BRANCH  14  15
HETATM   15  C2  UNL     1       1.035   2.359   1.352  1.00  0.00    -0.017 C 
HETATM   16  C1  UNL     1       1.747   2.489   2.446  1.00  0.00     0.008 C 
ENDBRANCH  14  15
ENDBRANCH   1  14
BRANCH   2  17
HETATM   17  O1  UNL     1      -0.848   2.104  -1.423  1.00  0.00    -0.345 OA
ATOM     18  H1  UNL     1      -1.565   2.358  -1.991  1.00  0.00     0.219 HD
ENDBRANCH   2  17
BRANCH   3  19
HETATM   19  C6  UNL     1      -3.040   0.053  -1.785  1.00  0.00    -0.013 C 
HETATM   20  C7  UNL     1      -3.826  -1.239  -1.644  1.00  0.00     0.020 C 
HETATM   21  C8  UNL     1      -2.710   0.209  -3.255  1.00  0.00     0.020 C 
HETATM   22  C9  UNL     1      -3.929   1.175  -1.378  1.00  0.00     0.020 C 
ENDBRANCH   3  19
TORSDOF 7
