REMARK  7 active torsions:
REMARK  status: ('A' for Active; 'I' for Inactive)
REMARK    1  A    between atoms: O1_2  and  C2_3 
REMARK    2  A    between atoms: C2_3  and  C3_5 
REMARK    3  A    between atoms: C3_5  and  N1_6 
REMARK    4  A    between atoms: C4_7  and  O3_8 
REMARK    5  A    between atoms: C6_11  and  C7_12 
REMARK    6  A    between atoms: C8_13  and  C9_15 
REMARK    7  A    between atoms: C14_20  and  O4_21 
ROOT
HETATM    1  N1  UNL     1       2.609  -0.787   0.375  1.00  0.00    -0.298 N 
HETATM    2  C4  UNL     1       2.118  -0.737   1.643  1.00  0.00     0.145 A 
HETATM    3  C5  UNL     1       0.746  -0.832   1.571  1.00  0.00     0.072 A 
HETATM    4  C6  UNL     1       0.380  -0.943   0.248  1.00  0.00     0.020 A 
HETATM    5  C14 UNL     1       1.580  -0.911  -0.470  1.00  0.00     0.155 A 
ENDROOT
BRANCH   4   6
HETATM    6  C7  UNL     1      -0.978  -1.067  -0.247  1.00  0.00     0.035 C 
HETATM    7  C8  UNL     1      -1.981  -0.379   0.222  1.00  0.00     0.017 C 
HETATM    8 CL1  UNL     1      -1.768   0.788   1.523  1.00  0.00    -0.088 Cl
BRANCH   7   9
HETATM    9  C9  UNL     1      -3.366  -0.572  -0.329  1.00  0.00     0.030 C 
HETATM   10  C10 UNL     1      -3.857   0.759  -0.826  1.00  0.00     0.010 C 
HETATM   11  C11 UNL     1      -4.947   1.133   0.140  1.00  0.00     0.001 C 
HETATM   12  C12 UNL     1      -5.563  -0.213   0.461  1.00  0.00     0.001 C 
HETATM   13  C13 UNL     1      -4.293  -1.018   0.770  1.00  0.00     0.010 C 
ENDBRANCH   7   9
ENDBRANCH   4   6
BRANCH   5  14
HETATM   14  O4  UNL     1       1.614  -1.000  -1.851  1.00  0.00    -0.345 OA
ATOM     15  H4  UNL     1       0.883  -1.088  -2.451  1.00  0.00     0.219 HD
ENDBRANCH   5  14
BRANCH   2  16
HETATM   16  O3  UNL     1       2.927  -0.608   2.780  1.00  0.00    -0.346 OA
ATOM     17  H3  UNL     1       2.584  -0.573   3.665  1.00  0.00     0.219 HD
ENDBRANCH   2  16
BRANCH   1  18
HETATM   18  C3  UNL     1       4.008  -0.724   0.047  1.00  0.00     0.244 C 
BRANCH  18  19
HETATM   19  C2  UNL     1       4.527   0.633  -0.151  1.00  0.00     0.276 C 
HETATM   20  O2  UNL     1       3.815   1.665  -0.072  1.00  0.00    -0.263 OA
BRANCH  19  21
HETATM   21  O1  UNL     1       5.865   0.779  -0.436  1.00  0.00    -0.325 OA
HETATM   22  C1  UNL     1       6.431   2.060  -0.632  1.00  0.00     0.213 C 
ENDBRANCH  19  21
ENDBRANCH  18  19
ENDBRANCH   1  18
TORSDOF 7
