REMARK  10 active torsions:
REMARK  status: ('A' for Active; 'I' for Inactive)
REMARK    1  A    between atoms: C2_2  and  C3_3 
REMARK    2  A    between atoms: C3_3  and  C4_4 
REMARK    3  A    between atoms: C4_4  and  C5_5 
REMARK    4  A    between atoms: C5_5  and  C6_6 
REMARK    5  A    between atoms: C6_6  and  C7_8 
REMARK    6  A    between atoms: C10_12  and  N2_13 
REMARK    7  A    between atoms: C11_18  and  N4_19 
REMARK    8  A    between atoms: N4_19  and  N5_21 
REMARK    9  A    between atoms: N5_21  and  C12_23 
REMARK   10  A    between atoms: C12_23  and  N6_25 
ROOT
HETATM    1  N6  UNL     1      -1.851   2.927  -0.165  1.00  0.00    -0.269 N 
ATOM      2  H6  UNL     1      -1.152   2.540  -0.799  1.00  0.00     0.180 HD
HETATM    3  C13 UNL     1      -1.944   4.316  -0.037  1.00  0.00     0.184 C 
HETATM    4  N7  UNL     1      -2.036   5.468   0.059  1.00  0.00    -0.172 NA
ENDROOT
BRANCH   1   5
HETATM    5  C12 UNL     1      -2.692   2.032   0.553  1.00  0.00     0.199 C 
HETATM    6  S1  UNL     1      -3.800   2.690   1.557  1.00  0.00    -0.038 SA
BRANCH   5   7
HETATM    7  N5  UNL     1      -2.566   0.631   0.396  1.00  0.00    -0.274 N 
ATOM      8  H5  UNL     1      -3.339   0.131  -0.044  1.00  0.00     0.189 HD
BRANCH   7   9
HETATM    9  N4  UNL     1      -1.559  -0.045   0.764  1.00  0.00    -0.282 N 
ATOM     10  H4  UNL     1      -0.747   0.381   1.210  1.00  0.00     0.188 HD
BRANCH   9  11
HETATM   11  C11 UNL     1      -1.646  -1.463   0.505  1.00  0.00     0.137 A 
HETATM   12  C7  UNL     1      -0.622  -2.141  -0.117  1.00  0.00     0.079 A 
HETATM   13  C8  UNL     1      -0.804  -3.507  -0.324  1.00  0.00     0.067 A 
HETATM   14  N1  UNL     1       0.228  -4.247  -0.962  1.00  0.00    -0.101 NA
HETATM   15  C9  UNL     1      -1.975  -4.071   0.100  1.00  0.00     0.075 A 
HETATM   16  C10 UNL     1      -2.987  -3.353   0.724  1.00  0.00     0.102 A 
HETATM   17  N3  UNL     1      -2.789  -2.039   0.913  1.00  0.00    -0.327 N 
ATOM     18  H3  UNL     1      -3.508  -1.476   1.368  1.00  0.00     0.169 HD
BRANCH  12  19
HETATM   19  C6  UNL     1       0.598  -1.504  -0.551  1.00  0.00     0.165 C 
HETATM   20  O1  UNL     1       1.459  -2.269  -1.127  1.00  0.00    -0.292 OA
BRANCH  19  21
HETATM   21  C5  UNL     1       0.908  -0.063  -0.379  1.00  0.00     0.084 C 
BRANCH  21  22
HETATM   22  C4  UNL     1       2.274   0.192  -1.010  1.00  0.00     0.008 C 
BRANCH  22  23
HETATM   23  C3  UNL     1       2.694   1.626  -0.901  1.00  0.00     0.000 C 
BRANCH  23  24
HETATM   24  C2  UNL     1       2.790   2.067   0.518  1.00  0.00    -0.005 C 
HETATM   25  C1  UNL     1       3.227   3.537   0.597  1.00  0.00     0.005 C 
ENDBRANCH  23  24
ENDBRANCH  22  23
ENDBRANCH  21  22
ENDBRANCH  19  21
ENDBRANCH  12  19
BRANCH  16  26
HETATM   26  N2  UNL     1      -4.077  -3.927   1.108  1.00  0.00    -0.385 N 
ATOM     27  H22 UNL     1      -4.227  -4.926   0.964  1.00  0.00     0.157 HD
ATOM     28  H21 UNL     1      -4.820  -3.400   1.566  1.00  0.00     0.157 HD
ENDBRANCH  16  26
ENDBRANCH   9  11
ENDBRANCH   7   9
ENDBRANCH   5   7
ENDBRANCH   1   5
TORSDOF 10
