REMARK  9 active torsions:
REMARK  status: ('A' for Active; 'I' for Inactive)
REMARK    1  A    between atoms: C2_2  and  C3_3 
REMARK    2  A    between atoms: C3_3  and  S1_4 
REMARK    3  A    between atoms: C3_3  and  C11_19 
REMARK    4  A    between atoms: S1_4  and  S2_5 
REMARK    5  A    between atoms: S2_5  and  C4_6 
REMARK    6  A    between atoms: C5_11  and  C6_12 
REMARK    7  A    between atoms: C9_15  and  C10_16 
REMARK    8  A    between atoms: C11_19  and  O3_20 
REMARK    9  A    between atoms: N3_22  and  O4_24 
ROOT
HETATM    1  C4  UNL     1       0.436   0.762   0.160  1.00  0.00     0.114 A 
HETATM    2  N1  UNL     1       0.467   0.861  -1.155  1.00  0.00    -0.292 N 
ATOM      3  H1  UNL     1      -0.282   1.285  -1.703  1.00  0.00     0.187 HD
HETATM    4  N2  UNL     1       1.560   0.358  -1.691  1.00  0.00    -0.302 N 
ATOM      5  H2  UNL     1       1.783   0.332  -2.686  1.00  0.00     0.186 HD
HETATM    6  C5  UNL     1       2.331  -0.115  -0.696  1.00  0.00     0.049 A 
HETATM    7  C9  UNL     1       1.651   0.123   0.484  1.00  0.00     0.100 A 
ENDROOT
BRANCH   1   8
HETATM    8  S2  UNL     1      -0.707   1.226   1.423  1.00  0.00    -0.036 SA
BRANCH   8   9
HETATM    9  S1  UNL     1      -2.018  -0.393   1.746  1.00  0.00    -0.078 SA
BRANCH   9  10
HETATM   10  C3  UNL     1      -3.458  -0.227   0.743  1.00  0.00     0.135 C 
BRANCH  10  11
HETATM   11  C2  UNL     1      -4.275   0.988   1.228  1.00  0.00     0.020 C 
HETATM   12  C1  UNL     1      -4.647   0.715   2.670  1.00  0.00     0.006 C 
ENDBRANCH  10  11
BRANCH  10  13
HETATM   13  C11 UNL     1      -3.313  -0.227  -0.703  1.00  0.00     0.150 C 
HETATM   14  N3  UNL     1      -3.511  -1.315  -1.364  1.00  0.00    -0.250 N 
ATOM     15  H3  UNL     1      -3.768  -2.159  -0.852  1.00  0.00     0.196 HD
BRANCH  13  16
HETATM   16  O3  UNL     1      -2.968   0.904  -1.410  1.00  0.00    -0.347 OA
ATOM     17  H3  UNL     1      -2.873   0.904  -2.355  1.00  0.00     0.219 HD
ENDBRANCH  13  16
BRANCH  14  18
HETATM   18  O4  UNL     1      -3.390  -1.384  -2.731  1.00  0.00    -0.288 OA
ATOM     19  H4  UNL     1      -3.536  -2.186  -3.218  1.00  0.00     0.244 HD
ENDBRANCH  14  18
ENDBRANCH  10  13
ENDBRANCH   9  10
ENDBRANCH   8   9
ENDBRANCH   1   8
BRANCH   7  20
HETATM   20  C10 UNL     1       2.131  -0.231   1.800  1.00  0.00     0.214 C 
HETATM   21  O1  UNL     1       1.857  -1.339   2.283  1.00  0.00    -0.644 OA
HETATM   22  O2  UNL     1       2.889   0.663   2.510  1.00  0.00    -0.644 OA
ENDBRANCH   7  20
BRANCH   6  23
HETATM   23  C6  UNL     1       3.636  -0.758  -0.854  1.00  0.00     0.030 C 
HETATM   24  C7  UNL     1       4.030  -0.809  -2.317  1.00  0.00     0.016 C 
HETATM   25  C8  UNL     1       4.739  -0.100  -0.099  1.00  0.00     0.016 C 
ENDBRANCH   6  23
TORSDOF 9
