REMARK  8 active torsions:
REMARK  status: ('A' for Active; 'I' for Inactive)
REMARK    1  A    between atoms: C2_3  and  O1_4 
REMARK    2  A    between atoms: C3_6  and  N2_7 
REMARK    3  A    between atoms: N2_7  and  C4_9 
REMARK    4  A    between atoms: C4_9  and  O2_10 
REMARK    5  A    between atoms: C4_9  and  C5_12 
REMARK    6  A    between atoms: C5_12  and  C6_13 
REMARK    7  A    between atoms: C6_13  and  S1_14 
REMARK    8  A    between atoms: S1_14  and  C7_15 
ROOT
HETATM    1  N2  UNL     1      -2.238  -0.016  -0.542  1.00  0.00    -0.346 N 
ATOM      2  H2  UNL     1      -1.840  -0.860  -0.954  1.00  0.00     0.163 HD
ENDROOT
BRANCH   1   3
HETATM    3  C3  UNL     1      -3.628   0.049  -0.254  1.00  0.00     0.157 A 
HETATM    4  C2  UNL     1      -4.575  -0.945  -0.476  1.00  0.00     0.189 A 
HETATM    5  N1  UNL     1      -5.770  -0.524  -0.078  1.00  0.00    -0.306 N 
HETATM    6  C1  UNL     1      -7.047  -1.240  -0.126  1.00  0.00     0.161 C 
HETATM    7  C13 UNL     1      -5.604   0.724   0.396  1.00  0.00     0.181 A 
HETATM    8  N3  UNL     1      -4.310   1.075   0.292  1.00  0.00    -0.316 N 
HETATM    9  S2  UNL     1      -6.814   1.643   0.999  1.00  0.00    -0.040 SA
ATOM     10  H3  UNL     1      -3.911   1.969   0.579  1.00  0.00     0.170 HD
BRANCH   4  11
HETATM   11  O1  UNL     1      -4.302  -2.202  -1.038  1.00  0.00    -0.343 OA
ATOM     12  H1  UNL     1      -3.447  -2.503  -1.323  1.00  0.00     0.219 HD
ENDBRANCH   4  11
ENDBRANCH   1   3
BRANCH   1  13
HETATM   13  C4  UNL     1      -1.386   1.123  -0.248  1.00  0.00     0.219 C 
BRANCH  13  14
HETATM   14  O2  UNL     1      -1.460   1.378   1.119  1.00  0.00    -0.377 OA
ATOM     15  H2  UNL     1      -0.903   2.123   1.311  1.00  0.00     0.212 HD
ENDBRANCH  13  14
BRANCH  13  16
HETATM   16  C5  UNL     1       0.064   0.802  -0.654  1.00  0.00     0.064 C 
BRANCH  16  17
HETATM   17  C6  UNL     1       0.893   2.012  -0.331  1.00  0.00     0.078 C 
BRANCH  17  18
HETATM   18  S1  UNL     1       2.609   1.932  -0.735  1.00  0.00    -0.164 SA
BRANCH  18  19
HETATM   19  C7  UNL     1       3.626   0.798   0.222  1.00  0.00     0.047 C 
HETATM   20  C8  UNL     1       5.044   0.972  -0.278  1.00  0.00     0.015 C 
HETATM   21  C9  UNL     1       5.606  -0.293  -0.860  1.00  0.00     0.001 C 
HETATM   22  C10 UNL     1       5.498  -1.337   0.260  1.00  0.00     0.000 C 
HETATM   23  C11 UNL     1       4.059  -1.702   0.340  1.00  0.00     0.001 C 
HETATM   24  C12 UNL     1       3.088  -0.574   0.135  1.00  0.00     0.015 C 
ENDBRANCH  18  19
ENDBRANCH  17  18
ENDBRANCH  16  17
ENDBRANCH  13  16
ENDBRANCH   1  13
TORSDOF 8
