REMARK  8 active torsions:
REMARK  status: ('A' for Active; 'I' for Inactive)
REMARK    1  A    between atoms: C5_5  and  C6_6 
REMARK    2  A    between atoms: C6_6  and  C8_8 
REMARK    3  A    between atoms: C8_8  and  C9_9 
REMARK    4  A    between atoms: C9_9  and  C10_10 
REMARK    5  A    between atoms: C10_10  and  C11_11 
REMARK    6  A    between atoms: C11_11  and  C12_13 
REMARK    7  A    between atoms: C15_19  and  O2_20 
REMARK    8  A    between atoms: C16_24  and  O3_25 
ROOT
HETATM    1  C12 UNL     1       4.764   0.161   0.005  1.00  0.00     0.155 A 
HETATM    2  N1  UNL     1       5.043   1.438   0.291  1.00  0.00    -0.327 N 
ATOM      3  H1  UNL     1       4.391   2.127   0.665  1.00  0.00     0.168 HD
HETATM    4  C13 UNL     1       6.328   1.647  -0.002  1.00  0.00     0.167 A 
HETATM    5  C14 UNL     1       7.087   2.877   0.139  1.00  0.00     0.122 C 
HETATM    6  N2  UNL     1       7.694   3.862   0.243  1.00  0.00    -0.190 NA
HETATM    7  C15 UNL     1       6.849   0.472  -0.480  1.00  0.00     0.180 A 
HETATM    8  N3  UNL     1       5.865  -0.440  -0.468  1.00  0.00    -0.318 N 
ATOM      9  H3  UNL     1       5.941  -1.413  -0.765  1.00  0.00     0.169 HD
ENDROOT
BRANCH   7  10
HETATM   10  O2  UNL     1       8.181   0.262  -0.905  1.00  0.00    -0.344 OA
ATOM     11  H2  UNL     1       8.542  -0.552  -1.236  1.00  0.00     0.219 HD
ENDBRANCH   7  10
BRANCH   1  12
HETATM   12  C11 UNL     1       3.456  -0.505   0.177  1.00  0.00     0.193 C 
HETATM   13  O1  UNL     1       3.300  -1.699  -0.115  1.00  0.00    -0.289 OA
BRANCH  12  14
HETATM   14  C10 UNL     1       2.348   0.301   0.706  1.00  0.00     0.087 C 
BRANCH  14  15
HETATM   15  C9  UNL     1       1.022  -0.364   0.777  1.00  0.00     0.008 C 
BRANCH  15  16
HETATM   16  C8  UNL     1       0.481  -0.775  -0.562  1.00  0.00     0.005 C 
BRANCH  16  17
HETATM   17  C6  UNL     1      -0.864  -1.442  -0.375  1.00  0.00    -0.012 C 
HETATM   18  C7  UNL     1      -1.263  -2.030  -1.708  1.00  0.00     0.010 C 
BRANCH  17  19
HETATM   19  C5  UNL     1      -1.882  -0.574   0.253  1.00  0.00     0.018 C 
HETATM   20  C4  UNL     1      -3.142  -1.390   0.475  1.00  0.00     0.008 C 
HETATM   21  C3  UNL     1      -4.205  -0.599   1.199  1.00  0.00     0.005 C 
HETATM   22  C2  UNL     1      -4.497   0.600   0.283  1.00  0.00    -0.016 C 
HETATM   23  C1  UNL     1      -5.735   1.320   0.697  1.00  0.00     0.010 C 
HETATM   24  C17 UNL     1      -3.258   1.455   0.322  1.00  0.00     0.036 C 
HETATM   25  C16 UNL     1      -2.136   0.743  -0.379  1.00  0.00     0.122 C 
BRANCH  25  26
HETATM   26  O3  UNL     1      -2.404   0.728  -1.719  1.00  0.00    -0.395 OA
ATOM     27  H3  UNL     1      -2.567   1.572  -2.124  1.00  0.00     0.210 HD
ENDBRANCH  25  26
ENDBRANCH  17  19
ENDBRANCH  16  17
ENDBRANCH  15  16
ENDBRANCH  14  15
ENDBRANCH  12  14
ENDBRANCH   1  12
TORSDOF 8
