REMARK  7 active torsions:
REMARK  status: ('A' for Active; 'I' for Inactive)
REMARK    1  A    between atoms: C2_2  and  C3_3 
REMARK    2  A    between atoms: C3_3  and  C4_4 
REMARK    3  A    between atoms: C4_4  and  N1_6 
REMARK    4  A    between atoms: N1_6  and  C6_8 
REMARK    5  A    between atoms: C7_9  and  N2_10 
REMARK    6  A    between atoms: N2_10  and  C8_12 
REMARK    7  A    between atoms: C13_20  and  O1_21 
ROOT
HETATM    1  C6  UNL     1       1.322   1.381  -0.354  1.00  0.00     0.122 A 
HETATM    2  C7  UNL     1      -0.031   1.029  -0.262  1.00  0.00     0.198 A 
HETATM    3  O2  UNL     1      -0.674   2.141  -0.082  1.00  0.00    -0.214 OA
HETATM    4  N4  UNL     1       0.124   3.159  -0.050  1.00  0.00    -0.242 N 
HETATM    5  C14 UNL     1      -0.205   4.569   0.131  1.00  0.00     0.187 C 
HETATM    6  C15 UNL     1       1.401   2.749  -0.216  1.00  0.00     0.154 A 
HETATM    7  S1  UNL     1       2.749   3.666  -0.252  1.00  0.00    -0.056 SA
ENDROOT
BRANCH   2   8
HETATM    8  N2  UNL     1      -0.521  -0.318  -0.358  1.00  0.00    -0.337 N 
ATOM      9  H2  UNL     1       0.143  -1.080  -0.496  1.00  0.00     0.163 HD
BRANCH   8  10
HETATM   10  C8  UNL     1      -1.913  -0.618  -0.265  1.00  0.00     0.314 C 
HETATM   11  N3  UNL     1      -2.510  -0.148   0.974  1.00  0.00    -0.052 N 
HETATM   12  C9  UNL     1      -3.298  -1.159   1.640  1.00  0.00     0.235 C 
ATOM     13  H32 UNL     1      -1.799   0.231   1.600  1.00  0.00     0.279 HD
ATOM     14  H31 UNL     1      -3.060   0.697   0.816  1.00  0.00     0.279 HD
HETATM   15  C10 UNL     1      -4.687  -1.292   1.111  1.00  0.00     0.028 C 
HETATM   16  C11 UNL     1      -4.736  -1.353  -0.399  1.00  0.00     0.004 C 
HETATM   17  C12 UNL     1      -4.198  -0.111  -1.040  1.00  0.00     0.036 C 
HETATM   18  C13 UNL     1      -2.745  -0.223  -1.440  1.00  0.00     0.168 C 
BRANCH  18  19
HETATM   19  O1  UNL     1      -2.389   0.958  -2.053  1.00  0.00    -0.392 OA
ATOM     20  H1  UNL     1      -2.918   1.209  -2.801  1.00  0.00     0.210 HD
ENDBRANCH  18  19
ENDBRANCH   8  10
ENDBRANCH   2   8
BRANCH   1  21
HETATM   21  N1  UNL     1       2.384   0.483  -0.556  1.00  0.00    -0.380 N 
ATOM     22  H1  UNL     1       2.683   0.287  -1.511  1.00  0.00     0.160 HD
BRANCH  21  23
HETATM   23  C4  UNL     1       3.061  -0.165   0.519  1.00  0.00     0.077 C 
HETATM   24  C5  UNL     1       3.709   0.827   1.476  1.00  0.00     0.032 C 
BRANCH  23  25
HETATM   25  C3  UNL     1       4.150  -1.097   0.083  1.00  0.00     0.024 C 
BRANCH  25  26
HETATM   26  C2  UNL     1       3.621  -2.127  -0.864  1.00  0.00    -0.003 C 
HETATM   27  C1  UNL     1       4.738  -3.061  -1.290  1.00  0.00     0.005 C 
ENDBRANCH  25  26
ENDBRANCH  23  25
ENDBRANCH  21  23
ENDBRANCH   1  21
TORSDOF 7
