REMARK  20 active torsions:
REMARK  status: ('A' for Active; 'I' for Inactive)
REMARK    1  A    between atoms: C2_2  and  C3_7 
REMARK    2  A    between atoms: N1_3  and  O1_5 
REMARK    3  A    between atoms: C3_7  and  O2_8 
REMARK    4  A    between atoms: C4_11  and  O4_12 
REMARK    5  A    between atoms: O4_12  and  C5_13 
REMARK    6  A    between atoms: C5_13  and  C6_15 
REMARK    7  A    between atoms: C6_15  and  C7_16 
REMARK    8  A    between atoms: C7_16  and  O6_17 
REMARK    9  A    between atoms: C7_16  and  C8_19 
REMARK   10  A    between atoms: C8_19  and  C9_20 
REMARK   11  A    between atoms: C9_20  and  O7_21 
REMARK   12  A    between atoms: O7_21  and  C10_22 
REMARK   13  A    between atoms: C12_25  and  O9_27 
REMARK   14  A    between atoms: C14_29  and  O10_30 
REMARK   15  A    between atoms: C15_32  and  O11_33 
REMARK   16  A    between atoms: C16_35  and  O12_36 
REMARK   17  A    between atoms: C17_38  and  O13_39 
REMARK   18  A    between atoms: C18_41  and  O14_42 
REMARK   19  A    between atoms: C19_44  and  C20_45 
REMARK   20  A    between atoms: C20_45  and  O15_46 
ROOT
HETATM    1  C3  UNL     1      -4.681  -0.351   0.505  1.00  0.00     0.214 C 
HETATM    2  O3  UNL     1      -4.116  -0.868  -0.624  1.00  0.00    -0.316 OA
HETATM    3  C4  UNL     1      -2.989  -0.221  -1.092  1.00  0.00     0.304 C 
HETATM    4  C16 UNL     1      -3.295   0.911  -2.054  1.00  0.00     0.205 C 
HETATM    5  C17 UNL     1      -4.066   2.039  -1.537  1.00  0.00     0.181 C 
HETATM    6  C18 UNL     1      -4.444   2.060  -0.106  1.00  0.00     0.161 C 
HETATM    7  C19 UNL     1      -5.387   0.947   0.298  1.00  0.00     0.109 C 
ENDROOT
BRANCH   3   8
HETATM    8  O4  UNL     1      -2.069   0.170  -0.109  1.00  0.00    -0.287 OA
BRANCH   8   9
HETATM    9  C5  UNL     1      -0.780  -0.331  -0.133  1.00  0.00     0.263 C 
HETATM   10  O5  UNL     1      -0.487  -1.127  -1.055  1.00  0.00    -0.265 OA
BRANCH   9  11
HETATM   11  C6  UNL     1       0.219   0.056   0.888  1.00  0.00     0.142 C 
BRANCH  11  12
HETATM   12  C7  UNL     1       1.473   0.667   0.338  1.00  0.00     0.129 C 
BRANCH  12  13
HETATM   13  O6  UNL     1       2.271   0.976   1.439  1.00  0.00    -0.395 OA
ATOM     14  H6  UNL     1       3.065   1.363   1.091  1.00  0.00     0.210 HD
ENDBRANCH  12  13
BRANCH  12  15
HETATM   15  C8  UNL     1       2.217  -0.105  -0.672  1.00  0.00     0.058 C 
BRANCH  15  16
HETATM   16  C9  UNL     1       2.764  -1.425  -0.332  1.00  0.00     0.173 C 
BRANCH  16  17
HETATM   17  O7  UNL     1       3.736  -1.539   0.613  1.00  0.00    -0.358 OA
BRANCH  17  18
HETATM   18  C10 UNL     1       4.944  -0.925   0.342  1.00  0.00     0.290 C 
HETATM   19  O8  UNL     1       5.323  -0.195   1.444  1.00  0.00    -0.356 OA
HETATM   20  C11 UNL     1       6.442   0.567   1.261  1.00  0.00     0.211 C 
HETATM   21  C12 UNL     1       7.351   0.155   0.157  1.00  0.00     0.104 C 
HETATM   22  C13 UNL     1       7.105   0.996  -1.089  1.00  0.00     0.051 C 
HETATM   23  C14 UNL     1       7.341  -1.300  -0.168  1.00  0.00     0.187 C 
HETATM   24  C15 UNL     1       6.058  -1.995   0.211  1.00  0.00     0.205 C 
BRANCH  21  25
HETATM   25  O9  UNL     1       8.661   0.489   0.579  1.00  0.00    -0.385 OA
ATOM     26  H9  UNL     1       9.241   0.226  -0.126  1.00  0.00     0.210 HD
ENDBRANCH  21  25
BRANCH  23  27
HETATM   27  O10 UNL     1       7.577  -1.415  -1.559  1.00  0.00    -0.390 OA
ATOM     28  H10 UNL     1       7.571  -2.342  -1.766  1.00  0.00     0.210 HD
ENDBRANCH  23  27
BRANCH  24  29
HETATM   29  O11 UNL     1       6.192  -2.551   1.476  1.00  0.00    -0.388 OA
ATOM     30  H11 UNL     1       6.875  -3.207   1.396  1.00  0.00     0.210 HD
ENDBRANCH  24  29
ENDBRANCH  17  18
ENDBRANCH  16  17
ENDBRANCH  15  16
ENDBRANCH  12  15
ENDBRANCH  11  12
ENDBRANCH   9  11
ENDBRANCH   8   9
ENDBRANCH   3   8
BRANCH   4  31
HETATM   31  O12 UNL     1      -3.886   0.327  -3.179  1.00  0.00    -0.388 OA
ATOM     32  H12 UNL     1      -4.078   1.036  -3.782  1.00  0.00     0.210 HD
ENDBRANCH   4  31
BRANCH   1  33
HETATM   33  C2  UNL     1      -5.654  -1.333   1.049  1.00  0.00     0.068 C 
HETATM   34  C1  UNL     1      -6.363  -1.151   2.351  1.00  0.00     0.071 C 
HETATM   35  N1  UNL     1      -5.957  -2.432   0.417  1.00  0.00    -0.272 N 
ATOM     36  H1  UNL     1      -6.635  -3.054   0.858  1.00  0.00     0.193 HD
BRANCH  35  37
HETATM   37  O1  UNL     1      -5.446  -2.815  -0.776  1.00  0.00    -0.290 OA
ATOM     38  H1  UNL     1      -5.667  -3.616  -1.237  1.00  0.00     0.244 HD
ENDBRANCH  35  37
ENDBRANCH   1  33
BRANCH   1  39
HETATM   39  O2  UNL     1      -3.742  -0.154   1.535  1.00  0.00    -0.360 OA
ATOM     40  H2  UNL     1      -3.120   0.474   1.187  1.00  0.00     0.213 HD
ENDBRANCH   1  39
BRANCH   5  41
HETATM   41  O13 UNL     1      -3.341   3.237  -1.774  1.00  0.00    -0.390 OA
ATOM     42  H13 UNL     1      -3.842   3.971  -1.438  1.00  0.00     0.210 HD
ENDBRANCH   5  41
BRANCH   7  43
HETATM   43  C20 UNL     1      -6.559   0.919  -0.616  1.00  0.00     0.177 C 
BRANCH  43  44
HETATM   44  O15 UNL     1      -7.584   0.059  -0.200  1.00  0.00    -0.400 OA
ATOM     45  H15 UNL     1      -8.333   0.041  -0.784  1.00  0.00     0.209 HD
ENDBRANCH  43  44
ENDBRANCH   7  43
BRANCH   6  46
HETATM   46  O14 UNL     1      -5.165   3.263   0.106  1.00  0.00    -0.392 OA
ATOM     47  H14 UNL     1      -5.408   3.276   1.024  1.00  0.00     0.210 HD
ENDBRANCH   6  46
TORSDOF 20
