REMARK  17 active torsions:
REMARK  status: ('A' for Active; 'I' for Inactive)
REMARK    1  A    between atoms: N1_1  and  C1_5 
REMARK    2  A    between atoms: C3_7  and  N2_8 
REMARK    3  A    between atoms: C4_12  and  O1_13 
REMARK    4  A    between atoms: O1_13  and  C5_14 
REMARK    5  A    between atoms: C7_16  and  O2_17 
REMARK    6  A    between atoms: C8_19  and  O3_20 
REMARK    7  A    between atoms: C9_22  and  N3_23 
REMARK    8  A    between atoms: C10_30  and  O4_31 
REMARK    9  A    between atoms: O4_31  and  C11_32 
REMARK   10  A    between atoms: C11_32  and  C12_33 
REMARK   11  A    between atoms: C13_37  and  O5_38 
REMARK   12  A    between atoms: O5_38  and  C14_39 
REMARK   13  A    between atoms: C16_42  and  C17_43 
REMARK   14  A    between atoms: C17_43  and  O6_44 
REMARK   15  A    between atoms: C18_49  and  O7_50 
REMARK   16  A    between atoms: C19_52  and  O8_53 
REMARK   17  A    between atoms: C20_55  and  O9_56 
ROOT
HETATM    1  C1  UNL     1      -1.014   1.619  -1.859  1.00  0.00     0.241 C 
HETATM    2  C2  UNL     1      -2.456   2.080  -1.930  1.00  0.00     0.074 C 
HETATM    3  C3  UNL     1      -2.923   2.307  -0.508  1.00  0.00     0.241 C 
HETATM    4  C4  UNL     1      -3.206   0.915   0.070  1.00  0.00     0.355 C 
HETATM    5  N4  UNL     1      -2.136   0.053  -0.356  1.00  0.00    -0.018 N 
ATOM      6  H41 UNL     1      -2.417  -0.491  -1.172  1.00  0.00     0.283 HD
ATOM      7  H42 UNL     1      -1.995  -0.703   0.315  1.00  0.00     0.283 HD
HETATM    8  C10 UNL     1      -0.898   0.742  -0.609  1.00  0.00     0.354 C 
ENDROOT
BRANCH   8   9
HETATM    9  O4  UNL     1       0.149  -0.141  -0.702  1.00  0.00    -0.355 OA
BRANCH   9  10
HETATM   10  C11 UNL     1       1.082   0.077   0.286  1.00  0.00     0.206 C 
BRANCH  10  11
HETATM   11  C12 UNL     1       2.247  -0.884   0.206  1.00  0.00     0.243 C 
HETATM   12  N5  UNL     1       2.923  -0.738  -1.088  1.00  0.00    -0.037 N 
HETATM   13  C13 UNL     1       4.180  -1.495  -1.024  1.00  0.00     0.355 C 
ATOM     14  H52 UNL     1       2.335  -1.012  -1.875  1.00  0.00     0.281 HD
ATOM     15  H51 UNL     1       3.061   0.237  -1.355  1.00  0.00     0.281 HD
HETATM   16  C18 UNL     1       3.826  -2.927  -0.786  1.00  0.00     0.205 C 
HETATM   17  C19 UNL     1       3.101  -3.140   0.517  1.00  0.00     0.182 C 
HETATM   18  C20 UNL     1       1.817  -2.303   0.439  1.00  0.00     0.182 C 
BRANCH  13  19
HETATM   19  O5  UNL     1       4.958  -0.921  -0.052  1.00  0.00    -0.323 OA
BRANCH  19  20
HETATM   20  C14 UNL     1       6.140  -0.374  -0.540  1.00  0.00     0.333 C 
HETATM   21  C15 UNL     1       7.285  -1.140   0.111  1.00  0.00     0.137 C 
HETATM   22  S1  UNL     1       7.365  -0.220   1.704  1.00  0.00    -0.130 SA
HETATM   23  C16 UNL     1       6.266   1.168   1.207  1.00  0.00     0.273 C 
HETATM   24  N6  UNL     1       6.299   1.011  -0.232  1.00  0.00    -0.033 N 
ATOM     25  H62 UNL     1       7.139   1.411  -0.650  1.00  0.00     0.281 HD
ATOM     26  H61 UNL     1       5.613   1.599  -0.706  1.00  0.00     0.281 HD
BRANCH  23  27
HETATM   27  C17 UNL     1       6.994   2.439   1.549  1.00  0.00     0.208 C 
BRANCH  27  28
HETATM   28  O6  UNL     1       6.997   2.650   2.931  1.00  0.00    -0.398 OA
ATOM     29  H6  UNL     1       7.457   3.453   3.147  1.00  0.00     0.209 HD
ENDBRANCH  27  28
ENDBRANCH  23  27
ENDBRANCH  19  20
ENDBRANCH  13  19
BRANCH  16  30
HETATM   30  O7  UNL     1       4.907  -3.788  -0.951  1.00  0.00    -0.388 OA
ATOM     31  H7  UNL     1       4.682  -4.698  -0.800  1.00  0.00     0.210 HD
ENDBRANCH  16  30
BRANCH  17  32
HETATM   32  O8  UNL     1       2.698  -4.472   0.578  1.00  0.00    -0.390 OA
ATOM     33  H8  UNL     1       2.241  -4.606   1.400  1.00  0.00     0.210 HD
ENDBRANCH  17  32
BRANCH  18  34
HETATM   34  O9  UNL     1       1.088  -2.374   1.600  1.00  0.00    -0.391 OA
ATOM     35  H9  UNL     1       0.816  -3.272   1.747  1.00  0.00     0.210 HD
ENDBRANCH  18  34
ENDBRANCH  10  11
ENDBRANCH   9  10
ENDBRANCH   8   9
BRANCH   1  36
HETATM   36  N1  UNL     1      -0.204   2.826  -1.714  1.00  0.00    -0.071 N 
ATOM     37  H13 UNL     1      -0.373   3.517  -2.445  1.00  0.00     0.274 HD
ATOM     38  H12 UNL     1      -0.482   3.408  -0.924  1.00  0.00     0.274 HD
ATOM     39  H11 UNL     1       0.766   2.516  -1.666  1.00  0.00     0.274 HD
ENDBRANCH   1  36
BRANCH   4  40
HETATM   40  O1  UNL     1      -4.438   0.532  -0.451  1.00  0.00    -0.350 OA
BRANCH  40  41
HETATM   41  C5  UNL     1      -5.399   0.321   0.525  1.00  0.00     0.159 C 
HETATM   42  C6  UNL     1      -6.654   1.114   0.288  1.00  0.00     0.068 C 
HETATM   43  C7  UNL     1      -7.824   0.215   0.536  1.00  0.00     0.151 C 
HETATM   44  C8  UNL     1      -7.286  -1.137   0.920  1.00  0.00     0.179 C 
HETATM   45  C9  UNL     1      -5.882  -1.105   0.382  1.00  0.00     0.243 C 
BRANCH  43  46
HETATM   46  O2  UNL     1      -8.645   0.753   1.530  1.00  0.00    -0.393 OA
ATOM     47  H2  UNL     1      -9.388   0.182   1.687  1.00  0.00     0.210 HD
ENDBRANCH  43  46
BRANCH  44  48
HETATM   48  O3  UNL     1      -7.334  -1.366   2.294  1.00  0.00    -0.391 OA
ATOM     49  H3  UNL     1      -6.994  -2.219   2.536  1.00  0.00     0.210 HD
ENDBRANCH  44  48
BRANCH  45  50
HETATM   50  N3  UNL     1      -5.948  -1.430  -1.038  1.00  0.00    -0.070 N 
ATOM     51  H33 UNL     1      -6.518  -0.769  -1.565  1.00  0.00     0.274 HD
ATOM     52  H32 UNL     1      -5.064  -1.266  -1.519  1.00  0.00     0.274 HD
ATOM     53  H31 UNL     1      -6.274  -2.392  -1.134  1.00  0.00     0.274 HD
ENDBRANCH  45  50
ENDBRANCH  40  41
ENDBRANCH   4  40
BRANCH   3  54
HETATM   54  N2  UNL     1      -4.144   3.084  -0.571  1.00  0.00    -0.071 N 
ATOM     55  H23 UNL     1      -4.038   3.951  -1.098  1.00  0.00     0.274 HD
ATOM     56  H22 UNL     1      -4.858   2.657  -1.161  1.00  0.00     0.274 HD
ATOM     57  H21 UNL     1      -4.459   3.237   0.387  1.00  0.00     0.274 HD
ENDBRANCH   3  54
TORSDOF 17
