REMARK  14 active torsions:
REMARK  status: ('A' for Active; 'I' for Inactive)
REMARK    1  A    between atoms: C6_12  and  N4_13 
REMARK    2  A    between atoms: N4_13  and  C7_15 
REMARK    3  A    between atoms: N10_25  and  O1_26 
REMARK    4  A    between atoms: C12_31  and  O3_32 
REMARK    5  A    between atoms: C13_34  and  N11_35 
REMARK    6  A    between atoms: N11_35  and  C14_37 
REMARK    7  A    between atoms: C14_37  and  C15_38 
REMARK    8  A    between atoms: C14_37  and  C20_48 
REMARK    9  A    between atoms: C15_38  and  C16_39 
REMARK   10  A    between atoms: C16_39  and  C17_40 
REMARK   11  A    between atoms: C17_40  and  C18_42 
REMARK   12  A    between atoms: C18_42  and  N12_44 
REMARK   13  A    between atoms: C20_48  and  N13_49 
REMARK   14  A    between atoms: C20_48  and  O5_53 
ROOT
HETATM    1  C1  UNL     1       0.363  -2.140  -2.072  1.00  0.00     0.025 C 
HETATM    2  C2  UNL     1      -0.171  -1.369  -1.130  1.00  0.00     0.002 C 
HETATM    3  C3  UNL     1      -1.344  -0.573  -1.565  1.00  0.00     0.119 A 
HETATM    4  N1  UNL     1      -1.184  -0.396  -2.893  1.00  0.00    -0.327 N 
ATOM      5  H1  UNL     1      -0.332  -0.711  -3.358  1.00  0.00     0.169 HD
HETATM    6  C4  UNL     1      -2.136   0.185  -3.576  1.00  0.00     0.129 A 
HETATM    7  N2  UNL     1      -1.981   0.363  -4.861  1.00  0.00    -0.384 N 
ATOM      8  H21 UNL     1      -2.723   0.816  -5.394  1.00  0.00     0.157 HD
ATOM      9  H22 UNL     1      -1.137   0.059  -5.345  1.00  0.00     0.157 HD
HETATM   10  C5  UNL     1      -3.271   0.594  -2.925  1.00  0.00     0.134 A 
HETATM   11  N3  UNL     1      -4.254   1.204  -3.724  1.00  0.00    -0.094 NA
HETATM   12  C6  UNL     1      -3.487   0.426  -1.532  1.00  0.00     0.141 A 
HETATM   13  N8  UNL     1      -2.456  -0.171  -0.898  1.00  0.00    -0.295 N 
HETATM   14  C9  UNL     1      -2.693  -0.159   0.507  1.00  0.00     0.225 C 
HETATM   15  N9  UNL     1      -2.765   1.269   0.986  1.00  0.00    -0.082 NA
HETATM   16  N10 UNL     1      -2.737   1.054   2.381  1.00  0.00    -0.129 N 
HETATM   17  C10 UNL     1      -1.955  -0.129   2.668  1.00  0.00     0.270 C 
HETATM   18  O2  UNL     1      -1.802  -0.696   3.755  1.00  0.00    -0.269 OA
HETATM   19  C11 UNL     1      -1.415  -0.436   1.299  1.00  0.00     0.153 C 
HETATM   20  C12 UNL     1      -0.788  -1.747   1.137  1.00  0.00     0.161 C 
HETATM   21  C13 UNL     1       0.406  -1.443   0.203  1.00  0.00     0.143 C 
ENDROOT
BRANCH  21  22
HETATM   22  N11 UNL     1       1.528  -2.212   0.442  1.00  0.00    -0.402 N 
ATOM     23  H11 UNL     1       1.465  -3.078   0.978  1.00  0.00     0.154 HD
BRANCH  22  24
HETATM   24  C14 UNL     1       2.815  -1.749  -0.097  1.00  0.00     0.133 C 
BRANCH  24  25
HETATM   25  C15 UNL     1       3.245  -0.480   0.535  1.00  0.00     0.036 C 
BRANCH  25  26
HETATM   26  C16 UNL     1       4.501   0.069  -0.058  1.00  0.00     0.083 C 
BRANCH  26  27
HETATM   27  C17 UNL     1       4.898   1.354   0.620  1.00  0.00     0.156 C 
HETATM   28  O4  UNL     1       4.217   1.790   1.513  1.00  0.00    -0.296 OA
BRANCH  27  29
HETATM   29  C18 UNL     1       6.112   2.077   0.198  1.00  0.00     0.248 C 
HETATM   30  C19 UNL     1       7.342   1.208   0.208  1.00  0.00     0.048 C 
BRANCH  29  31
HETATM   31  N12 UNL     1       6.333   3.220   1.033  1.00  0.00    -0.069 N 
ATOM     32 3H12 UNL     1       5.518   3.832   1.061  1.00  0.00     0.275 HD
ATOM     33 2H12 UNL     1       6.367   2.967   2.021  1.00  0.00     0.275 HD
ATOM     34 1H12 UNL     1       7.173   3.720   0.741  1.00  0.00     0.275 HD
ENDBRANCH  29  31
ENDBRANCH  27  29
ENDBRANCH  26  27
ENDBRANCH  25  26
ENDBRANCH  24  25
BRANCH  24  35
HETATM   35  C20 UNL     1       3.763  -2.858   0.246  1.00  0.00     0.338 C 
BRANCH  35  36
HETATM   36  N13 UNL     1       5.117  -2.790   0.551  1.00  0.00    -0.051 N 
ATOM     37 3H13 UNL     1       5.547  -2.300  -0.234  1.00  0.00     0.277 HD
ATOM     38 2H13 UNL     1       5.187  -2.126   1.322  1.00  0.00     0.277 HD
ATOM     39 1H13 UNL     1       5.762  -3.545   0.784  1.00  0.00     0.277 HD
ENDBRANCH  35  36
BRANCH  35  40
HETATM   40  O5  UNL     1       3.275  -4.070   0.273  1.00  0.00    -0.368 OA
ATOM     41  H5  UNL     1       3.876  -4.773   0.490  1.00  0.00     0.212 HD
ENDBRANCH  35  40
ENDBRANCH  24  35
ENDBRANCH  22  24
ENDBRANCH  21  22
BRANCH  20  42
HETATM   42  O3  UNL     1      -0.329  -2.256   2.326  1.00  0.00    -0.392 OA
ATOM     43  H3  UNL     1       0.078  -3.108   2.221  1.00  0.00     0.210 HD
ENDBRANCH  20  42
BRANCH  12  44
HETATM   44  N4  UNL     1      -4.711   0.810  -1.076  1.00  0.00    -0.311 N 
ATOM     45  H4  UNL     1      -5.157   1.347  -1.819  1.00  0.00     0.170 HD
BRANCH  44  46
HETATM   46  C7  UNL     1      -5.601   0.766  -0.005  1.00  0.00     0.194 C 
HETATM   47  N5  UNL     1      -6.172  -0.310   0.430  1.00  0.00    -0.346 N 
HETATM   48  C8  UNL     1      -7.024   0.018   1.547  1.00  0.00     0.259 C 
ATOM     49  H5  UNL     1      -6.040  -1.245   0.044  1.00  0.00     0.163 HD
HETATM   50  N6  UNL     1      -6.767   1.401   1.851  1.00  0.00    -0.119 NA
HETATM   51  N7  UNL     1      -6.113   1.874   0.735  1.00  0.00    -0.274 N 
ATOM     52  H7  UNL     1      -6.011   2.856   0.479  1.00  0.00     0.185 HD
ENDBRANCH  44  46
ENDBRANCH  12  44
BRANCH  16  53
HETATM   53  O1  UNL     1      -3.360   1.865   3.259  1.00  0.00    -0.268 OA
ATOM     54  H1  UNL     1      -3.341   1.720   4.198  1.00  0.00     0.246 HD
ENDBRANCH  16  53
TORSDOF 14
