REMARK  15 active torsions:
REMARK  status: ('A' for Active; 'I' for Inactive)
REMARK    1  A    between atoms: N1_1  and  C1_4 
REMARK    2  A    between atoms: C2_7  and  C3_8 
REMARK    3  A    between atoms: C3_8  and  O1_9 
REMARK    4  A    between atoms: C3_8  and  C12_28 
REMARK    5  A    between atoms: O1_9  and  C4_10 
REMARK    6  A    between atoms: C4_10  and  C5_12 
REMARK    7  A    between atoms: C5_12  and  O3_13 
REMARK    8  A    between atoms: C5_12  and  C6_15 
REMARK    9  A    between atoms: C6_15  and  N3_16 
REMARK   10  A    between atoms: C9_19  and  C10_20 
REMARK   11  A    between atoms: N9_36  and  N10_37 
REMARK   12  A    between atoms: C16_40  and  C17_41 
REMARK   13  A    between atoms: C17_41  and  O6_42 
REMARK   14  A    between atoms: C18_44  and  O7_45 
REMARK   15  A    between atoms: C19_47  and  N11_48 
ROOT
HETATM    1  C3  UNL     1      -1.339   0.273   0.504  1.00  0.00     0.235 C 
ENDROOT
BRANCH   1   2
HETATM    2  C2  UNL     1      -2.558  -0.238   1.169  1.00  0.00     0.073 C 
HETATM    3  N2  UNL     1      -2.954  -1.504   0.818  1.00  0.00    -0.192 N 
HETATM    4  C1  UNL     1      -4.113  -2.110   1.104  1.00  0.00     0.677 C 
ATOM      5  H2  UNL     1      -2.285  -2.049   0.274  1.00  0.00     0.184 HD
HETATM    6  N12 UNL     1      -5.249  -1.617   1.613  1.00  0.00    -0.175 N 
HETATM    7  C19 UNL     1      -5.473  -0.358   2.084  1.00  0.00     0.148 C 
ATOM      8  H12 UNL     1      -6.040  -2.260   1.653  1.00  0.00     0.186 HD
HETATM    9  C18 UNL     1      -4.527   0.622   2.351  1.00  0.00     0.120 C 
HETATM   10  C16 UNL     1      -3.153   0.612   2.068  1.00  0.00     0.028 C 
BRANCH   4  11
HETATM   11  N1  UNL     1      -4.132  -3.369   0.845  1.00  0.00    -0.234 N 
ATOM     12  H12 UNL     1      -3.267  -3.745   0.457  1.00  0.00     0.174 HD
ATOM     13  H11 UNL     1      -5.015  -3.831   1.063  1.00  0.00     0.174 HD
ENDBRANCH   4  11
BRANCH   7  14
HETATM   14  N11 UNL     1      -6.671   0.002   2.318  1.00  0.00    -0.383 N 
ATOM     15 2H11 UNL     1      -6.839   0.944   2.671  1.00  0.00     0.157 HD
ATOM     16 1H11 UNL     1      -7.366  -0.718   2.122  1.00  0.00     0.157 HD
ENDBRANCH   7  14
BRANCH   9  17
HETATM   17  O7  UNL     1      -4.964   1.762   2.976  1.00  0.00    -0.356 OA
ATOM     18  H7  UNL     1      -5.894   1.769   3.168  1.00  0.00     0.218 HD
ENDBRANCH   9  17
BRANCH  10  19
HETATM   19  C17 UNL     1      -2.293   1.558   2.765  1.00  0.00     0.207 C 
BRANCH  19  20
HETATM   20  O6  UNL     1      -3.150   2.289   3.641  1.00  0.00    -0.396 OA
ATOM     21  H6  UNL     1      -2.589   2.906   4.096  1.00  0.00     0.209 HD
ENDBRANCH  19  20
ENDBRANCH  10  19
ENDBRANCH   1   2
BRANCH   1  22
HETATM   22  O1  UNL     1      -0.376  -0.801   0.633  1.00  0.00    -0.301 OA
BRANCH  22  23
HETATM   23  C4  UNL     1       0.843  -0.632   1.259  1.00  0.00     0.290 C 
HETATM   24  O2  UNL     1       1.107   0.494   1.721  1.00  0.00    -0.262 OA
BRANCH  23  25
HETATM   25  C5  UNL     1       1.746  -1.806   1.334  1.00  0.00     0.235 C 
BRANCH  25  26
HETATM   26  O3  UNL     1       2.875  -1.361   2.062  1.00  0.00    -0.384 OA
ATOM     27  H3  UNL     1       3.453  -2.113   2.110  1.00  0.00     0.210 HD
ENDBRANCH  25  26
BRANCH  25  28
HETATM   28  C6  UNL     1       2.214  -2.268  -0.038  1.00  0.00     0.169 C 
BRANCH  28  29
HETATM   29  N3  UNL     1       2.955  -1.218  -0.737  1.00  0.00    -0.363 N 
HETATM   30  C7  UNL     1       2.477  -0.275  -1.559  1.00  0.00     0.091 A 
HETATM   31  C8  UNL     1       3.486   0.536  -2.022  1.00  0.00     0.034 A 
HETATM   32  C9  UNL     1       4.644   0.072  -1.459  1.00  0.00     0.027 A 
HETATM   33  C11 UNL     1       4.297  -1.003  -0.675  1.00  0.00     0.106 A 
BRANCH  32  34
HETATM   34  C10 UNL     1       6.000   0.616  -1.651  1.00  0.00     0.142 C 
HETATM   35  N4  UNL     1       6.421   1.209  -2.693  1.00  0.00    -0.270 N 
HETATM   36  N5  UNL     1       7.774   1.589  -2.509  1.00  0.00    -0.007 NA
ATOM     37  H4  UNL     1       5.870   1.385  -3.533  1.00  0.00     0.185 HD
HETATM   38  N6  UNL     1       8.239   0.833  -1.414  1.00  0.00    -0.007 NA
HETATM   39  N7  UNL     1       7.065   0.576  -0.722  1.00  0.00    -0.270 N 
ATOM     40  H7  UNL     1       6.984   0.391   0.278  1.00  0.00     0.185 HD
ENDBRANCH  32  34
ENDBRANCH  28  29
ENDBRANCH  25  28
ENDBRANCH  23  25
ENDBRANCH  22  23
ENDBRANCH   1  22
BRANCH   1  41
HETATM   41  C12 UNL     1      -1.516   0.414  -0.962  1.00  0.00     0.079 A 
HETATM   42  C13 UNL     1      -1.642  -0.721  -1.728  1.00  0.00     0.104 A 
HETATM   43  C14 UNL     1      -1.811  -0.568  -3.106  1.00  0.00     0.251 A 
HETATM   44  O4  UNL     1      -1.930  -1.580  -3.839  1.00  0.00    -0.268 OA
HETATM   45  N8  UNL     1      -1.853   0.637  -3.696  1.00  0.00    -0.274 N 
HETATM   46  C15 UNL     1      -1.726   1.727  -2.908  1.00  0.00     0.348 A 
ATOM     47  H8  UNL     1      -1.977   0.727  -4.705  1.00  0.00     0.173 HD
HETATM   48  O5  UNL     1      -1.765   2.842  -3.458  1.00  0.00    -0.245 OA
HETATM   49  N9  UNL     1      -1.561   1.605  -1.569  1.00  0.00    -0.213 N 
BRANCH  49  50
HETATM   50  N10 UNL     1      -1.435   2.758  -0.830  1.00  0.00    -0.334 N 
ATOM     51 2H10 UNL     1      -1.311   2.666   0.178  1.00  0.00     0.177 HD
ATOM     52 1H10 UNL     1      -1.469   3.666  -1.293  1.00  0.00     0.177 HD
ENDBRANCH  49  50
ENDBRANCH   1  41
TORSDOF 15
