REMARK  17 active torsions:
REMARK  status: ('A' for Active; 'I' for Inactive)
REMARK    1  A    between atoms: C2_2  and  N1_3 
REMARK    2  A    between atoms: N1_3  and  C3_5 
REMARK    3  A    between atoms: C3_5  and  N2_7 
REMARK    4  A    between atoms: N2_7  and  N3_9 
REMARK       I    between atoms: N3_9  and  C4_11 
REMARK    5  A    between atoms: C4_11  and  C5_13 
REMARK    6  A    between atoms: C5_13  and  N4_14 
REMARK    7  A    between atoms: C5_13  and  C20_36 
REMARK    8  A    between atoms: N4_14  and  S2_16 
REMARK    9  A    between atoms: S2_16  and  C6_19 
REMARK   10  A    between atoms: C6_19  and  C7_20 
REMARK   11  A    between atoms: C7_20  and  C8_21 
REMARK   12  A    between atoms: C8_21  and  C9_22 
REMARK   13  A    between atoms: C9_22  and  C10_23 
REMARK   14  A    between atoms: C10_23  and  C11_24 
REMARK   15  A    between atoms: C11_24  and  N5_25 
REMARK       I    between atoms: N5_25  and  C12_27 
REMARK   16  A    between atoms: C12_27  and  C13_29 
REMARK   17  A    between atoms: C13_29  and  C14_30 
ROOT
HETATM    1  S2  UNL     1      -2.370   2.456   1.347  1.00  0.00     0.227 S 
HETATM    2  O2  UNL     1      -2.784   2.105   2.747  1.00  0.00    -0.206 OA
HETATM    3  O3  UNL     1      -2.051   3.945   1.269  1.00  0.00    -0.206 OA
ENDROOT
BRANCH   1   4
HETATM    4  N4  UNL     1      -3.435   1.961   0.151  1.00  0.00    -0.305 N 
ATOM      5  H4  UNL     1      -3.298   2.220  -0.826  1.00  0.00     0.173 HD
BRANCH   4   6
HETATM    6  C5  UNL     1      -4.560   1.147   0.569  1.00  0.00     0.189 C 
BRANCH   6   7
HETATM    7  C4  UNL     1      -4.641  -0.063  -0.226  1.00  0.00     0.259 C 
HETATM    8  N3  UNL     1      -5.525  -1.158  -0.121  1.00  0.00    -0.266 N 
ATOM      9  H3  UNL     1      -6.248  -1.134   0.598  1.00  0.00     0.190 HD
HETATM   10  O1  UNL     1      -3.776  -0.176  -1.178  1.00  0.00    -0.269 OA
BRANCH   8  11
HETATM   11  N2  UNL     1      -5.453  -2.265  -0.952  1.00  0.00    -0.274 N 
ATOM     12  H2  UNL     1      -4.593  -2.802  -0.840  1.00  0.00     0.189 HD
BRANCH  11  13
HETATM   13  C3  UNL     1      -6.311  -2.790  -1.903  1.00  0.00     0.186 C 
HETATM   14  S1  UNL     1      -5.749  -4.209  -2.633  1.00  0.00    -0.040 SA
BRANCH  13  15
HETATM   15  N1  UNL     1      -7.548  -2.373  -2.381  1.00  0.00    -0.366 N 
ATOM     16  H1  UNL     1      -7.998  -2.972  -3.074  1.00  0.00     0.161 HD
BRANCH  15  17
HETATM   17  C2  UNL     1      -8.248  -1.198  -2.002  1.00  0.00     0.117 C 
HETATM   18  C1  UNL     1      -7.616   0.061  -2.577  1.00  0.00     0.026 C 
ENDBRANCH  15  17
ENDBRANCH  13  15
ENDBRANCH  11  13
ENDBRANCH   8  11
ENDBRANCH   6   7
BRANCH   6  19
HETATM   19  C20 UNL     1      -5.836   1.970   0.538  1.00  0.00     0.010 C 
HETATM   20  C21 UNL     1      -5.629   3.264   1.347  1.00  0.00     0.012 C 
HETATM   21  C22 UNL     1      -7.007   1.280   1.225  1.00  0.00     0.012 C 
ENDBRANCH   6  19
ENDBRANCH   4   6
ENDBRANCH   1   4
BRANCH   1  22
HETATM   22  C6  UNL     1      -0.756   1.668   1.129  1.00  0.00     0.166 C 
BRANCH  22  23
HETATM   23  C7  UNL     1      -0.826   0.202   1.261  1.00  0.00     0.043 C 
BRANCH  23  24
HETATM   24  C8  UNL     1       0.430  -0.525   1.002  1.00  0.00    -0.030 C 
BRANCH  24  25
HETATM   25  C9  UNL     1       1.664  -0.325   1.743  1.00  0.00    -0.029 C 
BRANCH  25  26
HETATM   26  C10 UNL     1       2.428   0.936   1.686  1.00  0.00     0.046 C 
BRANCH  26  27
HETATM   27  C11 UNL     1       3.689   0.845   2.570  1.00  0.00     0.126 C 
BRANCH  27  28
HETATM   28  N5  UNL     1       4.582  -0.185   2.200  1.00  0.00    -0.361 N 
HETATM   29  C12 UNL     1       5.232  -0.240   0.948  1.00  0.00     0.217 C 
HETATM   30  O4  UNL     1       5.088   0.615   0.033  1.00  0.00    -0.274 OA
ATOM     31  H5  UNL     1       4.767  -0.929   2.873  1.00  0.00     0.162 HD
BRANCH  29  32
HETATM   32  C13 UNL     1       6.160  -1.378   0.667  1.00  0.00     0.107 C 
BRANCH  32  33
HETATM   33  C14 UNL     1       6.868  -1.148  -0.642  1.00  0.00    -0.006 C 
HETATM   34  C15 UNL     1       7.806  -2.282  -0.959  1.00  0.00     0.005 C 
HETATM   35  C16 UNL     1       8.411  -2.023  -2.330  1.00  0.00     0.000 C 
HETATM   36  C17 UNL     1       9.375  -0.870  -2.144  1.00  0.00     0.000 C 
HETATM   37  C18 UNL     1       9.083  -0.105  -0.893  1.00  0.00     0.000 C 
HETATM   38  C19 UNL     1       7.622   0.149  -0.663  1.00  0.00     0.005 C 
ENDBRANCH  32  33
ENDBRANCH  29  32
ENDBRANCH  27  28
ENDBRANCH  26  27
ENDBRANCH  25  26
ENDBRANCH  24  25
ENDBRANCH  23  24
ENDBRANCH  22  23
ENDBRANCH   1  22
TORSDOF 17
