REMARK  16 active torsions:
REMARK  status: ('A' for Active; 'I' for Inactive)
REMARK    1  A    between atoms: C2_2  and  C3_3 
REMARK    2  A    between atoms: C4_4  and  N1_5 
REMARK    3  A    between atoms: C4_4  and  C13_23 
REMARK       I    between atoms: N1_5  and  C5_7 
REMARK    4  A    between atoms: C5_7  and  C6_9 
REMARK    5  A    between atoms: C6_9  and  C7_10 
REMARK    6  A    between atoms: C6_9  and  N2_15 
REMARK    7  A    between atoms: C7_10  and  C8_11 
REMARK    8  A    between atoms: N2_15  and  C12_17 
REMARK    9  A    between atoms: N3_18  and  N4_20 
REMARK       I    between atoms: C13_23  and  N5_25 
REMARK   10  A    between atoms: N5_25  and  C14_27 
REMARK   11  A    between atoms: C16_29  and  C17_30 
REMARK   12  A    between atoms: C17_30  and  C18_31 
REMARK   13  A    between atoms: C18_31  and  C19_32 
REMARK   14  A    between atoms: C19_32  and  C20_33 
REMARK   15  A    between atoms: C23_37  and  C24_38 
REMARK       I    between atoms: C24_38  and  N6_40 
REMARK   16  A    between atoms: N6_40  and  C25_42 
ROOT
HETATM    1  C25 UNL     1      -3.419   4.328  -0.472  1.00  0.00     0.247 C 
HETATM    2  C26 UNL     1      -2.500   5.390  -0.852  1.00  0.00     0.078 C 
HETATM    3  N7  UNL     1      -1.775   6.243  -1.149  1.00  0.00    -0.196 NA
ENDROOT
BRANCH   1   4
HETATM    4  N6  UNL     1      -3.115   3.096  -1.197  1.00  0.00    -0.348 N 
HETATM    5  C24 UNL     1      -3.877   1.931  -1.026  1.00  0.00     0.228 C 
HETATM    6  O3  UNL     1      -4.847   2.046  -0.184  1.00  0.00    -0.273 OA
ATOM      7  H6  UNL     1      -2.327   3.083  -1.845  1.00  0.00     0.163 HD
BRANCH   5   8
HETATM    8  C23 UNL     1      -3.623   0.669  -1.723  1.00  0.00     0.124 A 
HETATM    9  C14 UNL     1      -2.533  -0.183  -1.302  1.00  0.00     0.106 A 
HETATM   10  C15 UNL     1      -3.100  -1.578  -1.106  1.00  0.00     0.073 A 
HETATM   11  C16 UNL     1      -4.554  -1.419  -1.299  1.00  0.00    -0.018 A 
HETATM   12  C22 UNL     1      -4.847  -0.146  -1.653  1.00  0.00     0.005 A 
BRANCH   9  13
HETATM   13  N5  UNL     1      -1.705   0.147  -0.169  1.00  0.00    -0.350 N 
HETATM   14  C13 UNL     1      -0.310   0.197  -0.294  1.00  0.00     0.268 C 
HETATM   15  O2  UNL     1       0.166  -0.012  -1.468  1.00  0.00    -0.266 OA
ATOM     16  H5  UNL     1      -2.139   0.346   0.732  1.00  0.00     0.163 HD
BRANCH  14  17
HETATM   17  C4  UNL     1       0.654   0.443   0.773  1.00  0.00     0.099 C 
HETATM   18  C3  UNL     1       0.346   1.291   1.903  1.00  0.00     0.008 C 
BRANCH  18  19
HETATM   19  C2  UNL     1       0.620   2.743   1.913  1.00  0.00     0.025 C 
HETATM   20  C1  UNL     1       2.077   3.108   1.829  1.00  0.00     0.009 C 
ENDBRANCH  18  19
BRANCH  17  21
HETATM   21  N1  UNL     1       2.007   0.422   0.335  1.00  0.00    -0.321 N 
HETATM   22  C5  UNL     1       2.882  -0.675   0.411  1.00  0.00     0.245 C 
HETATM   23  O1  UNL     1       2.499  -1.751   0.895  1.00  0.00    -0.271 OA
ATOM     24  H1  UNL     1       2.376   1.282  -0.071  1.00  0.00     0.169 HD
BRANCH  22  25
HETATM   25  C6  UNL     1       4.288  -0.548  -0.102  1.00  0.00     0.175 C 
BRANCH  25  26
HETATM   26  C7  UNL     1       5.088   0.384   0.725  1.00  0.00     0.043 C 
BRANCH  26  27
HETATM   27  C8  UNL     1       6.486   0.662   0.364  1.00  0.00    -0.049 C 
HETATM   28  C9  UNL     1       7.454  -0.461   0.314  1.00  0.00     0.014 C 
HETATM   29  C10 UNL     1       6.615   1.472  -0.917  1.00  0.00     0.014 C 
HETATM   30  C11 UNL     1       7.022   1.622   1.463  1.00  0.00     0.014 C 
ENDBRANCH  26  27
ENDBRANCH  25  26
BRANCH  25  31
HETATM   31  N2  UNL     1       4.924  -1.883  -0.023  1.00  0.00    -0.372 N 
ATOM     32  H2  UNL     1       5.271  -2.309  -0.883  1.00  0.00     0.161 HD
BRANCH  31  33
HETATM   33  C12 UNL     1       5.072  -2.592   1.185  1.00  0.00     0.193 C 
HETATM   34  N3  UNL     1       4.852  -3.841   1.319  1.00  0.00    -0.303 N 
ATOM     35  H3  UNL     1       4.985  -4.270   2.235  1.00  0.00     0.187 HD
BRANCH  34  36
HETATM   36  N4  UNL     1       4.437  -4.637   0.256  1.00  0.00    -0.344 N 
ATOM     37  H42 UNL     1       4.309  -4.192  -0.653  1.00  0.00     0.176 HD
ATOM     38  H41 UNL     1       4.261  -5.636   0.363  1.00  0.00     0.176 HD
ENDBRANCH  34  36
ENDBRANCH  31  33
ENDBRANCH  25  31
ENDBRANCH  22  25
ENDBRANCH  17  21
ENDBRANCH  14  17
ENDBRANCH   9  13
BRANCH  11  39
HETATM   39  C17 UNL     1      -5.584  -2.381  -1.197  1.00  0.00    -0.149 C 
BRANCH  39  40
HETATM   40  C18 UNL     1      -6.486  -3.222  -1.108  1.00  0.00     0.087 C 
BRANCH  40  41
HETATM   41  C19 UNL     1      -7.926  -2.815  -1.473  1.00  0.00     0.031 C 
BRANCH  41  42
HETATM   42  C20 UNL     1      -8.739  -2.968  -0.228  1.00  0.00     0.079 C 
HETATM   43  C21 UNL     1      -8.204  -2.076   0.854  1.00  0.00     0.026 C 
HETATM   44 CL1  UNL     1      -8.647  -4.648   0.402  1.00  0.00    -0.125 Cl
ENDBRANCH  41  42
ENDBRANCH  40  41
ENDBRANCH  39  40
ENDBRANCH  11  39
ENDBRANCH   5   8
ENDBRANCH   1   4
TORSDOF 16
