REMARK  15 active torsions:
REMARK  status: ('A' for Active; 'I' for Inactive)
REMARK    1  A    between atoms: C2_2  and  C3_3 
REMARK    2  A    between atoms: C3_3  and  N1_4 
REMARK    3  A    between atoms: C3_3  and  O5_41 
REMARK       I    between atoms: N1_4  and  C4_6 
REMARK    4  A    between atoms: C4_6  and  C5_8 
REMARK    5  A    between atoms: C5_8  and  N2_11 
REMARK    6  A    between atoms: N2_11  and  C7_13 
REMARK    7  A    between atoms: C7_13  and  C8_14 
REMARK    8  A    between atoms: C7_13  and  C10_16 
REMARK       I    between atoms: C10_16  and  N3_18 
REMARK    9  A    between atoms: N3_18  and  C11_20 
REMARK   10  A    between atoms: C11_20  and  C13_22 
REMARK       I    between atoms: C13_22  and  N4_24 
REMARK   11  A    between atoms: N4_24  and  C14_26 
REMARK   12  A    between atoms: C14_26  and  C15_27 
REMARK   13  A    between atoms: C14_26  and  C23_38 
REMARK       I    between atoms: C15_27  and  N5_29 
REMARK   14  A    between atoms: N5_29  and  C16_31 
REMARK   15  A    between atoms: C16_31  and  C17_32 
ROOT
HETATM    1  C10 UNL     1      -2.104   1.236   1.160  1.00  0.00     0.240 C 
HETATM    2  O2  UNL     1      -1.654   0.837   2.248  1.00  0.00    -0.271 OA
HETATM    3  N3  UNL     1      -1.293   2.023   0.319  1.00  0.00    -0.346 N 
ATOM      4  H3  UNL     1      -1.667   2.347  -0.573  1.00  0.00     0.163 HD
ENDROOT
BRANCH   3   5
HETATM    5  C11 UNL     1       0.074   2.387   0.696  1.00  0.00     0.172 C 
HETATM    6  C12 UNL     1       0.195   3.881   0.898  1.00  0.00     0.042 C 
BRANCH   5   7
HETATM    7  C13 UNL     1       1.048   2.006  -0.341  1.00  0.00     0.240 C 
HETATM    8  O3  UNL     1       0.605   1.433  -1.390  1.00  0.00    -0.271 OA
HETATM    9  N4  UNL     1       2.435   2.242  -0.230  1.00  0.00    -0.346 N 
ATOM     10  H4  UNL     1       2.780   2.699   0.614  1.00  0.00     0.163 HD
BRANCH   9  11
HETATM   11  C14 UNL     1       3.410   1.866  -1.263  1.00  0.00     0.180 C 
BRANCH  11  12
HETATM   12  C15 UNL     1       4.472   0.999  -0.643  1.00  0.00     0.244 C 
HETATM   13  O4  UNL     1       4.404   0.902   0.609  1.00  0.00    -0.271 OA
HETATM   14  N5  UNL     1       5.456   0.350  -1.416  1.00  0.00    -0.339 N 
ATOM     15  H5  UNL     1       5.389   0.534  -2.417  1.00  0.00     0.167 HD
BRANCH  14  16
HETATM   16  C16 UNL     1       6.514  -0.506  -1.058  1.00  0.00     0.068 C 
BRANCH  16  17
HETATM   17  C17 UNL     1       6.248  -1.870  -0.528  1.00  0.00     0.024 C 
HETATM   18  C18 UNL     1       5.466  -1.967   0.717  1.00  0.00     0.010 C 
HETATM   19  C19 UNL     1       5.466  -3.419   1.214  1.00  0.00     0.001 C 
HETATM   20  C20 UNL     1       6.869  -3.900   1.465  1.00  0.00     0.000 C 
HETATM   21  C21 UNL     1       7.541  -3.944   0.086  1.00  0.00     0.001 C 
HETATM   22  C22 UNL     1       7.636  -2.532  -0.381  1.00  0.00     0.010 C 
ENDBRANCH  16  17
ENDBRANCH  14  16
ENDBRANCH  11  12
BRANCH  11  23
HETATM   23  C23 UNL     1       4.053   3.179  -1.648  1.00  0.00     0.009 C 
HETATM   24  C24 UNL     1       5.092   3.120  -2.703  1.00  0.00     0.012 C 
HETATM   25  C25 UNL     1       2.988   4.199  -2.052  1.00  0.00     0.012 C 
ENDBRANCH  11  23
ENDBRANCH   9  11
ENDBRANCH   5   7
ENDBRANCH   3   5
BRANCH   1  26
HETATM   26  C7  UNL     1      -3.495   0.872   0.768  1.00  0.00     0.172 C 
BRANCH  26  27
HETATM   27  N2  UNL     1      -4.048   0.081   1.773  1.00  0.00    -0.368 N 
ATOM     28  H2  UNL     1      -3.479  -0.089   2.602  1.00  0.00     0.157 HD
BRANCH  27  29
HETATM   29  C5  UNL     1      -5.312  -0.494   1.736  1.00  0.00     0.250 C 
HETATM   30  C6  UNL     1      -6.446   0.457   1.968  1.00  0.00     0.087 C 
HETATM   31  F1  UNL     1      -5.351  -1.296   2.945  1.00  0.00    -0.209 F 
BRANCH  29  32
HETATM   32  C4  UNL     1      -5.577  -1.461   0.637  1.00  0.00     0.280 C 
HETATM   33  N1  UNL     1      -6.824  -2.096   0.457  1.00  0.00    -0.327 N 
ATOM     34  H1  UNL     1      -7.587  -1.891   1.102  1.00  0.00     0.165 HD
HETATM   35  O1  UNL     1      -4.643  -1.715  -0.159  1.00  0.00    -0.268 OA
BRANCH  33  36
HETATM   36  C3  UNL     1      -7.042  -3.026  -0.617  1.00  0.00     0.246 C 
BRANCH  36  37
HETATM   37  C2  UNL     1      -7.542  -4.362  -0.125  1.00  0.00     0.016 C 
HETATM   38  C1  UNL     1      -8.784  -4.445   0.327  1.00  0.00     0.011 C 
ENDBRANCH  36  37
BRANCH  36  39
HETATM   39  O5  UNL     1      -8.114  -2.497  -1.376  1.00  0.00    -0.368 OA
HETATM   40  C26 UNL     1      -7.752  -2.381  -2.713  1.00  0.00     0.204 C 
ENDBRANCH  36  39
ENDBRANCH  33  36
ENDBRANCH  29  32
ENDBRANCH  27  29
ENDBRANCH  26  27
BRANCH  26  41
HETATM   41  C8  UNL     1      -4.180   2.200   0.474  1.00  0.00     0.030 C 
HETATM   42  C9  UNL     1      -4.211   3.125   1.646  1.00  0.00     0.007 C 
ENDBRANCH  26  41
ENDBRANCH   1  26
TORSDOF 15
