REMARK  4 active torsions:
REMARK  status: ('A' for Active; 'I' for Inactive)
REMARK    1  A    between atoms: O1_2  and  C2_3 
REMARK    2  A    between atoms: C4_5  and  C5_6 
REMARK    3  A    between atoms: C8_11  and  C9_12 
REMARK    4  A    between atoms: C18_27  and  C19_28 
ROOT
HETATM    1  C5  UNL     1      -1.496  -1.626  -0.242  1.00  0.00     0.065 A 
HETATM    2  N1  UNL     1      -1.819  -2.951  -0.320  1.00  0.00    -0.364 N 
ATOM      3  H1  UNL     1      -1.061  -3.631  -0.375  1.00  0.00     0.165 HD
HETATM    4  C6  UNL     1      -3.070  -3.401  -0.328  1.00  0.00     0.089 A 
HETATM    5  C7  UNL     1      -4.159  -2.528  -0.255  1.00  0.00     0.031 A 
HETATM    6  C8  UNL     1      -3.868  -1.186  -0.176  1.00  0.00     0.002 A 
HETATM    7  C15 UNL     1      -2.560  -0.758  -0.171  1.00  0.00     0.083 A 
HETATM    8  C16 UNL     1      -2.273   0.656  -0.127  1.00  0.00     0.102 C 
HETATM    9  N2  UNL     1      -2.044   1.804  -0.118  1.00  0.00    -0.191 NA
ENDROOT
BRANCH   1  10
HETATM   10  C4  UNL     1      -0.102  -1.229  -0.247  1.00  0.00     0.010 A 
HETATM   11  C3  UNL     1       0.461  -0.346   0.645  1.00  0.00     0.054 A 
HETATM   12  C2  UNL     1       1.818  -0.010   0.560  1.00  0.00     0.096 A 
HETATM   13  C18 UNL     1       2.619  -0.553  -0.415  1.00  0.00     0.077 A 
HETATM   14  N3  UNL     1       2.048  -1.429  -1.294  1.00  0.00    -0.362 N 
HETATM   15  C17 UNL     1       0.759  -1.752  -1.219  1.00  0.00     0.102 A 
ATOM     16  H3  UNL     1       2.624  -1.846  -2.026  1.00  0.00     0.165 HD
BRANCH  12  17
HETATM   17  O1  UNL     1       2.343   0.870   1.464  1.00  0.00    -0.354 OA
HETATM   18  C1  UNL     1       1.601   1.481   2.502  1.00  0.00     0.210 C 
ENDBRANCH  12  17
BRANCH  13  19
HETATM   19  C19 UNL     1       4.022  -0.206  -0.487  1.00  0.00     0.011 A 
HETATM   20  C20 UNL     1       5.001  -1.165  -0.630  1.00  0.00     0.103 A 
HETATM   21  N4  UNL     1       6.311  -0.854  -0.705  1.00  0.00    -0.350 N 
HETATM   22  C21 UNL     1       6.643   0.443  -0.636  1.00  0.00     0.123 A 
ATOM     23  H4  UNL     1       7.022  -1.578  -0.810  1.00  0.00     0.166 HD
HETATM   24  N5  UNL     1       7.888   0.778  -0.704  1.00  0.00    -0.384 N 
HETATM   25  C22 UNL     1       5.736   1.461  -0.495  1.00  0.00     0.090 A 
ATOM     26  H52 UNL     1       8.563   0.020  -0.809  1.00  0.00     0.157 HD
ATOM     27  H51 UNL     1       8.141   1.765  -0.652  1.00  0.00     0.157 HD
HETATM   28  N6  UNL     1       6.141   2.821  -0.426  1.00  0.00    -0.098 NA
HETATM   29  C23 UNL     1       4.392   1.116  -0.420  1.00  0.00     0.045 A 
ENDBRANCH  13  19
ENDBRANCH   1  10
BRANCH   6  30
HETATM   30  C9  UNL     1      -4.971  -0.251  -0.072  1.00  0.00     0.016 A 
HETATM   31  C10 UNL     1      -5.083   0.726   0.877  1.00  0.00     0.042 A 
HETATM   32  C11 UNL     1      -6.185   1.588   0.934  1.00  0.00     0.073 A 
HETATM   33 CL1  UNL     1      -6.268   2.819   2.175  1.00  0.00    -0.081 Cl
HETATM   34  C12 UNL     1      -7.174   1.422  -0.010  1.00  0.00     0.141 A 
HETATM   35  F1  UNL     1      -8.243   2.251   0.039  1.00  0.00    -0.204 F 
HETATM   36  C13 UNL     1      -7.098   0.457  -0.975  1.00  0.00     0.087 A 
HETATM   37  C14 UNL     1      -5.997  -0.377  -1.004  1.00  0.00     0.130 A 
HETATM   38  F2  UNL     1      -5.946  -1.333  -1.989  1.00  0.00    -0.205 F 
ENDBRANCH   6  30
TORSDOF 4
