REMARK  5 active torsions:
REMARK  status: ('A' for Active; 'I' for Inactive)
REMARK    1  A    between atoms: O1_2  and  C2_3 
REMARK    2  A    between atoms: C7_10  and  N2_11 
REMARK    3  A    between atoms: N2_11  and  C8_13 
REMARK    4  A    between atoms: N5_19  and  C10_21 
REMARK    5  A    between atoms: C10_21  and  C11_22 
ROOT
HETATM    1  C8  UNL     1       0.797  -0.859   0.176  1.00  0.00     0.726 A 
HETATM    2  N3  UNL     1       0.833   0.410   0.806  1.00  0.00    -0.117 N 
ATOM      3  H3  UNL     1       0.117   0.766   1.439  1.00  0.00     0.206 HD
HETATM    4  N4  UNL     1       1.872   1.034   0.474  1.00  0.00    -0.117 N 
ATOM      5  H4  UNL     1       2.113   1.971   0.797  1.00  0.00     0.206 HD
HETATM    6  C9  UNL     1       2.661   0.262  -0.407  1.00  0.00     0.708 A 
HETATM    7  N5  UNL     1       3.721   0.702  -0.827  1.00  0.00    -0.220 N 
ATOM      8  H5  UNL     1       3.896   1.629  -0.439  1.00  0.00     0.178 HD
HETATM    9  N6  UNL     1       1.902  -0.854  -0.500  1.00  0.00    -0.019 N 
ATOM     10  H6  UNL     1       2.185  -1.650  -1.072  1.00  0.00     0.203 HD
ENDROOT
BRANCH   1  11
HETATM   11  N2  UNL     1      -0.336  -1.646   0.488  1.00  0.00    -0.019 N 
ATOM     12  H2  UNL     1      -0.227  -2.590   0.860  1.00  0.00     0.203 HD
BRANCH  11  13
HETATM   13  C7  UNL     1      -1.568  -1.122   0.283  1.00  0.00     0.712 A 
HETATM   14  N1  UNL     1      -2.630  -1.913   0.638  1.00  0.00    -0.187 N 
HETATM   15  C6  UNL     1      -3.883  -1.331   0.436  1.00  0.00     0.083 A 
ATOM     16  H1  UNL     1      -2.514  -2.852   1.019  1.00  0.00     0.184 HD
HETATM   17  C4  UNL     1      -5.034  -2.023   0.809  1.00  0.00    -0.030 A 
HETATM   18  C17 UNL     1      -3.997  -0.067  -0.088  1.00  0.00     0.079 A 
HETATM   19  C3  UNL     1      -6.263  -1.437   0.648  1.00  0.00     0.045 A 
HETATM   20  C5  UNL     1      -4.884  -3.388   1.393  1.00  0.00     0.050 C 
HETATM   21  C2  UNL     1      -6.396  -0.177   0.116  1.00  0.00     0.071 A 
HETATM   22  C18 UNL     1      -5.295   0.503  -0.253  1.00  0.00     0.070 A 
HETATM   23  N8  UNL     1      -2.944   0.676  -0.432  1.00  0.00    -0.284 N 
HETATM   24  N7  UNL     1      -1.708   0.052  -0.213  1.00  0.00    -0.131 N 
ATOM     25  H8  UNL     1      -3.030   1.615  -0.820  1.00  0.00     0.187 HD
ATOM     26  H7  UNL     1      -0.864   0.566  -0.465  1.00  0.00     0.205 HD
BRANCH  21  27
HETATM   27  O1  UNL     1      -7.694   0.377  -0.038  1.00  0.00    -0.356 OA
HETATM   28  C1  UNL     1      -7.804   1.699  -0.595  1.00  0.00     0.210 C 
ENDBRANCH  21  27
ENDBRANCH  11  13
ENDBRANCH   1  11
BRANCH   7  29
HETATM   29  C10 UNL     1       4.768   0.327  -1.675  1.00  0.00     0.180 C 
BRANCH  29  30
HETATM   30  C11 UNL     1       6.033   0.753  -0.896  1.00  0.00     0.004 A 
HETATM   31  C12 UNL     1       6.831   1.752  -1.437  1.00  0.00     0.045 A 
HETATM   32 CL1  UNL     1       6.281   2.560  -2.916  1.00  0.00    -0.084 Cl
HETATM   33  C13 UNL     1       8.004   2.150  -0.819  1.00  0.00     0.048 A 
HETATM   34  C14 UNL     1       8.347   1.519   0.347  1.00  0.00     0.037 A 
HETATM   35 CL2  UNL     1       9.808   1.961   1.232  1.00  0.00    -0.084 Cl
HETATM   36  C15 UNL     1       7.555   0.520   0.886  1.00  0.00     0.048 A 
HETATM   37  C16 UNL     1       6.382   0.121   0.266  1.00  0.00     0.045 A 
HETATM   38 CL3  UNL     1       5.450  -1.222   0.937  1.00  0.00    -0.084 Cl
ENDBRANCH  29  30
ENDBRANCH   7  29
TORSDOF 5
