REMARK  7 active torsions:
REMARK  status: ('A' for Active; 'I' for Inactive)
REMARK    1  A    between atoms: C2_2  and  C3_3 
REMARK    2  A    between atoms: C3_3  and  C4_4 
REMARK    3  A    between atoms: C3_3  and  N6_32 
REMARK    4  A    between atoms: C5_5  and  C6_6 
REMARK    5  A    between atoms: C9_14  and  C10_15 
REMARK    6  A    between atoms: C13_18  and  C14_19 
REMARK    7  A    between atoms: C16_23  and  N4_24 
ROOT
HETATM    1  C6  UNL     1      -1.483  -3.235  -0.010  1.00  0.00     0.084 A 
HETATM    2  C7  UNL     1      -2.326  -4.355   0.017  1.00  0.00     0.125 A 
HETATM    3 CL1  UNL     1      -4.059  -4.115  -0.058  1.00  0.00    -0.063 Cl
HETATM    4  N1  UNL     1      -1.827  -5.601   0.100  1.00  0.00    -0.342 N 
ATOM      5  H1  UNL     1      -2.457  -6.403   0.119  1.00  0.00     0.167 HD
HETATM    6  C8  UNL     1      -0.498  -5.788   0.158  1.00  0.00     0.182 A 
HETATM    7  N2  UNL     1       0.294  -4.712   0.130  1.00  0.00    -0.350 N 
ATOM      8  H2  UNL     1       1.302  -4.865   0.174  1.00  0.00     0.166 HD
HETATM    9  C9  UNL     1      -0.144  -3.433   0.048  1.00  0.00     0.065 A 
ENDROOT
BRANCH   9  10
HETATM   10  C10 UNL     1       0.796  -2.318   0.039  1.00  0.00    -0.008 A 
HETATM   11  C11 UNL     1       1.784  -2.224   0.996  1.00  0.00     0.014 A 
HETATM   12  C12 UNL     1       2.712  -1.198   1.012  1.00  0.00     0.013 A 
HETATM   13  C13 UNL     1       2.667  -0.219   0.043  1.00  0.00    -0.023 A 
HETATM   14  C18 UNL     1       1.684  -0.302  -0.922  1.00  0.00     0.013 A 
HETATM   15  C19 UNL     1       0.755  -1.342  -0.927  1.00  0.00     0.014 A 
BRANCH  13  16
HETATM   16  C14 UNL     1       3.643   0.879   0.041  1.00  0.00     0.006 A 
HETATM   17  C15 UNL     1       4.068   1.482  -1.110  1.00  0.00     0.119 A 
HETATM   18  N3  UNL     1       4.970   2.487  -1.036  1.00  0.00    -0.201 N 
HETATM   19  C16 UNL     1       5.474   2.927   0.133  1.00  0.00     0.675 A 
ATOM     20  H3  UNL     1       5.281   2.930  -1.901  1.00  0.00     0.183 HD
HETATM   21  N5  UNL     1       5.067   2.346   1.261  1.00  0.00    -0.201 N 
HETATM   22  C17 UNL     1       4.162   1.332   1.241  1.00  0.00     0.119 A 
ATOM     23  H5  UNL     1       5.441   2.667   2.154  1.00  0.00     0.183 HD
BRANCH  19  24
HETATM   24  N4  UNL     1       6.336   3.891   0.169  1.00  0.00    -0.234 N 
ATOM     25  H42 UNL     1       6.648   4.336  -0.694  1.00  0.00     0.174 HD
ATOM     26  H41 UNL     1       6.718   4.224   1.054  1.00  0.00     0.174 HD
ENDBRANCH  19  24
ENDBRANCH  13  16
ENDBRANCH   9  10
BRANCH   1  27
HETATM   27  C5  UNL     1      -2.023  -1.912  -0.069  1.00  0.00    -0.059 C 
HETATM   28  C4  UNL     1      -2.504  -0.801  -0.099  1.00  0.00    -0.065 C 
BRANCH  28  29
HETATM   29  C3  UNL     1      -3.126   0.569  -0.142  1.00  0.00     0.300 C 
BRANCH  29  30
HETATM   30  C2  UNL     1      -3.472   0.923  -1.536  1.00  0.00     0.044 C 
HETATM   31  C1  UNL     1      -4.119   2.242  -1.770  1.00  0.00     0.008 C 
ENDBRANCH  29  30
BRANCH  29  32
HETATM   32  N6  UNL     1      -2.274   1.410   0.592  1.00  0.00     0.095 N 
HETATM   33  C20 UNL     1      -2.825   2.699   0.862  1.00  0.00     0.310 C 
HETATM   34  C21 UNL     1      -1.983   0.777   1.869  1.00  0.00     0.310 C 
ENDBRANCH  29  32
ENDBRANCH  28  29
ENDBRANCH   1  27
TORSDOF 7
