REMARK  5 active torsions:
REMARK  status: ('A' for Active; 'I' for Inactive)
REMARK    1  A    between atoms: C3_4  and  S1_5 
REMARK    2  A    between atoms: S1_5  and  C4_8 
REMARK    3  A    between atoms: C5_9  and  C6_10 
REMARK    4  A    between atoms: C12_18  and  N3_19 
REMARK    5  A    between atoms: C13_24  and  C14_25 
ROOT
HETATM    1  N1  UNL     1      -0.732  -2.078   0.686  1.00  0.00    -0.191 NA
HETATM    2  C1  UNL     1      -1.071  -1.070   0.207  1.00  0.00     0.105 C 
HETATM    3  C2  UNL     1      -1.495   0.165  -0.424  1.00  0.00     0.111 A 
HETATM    4  C3  UNL     1      -0.536   0.877  -1.113  1.00  0.00     0.171 A 
HETATM    5  N2  UNL     1      -0.889   1.986  -1.774  1.00  0.00    -0.179 N 
ATOM      6  H2  UNL     1      -0.176   2.510  -2.282  1.00  0.00     0.185 HD
HETATM    7  C12 UNL     1      -2.161   2.428  -1.786  1.00  0.00     0.677 A 
HETATM    8  N4  UNL     1      -3.085   1.739  -1.119  1.00  0.00    -0.190 N 
ATOM      9  H4  UNL     1      -4.047   2.077  -1.131  1.00  0.00     0.184 HD
HETATM   10  C13 UNL     1      -2.800   0.591  -0.413  1.00  0.00     0.083 A 
ENDROOT
BRANCH   4  11
HETATM   11  S1  UNL     1       1.133   0.287  -1.126  1.00  0.00     0.214 S 
HETATM   12  O1  UNL     1       1.788   0.906  -2.379  1.00  0.00    -0.217 OA
HETATM   13  O2  UNL     1       1.111  -1.184  -1.349  1.00  0.00    -0.217 OA
BRANCH  11  14
HETATM   14  C4  UNL     1       1.988   0.780   0.253  1.00  0.00     0.116 C 
HETATM   15  C5  UNL     1       3.185   0.653   0.682  1.00  0.00     0.023 C 
BRANCH  15  16
HETATM   16  C6  UNL     1       4.388   0.042   0.225  1.00  0.00    -0.036 A 
HETATM   17  C7  UNL     1       4.535  -0.643  -0.937  1.00  0.00     0.011 A 
HETATM   18  C8  UNL     1       5.756  -1.227  -1.339  1.00  0.00     0.001 A 
HETATM   19  C9  UNL     1       6.833  -1.096  -0.519  1.00  0.00     0.000 A 
HETATM   20  C10 UNL     1       6.749  -0.414   0.672  1.00  0.00     0.001 A 
HETATM   21  C11 UNL     1       5.547   0.134   1.017  1.00  0.00     0.011 A 
ENDBRANCH  15  16
ENDBRANCH  11  14
ENDBRANCH   4  11
BRANCH  10  22
HETATM   22  C14 UNL     1      -3.880  -0.129   0.220  1.00  0.00    -0.007 A 
HETATM   23  C15 UNL     1      -3.780  -0.870   1.352  1.00  0.00     0.015 A 
HETATM   24  C16 UNL     1      -4.822  -1.635   1.898  1.00  0.00     0.024 A 
HETATM   25  C17 UNL     1      -6.014  -1.610   1.219  1.00  0.00     0.034 A 
HETATM   26 CL1  UNL     1      -7.353  -2.552   1.862  1.00  0.00    -0.084 Cl
HETATM   27  C18 UNL     1      -6.155  -0.868   0.067  1.00  0.00     0.024 A 
HETATM   28  C19 UNL     1      -5.128  -0.132  -0.448  1.00  0.00     0.015 A 
ENDBRANCH  10  22
BRANCH   7  29
HETATM   29  N3  UNL     1      -2.471   3.516  -2.446  1.00  0.00    -0.234 N 
ATOM     30  H32 UNL     1      -1.763   4.044  -2.957  1.00  0.00     0.174 HD
ATOM     31  H31 UNL     1      -3.434   3.851  -2.455  1.00  0.00     0.174 HD
ENDBRANCH   7  29
TORSDOF 5
