REMARK  6 active torsions:
REMARK  status: ('A' for Active; 'I' for Inactive)
REMARK    1  A    between atoms: O1_2  and  C2_3 
REMARK    2  A    between atoms: C5_6  and  N1_7 
REMARK    3  A    between atoms: N1_7  and  C6_9 
REMARK    4  A    between atoms: C9_14  and  N3_15 
REMARK    5  A    between atoms: N3_15  and  C10_17 
REMARK    6  A    between atoms: C17_27  and  O2_28 
ROOT
HETATM    1  C6  UNL     1      -0.084  -0.035  -0.883  1.00  0.00     0.122 A 
HETATM    2  C7  UNL     1      -0.030   0.398   0.427  1.00  0.00     0.066 A 
HETATM    3  C8  UNL     1      -1.203   0.548   1.144  1.00  0.00     0.110 A 
HETATM    4  N2  UNL     1      -2.407   0.281   0.593  1.00  0.00    -0.202 N 
ATOM      5  H2  UNL     1      -3.266   0.396   1.131  1.00  0.00     0.183 HD
HETATM    6  C9  UNL     1      -2.442  -0.140  -0.683  1.00  0.00     0.684 A 
HETATM    7  N4  UNL     1      -1.305  -0.288  -1.387  1.00  0.00    -0.176 N 
ATOM      8  H4  UNL     1      -1.373  -0.609  -2.353  1.00  0.00     0.186 HD
ENDROOT
BRANCH   1   9
HETATM    9  N1  UNL     1       0.997  -0.194  -1.605  1.00  0.00    -0.342 N 
ATOM     10  H1  UNL     1       0.943  -0.515  -2.572  1.00  0.00     0.167 HD
BRANCH   9  11
HETATM   11  C5  UNL     1       2.244   0.095  -0.997  1.00  0.00     0.036 A 
HETATM   12  C4  UNL     1       2.757   1.398  -0.943  1.00  0.00     0.032 A 
HETATM   13  C3  UNL     1       3.996   1.610  -0.326  1.00  0.00     0.042 A 
HETATM   14  C2  UNL     1       4.695   0.564   0.215  1.00  0.00     0.101 A 
HETATM   15  C17 UNL     1       4.149  -0.712   0.140  1.00  0.00     0.103 A 
HETATM   16  C16 UNL     1       2.945  -0.954  -0.454  1.00  0.00     0.069 A 
BRANCH  14  17
HETATM   17  O1  UNL     1       5.917   0.759   0.826  1.00  0.00    -0.353 OA
HETATM   18  C1  UNL     1       6.526   2.023   0.936  1.00  0.00     0.210 C 
ENDBRANCH  14  17
BRANCH  15  19
HETATM   19  O2  UNL     1       4.886  -1.744   0.699  1.00  0.00    -0.353 OA
HETATM   20  C18 UNL     1       4.394  -3.052   0.657  1.00  0.00     0.210 C 
ENDBRANCH  15  19
ENDBRANCH   9  11
ENDBRANCH   1   9
BRANCH   6  21
HETATM   21  N3  UNL     1      -3.575  -0.407  -1.250  1.00  0.00    -0.192 N 
ATOM     22  H3  UNL     1      -3.563  -0.724  -2.220  1.00  0.00     0.184 HD
BRANCH  21  23
HETATM   23  C10 UNL     1      -4.817  -0.287  -0.611  1.00  0.00     0.049 A 
HETATM   24  C11 UNL     1      -5.619   0.799  -0.879  1.00  0.00     0.031 A 
HETATM   25  C12 UNL     1      -6.849   0.971  -0.284  1.00  0.00     0.021 A 
HETATM   26  C13 UNL     1      -7.269   0.008   0.607  1.00  0.00     0.011 A 
HETATM   27 BR1  UNL     1      -8.971   0.239   1.436  1.00  0.00    -0.051 Br
HETATM   28  C14 UNL     1      -6.490  -1.086   0.894  1.00  0.00     0.021 A 
HETATM   29  C15 UNL     1      -5.268  -1.228   0.282  1.00  0.00     0.031 A 
ENDBRANCH  21  23
ENDBRANCH   6  21
TORSDOF 6
