REMARK  5 active torsions:
REMARK  status: ('A' for Active; 'I' for Inactive)
REMARK    1  A    between atoms: C1_2  and  N1_3 
REMARK    2  A    between atoms: N1_3  and  C2_5 
REMARK    3  A    between atoms: C7_10  and  O2_11 
REMARK    4  A    between atoms: O2_11  and  C8_12 
REMARK    5  A    between atoms: C12_16  and  C13_17 
ROOT
HETATM    1  C8  UNL     1       1.314  -0.207  -1.352  1.00  0.00     0.098 A 
HETATM    2  C9  UNL     1       1.274   0.490  -2.557  1.00  0.00     0.039 A 
HETATM    3  C10 UNL     1       0.039   0.855  -3.032  1.00  0.00     0.004 A 
HETATM    4  C11 UNL     1      -1.117   0.549  -2.352  1.00  0.00     0.014 A 
HETATM    5  C12 UNL     1      -1.116  -0.139  -1.159  1.00  0.00     0.001 A 
HETATM    6  C21 UNL     1       0.140  -0.508  -0.680  1.00  0.00     0.079 A 
HETATM    7 CL1  UNL     1       0.187  -1.417   0.817  1.00  0.00    -0.080 Cl
ENDROOT
BRANCH   5   8
HETATM    8  C13 UNL     1      -2.339  -0.508  -0.465  1.00  0.00     0.005 A 
HETATM    9  C14 UNL     1      -2.523  -1.874  -0.225  1.00  0.00     0.015 A 
HETATM   10  C15 UNL     1      -3.655  -2.350   0.378  1.00  0.00     0.003 A 
HETATM   11  C16 UNL     1      -4.639  -1.488   0.761  1.00  0.00     0.032 A 
HETATM   12  C17 UNL     1      -4.485  -0.123   0.536  1.00  0.00     0.063 A 
HETATM   13  N2  UNL     1      -5.476   0.703   0.938  1.00  0.00    -0.317 N 
HETATM   14  C20 UNL     1      -3.330   0.343  -0.076  1.00  0.00     0.073 A 
HETATM   15  C18 UNL     1      -5.323   2.015   0.732  1.00  0.00     0.314 A 
ATOM     16  H2  UNL     1      -6.316   0.336   1.385  1.00  0.00     0.169 HD
HETATM   17  O3  UNL     1      -6.232   2.814   1.096  1.00  0.00    -0.262 OA
HETATM   18  C19 UNL     1      -4.174   2.475   0.125  1.00  0.00     0.314 A 
HETATM   19  O4  UNL     1      -4.080   3.725  -0.046  1.00  0.00    -0.262 OA
HETATM   20  N3  UNL     1      -3.185   1.653  -0.277  1.00  0.00    -0.316 N 
ATOM     21  H3  UNL     1      -2.346   2.024  -0.724  1.00  0.00     0.169 HD
ENDBRANCH   5   8
BRANCH   1  22
HETATM   22  O2  UNL     1       2.563  -0.564  -0.895  1.00  0.00    -0.307 OA
BRANCH  22  23
HETATM   23  C7  UNL     1       3.122  -0.061   0.254  1.00  0.00     0.102 A 
HETATM   24  C2  UNL     1       4.361  -0.604   0.645  1.00  0.00     0.068 A 
HETATM   25  C3  UNL     1       4.896  -0.092   1.791  1.00  0.00     0.032 A 
HETATM   26  C4  UNL     1       4.257   0.910   2.534  1.00  0.00     0.002 A 
HETATM   27  C5  UNL     1       3.052   1.422   2.132  1.00  0.00     0.003 A 
HETATM   28  C6  UNL     1       2.491   0.922   0.977  1.00  0.00     0.039 A 
BRANCH  24  29
HETATM   29  N1  UNL     1       4.947  -1.600  -0.144  1.00  0.00    -0.332 N 
ATOM     30  H1  UNL     1       4.445  -1.875  -0.989  1.00  0.00     0.168 HD
BRANCH  29  31
HETATM   31  C1  UNL     1       6.150  -2.251   0.115  1.00  0.00     0.353 C 
HETATM   32  O1  UNL     1       6.944  -2.105   1.064  1.00  0.00    -0.283 OA
ENDBRANCH  29  31
ENDBRANCH  24  29
ENDBRANCH  22  23
ENDBRANCH   1  22
TORSDOF 5
