REMARK  5 active torsions:
REMARK  status: ('A' for Active; 'I' for Inactive)
REMARK    1  A    between atoms: C6_8  and  N1_9 
REMARK       I    between atoms: N1_9  and  C7_11 
REMARK    2  A    between atoms: C7_11  and  C8_13 
REMARK    3  A    between atoms: C8_13  and  C9_14 
REMARK    4  A    between atoms: C9_14  and  C10_15 
REMARK    5  A    between atoms: C12_19  and  C13_20 
ROOT
HETATM    1  C1  UNL     1      -4.609   4.002   0.101  1.00  0.00     0.062 C 
HETATM    2  C2  UNL     1      -3.126   4.022  -0.013  1.00  0.00     0.023 C 
HETATM    3 CL1  UNL     1      -2.383   5.588  -0.215  1.00  0.00    -0.088 Cl
HETATM    4  C3  UNL     1      -2.469   2.910   0.042  1.00  0.00     0.045 A 
HETATM    5  C4  UNL     1      -0.999   2.683  -0.048  1.00  0.00     0.197 A 
HETATM    6  O1  UNL     1      -0.099   3.530  -0.195  1.00  0.00    -0.286 OA
HETATM    7  C5  UNL     1      -0.771   1.234   0.071  1.00  0.00     0.055 A 
HETATM    8  C6  UNL     1       0.305   0.334   0.074  1.00  0.00     0.050 A 
HETATM    9  C11 UNL     1       0.002  -1.027   0.224  1.00  0.00     0.045 A 
HETATM   10  C12 UNL     1      -1.284  -1.544   0.369  1.00  0.00     0.006 A 
HETATM   11  C17 UNL     1      -2.323  -0.607   0.360  1.00  0.00     0.055 A 
HETATM   12  N3  UNL     1      -3.670  -0.587   0.459  1.00  0.00    -0.364 N 
ATOM     13  H3  UNL     1      -4.262  -1.409   0.580  1.00  0.00     0.165 HD
HETATM   14  C18 UNL     1      -4.123   0.713   0.372  1.00  0.00     0.101 A 
HETATM   15  C19 UNL     1      -3.033   1.565   0.210  1.00  0.00     0.008 A 
HETATM   16  C20 UNL     1      -1.995   0.694   0.213  1.00  0.00     0.021 A 
ENDROOT
BRANCH   8  17
HETATM   17  N1  UNL     1       1.578   0.873  -0.073  1.00  0.00    -0.326 N 
HETATM   18  C7  UNL     1       2.834   0.234  -0.108  1.00  0.00     0.222 C 
HETATM   19  O2  UNL     1       2.938  -0.992  -0.001  1.00  0.00    -0.273 OA
ATOM     20  H1  UNL     1       1.608   1.888  -0.171  1.00  0.00     0.169 HD
BRANCH  18  21
HETATM   21  C8  UNL     1       4.084   1.071  -0.280  1.00  0.00     0.112 C 
BRANCH  21  22
HETATM   22  C9  UNL     1       5.308   0.227  -0.350  1.00  0.00     0.109 C 
BRANCH  22  23
HETATM   23  C10 UNL     1       5.349  -0.726  -1.472  1.00  0.00     0.231 C 
HETATM   24  N2  UNL     1       6.465  -1.616  -1.516  1.00  0.00    -0.062 NA
HETATM   25  O3  UNL     1       4.496  -0.822  -2.384  1.00  0.00    -0.277 OA
ENDBRANCH  22  23
ENDBRANCH  21  22
ENDBRANCH  18  21
ENDBRANCH   8  17
BRANCH  10  26
HETATM   26  C13 UNL     1      -1.604  -2.940   0.524  1.00  0.00     0.001 A 
HETATM   27  C14 UNL     1      -0.967  -3.845   1.349  1.00  0.00     0.039 A 
HETATM   28  C15 UNL     1      -1.585  -5.092   1.202  1.00  0.00     0.142 A 
HETATM   29  O4  UNL     1      -2.532  -4.929   0.338  1.00  0.00    -0.334 OA
HETATM   30  C16 UNL     1      -2.587  -3.690  -0.090  1.00  0.00     0.153 A 
ENDBRANCH  10  26
TORSDOF 5
