REMARK  7 active torsions:
REMARK  status: ('A' for Active; 'I' for Inactive)
REMARK    1  A    between atoms: C3_3  and  C4_4 
REMARK    2  A    between atoms: C4_4  and  C5_6 
REMARK    3  A    between atoms: C5_6  and  C6_7 
REMARK    4  A    between atoms: C11_12  and  O2_13 
REMARK    5  A    between atoms: C13_17  and  N2_18 
REMARK    6  A    between atoms: N2_18  and  C14_20 
REMARK    7  A    between atoms: C16_22  and  O3_23 
ROOT
HETATM    1  C1  UNL     1      -0.085  -2.037  -1.059  1.00  0.00     0.069 C 
HETATM    2  C2  UNL     1      -0.439  -0.775  -0.376  1.00  0.00     0.027 A 
HETATM    3  C3  UNL     1      -1.685  -0.492   0.135  1.00  0.00     0.068 A 
HETATM    4  C11 UNL     1      -1.579   0.764   0.678  1.00  0.00     0.114 A 
HETATM    5  C12 UNL     1      -0.253   1.187   0.464  1.00  0.00     0.139 A 
HETATM    6  N1  UNL     1       0.426   0.257  -0.168  1.00  0.00    -0.320 N 
HETATM    7  C13 UNL     1       1.835   0.395  -0.501  1.00  0.00     0.207 C 
HETATM    8  C20 UNL     1       2.162   1.847  -0.687  1.00  0.00     0.170 C 
HETATM    9  N3  UNL     1       1.730   2.631   0.454  1.00  0.00    -0.352 N 
ATOM     10  H3  UNL     1       2.357   3.261   0.954  1.00  0.00     0.162 HD
HETATM   11  C21 UNL     1       0.362   2.457   0.827  1.00  0.00     0.271 C 
HETATM   12  O4  UNL     1      -0.289   3.320   1.425  1.00  0.00    -0.266 OA
ENDROOT
BRANCH   7  13
HETATM   13  N2  UNL     1       2.619  -0.161   0.605  1.00  0.00    -0.367 N 
ATOM     14  H2  UNL     1       2.102  -0.474   1.427  1.00  0.00     0.161 HD
BRANCH  13  15
HETATM   15  C14 UNL     1       4.006  -0.302   0.639  1.00  0.00     0.033 A 
HETATM   16  C15 UNL     1       4.797  -0.137  -0.476  1.00  0.00     0.065 A 
HETATM   17  C16 UNL     1       6.174  -0.267  -0.381  1.00  0.00     0.069 A 
HETATM   18  C17 UNL     1       6.749  -0.562   0.831  1.00  0.00     0.060 A 
HETATM   19  C18 UNL     1       5.988  -0.734   1.963  1.00  0.00     0.038 A 
HETATM   20 CL1  UNL     1       6.752  -1.108   3.489  1.00  0.00    -0.084 Cl
HETATM   21  C19 UNL     1       4.624  -0.600   1.849  1.00  0.00     0.053 A 
BRANCH  17  22
HETATM   22  O3  UNL     1       6.950  -0.093  -1.527  1.00  0.00    -0.361 OA
ATOM     23  H3  UNL     1       7.894  -0.182  -1.462  1.00  0.00     0.217 HD
ENDBRANCH  17  22
ENDBRANCH  13  15
ENDBRANCH   7  13
BRANCH   3  24
HETATM   24  C4  UNL     1      -2.875  -1.308   0.138  1.00  0.00     0.168 C 
HETATM   25  O1  UNL     1      -2.780  -2.454  -0.422  1.00  0.00    -0.292 OA
BRANCH  24  26
HETATM   26  C5  UNL     1      -4.182  -0.962   0.714  1.00  0.00     0.122 C 
BRANCH  26  27
HETATM   27  C6  UNL     1      -5.175  -0.521  -0.339  1.00  0.00    -0.055 A 
HETATM   28  C7  UNL     1      -5.730   0.670  -0.348  1.00  0.00    -0.015 A 
HETATM   29  C8  UNL     1      -6.642   0.748  -1.514  1.00  0.00     0.054 A 
HETATM   30  C9  UNL     1      -6.512  -0.565  -2.142  1.00  0.00    -0.022 A 
HETATM   31  C10 UNL     1      -5.663  -1.281  -1.452  1.00  0.00     0.003 A 
ENDBRANCH  26  27
ENDBRANCH  24  26
ENDBRANCH   3  24
BRANCH   4  32
HETATM   32  O2  UNL     1      -2.554   1.497   1.313  1.00  0.00    -0.357 OA
ATOM     33  H2  UNL     1      -2.481   2.366   1.689  1.00  0.00     0.217 HD
ENDBRANCH   4  32
TORSDOF 7
