REMARK  5 active torsions:
REMARK  status: ('A' for Active; 'I' for Inactive)
REMARK    1  A    between atoms: C6_9  and  N2_10 
REMARK       I    between atoms: N2_10  and  C7_12 
REMARK    2  A    between atoms: C7_12  and  C8_14 
REMARK    3  A    between atoms: C10_16  and  C11_17 
REMARK    4  A    between atoms: C15_21  and  O3_22 
REMARK    5  A    between atoms: C16_24  and  O4_25 
ROOT
HETATM    1  C8  UNL     1      -1.184  -0.850  -0.147  1.00  0.00     0.101 A 
HETATM    2  C9  UNL     1      -0.007  -0.153  -0.117  1.00  0.00     0.049 A 
HETATM    3  C10 UNL     1       1.013  -1.029   0.178  1.00  0.00    -0.006 A 
HETATM    4  C21 UNL     1       0.442  -2.270   0.328  1.00  0.00     0.101 A 
HETATM    5  N3  UNL     1      -0.872  -2.118   0.125  1.00  0.00    -0.361 N 
ATOM      6  H3  UNL     1      -1.551  -2.878   0.172  1.00  0.00     0.165 HD
ENDROOT
BRANCH   3   7
HETATM    7  C11 UNL     1       2.446  -0.710   0.311  1.00  0.00    -0.002 A 
HETATM    8  C12 UNL     1       3.053   0.102  -0.626  1.00  0.00     0.026 A 
HETATM    9  C13 UNL     1       4.397   0.430  -0.543  1.00  0.00    -0.022 A 
HETATM   10  C14 UNL     1       4.946   1.244  -1.507  1.00  0.00     0.051 A 
HETATM   11  C18 UNL     1       5.155  -0.064   0.501  1.00  0.00    -0.021 A 
HETATM   12  C15 UNL     1       6.297   1.589  -1.447  1.00  0.00     0.099 A 
HETATM   13  C16 UNL     1       7.063   1.101  -0.408  1.00  0.00     0.099 A 
HETATM   14  C17 UNL     1       6.488   0.278   0.558  1.00  0.00     0.051 A 
HETATM   15  C19 UNL     1       4.554  -0.876   1.440  1.00  0.00     0.037 A 
HETATM   16  C20 UNL     1       3.209  -1.200   1.350  1.00  0.00     0.046 A 
HETATM   17 CL1  UNL     1       2.455  -2.239   2.559  1.00  0.00    -0.083 Cl
BRANCH  12  18
HETATM   18  O3  UNL     1       6.770   2.401  -2.439  1.00  0.00    -0.358 OA
ATOM     19  H3  UNL     1       7.690   2.636  -2.398  1.00  0.00     0.217 HD
ENDBRANCH  12  18
BRANCH  13  20
HETATM   20  O4  UNL     1       8.408   1.405  -0.290  1.00  0.00    -0.358 OA
ATOM     21  H4  UNL     1       8.935   1.069   0.425  1.00  0.00     0.217 HD
ENDBRANCH  13  20
ENDBRANCH   3   7
BRANCH   1  22
HETATM   22  C7  UNL     1      -2.521  -0.307  -0.424  1.00  0.00     0.272 C 
HETATM   23  N2  UNL     1      -3.632  -1.189  -0.412  1.00  0.00    -0.320 N 
ATOM     24  H2  UNL     1      -3.463  -2.175  -0.213  1.00  0.00     0.169 HD
HETATM   25  O2  UNL     1      -2.692   0.917  -0.670  1.00  0.00    -0.266 OA
BRANCH  23  26
HETATM   26  C6  UNL     1      -4.966  -0.773  -0.662  1.00  0.00     0.066 A 
HETATM   27  C3  UNL     1      -5.741   0.174   0.129  1.00  0.00     0.056 A 
HETATM   28  C2  UNL     1      -5.363   0.816   1.206  1.00  0.00    -0.012 C 
HETATM   29  C4  UNL     1      -7.064   0.290  -0.500  1.00  0.00     0.257 A 
HETATM   30  C1  UNL     1      -6.289   1.751   1.901  1.00  0.00     0.037 C 
HETATM   31  O1  UNL     1      -8.008   1.009  -0.112  1.00  0.00    -0.267 OA
HETATM   32  N1  UNL     1      -7.012  -0.582  -1.617  1.00  0.00    -0.331 N 
HETATM   33  C5  UNL     1      -5.709  -1.201  -1.663  1.00  0.00     0.122 A 
ATOM     34  H1  UNL     1      -7.771  -0.745  -2.279  1.00  0.00     0.168 HD
ENDBRANCH  23  26
ENDBRANCH   1  22
TORSDOF 5
