REMARK  16 active torsions:
REMARK  status: ('A' for Active; 'I' for Inactive)
REMARK    1  A    between atoms: C3_4  and  N1_5 
REMARK    2  A    between atoms: C5_11  and  N4_12 
REMARK    3  A    between atoms: C9_23  and  C10_24 
REMARK    4  A    between atoms: C10_24  and  N8_25 
REMARK    5  A    between atoms: C10_24  and  C13_31 
REMARK    6  A    between atoms: C11_27  and  C12_28 
REMARK    7  A    between atoms: C12_28  and  O3_29 
REMARK    8  A    between atoms: C13_31  and  O4_32 
REMARK    9  A    between atoms: C13_31  and  C14_34 
REMARK   10  A    between atoms: C14_34  and  O5_35 
REMARK   11  A    between atoms: C14_34  and  C15_37 
REMARK   12  A    between atoms: C15_37  and  O6_38 
REMARK   13  A    between atoms: C15_37  and  C16_40 
REMARK   14  A    between atoms: C16_40  and  O7_41 
REMARK   15  A    between atoms: C17_43  and  O8_44 
REMARK   16  A    between atoms: O8_44  and  N9_45 
ROOT
HETATM    1  C1  UNL     1      -1.697  -3.631  -0.581  1.00  0.00     0.042 C 
HETATM    2  C2  UNL     1      -1.389  -2.167  -0.603  1.00  0.00     0.156 C 
HETATM    3  O1  UNL     1      -1.844  -1.602   0.577  1.00  0.00    -0.335 OA
HETATM    4  C3  UNL     1      -1.568  -0.274   0.746  1.00  0.00     0.395 C 
HETATM    5  O2  UNL     1      -0.256   0.108   0.541  1.00  0.00    -0.332 OA
HETATM    6  C9  UNL     1       0.417  -0.546  -0.441  1.00  0.00     0.185 C 
HETATM    7  C17 UNL     1       0.147  -2.015  -0.527  1.00  0.00     0.211 C 
ENDROOT
BRANCH   6   8
HETATM    8  C10 UNL     1       1.891  -0.330  -0.166  1.00  0.00     0.144 C 
BRANCH   8   9
HETATM    9  N8  UNL     1       2.752  -0.928  -1.096  1.00  0.00    -0.390 N 
HETATM   10  C11 UNL     1       3.852  -1.496  -0.942  1.00  0.00     0.082 C 
ATOM     11  H8  UNL     1       2.424  -0.893  -2.061  1.00  0.00     0.159 HD
BRANCH  10  12
HETATM   12  C12 UNL     1       4.568  -2.052  -2.116  1.00  0.00     0.208 C 
BRANCH  12  13
HETATM   13  O3  UNL     1       4.179  -3.373  -2.333  1.00  0.00    -0.396 OA
ATOM     14  H3  UNL     1       4.638  -3.729  -3.085  1.00  0.00     0.209 HD
ENDBRANCH  12  13
ENDBRANCH  10  12
ENDBRANCH   8   9
BRANCH   8  15
HETATM   15  C13 UNL     1       2.185   1.154  -0.074  1.00  0.00     0.174 C 
BRANCH  15  16
HETATM   16  O4  UNL     1       2.018   1.796  -1.294  1.00  0.00    -0.391 OA
ATOM     17  H4  UNL     1       2.202   2.726  -1.236  1.00  0.00     0.210 HD
ENDBRANCH  15  16
BRANCH  15  18
HETATM   18  C14 UNL     1       3.604   1.403   0.374  1.00  0.00     0.179 C 
BRANCH  18  19
HETATM   19  O5  UNL     1       3.900   0.803   1.597  1.00  0.00    -0.390 OA
ATOM     20  H5  UNL     1       4.793   0.960   1.879  1.00  0.00     0.210 HD
ENDBRANCH  18  19
BRANCH  18  21
HETATM   21  C15 UNL     1       3.749   2.919   0.463  1.00  0.00     0.173 C 
BRANCH  21  22
HETATM   22  O6  UNL     1       2.866   3.384   1.436  1.00  0.00    -0.391 OA
ATOM     23  H6  UNL     1       2.956   4.328   1.491  1.00  0.00     0.210 HD
ENDBRANCH  21  22
BRANCH  21  24
HETATM   24  C16 UNL     1       5.170   3.221   0.806  1.00  0.00     0.198 C 
BRANCH  24  25
HETATM   25  O7  UNL     1       5.967   2.711  -0.236  1.00  0.00    -0.398 OA
ATOM     26  H7  UNL     1       6.871   2.903  -0.018  1.00  0.00     0.209 HD
ENDBRANCH  24  25
ENDBRANCH  21  24
ENDBRANCH  18  21
ENDBRANCH  15  18
ENDBRANCH   8  15
ENDBRANCH   6   8
BRANCH   7  27
HETATM   27  O8  UNL     1       0.534  -2.729   0.578  1.00  0.00    -0.277 OA
BRANCH  27  28
HETATM   28  N9  UNL     1       1.203  -3.871   0.313  1.00  0.00    -0.311 N 
ATOM     29  H92 UNL     1       1.398  -4.167  -0.643  1.00  0.00     0.184 HD
ATOM     30  H91 UNL     1       1.491  -4.402   1.135  1.00  0.00     0.184 HD
ENDBRANCH  27  28
ENDBRANCH   7  27
BRANCH   4  31
HETATM   31  N1  UNL     1      -2.397   0.548  -0.071  1.00  0.00    -0.220 N 
HETATM   32  N2  UNL     1      -2.022   1.225  -1.144  1.00  0.00    -0.235 N 
HETATM   33  N3  UNL     1      -3.010   1.882  -1.675  1.00  0.00    -0.280 N 
ATOM     34  H2  UNL     1      -1.070   1.231  -1.511  1.00  0.00     0.208 HD
HETATM   35  C4  UNL     1      -4.091   1.644  -0.940  1.00  0.00     0.123 A 
ATOM     36  H3  UNL     1      -2.964   2.473  -2.505  1.00  0.00     0.188 HD
HETATM   37  C5  UNL     1      -5.421   2.032  -0.972  1.00  0.00     0.131 A 
HETATM   38  C8  UNL     1      -3.703   0.801   0.074  1.00  0.00     0.117 A 
HETATM   39  N5  UNL     1      -6.316   1.615  -0.060  1.00  0.00    -0.328 N 
HETATM   40  C6  UNL     1      -5.967   0.790   0.943  1.00  0.00     0.144 A 
ATOM     41  H5  UNL     1      -7.283   1.932  -0.130  1.00  0.00     0.168 HD
HETATM   42  N6  UNL     1      -6.911   0.357   1.894  1.00  0.00    -0.081 NA
HETATM   43  C7  UNL     1      -4.628   0.395   0.982  1.00  0.00     0.118 A 
HETATM   44  N7  UNL     1      -4.259  -0.466   2.031  1.00  0.00    -0.096 NA
BRANCH  37  45
HETATM   45  N4  UNL     1      -5.782   2.834  -1.939  1.00  0.00    -0.383 N 
ATOM     46  H42 UNL     1      -5.103   3.150  -2.631  1.00  0.00     0.157 HD
ATOM     47  H41 UNL     1      -6.761   3.120  -1.963  1.00  0.00     0.157 HD
ENDBRANCH  37  45
ENDBRANCH   4  31
TORSDOF 16
