REMARK  17 active torsions:
REMARK  status: ('A' for Active; 'I' for Inactive)
REMARK    1  A    between atoms: N1_1  and  N2_4 
REMARK    2  A    between atoms: N2_4  and  O1_5 
REMARK    3  A    between atoms: O1_5  and  C1_6 
REMARK    4  A    between atoms: C1_6  and  C2_8 
REMARK    5  A    between atoms: C2_8  and  C3_9 
REMARK    6  A    between atoms: C3_9  and  C17_37 
REMARK    7  A    between atoms: C4_10  and  O3_11 
REMARK    8  A    between atoms: O3_11  and  C5_12 
REMARK    9  A    between atoms: C7_14  and  O4_15 
REMARK   10  A    between atoms: C10_19  and  O5_20 
REMARK   11  A    between atoms: C12_24  and  O7_25 
REMARK   12  A    between atoms: C12_24  and  O8_27 
REMARK   13  A    between atoms: C13_29  and  O9_30 
REMARK   14  A    between atoms: C17_37  and  N4_38 
REMARK   15  A    between atoms: C17_37  and  C18_42 
REMARK   16  A    between atoms: C18_42  and  C19_44 
REMARK   17  A    between atoms: C19_44  and  O12_45 
ROOT
HETATM    1  C5  UNL     1      -0.554  -0.036   0.966  1.00  0.00     0.160 A 
HETATM    2  C6  UNL     1      -1.797   0.241   0.634  1.00  0.00     0.072 A 
HETATM    3  C7  UNL     1      -2.388   0.624  -0.586  1.00  0.00     0.096 A 
HETATM    4  C8  UNL     1      -3.749   0.865  -0.696  1.00  0.00     0.066 A 
HETATM    5  C9  UNL     1      -4.545   0.727   0.417  1.00  0.00     0.050 A 
HETATM    6  C10 UNL     1      -3.977   0.354   1.617  1.00  0.00     0.114 A 
HETATM    7  C11 UNL     1      -2.601   0.106   1.742  1.00  0.00     0.125 A 
HETATM    8  O6  UNL     1      -1.830  -0.273   2.827  1.00  0.00    -0.281 OA
HETATM    9  C12 UNL     1      -0.510  -0.383   2.395  1.00  0.00     0.338 A 
HETATM   10  C13 UNL     1      -5.851   0.947   0.346  1.00  0.00     0.081 A 
HETATM   11  C14 UNL     1      -6.509   1.346  -0.915  1.00  0.00     0.068 A 
HETATM   12  C15 UNL     1      -5.821   1.501  -2.031  1.00  0.00     0.100 A 
HETATM   13  N3  UNL     1      -6.500   1.882  -3.205  1.00  0.00    -0.098 NA
HETATM   14  C16 UNL     1      -4.388   1.261  -1.957  1.00  0.00     0.210 A 
HETATM   15  O10 UNL     1      -3.678   1.392  -2.985  1.00  0.00    -0.285 OA
ENDROOT
BRANCH   1  16
HETATM   16  O3  UNL     1       0.503   0.011   0.054  1.00  0.00    -0.317 OA
BRANCH  16  17
HETATM   17  C4  UNL     1       1.285  -1.077  -0.274  1.00  0.00     0.148 C 
HETATM   18  C3  UNL     1       2.632  -1.047  -0.260  1.00  0.00    -0.011 C 
BRANCH  18  19
HETATM   19  C2  UNL     1       3.244   0.211   0.124  1.00  0.00     0.151 C 
BRANCH  19  20
HETATM   20  C1  UNL     1       3.989   0.966  -0.871  1.00  0.00     0.283 C 
HETATM   21  O2  UNL     1       4.071   0.633  -2.060  1.00  0.00    -0.263 OA
BRANCH  20  22
HETATM   22  O1  UNL     1       4.672   2.147  -0.518  1.00  0.00    -0.186 OA
BRANCH  22  23
HETATM   23  N2  UNL     1       5.379   2.854  -1.487  1.00  0.00     0.022 NA
BRANCH  23  24
HETATM   24  N1  UNL     1       4.606   3.109  -2.612  1.00  0.00    -0.322 N 
ATOM     25  H12 UNL     1       3.636   2.807  -2.703  1.00  0.00     0.174 HD
ATOM     26  H11 UNL     1       5.124   3.627  -3.322  1.00  0.00     0.174 HD
ENDBRANCH  23  24
ENDBRANCH  22  23
ENDBRANCH  20  22
ENDBRANCH  19  20
ENDBRANCH  18  19
BRANCH  18  27
HETATM   27  C17 UNL     1       3.343  -2.283  -0.592  1.00  0.00     0.286 C 
BRANCH  27  28
HETATM   28  N4  UNL     1       3.993  -2.233  -1.863  1.00  0.00    -0.064 N 
ATOM     29  H43 UNL     1       3.332  -1.985  -2.599  1.00  0.00     0.275 HD
ATOM     30  H42 UNL     1       4.617  -1.428  -1.920  1.00  0.00     0.275 HD
ATOM     31  H41 UNL     1       4.488  -3.094  -2.094  1.00  0.00     0.275 HD
ENDBRANCH  27  28
BRANCH  27  32
HETATM   32  C18 UNL     1       4.242  -2.739   0.502  1.00  0.00     0.184 C 
HETATM   33  O11 UNL     1       5.388  -3.009   0.231  1.00  0.00    -0.293 OA
BRANCH  32  34
HETATM   34  C19 UNL     1       3.788  -2.875   1.897  1.00  0.00     0.245 C 
BRANCH  34  35
HETATM   35  O12 UNL     1       4.818  -3.323   2.726  1.00  0.00    -0.394 OA
ATOM     36  H12 UNL     1       4.525  -3.411   3.626  1.00  0.00     0.209 HD
ENDBRANCH  34  35
ENDBRANCH  32  34
ENDBRANCH  27  32
ENDBRANCH  18  27
ENDBRANCH  16  17
ENDBRANCH   1  16
BRANCH   9  37
HETATM   37  O7  UNL     1      -0.160  -1.737   2.519  1.00  0.00    -0.338 OA
ATOM     38  H7  UNL     1      -0.132  -1.961   3.442  1.00  0.00     0.216 HD
ENDBRANCH   9  37
BRANCH   9  39
HETATM   39  O8  UNL     1       0.369   0.424   3.116  1.00  0.00    -0.338 OA
ATOM     40  H8  UNL     1       0.397   0.200   4.039  1.00  0.00     0.216 HD
ENDBRANCH   9  39
BRANCH   3  41
HETATM   41  O4  UNL     1      -1.657   0.779  -1.727  1.00  0.00    -0.359 OA
ATOM     42  H4  UNL     1      -2.056   1.037  -2.550  1.00  0.00     0.217 HD
ENDBRANCH   3  41
BRANCH   6  43
HETATM   43  O5  UNL     1      -4.780   0.215   2.738  1.00  0.00    -0.357 OA
ATOM     44  H5  UNL     1      -4.389  -0.042   3.565  1.00  0.00     0.217 HD
ENDBRANCH   6  43
BRANCH  10  45
HETATM   45  O9  UNL     1      -6.586   0.787   1.514  1.00  0.00    -0.360 OA
ATOM     46  H9  UNL     1      -7.521   0.945   1.463  1.00  0.00     0.217 HD
ENDBRANCH  10  45
TORSDOF 17
