REMARK  15 active torsions:
REMARK  status: ('A' for Active; 'I' for Inactive)
REMARK    1  A    between atoms: N1_1  and  C1_4 
REMARK    2  A    between atoms: N6_16  and  C5_17 
REMARK    3  A    between atoms: C5_17  and  C6_18 
REMARK    4  A    between atoms: C6_18  and  N7_19 
REMARK    5  A    between atoms: N7_19  and  C7_21 
REMARK    6  A    between atoms: C8_22  and  C9_23 
REMARK    7  A    between atoms: C9_23  and  O1_24 
REMARK    8  A    between atoms: C9_23  and  O2_26 
REMARK    9  A    between atoms: C10_31  and  C11_32 
REMARK       I    between atoms: C11_32  and  N9_34 
REMARK   10  A    between atoms: N9_34  and  C12_36 
REMARK   11  A    between atoms: C14_38  and  N10_39 
REMARK   12  A    between atoms: C16_44  and  O5_45 
REMARK   13  A    between atoms: C16_44  and  C17_47 
REMARK   14  A    between atoms: C17_47  and  O6_48 
REMARK   15  A    between atoms: C18_50  and  N11_51 
ROOT
HETATM    1  C7  UNL     1       1.136  -2.336   1.048  1.00  0.00     0.100 A 
HETATM    2  C8  UNL     1       1.075  -3.678   1.442  1.00  0.00     0.116 A 
HETATM    3  N8  UNL     1      -0.216  -4.015   1.280  1.00  0.00    -0.257 N 
ATOM      4  H8  UNL     1      -0.607  -4.936   1.480  1.00  0.00     0.195 HD
HETATM    5  O3  UNL     1      -0.897  -2.999   0.832  1.00  0.00    -0.230 OA
HETATM    6  C10 UNL     1      -0.122  -1.944   0.671  1.00  0.00     0.194 A 
ENDROOT
BRANCH   6   7
HETATM    7  C11 UNL     1      -0.525  -0.620   0.189  1.00  0.00     0.280 C 
HETATM    8  O4  UNL     1       0.285   0.328   0.073  1.00  0.00    -0.265 OA
HETATM    9  N9  UNL     1      -1.869  -0.385  -0.160  1.00  0.00    -0.348 N 
ATOM     10  H9  UNL     1      -2.542  -1.147  -0.078  1.00  0.00     0.163 HD
BRANCH   9  11
HETATM   11  C12 UNL     1      -2.327   0.917  -0.636  1.00  0.00     0.120 C 
HETATM   12  C13 UNL     1      -2.766   0.805  -2.049  1.00  0.00     0.060 C 
HETATM   13  C14 UNL     1      -3.794   1.842  -2.348  1.00  0.00     0.188 C 
HETATM   14  C15 UNL     1      -5.038   1.706  -1.514  1.00  0.00     0.075 C 
HETATM   15  C16 UNL     1      -4.757   1.361  -0.085  1.00  0.00     0.111 C 
HETATM   16  C18 UNL     1      -3.339   1.467   0.321  1.00  0.00     0.242 C 
BRANCH  13  17
HETATM   17  N10 UNL     1      -3.210   3.159  -2.120  1.00  0.00    -0.075 N 
ATOM     18 3H10 UNL     1      -2.819   3.256  -1.183  1.00  0.00     0.274 HD
ATOM     19 2H10 UNL     1      -2.348   3.300  -2.647  1.00  0.00     0.274 HD
ATOM     20 1H10 UNL     1      -3.914   3.869  -2.325  1.00  0.00     0.274 HD
ENDBRANCH  13  17
BRANCH  15  21
HETATM   21  O5  UNL     1      -5.503   2.256   0.704  1.00  0.00    -0.385 OA
ATOM     22  H5  UNL     1      -5.325   2.037   1.611  1.00  0.00     0.210 HD
ENDBRANCH  15  21
BRANCH  15  23
HETATM   23  C17 UNL     1      -5.323  -0.019   0.238  1.00  0.00     0.204 C 
BRANCH  23  24
HETATM   24  O6  UNL     1      -6.688   0.048  -0.120  1.00  0.00    -0.398 OA
ATOM     25  H6  UNL     1      -7.040  -0.811   0.081  1.00  0.00     0.209 HD
ENDBRANCH  23  24
ENDBRANCH  15  23
BRANCH  16  26
HETATM   26  N11 UNL     1      -3.175   0.862   1.627  1.00  0.00    -0.070 N 
ATOM     27 3H11 UNL     1      -3.208  -0.156   1.582  1.00  0.00     0.274 HD
ATOM     28 2H11 UNL     1      -2.223   0.966   1.978  1.00  0.00     0.274 HD
ATOM     29 1H11 UNL     1      -3.864   1.237   2.279  1.00  0.00     0.274 HD
ENDBRANCH  16  26
ENDBRANCH   9  11
ENDBRANCH   6   7
BRANCH   1  30
HETATM   30  N7  UNL     1       2.333  -1.574   1.069  1.00  0.00    -0.384 N 
ATOM     31  H7  UNL     1       2.955  -1.573   0.261  1.00  0.00     0.159 HD
BRANCH  30  32
HETATM   32  C6  UNL     1       2.657  -0.816   2.219  1.00  0.00     0.142 C 
BRANCH  32  33
HETATM   33  C5  UNL     1       3.949  -0.096   2.253  1.00  0.00     0.172 C 
BRANCH  33  34
HETATM   34  N6  UNL     1       4.156   0.876   1.219  1.00  0.00    -0.258 N 
HETATM   35  C3  UNL     1       4.788   0.730   0.036  1.00  0.00     0.157 A 
HETATM   36  N3  UNL     1       5.423  -0.271  -0.574  1.00  0.00    -0.335 N 
HETATM   37  C4  UNL     1       4.749   1.941  -0.661  1.00  0.00     0.139 A 
HETATM   38  C2  UNL     1       5.992  -0.141  -1.777  1.00  0.00     0.183 A 
ATOM     39  H3  UNL     1       5.477  -1.174  -0.103  1.00  0.00     0.168 HD
HETATM   40  N2  UNL     1       5.964   1.032  -2.472  1.00  0.00    -0.337 N 
HETATM   41  C1  UNL     1       5.338   2.077  -1.907  1.00  0.00     0.132 A 
ATOM     42  H2  UNL     1       6.403   1.113  -3.389  1.00  0.00     0.168 HD
HETATM   43  N4  UNL     1       4.079   2.780   0.152  1.00  0.00    -0.279 N 
HETATM   44  N5  UNL     1       3.739   2.136   1.250  1.00  0.00    -0.238 N 
ATOM     45  H4  UNL     1       3.869   3.757  -0.050  1.00  0.00     0.189 HD
ATOM     46  H5  UNL     1       3.222   2.552   2.024  1.00  0.00     0.208 HD
BRANCH  41  47
HETATM   47  N1  UNL     1       5.300   3.197  -2.542  1.00  0.00    -0.383 N 
ATOM     48  H12 UNL     1       5.734   3.297  -3.460  1.00  0.00     0.157 HD
ATOM     49  H11 UNL     1       4.824   3.991  -2.113  1.00  0.00     0.157 HD
ENDBRANCH  41  47
ENDBRANCH  33  34
ENDBRANCH  32  33
ENDBRANCH  30  32
ENDBRANCH   1  30
BRANCH   2  50
HETATM   50  C9  UNL     1       2.223  -4.497   1.920  1.00  0.00     0.309 C 
BRANCH  50  51
HETATM   51  O1  UNL     1       3.335  -4.288   1.073  1.00  0.00    -0.366 OA
ATOM     52  H1  UNL     1       4.067  -4.811   1.378  1.00  0.00     0.213 HD
ENDBRANCH  50  51
BRANCH  50  53
HETATM   53  O2  UNL     1       1.911  -5.857   1.818  1.00  0.00    -0.366 OA
ATOM     54  H2  UNL     1       2.643  -6.380   2.123  1.00  0.00     0.213 HD
ENDBRANCH  50  53
ENDBRANCH   2  50
TORSDOF 15
