REMARK  13 active torsions:
REMARK  status: ('A' for Active; 'I' for Inactive)
REMARK    1  A    between atoms: N1_1  and  C1_4 
REMARK    2  A    between atoms: C6_12  and  N3_13 
REMARK    3  A    between atoms: N3_13  and  C7_15 
REMARK    4  A    between atoms: C7_15  and  O2_16 
REMARK    5  A    between atoms: C7_15  and  C8_18 
REMARK    6  A    between atoms: C8_18  and  O3_19 
REMARK    7  A    between atoms: C8_18  and  C10_27 
REMARK    8  A    between atoms: O3_19  and  C9_20 
REMARK       I    between atoms: C9_20  and  N4_22 
REMARK    9  A    between atoms: N4_22  and  N5_24 
REMARK   10  A    between atoms: C10_27  and  O5_28 
REMARK   11  A    between atoms: C10_27  and  C11_30 
REMARK   12  A    between atoms: C11_30  and  N6_31 
REMARK   13  A    between atoms: C12_35  and  C13_36 
ROOT
HETATM    1  C8  UNL     1       0.506   1.513  -1.456  1.00  0.00     0.212 C 
ENDROOT
BRANCH   1   2
HETATM    2  C7  UNL     1      -0.530   0.519  -1.033  1.00  0.00     0.251 C 
BRANCH   2   3
HETATM    3  N3  UNL     1      -1.845   1.043  -1.346  1.00  0.00    -0.348 N 
ATOM      4  H3  UNL     1      -1.923   1.906  -1.884  1.00  0.00     0.163 HD
BRANCH   3   5
HETATM    5  C6  UNL     1      -3.041   0.373  -0.915  1.00  0.00     0.104 A 
HETATM    6  C5  UNL     1      -4.292   0.865  -1.208  1.00  0.00     0.049 A 
HETATM    7  C4  UNL     1      -5.449   0.208  -0.787  1.00  0.00     0.025 A 
HETATM    8  C3  UNL     1      -5.360  -0.964  -0.059  1.00  0.00     0.077 A 
HETATM    9  C2  UNL     1      -6.483  -1.645   0.377  1.00  0.00     0.273 A 
HETATM   10  C15 UNL     1      -4.090  -1.430   0.217  1.00  0.00     0.138 A 
HETATM   11  N2  UNL     1      -6.333  -2.782   1.082  1.00  0.00    -0.156 N 
HETATM   12  O1  UNL     1      -7.639  -1.195   0.110  1.00  0.00    -0.267 OA
HETATM   13  C1  UNL     1      -5.090  -3.227   1.346  1.00  0.00     0.680 A 
ATOM     14  H2  UNL     1      -7.149  -3.299   1.411  1.00  0.00     0.187 HD
HETATM   15  N14 UNL     1      -3.992  -2.570   0.925  1.00  0.00    -0.176 N 
ATOM     16  H14 UNL     1      -3.069  -2.944   1.147  1.00  0.00     0.186 HD
HETATM   17  N13 UNL     1      -2.972  -0.767  -0.207  1.00  0.00    -0.328 N 
ATOM     18  H13 UNL     1      -2.055  -1.151   0.022  1.00  0.00     0.169 HD
BRANCH  13  19
HETATM   19  N1  UNL     1      -4.948  -4.316   2.022  1.00  0.00    -0.234 N 
ATOM     20  H12 UNL     1      -5.779  -4.813   2.341  1.00  0.00     0.174 HD
ATOM     21  H11 UNL     1      -4.006  -4.653   2.222  1.00  0.00     0.174 HD
ENDBRANCH  13  19
ENDBRANCH   3   5
ENDBRANCH   2   3
BRANCH   2  22
HETATM   22  O2  UNL     1      -0.335  -0.749  -1.551  1.00  0.00    -0.374 OA
ATOM     23  H2  UNL     1       0.527  -1.092  -1.346  1.00  0.00     0.212 HD
ENDBRANCH   2  22
ENDBRANCH   1   2
BRANCH   1  24
HETATM   24  O3  UNL     1       0.290   2.723  -0.757  1.00  0.00    -0.290 OA
BRANCH  24  25
HETATM   25  C9  UNL     1       0.059   3.912  -1.427  1.00  0.00     0.379 C 
HETATM   26  O4  UNL     1       0.051   3.862  -2.694  1.00  0.00    -0.237 OA
HETATM   27  N4  UNL     1      -0.162   5.146  -0.758  1.00  0.00    -0.252 N 
ATOM     28  H4  UNL     1      -0.155   5.185   0.261  1.00  0.00     0.191 HD
BRANCH  27  29
HETATM   29  N5  UNL     1      -0.388   6.303  -1.501  1.00  0.00    -0.341 N 
ATOM     30  H52 UNL     1      -0.392   6.247  -2.519  1.00  0.00     0.177 HD
ATOM     31  H51 UNL     1      -0.547   7.189  -1.021  1.00  0.00     0.177 HD
ENDBRANCH  27  29
ENDBRANCH  24  25
ENDBRANCH   1  24
BRANCH   1  32
HETATM   32  C10 UNL     1       1.918   1.086  -1.177  1.00  0.00     0.173 C 
BRANCH  32  33
HETATM   33  O5  UNL     1       2.276  -0.095  -1.800  1.00  0.00    -0.391 OA
ATOM     34  H5  UNL     1       3.169  -0.365  -1.623  1.00  0.00     0.210 HD
ENDBRANCH  32  33
BRANCH  32  35
HETATM   35  C11 UNL     1       2.158   0.974   0.316  1.00  0.00     0.201 C 
BRANCH  35  36
HETATM   36  N6  UNL     1       3.533   0.561   0.501  1.00  0.00    -0.214 N 
HETATM   37  N7  UNL     1       4.606   1.320   0.634  1.00  0.00    -0.003 NA
HETATM   38  N8  UNL     1       5.694   0.552   0.785  1.00  0.00    -0.264 N 
HETATM   39  C12 UNL     1       5.294  -0.723   0.747  1.00  0.00     0.180 A 
ATOM     40  H8  UNL     1       6.652   0.880   0.907  1.00  0.00     0.186 HD
HETATM   41  N12 UNL     1       3.965  -0.685   0.572  1.00  0.00    -0.266 N 
ATOM     42  H12 UNL     1       3.367  -1.509   0.503  1.00  0.00     0.190 HD
BRANCH  39  43
HETATM   43  C13 UNL     1       6.112  -1.939   0.868  1.00  0.00     0.171 A 
HETATM   44  N9  UNL     1       7.443  -2.005   1.044  1.00  0.00    -0.289 N 
HETATM   45  C14 UNL     1       7.818  -3.299   1.108  1.00  0.00     0.340 A 
ATOM     46  H9  UNL     1       8.070  -1.204   1.117  1.00  0.00     0.172 HD
HETATM   47  O6  UNL     1       8.956  -3.801   1.263  1.00  0.00    -0.245 OA
HETATM   48  N10 UNL     1       6.668  -4.019   0.965  1.00  0.00    -0.250 N 
HETATM   49  N11 UNL     1       5.652  -3.196   0.822  1.00  0.00    -0.278 N 
ATOM     50  H10 UNL     1       6.606  -5.037   0.968  1.00  0.00     0.192 HD
ATOM     51  H11 UNL     1       4.677  -3.469   0.697  1.00  0.00     0.189 HD
ENDBRANCH  39  43
ENDBRANCH  35  36
ENDBRANCH  32  35
ENDBRANCH   1  32
TORSDOF 13
