REMARK  12 active torsions:
REMARK  status: ('A' for Active; 'I' for Inactive)
REMARK    1  A    between atoms: C2_10  and  C3_11 
REMARK       I    between atoms: N5_15  and  C5_17 
REMARK       I    between atoms: C5_17  and  N6_18 
REMARK       I    between atoms: C5_17  and  N7_22 
REMARK    2  A    between atoms: N8_28  and  C8_29 
REMARK    3  A    between atoms: C9_30  and  O2_31 
REMARK    4  A    between atoms: C10_34  and  C11_35 
REMARK    5  A    between atoms: C11_35  and  C12_36 
REMARK    6  A    between atoms: C12_36  and  C13_37 
REMARK    7  A    between atoms: C12_36  and  O5_40 
REMARK    8  A    between atoms: C13_37  and  O4_38 
REMARK    9  A    between atoms: O5_40  and  N9_41 
REMARK   10  A    between atoms: C14_44  and  O6_45 
REMARK   11  A    between atoms: C14_44  and  C15_47 
REMARK   12  A    between atoms: C15_47  and  O7_48 
ROOT
HETATM    1  C3  UNL     1      -4.256   1.584   0.106  1.00  0.00     0.141 A 
HETATM    2  N4  UNL     1      -4.148   0.318   0.609  1.00  0.00    -0.326 N 
ATOM      3  H4  UNL     1      -4.956  -0.095   1.075  1.00  0.00     0.169 HD
HETATM    4  C4  UNL     1      -3.017  -0.405   0.513  1.00  0.00     0.121 A 
HETATM    5  N5  UNL     1      -2.883  -1.592   0.973  1.00  0.00    -0.326 N 
ATOM      6  H5  UNL     1      -1.988  -2.067   0.855  1.00  0.00     0.164 HD
HETATM    7  C5  UNL     1      -3.963  -2.288   1.659  1.00  0.00     0.481 C 
HETATM    8  N6  UNL     1      -3.596  -3.634   1.967  1.00  0.00    -0.033 N 
ATOM      9  H61 UNL     1      -4.352  -4.121   2.447  1.00  0.00     0.278 HD
ATOM     10  H62 UNL     1      -2.727  -3.673   2.499  1.00  0.00     0.278 HD
ATOM     11  H63 UNL     1      -3.293  -4.140   1.135  1.00  0.00     0.278 HD
HETATM   12  N7  UNL     1      -5.155  -2.339   0.818  1.00  0.00    -0.033 N 
ATOM     13  H71 UNL     1      -5.911  -2.826   1.298  1.00  0.00     0.278 HD
ATOM     14  H72 UNL     1      -4.958  -2.751  -0.094  1.00  0.00     0.278 HD
ATOM     15  H73 UNL     1      -5.440  -1.410   0.507  1.00  0.00     0.278 HD
HETATM   16  C6  UNL     1      -1.933   0.166  -0.121  1.00  0.00     0.070 A 
HETATM   17  C7  UNL     1      -0.659  -0.288  -0.384  1.00  0.00     0.130 A 
HETATM   18  N8  UNL     1       0.026   0.654  -1.034  1.00  0.00    -0.288 N 
HETATM   19  N10 UNL     1      -0.799   1.703  -1.187  1.00  0.00    -0.282 N 
ATOM     20  H10 UNL     1      -0.546   2.575  -1.652  1.00  0.00     0.189 HD
HETATM   21  C16 UNL     1      -2.003   1.448  -0.645  1.00  0.00     0.137 A 
HETATM   22  N11 UNL     1      -3.166   2.087  -0.501  1.00  0.00    -0.325 N 
ATOM     23  H11 UNL     1      -3.234   3.031  -0.881  1.00  0.00     0.169 HD
ENDROOT
BRANCH  18  24
HETATM   24  C8  UNL     1       1.351   0.623  -1.497  1.00  0.00     0.201 C 
HETATM   25  C9  UNL     1       1.781  -0.559  -2.296  1.00  0.00     0.285 C 
HETATM   26  O3  UNL     1       3.114  -0.848  -1.948  1.00  0.00    -0.351 OA
HETATM   27  C10 UNL     1       3.568   0.273  -1.314  1.00  0.00     0.166 C 
HETATM   28  C14 UNL     1       2.425   0.635  -0.412  1.00  0.00     0.132 C 
BRANCH  25  29
HETATM   29  O2  UNL     1       1.053  -1.699  -2.114  1.00  0.00    -0.369 OA
ATOM     30  H2  UNL     1       1.327  -2.453  -2.623  1.00  0.00     0.212 HD
ENDBRANCH  25  29
BRANCH  27  31
HETATM   31  C11 UNL     1       4.896   0.267  -0.736  1.00  0.00     0.072 C 
BRANCH  31  32
HETATM   32  C12 UNL     1       5.257  -0.701   0.314  1.00  0.00     0.177 C 
BRANCH  32  33
HETATM   33  C13 UNL     1       5.136  -2.142  -0.125  1.00  0.00     0.198 C 
BRANCH  33  34
HETATM   34  O4  UNL     1       5.908  -2.409  -1.252  1.00  0.00    -0.398 OA
ATOM     35  H4  UNL     1       5.832  -3.315  -1.528  1.00  0.00     0.209 HD
ENDBRANCH  33  34
ENDBRANCH  32  33
BRANCH  32  36
HETATM   36  O5  UNL     1       6.628  -0.511   0.602  1.00  0.00    -0.280 OA
BRANCH  36  37
HETATM   37  N9  UNL     1       6.830  -0.253   1.910  1.00  0.00    -0.311 N 
ATOM     38  H92 UNL     1       6.076  -0.204   2.595  1.00  0.00     0.184 HD
ATOM     39  H91 UNL     1       7.819  -0.116   2.118  1.00  0.00     0.184 HD
ENDBRANCH  36  37
ENDBRANCH  32  36
ENDBRANCH  31  32
ENDBRANCH  27  31
BRANCH  28  40
HETATM   40  O6  UNL     1       2.068  -0.325   0.498  1.00  0.00    -0.383 OA
ATOM     41  H6  UNL     1       2.736  -0.318   1.173  1.00  0.00     0.210 HD
ENDBRANCH  28  40
BRANCH  28  42
HETATM   42  C15 UNL     1       2.573   2.008   0.194  1.00  0.00     0.207 C 
BRANCH  42  43
HETATM   43  O7  UNL     1       1.380   2.422   0.768  1.00  0.00    -0.398 OA
ATOM     44  H7  UNL     1       1.473   3.287   1.150  1.00  0.00     0.209 HD
ENDBRANCH  42  43
ENDBRANCH  28  42
ENDBRANCH  18  24
BRANCH   1  45
HETATM   45  C2  UNL     1      -5.495   2.335   0.229  1.00  0.00     0.146 A 
HETATM   46  C1  UNL     1      -6.690   1.986   0.808  1.00  0.00     0.154 A 
HETATM   47  N1  UNL     1      -6.948   0.858   1.383  1.00  0.00    -0.382 N 
HETATM   48  N2  UNL     1      -7.554   3.037   0.668  1.00  0.00    -0.224 N 
ATOM     49  H12 UNL     1      -7.836   0.599   1.813  1.00  0.00     0.157 HD
ATOM     50  H11 UNL     1      -6.304   0.074   1.487  1.00  0.00     0.157 HD
HETATM   51  O1  UNL     1      -6.904   3.972   0.034  1.00  0.00    -0.155 OA
ATOM     52  H2  UNL     1      -8.519   3.081   0.996  1.00  0.00     0.198 HD
HETATM   53  N3  UNL     1      -5.674   3.576  -0.238  1.00  0.00    -0.234 N 
ATOM     54  H3  UNL     1      -4.971   4.129  -0.727  1.00  0.00     0.197 HD
ENDBRANCH   1  45
TORSDOF 12
