REMARK  1 active torsions:
REMARK  status: ('A' for Active; 'I' for Inactive)
REMARK    1  A    between atoms: C8_9  and  N2_10 
ROOT
HETATM    1  C1  UNL     1      -0.711  -2.421  -2.482  1.00  0.00     0.156 C 
HETATM    2  N1  UNL     1      -0.583  -1.631  -1.301  1.00  0.00    -0.350 N 
HETATM    3  C2  UNL     1      -1.220  -2.058  -0.167  1.00  0.00     0.047 A 
HETATM    4  C3  UNL     1      -1.951  -3.215  -0.212  1.00  0.00     0.030 A 
HETATM    5  C4  UNL     1      -2.593  -3.647   0.927  1.00  0.00     0.002 A 
HETATM    6  C5  UNL     1      -2.520  -2.946   2.110  1.00  0.00     0.001 A 
HETATM    7  C6  UNL     1      -1.795  -1.781   2.188  1.00  0.00     0.016 A 
HETATM    8  C7  UNL     1      -1.152  -1.360   1.024  1.00  0.00     0.020 A 
HETATM    9  C8  UNL     1      -0.431  -0.211   1.082  1.00  0.00     0.081 A 
HETATM   10  C12 UNL     1       0.220   0.242  -0.045  1.00  0.00     0.021 A 
HETATM   11  C13 UNL     1       0.946   1.421   0.050  1.00  0.00     0.028 A 
HETATM   12  C14 UNL     1       1.594   1.881  -1.055  1.00  0.00    -0.025 A 
HETATM   13  C15 UNL     1       2.323   3.056  -0.975  1.00  0.00     0.012 A 
HETATM   14  C16 UNL     1       2.968   3.505  -2.093  1.00  0.00     0.001 A 
HETATM   15  C17 UNL     1       2.895   2.805  -3.275  1.00  0.00     0.001 A 
HETATM   16  C18 UNL     1       2.173   1.636  -3.365  1.00  0.00     0.012 A 
HETATM   17  C19 UNL     1       1.514   1.173  -2.229  1.00  0.00    -0.024 A 
HETATM   18  C20 UNL     1       0.792   0.004  -2.318  1.00  0.00     0.043 A 
HETATM   19  C21 UNL     1       0.121  -0.494  -1.218  1.00  0.00     0.048 A 
ENDROOT
BRANCH   9  20
HETATM   20  N2  UNL     1      -0.348   0.528   2.308  1.00  0.00    -0.266 N 
HETATM   21  C9  UNL     1      -1.227   1.434   2.778  1.00  0.00     0.118 A 
HETATM   22  C10 UNL     1      -0.740   1.898   4.004  1.00  0.00     0.038 A 
HETATM   23  C11 UNL     1       0.448   1.235   4.231  1.00  0.00     0.109 A 
HETATM   24  N3  UNL     1       0.633   0.429   3.186  1.00  0.00    -0.305 N 
ATOM     25  H3  UNL     1       1.436  -0.190   3.077  1.00  0.00     0.186 HD
ENDBRANCH   9  20
TORSDOF 1
