REMARK  3 active torsions:
REMARK  status: ('A' for Active; 'I' for Inactive)
REMARK    1  A    between atoms: C1_2  and  N1_3 
REMARK    2  A    between atoms: C1_2  and  C7_12 
REMARK    3  A    between atoms: N1_3  and  C2_5 
ROOT
HETATM    1  C7  UNL     1      -0.110  -0.344  -0.605  1.00  0.00     0.082 A 
HETATM    2  N3  UNL     1      -0.232   0.956  -0.298  1.00  0.00    -0.352 N 
ATOM      3  H3  UNL     1       0.589   1.562  -0.289  1.00  0.00     0.166 HD
HETATM    4  C8  UNL     1      -1.448   1.455  -0.002  1.00  0.00     0.043 A 
HETATM    5  C9  UNL     1      -1.516   2.822   0.311  1.00  0.00     0.030 A 
HETATM    6  C10 UNL     1      -2.736   3.379   0.621  1.00  0.00     0.002 A 
HETATM    7  C11 UNL     1      -3.840   2.576   0.611  1.00  0.00     0.001 A 
HETATM    8  C12 UNL     1      -3.810   1.228   0.308  1.00  0.00     0.014 A 
HETATM    9  C13 UNL     1      -2.587   0.679  -0.001  1.00  0.00     0.002 A 
HETATM   10  C14 UNL     1      -2.487  -0.668  -0.314  1.00  0.00    -0.011 A 
HETATM   11  C15 UNL     1      -3.592  -1.480  -0.326  1.00  0.00     0.013 A 
HETATM   12  C16 UNL     1      -3.433  -2.824  -0.648  1.00  0.00     0.001 A 
HETATM   13  C17 UNL     1      -2.191  -3.332  -0.950  1.00  0.00     0.001 A 
HETATM   14  C18 UNL     1      -1.080  -2.509  -0.937  1.00  0.00     0.014 A 
HETATM   15  C19 UNL     1      -1.219  -1.174  -0.620  1.00  0.00     0.005 A 
ENDROOT
BRANCH   1  16
HETATM   16  C1  UNL     1       1.181  -0.947  -0.936  1.00  0.00     0.130 C 
HETATM   17  S1  UNL     1       1.592  -1.198  -2.510  1.00  0.00    -0.058 SA
BRANCH  16  18
HETATM   18  N1  UNL     1       2.110  -1.331   0.052  1.00  0.00    -0.332 N 
ATOM     19  H1  UNL     1       1.950  -2.189   0.580  1.00  0.00     0.168 HD
BRANCH  18  20
HETATM   20  C2  UNL     1       3.177  -0.608   0.307  1.00  0.00     0.105 A 
HETATM   21  C3  UNL     1       4.072  -1.001   1.276  1.00  0.00     0.048 A 
HETATM   22  C4  UNL     1       5.192  -0.259   1.556  1.00  0.00     0.005 A 
HETATM   23  C5  UNL     1       5.436   0.908   0.858  1.00  0.00     0.017 A 
HETATM   24  C6  UNL     1       4.507   1.251  -0.098  1.00  0.00     0.089 A 
HETATM   25  N2  UNL     1       3.420   0.525  -0.366  1.00  0.00    -0.352 N 
ATOM     26  H2  UNL     1       2.770   0.835  -1.088  1.00  0.00     0.166 HD
ENDBRANCH  18  20
ENDBRANCH  16  18
ENDBRANCH   1  16
TORSDOF 3
