REMARK  2 active torsions:
REMARK  status: ('A' for Active; 'I' for Inactive)
REMARK    1  A    between atoms: C2_2  and  C3_4 
REMARK    2  A    between atoms: C3_4  and  C4_6 
ROOT
HETATM    1  C3  UNL     1       0.009   1.052  -0.322  1.00  0.00     0.298 C 
HETATM    2  F1  UNL     1      -0.357   1.839   0.787  1.00  0.00    -0.234 F 
ENDROOT
BRANCH   1   3
HETATM    3  C2  UNL     1       1.254   0.378   0.096  1.00  0.00     0.022 C 
HETATM    4  C1  UNL     1       1.389  -0.930   0.085  1.00  0.00     0.030 C 
HETATM    5 BR1  UNL     1       2.696   1.485   0.661  1.00  0.00    -0.053 Br
ENDBRANCH   1   3
BRANCH   1   6
HETATM    6  C4  UNL     1      -1.117   0.122  -0.595  1.00  0.00     0.270 C 
HETATM    7  N1  UNL     1      -1.669  -0.684   0.429  1.00  0.00    -0.059 NA
HETATM    8  O1  UNL     1      -1.590   0.050  -1.762  1.00  0.00    -0.273 OA
ENDBRANCH   1   6
TORSDOF 2
