REMARK  3 active torsions:
REMARK  status: ('A' for Active; 'I' for Inactive)
REMARK    1  A    between atoms: C1_2  and  C2_4 
REMARK    2  A    between atoms: C5_8  and  C6_9 
REMARK    3  A    between atoms: C6_9  and  C7_10 
ROOT
HETATM    1  C2  UNL     1       0.953   0.641   0.079  1.00  0.00     0.067 A 
HETATM    2  C3  UNL     1       1.856   0.824  -1.193  1.00  0.00     0.048 A 
HETATM    3  C4  UNL     1       0.419   0.615  -1.197  1.00  0.00     0.059 A 
HETATM    4 CL1  UNL     1      -0.460   2.075  -1.799  1.00  0.00    -0.117 Cl
HETATM    5  C5  UNL     1      -0.386  -0.118  -0.234  1.00  0.00     0.032 A 
ENDROOT
BRANCH   1   6
HETATM    6  C1  UNL     1       1.671  -0.105   1.044  1.00  0.00     0.242 C 
HETATM    7  N1  UNL     1       2.160  -1.426   0.821  1.00  0.00    -0.061 NA
HETATM    8  O1  UNL     1       1.918   0.395   2.190  1.00  0.00    -0.276 OA
ENDBRANCH   1   6
BRANCH   5   9
HETATM    9  C6  UNL     1      -1.615   0.471   0.417  1.00  0.00     0.039 C 
BRANCH   9  10
HETATM   10  C7  UNL     1      -2.802  -0.376   0.014  1.00  0.00     0.222 C 
HETATM   11  F1  UNL     1      -3.968   0.107   0.576  1.00  0.00    -0.255 F 
ENDBRANCH   9  10
ENDBRANCH   5   9
TORSDOF 3
