REMARK  2 active torsions:
REMARK  status: ('A' for Active; 'I' for Inactive)
REMARK    1  A    between atoms: N1_2  and  C2_4 
REMARK    2  A    between atoms: C2_4  and  C3_6 
ROOT
HETATM    1  C2  UNL     1      -0.196   0.396   0.251  1.00  0.00     0.218 C 
HETATM    2 CL1  UNL     1      -0.795   2.072   0.274  1.00  0.00    -0.097 Cl
ENDROOT
BRANCH   1   3
HETATM    3  N1  UNL     1      -1.128  -0.360  -0.563  1.00  0.00    -0.387 N 
HETATM    4  C1  UNL     1      -2.223  -0.764  -0.063  1.00  0.00     0.114 C 
ATOM      5  H1  UNL     1      -0.904  -0.567  -1.536  1.00  0.00     0.159 HD
ENDBRANCH   1   3
BRANCH   1   6
HETATM    6  C3  UNL     1       1.133   0.366  -0.399  1.00  0.00     0.016 C 
HETATM    7  C4  UNL     1       2.202  -0.138   0.190  1.00  0.00     0.030 C 
HETATM    8 BR1  UNL     1       1.353   1.073  -2.157  1.00  0.00    -0.053 Br
ENDBRANCH   1   6
TORSDOF 2
