REMARK  2 active torsions:
REMARK  status: ('A' for Active; 'I' for Inactive)
REMARK       I    between atoms: C1_2  and  N1_3 
REMARK    1  A    between atoms: C1_2  and  C5_9 
REMARK    2  A    between atoms: N1_3  and  C2_5 
ROOT
HETATM    1  O1  UNL     1       0.328  -0.923   2.201  1.00  0.00    -0.273 OA
HETATM    2  C1  UNL     1       0.665  -0.418   1.089  1.00  0.00     0.226 C 
HETATM    3  N1  UNL     1      -0.357  -0.111   0.159  1.00  0.00    -0.353 N 
ATOM      4  H1  UNL     1      -0.116   0.298  -0.744  1.00  0.00     0.163 HD
ENDROOT
BRANCH   2   5
HETATM    5  C5  UNL     1       2.068  -0.142   0.735  1.00  0.00     0.137 A 
HETATM    6  C6  UNL     1       2.298   1.120  -0.048  1.00  0.00     0.080 A 
HETATM    7  C7  UNL     1       2.592  -0.215  -0.646  1.00  0.00     0.192 A 
HETATM    8  F2  UNL     1       1.868  -0.611  -1.720  1.00  0.00    -0.225 F 
HETATM    9 CL1  UNL     1       4.328  -0.676  -0.766  1.00  0.00    -0.082 Cl
ENDBRANCH   2   5
BRANCH   3  10
HETATM   10  C2  UNL     1      -1.765  -0.379   0.488  1.00  0.00     0.121 A 
HETATM   11  C3  UNL     1      -2.819   0.563  -0.034  1.00  0.00     0.067 A 
HETATM   12  C4  UNL     1      -2.617  -0.769  -0.677  1.00  0.00     0.195 A 
HETATM   13  F1  UNL     1      -2.074  -0.767  -1.939  1.00  0.00    -0.247 F 
ENDBRANCH   3  10
TORSDOF 2
