REMARK  12 active torsions:
REMARK  status: ('A' for Active; 'I' for Inactive)
REMARK    1  A    between atoms: C2_2  and  N2_6 
REMARK       I    between atoms: N2_6  and  C3_8 
REMARK    2  A    between atoms: C3_8  and  C4_10 
REMARK    3  A    between atoms: C4_10  and  O2_11 
REMARK    4  A    between atoms: C6_16  and  O5_17 
REMARK    5  A    between atoms: C6_16  and  C7_19 
REMARK    6  A    between atoms: C7_19  and  O6_20 
REMARK    7  A    between atoms: C7_19  and  N3_22 
REMARK    8  A    between atoms: N3_22  and  S1_24 
REMARK    9  A    between atoms: S1_24  and  C8_27 
REMARK   10  A    between atoms: C10_29  and  O9_30 
REMARK   11  A    between atoms: C11_32  and  O10_33 
REMARK   12  A    between atoms: C12_35  and  O11_36 
ROOT
HETATM    1  C4  UNL     1       2.433   0.148   1.024  1.00  0.00     0.466 C 
HETATM    2  O3  UNL     1       2.219  -1.092   0.359  1.00  0.00    -0.244 OA
HETATM    3  C5  UNL     1       1.643  -0.788  -0.863  1.00  0.00     0.335 C 
HETATM    4  O4  UNL     1       1.809  -1.513  -1.875  1.00  0.00    -0.259 OA
HETATM    5  C6  UNL     1       0.893   0.457  -0.637  1.00  0.00     0.398 C 
HETATM    6  N4  UNL     1       1.705   1.156   0.278  1.00  0.00     0.208 N 
HETATM    7  C14 UNL     1       1.088   2.135   1.091  1.00  0.00     0.323 C 
ENDROOT
BRANCH   5   8
HETATM    8  O5  UNL     1       0.926   1.176  -1.856  1.00  0.00    -0.352 OA
ATOM      9  H5  UNL     1       0.442   1.980  -1.710  1.00  0.00     0.213 HD
ENDBRANCH   5   8
BRANCH   5  10
HETATM   10  C7  UNL     1      -0.535   0.270  -0.281  1.00  0.00     0.305 C 
BRANCH  10  11
HETATM   11  O6  UNL     1      -1.186   1.507  -0.302  1.00  0.00    -0.371 OA
ATOM     12  H6  UNL     1      -2.100   1.387  -0.074  1.00  0.00     0.212 HD
ENDBRANCH  10  11
BRANCH  10  13
HETATM   13  N3  UNL     1      -0.785  -0.441   0.929  1.00  0.00    -0.283 N 
ATOM     14  H3  UNL     1      -0.468  -0.129   1.847  1.00  0.00     0.175 HD
BRANCH  13  15
HETATM   15  S1  UNL     1      -1.697  -1.908   0.661  1.00  0.00     0.261 S 
HETATM   16  O7  UNL     1      -0.966  -2.784  -0.305  1.00  0.00    -0.200 OA
HETATM   17  O8  UNL     1      -1.910  -2.654   1.922  1.00  0.00    -0.200 OA
BRANCH  15  18
HETATM   18  C8  UNL     1      -3.280  -1.553  -0.026  1.00  0.00     0.085 A 
HETATM   19  C9  UNL     1      -3.524  -1.510  -1.373  1.00  0.00     0.064 A 
HETATM   20  C10 UNL     1      -4.782  -1.226  -1.887  1.00  0.00     0.103 A 
HETATM   21  C11 UNL     1      -5.840  -0.975  -1.025  1.00  0.00     0.132 A 
HETATM   22  C12 UNL     1      -5.607  -1.015   0.312  1.00  0.00     0.103 A 
HETATM   23  C13 UNL     1      -4.349  -1.299   0.803  1.00  0.00     0.064 A 
BRANCH  20  24
HETATM   24  O9  UNL     1      -4.960  -1.199  -3.258  1.00  0.00    -0.358 OA
ATOM     25  H9  UNL     1      -5.821  -1.005  -3.610  1.00  0.00     0.217 HD
ENDBRANCH  20  24
BRANCH  21  26
HETATM   26  O10 UNL     1      -7.056  -0.701  -1.621  1.00  0.00    -0.356 OA
ATOM     27  H10 UNL     1      -7.780  -0.529  -1.031  1.00  0.00     0.218 HD
ENDBRANCH  21  26
BRANCH  22  28
HETATM   28  O11 UNL     1      -6.673  -0.761   1.186  1.00  0.00    -0.358 OA
ATOM     29  H11 UNL     1      -6.510  -0.789   2.121  1.00  0.00     0.217 HD
ENDBRANCH  22  28
ENDBRANCH  15  18
ENDBRANCH  13  15
ENDBRANCH  10  13
ENDBRANCH   5  10
BRANCH   1  30
HETATM   30  C3  UNL     1       3.877   0.469   1.118  1.00  0.00     0.320 C 
HETATM   31  N2  UNL     1       4.664   0.688  -0.023  1.00  0.00    -0.311 N 
ATOM     32  H2  UNL     1       4.188   0.615  -0.922  1.00  0.00     0.170 HD
HETATM   33  O1  UNL     1       4.390   0.541   2.256  1.00  0.00    -0.265 OA
BRANCH  31  34
HETATM   34  C2  UNL     1       6.036   0.997  -0.067  1.00  0.00     0.073 C 
HETATM   35  C1  UNL     1       6.815   1.126   1.175  1.00  0.00     0.088 C 
HETATM   36  N1  UNL     1       6.646   1.176  -1.184  1.00  0.00    -0.389 N 
ATOM     37  H12 UNL     1       7.641   1.400  -1.216  1.00  0.00     0.157 HD
ATOM     38  H11 UNL     1       6.106   1.087  -2.045  1.00  0.00     0.157 HD
ENDBRANCH  31  34
ENDBRANCH   1  30
BRANCH   1  39
HETATM   39  O2  UNL     1       1.882  -0.025   2.308  1.00  0.00    -0.333 OA
ATOM     40  H2  UNL     1       0.957  -0.231   2.248  1.00  0.00     0.215 HD
ENDBRANCH   1  39
TORSDOF 12
