REMARK  5 active torsions:
REMARK  status: ('A' for Active; 'I' for Inactive)
REMARK    1  A    between atoms: O1_1  and  C1_3 
REMARK    2  A    between atoms: C3_6  and  N1_7 
REMARK    3  A    between atoms: N1_7  and  C4_9 
REMARK    4  A    between atoms: C8_15  and  O5_16 
REMARK    5  A    between atoms: C9_18  and  O6_19 
ROOT
HETATM    1  C1  UNL     1       3.378  -0.490   0.092  1.00  0.00     0.288 C 
HETATM    2  O2  UNL     1       2.505  -1.290   0.820  1.00  0.00    -0.357 OA
HETATM    3  C2  UNL     1       1.263  -1.241   0.261  1.00  0.00     0.198 C 
HETATM    4  C3  UNL     1       0.656   0.122   0.385  1.00  0.00     0.134 C 
HETATM    5  C8  UNL     1       1.585   1.272   0.248  1.00  0.00     0.176 C 
HETATM    6  C9  UNL     1       3.048   0.973   0.231  1.00  0.00     0.203 C 
ENDROOT
BRANCH   4   7
HETATM    7  N1  UNL     1      -0.421   0.192  -0.560  1.00  0.00    -0.386 N 
ATOM      8  H1  UNL     1      -0.409   0.846  -1.343  1.00  0.00     0.156 HD
BRANCH   7   9
HETATM    9  C4  UNL     1      -1.507  -0.703  -0.343  1.00  0.00     0.240 C 
HETATM   10  C5  UNL     1      -2.287  -0.482   0.912  1.00  0.00     0.221 C 
HETATM   11  O3  UNL     1      -2.972   0.740   0.764  1.00  0.00    -0.385 OA
HETATM   12  C6  UNL     1      -4.069   0.497  -0.028  1.00  0.00     0.194 C 
HETATM   13  C7  UNL     1      -3.703  -0.563  -1.043  1.00  0.00     0.196 C 
HETATM   14  O4  UNL     1      -2.384  -0.576  -1.413  1.00  0.00    -0.363 OA
ENDBRANCH   7   9
ENDBRANCH   4   7
BRANCH   5  15
HETATM   15  O5  UNL     1       1.388   2.149   1.345  1.00  0.00    -0.391 OA
ATOM     16  H5  UNL     1       1.982   2.885   1.257  1.00  0.00     0.210 HD
ENDBRANCH   5  15
BRANCH   6  17
HETATM   17  O6  UNL     1       3.612   1.630  -0.861  1.00  0.00    -0.388 OA
ATOM     18  H6  UNL     1       3.404   2.553  -0.773  1.00  0.00     0.210 HD
ENDBRANCH   6  17
BRANCH   1  19
HETATM   19  O1  UNL     1       3.332  -0.877  -1.241  1.00  0.00    -0.369 OA
ATOM     20  H1  UNL     1       3.929  -0.330  -1.739  1.00  0.00     0.212 HD
ENDBRANCH   1  19
TORSDOF 5
