REMARK  7 active torsions:
REMARK  status: ('A' for Active; 'I' for Inactive)
REMARK    1  A    between atoms: C1_2  and  C2_3 
REMARK    2  A    between atoms: C4_6  and  C5_7 
REMARK    3  A    between atoms: C6_8  and  C7_9 
REMARK    4  A    between atoms: C7_9  and  O3_10 
REMARK    5  A    between atoms: C8_12  and  O4_13 
REMARK    6  A    between atoms: C9_15  and  O5_16 
REMARK    7  A    between atoms: C10_18  and  O6_19 
ROOT
HETATM    1  C2  UNL     1      -1.385   1.125   0.641  1.00  0.00     0.169 A 
HETATM    2  O2  UNL     1      -1.007   0.783   2.026  1.00  0.00    -0.358 OA
HETATM    3  C3  UNL     1      -0.086   0.790   0.839  1.00  0.00     0.177 A 
HETATM    4  C4  UNL     1       0.433  -0.581   0.640  1.00  0.00     0.072 C 
HETATM    5  C8  UNL     1      -0.538  -1.439  -0.161  1.00  0.00     0.159 C 
HETATM    6  C9  UNL     1      -1.909  -1.294   0.440  1.00  0.00     0.179 C 
HETATM    7  C10 UNL     1      -2.376   0.119   0.127  1.00  0.00     0.193 C 
ENDROOT
BRANCH   4   8
HETATM    8  C5  UNL     1       1.769  -0.670   0.007  1.00  0.00    -0.019 C 
HETATM    9  C6  UNL     1       2.394   0.380  -0.471  1.00  0.00    -0.005 C 
BRANCH   9  10
HETATM   10  C7  UNL     1       3.762   0.232  -1.109  1.00  0.00     0.191 C 
BRANCH  10  11
HETATM   11  O3  UNL     1       4.611   1.036  -0.338  1.00  0.00    -0.397 OA
ATOM     12  H3  UNL     1       5.468   0.943  -0.738  1.00  0.00     0.209 HD
ENDBRANCH  10  11
ENDBRANCH   9  10
ENDBRANCH   4   8
BRANCH   5  13
HETATM   13  O4  UNL     1      -0.468  -1.014  -1.470  1.00  0.00    -0.392 OA
ATOM     14  H4  UNL     1      -1.074  -1.549  -1.970  1.00  0.00     0.210 HD
ENDBRANCH   5  13
BRANCH   1  15
HETATM   15  C1  UNL     1      -1.854   2.515   0.566  1.00  0.00     0.274 C 
HETATM   16  O1  UNL     1      -1.888   3.204   1.558  1.00  0.00    -0.303 OA
ENDBRANCH   1  15
BRANCH   6  17
HETATM   17  O5  UNL     1      -2.806  -2.214  -0.080  1.00  0.00    -0.390 OA
ATOM     18  H5  UNL     1      -3.672  -2.122   0.300  1.00  0.00     0.210 HD
ENDBRANCH   6  17
BRANCH   7  19
HETATM   19  O6  UNL     1      -2.475   0.244  -1.239  1.00  0.00    -0.389 OA
ATOM     20  H6  UNL     1      -3.101  -0.392  -1.564  1.00  0.00     0.210 HD
ENDBRANCH   7  19
TORSDOF 7
