REMARK  7 active torsions:
REMARK  status: ('A' for Active; 'I' for Inactive)
REMARK    1  A    between atoms: C2_2  and  O1_5 
REMARK    2  A    between atoms: O1_5  and  C5_6 
REMARK    3  A    between atoms: C6_8  and  C7_9 
REMARK    4  A    between atoms: C7_9  and  O3_10 
REMARK    5  A    between atoms: C8_12  and  O4_13 
REMARK    6  A    between atoms: C9_15  and  O5_16 
REMARK    7  A    between atoms: C10_18  and  O6_19 
ROOT
HETATM    1  C5  UNL     1       0.152  -0.501  -0.238  1.00  0.00     0.292 C 
HETATM    2  O2  UNL     1      -0.557  -0.192  -1.394  1.00  0.00    -0.348 OA
HETATM    3  C6  UNL     1      -1.778   0.366  -0.955  1.00  0.00     0.179 C 
HETATM    4  C8  UNL     1      -2.614  -0.666  -0.276  1.00  0.00     0.180 C 
HETATM    5  C9  UNL     1      -1.874  -1.153   0.964  1.00  0.00     0.183 C 
HETATM    6  C10 UNL     1      -0.525  -1.652   0.472  1.00  0.00     0.204 C 
ENDROOT
BRANCH   1   7
HETATM    7  O1  UNL     1       1.479  -0.667  -0.397  1.00  0.00    -0.349 OA
BRANCH   7   8
HETATM    8  C2  UNL     1       2.340   0.192   0.189  1.00  0.00     0.053 C 
HETATM    9  C1  UNL     1       3.762  -0.267  -0.178  1.00  0.00     0.045 C 
HETATM   10  C3  UNL     1       2.310   0.233   1.702  1.00  0.00     0.045 C 
HETATM   11  C4  UNL     1       2.240   1.618  -0.293  1.00  0.00     0.045 C 
ENDBRANCH   7   8
ENDBRANCH   1   7
BRANCH   6  12
HETATM   12  O6  UNL     1       0.295  -2.103   1.478  1.00  0.00    -0.388 OA
ATOM     13  H6  UNL     1      -0.130  -2.826   1.924  1.00  0.00     0.210 HD
ENDBRANCH   6  12
BRANCH   3  14
HETATM   14  C7  UNL     1      -2.544   0.955  -2.119  1.00  0.00     0.198 C 
BRANCH  14  15
HETATM   15  O3  UNL     1      -1.817   1.956  -2.745  1.00  0.00    -0.398 OA
ATOM     16  H3  UNL     1      -2.298   2.326  -3.476  1.00  0.00     0.209 HD
ENDBRANCH  14  15
ENDBRANCH   3  14
BRANCH   5  17
HETATM   17  O5  UNL     1      -1.648  -0.039   1.763  1.00  0.00    -0.390 OA
ATOM     18  H5  UNL     1      -1.187  -0.343   2.536  1.00  0.00     0.210 HD
ENDBRANCH   5  17
BRANCH   4  19
HETATM   19  O4  UNL     1      -3.820  -0.100   0.100  1.00  0.00    -0.390 OA
ATOM     20  H4  UNL     1      -4.352  -0.757   0.532  1.00  0.00     0.210 HD
ENDBRANCH   4  19
TORSDOF 7
