REMARK  2 active torsions:
REMARK  status: ('A' for Active; 'I' for Inactive)
REMARK    1  A    between atoms: C1_2  and  C2_4 
REMARK       I    between atoms: C2_4  and  N2_6 
REMARK    2  A    between atoms: N2_6  and  C3_8 
ROOT
HETATM    1  C3  UNL     1       0.695  -0.124  -0.273  1.00  0.00     0.089 C 
HETATM    2  C4  UNL     1       0.231   1.130  -0.920  1.00  0.00     0.030 C 
HETATM    3  C5  UNL     1      -1.226   1.176  -1.232  1.00  0.00    -0.012 C 
HETATM    4  C6  UNL     1      -2.002   1.818  -0.117  1.00  0.00     0.009 C 
HETATM    5  C7  UNL     1      -2.210   0.873   1.045  1.00  0.00    -0.013 C 
HETATM    6  C8  UNL     1      -3.068  -0.268   0.538  1.00  0.00     0.009 C 
HETATM    7  C9  UNL     1      -2.237  -1.005  -0.495  1.00  0.00    -0.013 C 
HETATM    8  C10 UNL     1      -1.816  -0.143  -1.630  1.00  0.00     0.009 C 
HETATM    9  C11 UNL     1      -1.112  -1.674   0.229  1.00  0.00     0.011 C 
HETATM   10  C12 UNL     1      -0.205  -0.628   0.822  1.00  0.00     0.009 C 
HETATM   11  C13 UNL     1      -0.903   0.432   1.587  1.00  0.00     0.011 C 
ENDROOT
BRANCH   1  12
HETATM   12  N2  UNL     1       2.032   0.111   0.281  1.00  0.00    -0.348 N 
HETATM   13  C2  UNL     1       3.163  -0.584  -0.184  1.00  0.00     0.306 C 
HETATM   14  O2  UNL     1       3.047  -1.428  -1.093  1.00  0.00    -0.263 OA
ATOM     15  H2  UNL     1       2.145   0.799   1.026  1.00  0.00     0.163 HD
BRANCH  13  16
HETATM   16  C1  UNL     1       4.465  -0.328   0.384  1.00  0.00     0.322 C 
HETATM   17  N1  UNL     1       5.639  -0.995  -0.042  1.00  0.00    -0.053 NA
HETATM   18  O1  UNL     1       4.602   0.523   1.305  1.00  0.00    -0.266 OA
ENDBRANCH  13  16
ENDBRANCH   1  12
TORSDOF 2
