REMARK  4 active torsions:
REMARK  status: ('A' for Active; 'I' for Inactive)
REMARK    1  A    between atoms: C1_2  and  C2_4 
REMARK    2  A    between atoms: C3_5  and  C12_16 
REMARK    3  A    between atoms: C7_9  and  C8_10 
REMARK    4  A    between atoms: C9_13  and  C10_14 
ROOT
HETATM    1  C2  UNL     1      -0.630   0.498  -0.466  1.00  0.00     0.052 C 
HETATM    2  C3  UNL     1      -1.421  -0.268   0.517  1.00  0.00     0.008 C 
HETATM    3  C4  UNL     1      -1.403  -1.726   0.082  1.00  0.00     0.007 C 
HETATM    4  C5  UNL     1      -0.376  -1.866  -0.987  1.00  0.00     0.007 C 
HETATM    5  C6  UNL     1       0.255  -0.536  -1.084  1.00  0.00     0.022 C 
HETATM    6  C7  UNL     1       1.348  -0.200  -0.131  1.00  0.00     0.053 A 
HETATM    7  C9  UNL     1       1.283   0.516   1.107  1.00  0.00     0.015 A 
HETATM    8  C13 UNL     1       0.607   1.153   0.005  1.00  0.00     0.027 A 
ENDROOT
BRANCH   1   9
HETATM    9  C1  UNL     1      -1.405   1.329  -1.428  1.00  0.00     0.241 C 
HETATM   10  N1  UNL     1      -2.239   2.346  -0.882  1.00  0.00    -0.061 NA
HETATM   11  O1  UNL     1      -1.373   1.194  -2.660  1.00  0.00    -0.276 OA
ENDBRANCH   1   9
BRANCH   2  12
HETATM   12  C12 UNL     1      -1.007  -0.153   1.940  1.00  0.00    -0.004 A 
HETATM   13  C10 UNL     1       0.334   0.300   2.236  1.00  0.00    -0.004 A 
HETATM   14  C11 UNL     1      -0.085  -1.116   2.585  1.00  0.00     0.011 A 
ENDBRANCH   2  12
BRANCH   6  15
HETATM   15  C8  UNL     1       2.668  -0.171  -0.858  1.00  0.00     0.241 C 
HETATM   16  N2  UNL     1       2.914   0.707  -1.929  1.00  0.00    -0.061 NA
HETATM   17  O2  UNL     1       3.561  -0.952  -0.490  1.00  0.00    -0.276 OA
ENDBRANCH   6  15
TORSDOF 4
