REMARK  2 active torsions:
REMARK  status: ('A' for Active; 'I' for Inactive)
REMARK    1  A    between atoms: C4_4  and  N1_5 
REMARK       I    between atoms: N1_5  and  C5_7 
REMARK       I    between atoms: C5_7  and  N2_9 
REMARK       I    between atoms: N2_9  and  C6_11 
REMARK       I    between atoms: C6_11  and  N3_13 
REMARK    2  A    between atoms: N3_13  and  C7_15 
ROOT
HETATM    1  N1  UNL     1       2.505   0.592  -0.125  1.00  0.00    -0.338 N 
ATOM      2  H1  UNL     1       1.908  -0.099   0.330  1.00  0.00     0.164 HD
HETATM    3  C5  UNL     1       2.033   1.611  -0.802  1.00  0.00     0.324 C 
HETATM    4  O1  UNL     1       2.719   2.447  -1.387  1.00  0.00    -0.247 OA
HETATM    5  N2  UNL     1       0.420   2.024  -1.038  1.00  0.00    -0.261 N 
ATOM      6  H2  UNL     1      -0.003   2.796  -1.554  1.00  0.00     0.175 HD
HETATM    7  C6  UNL     1      -0.144   1.013  -0.330  1.00  0.00     0.324 C 
HETATM    8  O2  UNL     1       0.266   0.049   0.263  1.00  0.00    -0.247 OA
HETATM    9  N3  UNL     1      -1.656   1.062  -0.233  1.00  0.00    -0.336 N 
ATOM     10  H3  UNL     1      -2.196   1.789  -0.703  1.00  0.00     0.164 HD
ENDROOT
BRANCH   1  11
HETATM   11  C4  UNL     1       4.036   0.533  -0.079  1.00  0.00     0.090 A 
HETATM   12  C2  UNL     1       4.568  -0.776   0.214  1.00  0.00     0.006 A 
HETATM   13  C1  UNL     1       5.924  -0.998   0.821  1.00  0.00     0.012 C 
HETATM   14  C3  UNL     1       4.578  -0.288  -1.225  1.00  0.00     0.032 A 
ENDBRANCH   1  11
BRANCH   9  15
HETATM   15  C7  UNL     1      -2.284   0.058   0.536  1.00  0.00     0.116 C 
HETATM   16  C8  UNL     1      -2.859  -0.972  -0.455  1.00  0.00     0.057 C 
HETATM   17  C9  UNL     1      -3.886  -1.636   0.462  1.00  0.00     0.274 C 
HETATM   18  N4  UNL     1      -4.510  -0.524   1.151  1.00  0.00     0.086 N 
HETATM   19  C10 UNL     1      -5.685  -0.150   0.386  1.00  0.00     0.310 C 
HETATM   20  C11 UNL     1      -3.541   0.527   1.219  1.00  0.00     0.296 C 
ENDBRANCH   9  15
TORSDOF 2
