REMARK  3 active torsions:
REMARK  status: ('A' for Active; 'I' for Inactive)
REMARK    1  A    between atoms: C5_9  and  C6_10 
REMARK    2  A    between atoms: C6_10  and  N3_11 
REMARK       I    between atoms: N3_11  and  C7_13 
REMARK       I    between atoms: C7_13  and  N4_15 
REMARK    3  A    between atoms: N4_15  and  C8_17 
ROOT
HETATM    1  C6  UNL     1      -1.293   0.669   0.093  1.00  0.00     0.151 C 
ENDROOT
BRANCH   1   2
HETATM    2  C5  UNL     1      -2.465   0.200  -0.722  1.00  0.00     0.128 C 
HETATM    3  C2  UNL     1      -2.615  -1.284  -0.765  1.00  0.00     0.106 C 
HETATM    4  C1  UNL     1      -2.549  -1.924   0.603  1.00  0.00     0.034 C 
HETATM    5  N1  UNL     1      -4.011  -1.419  -1.213  1.00  0.00    -0.337 N 
HETATM    6  C3  UNL     1      -4.688  -0.335  -0.547  1.00  0.00     0.318 C 
ATOM      7  H1  UNL     1      -4.406  -2.115  -1.845  1.00  0.00     0.164 HD
HETATM    8  O1  UNL     1      -5.929  -0.318  -0.349  1.00  0.00    -0.247 OA
HETATM    9  N2  UNL     1      -3.730   0.642  -0.184  1.00  0.00    -0.330 N 
HETATM   10  C4  UNL     1      -3.927   1.852   0.569  1.00  0.00     0.155 C 
ENDBRANCH   1   2
BRANCH   1  11
HETATM   11  N3  UNL     1      -0.092   0.118  -0.485  1.00  0.00    -0.341 N 
HETATM   12  C7  UNL     1       1.204   0.366   0.044  1.00  0.00     0.316 C 
HETATM   13  O2  UNL     1       1.274   1.101   1.062  1.00  0.00    -0.247 OA
HETATM   14  N4  UNL     1       2.383  -0.162  -0.505  1.00  0.00    -0.335 N 
ATOM     15  H4  UNL     1       2.312  -0.757  -1.330  1.00  0.00     0.165 HD
ATOM     16  H3  UNL     1      -0.176  -0.476  -1.310  1.00  0.00     0.164 HD
BRANCH  14  17
HETATM   17  C8  UNL     1       3.680   0.097   0.040  1.00  0.00     0.023 C 
HETATM   18  C9  UNL     1       3.823  -0.375   1.477  1.00  0.00     0.037 C 
HETATM   19  C10 UNL     1       4.018   1.572  -0.023  1.00  0.00     0.037 C 
HETATM   20  C11 UNL     1       4.736  -0.639  -0.763  1.00  0.00     0.037 C 
ENDBRANCH  14  17
ENDBRANCH   1  11
TORSDOF 3
