REMARK  2 active torsions:
REMARK  status: ('A' for Active; 'I' for Inactive)
REMARK    1  A    between atoms: C1_2  and  N1_3 
REMARK       I    between atoms: N1_3  and  C2_5 
REMARK       I    between atoms: C2_5  and  N2_7 
REMARK       I    between atoms: N2_7  and  C3_9 
REMARK       I    between atoms: C3_9  and  N3_11 
REMARK    2  A    between atoms: N3_11  and  C4_13 
ROOT
HETATM    1  N1  UNL     1       3.147   1.844  -1.879  1.00  0.00    -0.286 N 
ATOM      2  H1  UNL     1       2.895   1.680  -0.904  1.00  0.00     0.172 HD
HETATM    3  C2  UNL     1       2.459   1.835  -3.004  1.00  0.00     0.330 C 
HETATM    4  O2  UNL     1       2.644   2.167  -4.157  1.00  0.00    -0.246 OA
HETATM    5  N2  UNL     1       0.856   1.185  -2.957  1.00  0.00    -0.261 N 
ATOM      6  H2  UNL     1       0.160   1.075  -3.695  1.00  0.00     0.175 HD
HETATM    7  C3  UNL     1       0.809   0.873  -1.669  1.00  0.00     0.324 C 
HETATM    8  O3  UNL     1       1.463   1.247  -0.703  1.00  0.00    -0.247 OA
HETATM    9  N3  UNL     1      -0.242  -0.140  -1.302  1.00  0.00    -0.337 N 
ATOM     10  H3  UNL     1      -0.864  -0.519  -2.016  1.00  0.00     0.164 HD
ENDROOT
BRANCH   9  11
HETATM   11  C4  UNL     1      -0.359  -0.561   0.040  1.00  0.00     0.095 C 
HETATM   12  C5  UNL     1      -0.377   0.641   1.050  1.00  0.00     0.031 C 
HETATM   13  C6  UNL     1      -1.498   0.203   1.997  1.00  0.00    -0.008 C 
HETATM   14  C7  UNL     1      -1.238  -0.738   3.052  1.00  0.00     0.005 C 
HETATM   15  C12 UNL     1      -2.435  -0.092   0.895  1.00  0.00     0.001 A 
HETATM   16  C8  UNL     1      -0.718  -2.036   2.607  1.00  0.00     0.001 C 
HETATM   17  C9  UNL     1      -1.367  -2.404   1.319  1.00  0.00     0.012 C 
HETATM   18  C10 UNL     1      -1.571  -1.271   0.368  1.00  0.00    -0.015 A 
HETATM   19  C11 UNL     1      -2.940  -1.051   0.032  1.00  0.00     0.018 A 
ENDBRANCH   9  11
BRANCH   1  20
HETATM   20  C1  UNL     1       4.657   2.242  -2.680  1.00  0.00     0.356 C 
HETATM   21  O1  UNL     1       5.490   2.342  -1.793  1.00  0.00    -0.283 OA
ENDBRANCH   1  20
TORSDOF 2
