REMARK  3 active torsions:
REMARK  status: ('A' for Active; 'I' for Inactive)
REMARK       I    between atoms: N1_2  and  C2_4 
REMARK       I    between atoms: C2_4  and  N3_13 
REMARK       I    between atoms: N2_5  and  C3_7 
REMARK    1  A    between atoms: C3_7  and  C4_9 
REMARK    2  A    between atoms: N3_13  and  C8_15 
REMARK    3  A    between atoms: C8_15  and  C11_18 
ROOT
HETATM    1  C1  UNL     1      -0.189   2.844   0.059  1.00  0.00     0.165 C 
HETATM    2  N1  UNL     1      -0.452   1.530   0.596  1.00  0.00    -0.231 N 
ATOM      3  H1  UNL     1      -0.601   1.436   1.601  1.00  0.00     0.177 HD
HETATM    4  C2  UNL     1      -0.513   0.353  -0.215  1.00  0.00     0.677 C 
HETATM    5  N2  UNL     1       0.500  -0.444  -0.280  1.00  0.00    -0.160 N 
ATOM      6  H2  UNL     1       0.419  -1.273  -0.868  1.00  0.00     0.187 HD
HETATM    7  C3  UNL     1       1.706  -0.240   0.409  1.00  0.00     0.240 C 
HETATM    8  O1  UNL     1       1.683   0.334   1.530  1.00  0.00    -0.272 OA
HETATM    9  N3  UNL     1      -1.662   0.005  -0.974  1.00  0.00    -0.208 N 
ATOM     10  H3  UNL     1      -1.584  -0.014  -1.991  1.00  0.00     0.179 HD
ENDROOT
BRANCH   9  11
HETATM   11  C8  UNL     1      -2.934  -0.323  -0.376  1.00  0.00     0.128 C 
HETATM   12  C9  UNL     1      -3.475   0.831   0.451  1.00  0.00     0.050 C 
HETATM   13  C10 UNL     1      -3.929  -0.647  -1.461  1.00  0.00     0.050 C 
BRANCH  11  14
HETATM   14  C11 UNL     1      -2.853  -1.506   0.516  1.00  0.00     0.202 C 
HETATM   15  O2  UNL     1      -1.792  -2.135   0.715  1.00  0.00    -0.646 OA
HETATM   16  O3  UNL     1      -4.023  -1.907   1.141  1.00  0.00    -0.646 OA
ENDBRANCH  11  14
ENDBRANCH   9  11
BRANCH   7  17
HETATM   17  C4  UNL     1       3.043  -0.655  -0.086  1.00  0.00     0.083 A 
HETATM   18  C5  UNL     1       4.107   0.432   0.053  1.00  0.00     0.019 A 
HETATM   19  C6  UNL     1       4.170  -0.871   0.831  1.00  0.00    -0.005 A 
HETATM   20  C7  UNL     1       5.261  -1.799   0.338  1.00  0.00     0.011 C 
ENDBRANCH   7  17
TORSDOF 3
