REMARK  12 active torsions:
REMARK  status: ('A' for Active; 'I' for Inactive)
REMARK    1  A    between atoms: N1_1  and  C1_4 
REMARK    2  A    between atoms: N4_12  and  C5_13 
REMARK    3  A    between atoms: C6_15  and  N5_16 
REMARK    4  A    between atoms: C7_20  and  O2_21 
REMARK    5  A    between atoms: C7_20  and  C8_23 
REMARK       I    between atoms: C8_23  and  N6_25 
REMARK    6  A    between atoms: N6_25  and  N7_27 
REMARK    7  A    between atoms: N7_27  and  N8_28 
REMARK    8  A    between atoms: C9_31  and  N9_32 
REMARK       I    between atoms: N9_32  and  C10_34 
REMARK    9  A    between atoms: C10_34  and  C11_36 
REMARK   10  A    between atoms: C11_36  and  C12_37 
REMARK   11  A    between atoms: C12_37  and  O5_38 
REMARK   12  A    between atoms: C13_40  and  O6_41 
ROOT
HETATM    1  C5  UNL     1       1.146  -0.461   0.298  1.00  0.00     0.264 C 
HETATM    2  O1  UNL     1       1.254   0.877   0.512  1.00  0.00    -0.328 OA
HETATM    3  C6  UNL     1       0.151   1.641   0.389  1.00  0.00     0.367 C 
HETATM    4  C7  UNL     1      -1.132   0.951   0.716  1.00  0.00     0.214 C 
HETATM    5  C9  UNL     1      -1.332  -0.247  -0.126  1.00  0.00     0.166 C 
HETATM    6  C13 UNL     1      -0.023  -0.917  -0.479  1.00  0.00     0.193 C 
ENDROOT
BRANCH   1   7
HETATM    7  N4  UNL     1       2.390  -0.905  -0.334  1.00  0.00    -0.297 N 
HETATM    8  C2  UNL     1       3.570  -0.274  -0.169  1.00  0.00     0.156 A 
HETATM    9  N2  UNL     1       3.952   0.827   0.534  1.00  0.00    -0.174 N 
HETATM   10  C3  UNL     1       4.540  -0.938  -0.895  1.00  0.00     0.120 A 
HETATM   11  C1  UNL     1       5.217   1.282   0.547  1.00  0.00     0.678 A 
ATOM     12  H2  UNL     1       3.248   1.329   1.075  1.00  0.00     0.186 HD
HETATM   13  N11 UNL     1       6.144   0.624  -0.164  1.00  0.00    -0.177 N 
HETATM   14  C14 UNL     1       5.853  -0.470  -0.885  1.00  0.00     0.162 A 
ATOM     15  H11 UNL     1       7.105   0.967  -0.157  1.00  0.00     0.185 HD
HETATM   16  N10 UNL     1       6.814  -1.165  -1.632  1.00  0.00    -0.080 NA
HETATM   17  N3  UNL     1       3.905  -1.955  -1.476  1.00  0.00    -0.346 N 
HETATM   18  C4  UNL     1       2.604  -1.935  -1.137  1.00  0.00     0.188 A 
ATOM     19  H3  UNL     1       4.341  -2.646  -2.087  1.00  0.00     0.167 HD
BRANCH  11  20
HETATM   20  N1  UNL     1       5.534   2.352   1.243  1.00  0.00    -0.234 N 
ATOM     21  H12 UNL     1       4.829   2.853   1.784  1.00  0.00     0.174 HD
ATOM     22  H11 UNL     1       6.494   2.697   1.253  1.00  0.00     0.174 HD
ENDBRANCH  11  20
ENDBRANCH   1   7
BRANCH   6  23
HETATM   23  O6  UNL     1       0.164  -0.897  -1.859  1.00  0.00    -0.389 OA
ATOM     24  H6  UNL     1      -0.588  -1.191  -2.359  1.00  0.00     0.210 HD
ENDBRANCH   6  23
BRANCH   3  25
HETATM   25  N5  UNL     1       0.184   2.391  -0.821  1.00  0.00    -0.049 N 
ATOM     26  H53 UNL     1       1.037   2.946  -0.897  1.00  0.00     0.277 HD
ATOM     27  H52 UNL     1       0.318   1.789  -1.634  1.00  0.00     0.277 HD
ATOM     28  H51 UNL     1      -0.651   2.969  -0.914  1.00  0.00     0.277 HD
ENDBRANCH   3  25
BRANCH   5  29
HETATM   29  N9  UNL     1      -2.162  -1.168   0.675  1.00  0.00    -0.350 N 
HETATM   30  C10 UNL     1      -3.233  -1.889   0.115  1.00  0.00     0.220 C 
HETATM   31  O4  UNL     1      -3.527  -1.784  -1.097  1.00  0.00    -0.274 OA
ATOM     32  H9  UNL     1      -1.953  -1.286   1.666  1.00  0.00     0.163 HD
BRANCH  30  33
HETATM   33  C11 UNL     1      -4.049  -2.813   0.984  1.00  0.00     0.128 C 
BRANCH  33  34
HETATM   34  C12 UNL     1      -4.983  -3.609   0.124  1.00  0.00     0.173 C 
BRANCH  34  35
HETATM   35  O5  UNL     1      -5.745  -4.459   0.960  1.00  0.00    -0.400 OA
ATOM     36  H5  UNL     1      -6.337  -4.964   0.415  1.00  0.00     0.209 HD
ENDBRANCH  34  35
ENDBRANCH  33  34
ENDBRANCH  30  33
ENDBRANCH   5  29
BRANCH   4  37
HETATM   37  O2  UNL     1      -0.942   0.451   2.043  1.00  0.00    -0.374 OA
ATOM     38  H2  UNL     1      -1.758   0.012   2.251  1.00  0.00     0.211 HD
ENDBRANCH   4  37
BRANCH   4  39
HETATM   39  C8  UNL     1      -2.278   1.870   0.790  1.00  0.00     0.276 C 
HETATM   40  O3  UNL     1      -2.835   2.070   1.910  1.00  0.00    -0.268 OA
HETATM   41  N6  UNL     1      -2.832   2.571  -0.299  1.00  0.00    -0.252 N 
ATOM     42  H6  UNL     1      -2.415   2.431  -1.219  1.00  0.00     0.187 HD
BRANCH  41  43
HETATM   43  N7  UNL     1      -3.915   3.445  -0.198  1.00  0.00    -0.027 NA
BRANCH  43  44
HETATM   44  N8  UNL     1      -3.560   4.676   0.346  1.00  0.00    -0.329 N 
ATOM     45  H82 UNL     1      -2.607   4.899   0.634  1.00  0.00     0.174 HD
ATOM     46  H81 UNL     1      -4.352   5.315   0.420  1.00  0.00     0.174 HD
ENDBRANCH  43  44
ENDBRANCH  41  43
ENDBRANCH   4  39
TORSDOF 12
