REMARK  16 active torsions:
REMARK  status: ('A' for Active; 'I' for Inactive)
REMARK    1  A    between atoms: N2_4  and  O1_6 
REMARK    2  A    between atoms: O1_6  and  C1_7 
REMARK    3  A    between atoms: C1_7  and  O2_8 
REMARK    4  A    between atoms: C2_10  and  O3_11 
REMARK    5  A    between atoms: C3_13  and  N3_14 
REMARK    6  A    between atoms: C4_15  and  N4_16 
REMARK    7  A    between atoms: C5_22  and  N7_23 
REMARK    8  A    between atoms: C6_28  and  N9_29 
REMARK    9  A    between atoms: C8_36  and  C9_37 
REMARK   10  A    between atoms: C9_37  and  C10_38 
REMARK   11  A    between atoms: C9_37  and  C11_41 
REMARK   12  A    between atoms: C10_38  and  O5_39 
REMARK   13  A    between atoms: C11_41  and  N11_42 
REMARK   14  A    between atoms: C11_41  and  C12_46 
REMARK   15  A    between atoms: C12_46  and  O6_47 
REMARK   16  A    between atoms: C12_46  and  O7_49 
ROOT
HETATM    1  C1  UNL     1      -0.906   1.333  -0.588  1.00  0.00     0.246 C 
HETATM    2  C2  UNL     1       0.665   1.368  -0.495  1.00  0.00     0.235 C 
HETATM    3  C3  UNL     1       0.840   0.440   0.680  1.00  0.00     0.299 C 
HETATM    4  O4  UNL     1      -0.306  -0.270   0.850  1.00  0.00    -0.351 OA
HETATM    5  C8  UNL     1      -1.059  -0.087  -0.321  1.00  0.00     0.200 C 
ENDROOT
BRANCH   3   6
HETATM    6  N3  UNL     1       1.986  -0.424   0.538  1.00  0.00     0.020 N 
HETATM    7  C4  UNL     1       2.078  -1.736   0.685  1.00  0.00     0.711 A 
HETATM    8  N5  UNL     1       3.388  -2.105   0.444  1.00  0.00    -0.095 N 
HETATM    9  N6  UNL     1       4.041  -1.007   0.162  1.00  0.00     0.106 N 
ATOM     10  H5  UNL     1       3.771  -3.050   0.479  1.00  0.00     0.207 HD
HETATM   11  C5  UNL     1       5.354  -0.855  -0.143  1.00  0.00     0.727 A 
HETATM   12  C7  UNL     1       3.223   0.037   0.209  1.00  0.00     0.752 A 
HETATM   13  N8  UNL     1       5.795   0.377  -0.394  1.00  0.00    -0.020 N 
HETATM   14  C6  UNL     1       4.976   1.442  -0.350  1.00  0.00     0.705 A 
ATOM     15  H8  UNL     1       6.779   0.515  -0.625  1.00  0.00     0.203 HD
HETATM   16  N10 UNL     1       3.668   1.304  -0.047  1.00  0.00    -0.019 N 
ATOM     17  H10 UNL     1       3.041   2.108  -0.011  1.00  0.00     0.203 HD
BRANCH   7  18
HETATM   18  N4  UNL     1       1.180  -2.606   1.001  1.00  0.00    -0.233 N 
ATOM     19  H42 UNL     1       0.213  -2.334   1.179  1.00  0.00     0.174 HD
ATOM     20  H41 UNL     1       1.251  -3.617   1.114  1.00  0.00     0.174 HD
ENDBRANCH   7  18
BRANCH  11  21
HETATM   21  N7  UNL     1       6.111  -1.902  -0.177  1.00  0.00    -0.232 N 
ATOM     22  H72 UNL     1       5.773  -2.845   0.015  1.00  0.00     0.174 HD
ATOM     23  H71 UNL     1       7.098  -1.788  -0.406  1.00  0.00     0.174 HD
ENDBRANCH  11  21
BRANCH  14  24
HETATM   24  N9  UNL     1       5.439   2.613  -0.597  1.00  0.00    -0.234 N 
ATOM     25  H92 UNL     1       6.427   2.717  -0.826  1.00  0.00     0.174 HD
ATOM     26  H91 UNL     1       4.818   3.421  -0.564  1.00  0.00     0.174 HD
ENDBRANCH  14  24
ENDBRANCH   3   6
BRANCH   2  27
HETATM   27  O3  UNL     1       1.186   0.908  -1.676  1.00  0.00    -0.385 OA
ATOM     28  H3  UNL     1       2.134   0.929  -1.620  1.00  0.00     0.210 HD
ENDBRANCH   2  27
BRANCH   1  29
HETATM   29  O1  UNL     1      -1.271   2.242   0.414  1.00  0.00    -0.220 OA
BRANCH  29  30
HETATM   30  N2  UNL     1      -0.825   3.513   0.524  1.00  0.00    -0.211 N 
HETATM   31  N1  UNL     1      -1.517   4.545   0.262  1.00  0.00    -0.326 N 
ATOM     32  H12 UNL     1      -2.474   4.386  -0.052  1.00  0.00     0.178 HD
ATOM     33  H11 UNL     1      -1.180   5.504   0.345  1.00  0.00     0.178 HD
ATOM     34  H2  UNL     1       0.135   3.653   0.840  1.00  0.00     0.215 HD
ENDBRANCH  29  30
ENDBRANCH   1  29
BRANCH   1  35
HETATM   35  O2  UNL     1      -1.243   1.801  -1.856  1.00  0.00    -0.360 OA
ATOM     36  H2  UNL     1      -0.996   1.185  -2.535  1.00  0.00     0.213 HD
ENDBRANCH   1  35
BRANCH   5  37
HETATM   37  C9  UNL     1      -2.339  -0.803  -0.281  1.00  0.00     0.079 C 
BRANCH  37  38
HETATM   38  C10 UNL     1      -3.107  -0.757  -1.530  1.00  0.00     0.173 C 
BRANCH  38  39
HETATM   39  O5  UNL     1      -3.549   0.411  -2.043  1.00  0.00    -0.400 OA
ATOM     40  H5  UNL     1      -4.046   0.441  -2.852  1.00  0.00     0.209 HD
ENDBRANCH  38  39
ENDBRANCH  37  38
BRANCH  37  41
HETATM   41  C11 UNL     1      -3.112  -0.668   0.990  1.00  0.00     0.246 C 
BRANCH  41  42
HETATM   42  N11 UNL     1      -3.522   0.620   1.396  1.00  0.00    -0.070 N 
ATOM     43 3H11 UNL     1      -2.705   1.229   1.439  1.00  0.00     0.274 HD
ATOM     44 2H11 UNL     1      -4.051   1.053   0.639  1.00  0.00     0.274 HD
ATOM     45 1H11 UNL     1      -4.050   0.712   2.264  1.00  0.00     0.274 HD
ENDBRANCH  41  42
BRANCH  41  46
HETATM   46  C12 UNL     1      -4.288  -1.606   1.123  1.00  0.00     0.284 C 
BRANCH  46  47
HETATM   47  O6  UNL     1      -5.393  -1.225   0.367  1.00  0.00    -0.369 OA
ATOM     48  H6  UNL     1      -6.133  -1.815   0.451  1.00  0.00     0.212 HD
ENDBRANCH  46  47
BRANCH  46  49
HETATM   49  O7  UNL     1      -4.701  -1.735   2.444  1.00  0.00    -0.369 OA
ATOM     50  H7  UNL     1      -5.441  -2.325   2.528  1.00  0.00     0.212 HD
ENDBRANCH  46  49
ENDBRANCH  41  46
ENDBRANCH  37  41
ENDBRANCH   5  37
TORSDOF 16
