REMARK  16 active torsions:
REMARK  status: ('A' for Active; 'I' for Inactive)
REMARK    1  A    between atoms: C2_2  and  N1_3 
REMARK    2  A    between atoms: C2_2  and  C3_7 
REMARK    3  A    between atoms: C3_7  and  O1_8 
REMARK    4  A    between atoms: C3_7  and  C4_10 
REMARK    5  A    between atoms: C5_12  and  O3_13 
REMARK    6  A    between atoms: C5_12  and  C6_15 
REMARK    7  A    between atoms: C6_15  and  O4_16 
REMARK    8  A    between atoms: C6_15  and  C7_18 
REMARK    9  A    between atoms: C7_18  and  O5_19 
REMARK   10  A    between atoms: C7_18  and  O6_21 
REMARK   11  A    between atoms: C8_23  and  O7_24 
REMARK   12  A    between atoms: C9_26  and  N2_27 
REMARK   13  A    between atoms: C11_31  and  N4_32 
REMARK   14  A    between atoms: C12_37  and  N6_38 
REMARK   15  A    between atoms: N8_44  and  N9_45 
REMARK   16  A    between atoms: N9_45  and  N10_47 
ROOT
HETATM    1  C4  UNL     1      -1.094   0.102  -0.499  1.00  0.00     0.183 C 
HETATM    2  O2  UNL     1      -2.165  -0.626   0.106  1.00  0.00    -0.340 OA
HETATM    3  C5  UNL     1      -1.651  -1.382   1.134  1.00  0.00     0.222 C 
HETATM    4  C8  UNL     1      -0.251  -1.669   0.663  1.00  0.00     0.210 C 
HETATM    5  C9  UNL     1       0.107  -0.242   0.318  1.00  0.00     0.179 C 
ENDROOT
BRANCH   5   6
HETATM    6  N2  UNL     1       1.401   0.032  -0.113  1.00  0.00    -0.226 N 
HETATM    7  C10 UNL     1       2.323   0.647   0.694  1.00  0.00     0.173 A 
HETATM    8  N3  UNL     1       2.284   1.131   1.962  1.00  0.00    -0.173 N 
HETATM    9  C13 UNL     1       3.555   0.755  -0.061  1.00  0.00     0.141 A 
HETATM   10  C11 UNL     1       3.388   1.694   2.476  1.00  0.00     0.679 A 
ATOM     11  H3  UNL     1       1.429   1.068   2.515  1.00  0.00     0.186 HD
HETATM   12  N5  UNL     1       4.544   1.807   1.797  1.00  0.00    -0.175 N 
HETATM   13  C12 UNL     1       4.662   1.347   0.525  1.00  0.00     0.147 A 
ATOM     14  H5  UNL     1       5.347   2.247   2.246  1.00  0.00     0.186 HD
HETATM   15  N7  UNL     1       3.287   0.209  -1.241  1.00  0.00    -0.256 N 
HETATM   16  N8  UNL     1       2.009  -0.212  -1.256  1.00  0.00    -0.112 N 
ATOM     17  H7  UNL     1       3.946   0.122  -2.015  1.00  0.00     0.191 HD
BRANCH  10  18
HETATM   18  N4  UNL     1       3.348   2.159   3.692  1.00  0.00    -0.234 N 
ATOM     19  H42 UNL     1       2.472   2.073   4.207  1.00  0.00     0.174 HD
ATOM     20  H41 UNL     1       4.187   2.587   4.083  1.00  0.00     0.174 HD
ENDBRANCH  10  18
BRANCH  13  21
HETATM   21  N6  UNL     1       5.729   1.418  -0.166  1.00  0.00    -0.383 N 
ATOM     22  H62 UNL     1       6.544   1.854   0.265  1.00  0.00     0.157 HD
ATOM     23  H61 UNL     1       5.818   1.072  -1.122  1.00  0.00     0.157 HD
ENDBRANCH  13  21
BRANCH  16  24
HETATM   24  N9  UNL     1       1.538  -0.842  -2.428  1.00  0.00    -0.212 N 
ATOM     25  H9  UNL     1       0.784  -0.386  -2.942  1.00  0.00     0.211 HD
BRANCH  24  26
HETATM   26  N10 UNL     1       2.031  -2.041  -2.930  1.00  0.00    -0.328 N 
ATOM     27 2H10 UNL     1       2.785  -2.483  -2.403  1.00  0.00     0.178 HD
ATOM     28 1H10 UNL     1       1.691  -2.496  -3.777  1.00  0.00     0.178 HD
ENDBRANCH  24  26
ENDBRANCH  16  24
ENDBRANCH   5   6
BRANCH   1  29
HETATM   29  C3  UNL     1      -1.558   1.556  -0.325  1.00  0.00     0.179 C 
BRANCH  29  30
HETATM   30  C2  UNL     1      -0.708   2.532  -1.084  1.00  0.00     0.210 C 
HETATM   31  C1  UNL     1      -1.244   3.944  -0.989  1.00  0.00     0.042 C 
BRANCH  30  32
HETATM   32  N1  UNL     1      -0.628   2.223  -2.492  1.00  0.00    -0.073 N 
ATOM     33  H13 UNL     1      -1.510   2.356  -2.987  1.00  0.00     0.274 HD
ATOM     34  H12 UNL     1      -0.082   2.900  -3.025  1.00  0.00     0.274 HD
ATOM     35  H11 UNL     1      -0.267   1.271  -2.556  1.00  0.00     0.274 HD
ENDBRANCH  30  32
ENDBRANCH  29  30
BRANCH  29  36
HETATM   36  O1  UNL     1      -2.842   1.681  -0.935  1.00  0.00    -0.391 OA
ATOM     37  H1  UNL     1      -3.380   1.063  -0.454  1.00  0.00     0.210 HD
ENDBRANCH  29  36
ENDBRANCH   1  29
BRANCH   4  38
HETATM   38  O7  UNL     1      -0.368  -2.514  -0.420  1.00  0.00    -0.388 OA
ATOM     39  H7  UNL     1       0.516  -2.695  -0.717  1.00  0.00     0.210 HD
ENDBRANCH   4  38
BRANCH   3  40
HETATM   40  O3  UNL     1      -1.513  -0.590   2.300  1.00  0.00    -0.361 OA
ATOM     41  H3  UNL     1      -1.158  -1.112   3.010  1.00  0.00     0.213 HD
ENDBRANCH   3  40
BRANCH   3  42
HETATM   42  C6  UNL     1      -2.473  -2.554   1.516  1.00  0.00     0.237 C 
BRANCH  42  43
HETATM   43  O4  UNL     1      -3.715  -2.049   1.986  1.00  0.00    -0.385 OA
ATOM     44  H4  UNL     1      -4.242  -2.800   2.231  1.00  0.00     0.210 HD
ENDBRANCH  42  43
BRANCH  42  45
HETATM   45  C7  UNL     1      -2.831  -3.525   0.446  1.00  0.00     0.287 C 
BRANCH  45  46
HETATM   46  O5  UNL     1      -3.557  -2.880  -0.584  1.00  0.00    -0.369 OA
ATOM     47  H5  UNL     1      -3.785  -3.500  -1.267  1.00  0.00     0.212 HD
ENDBRANCH  45  46
BRANCH  45  48
HETATM   48  O6  UNL     1      -3.795  -4.399   1.021  1.00  0.00    -0.369 OA
ATOM     49  H6  UNL     1      -4.023  -5.019   0.338  1.00  0.00     0.212 HD
ENDBRANCH  45  48
ENDBRANCH  42  45
ENDBRANCH   3  42
TORSDOF 16
