REMARK  15 active torsions:
REMARK  status: ('A' for Active; 'I' for Inactive)
REMARK    1  A    between atoms: N1_1  and  C1_4 
REMARK    2  A    between atoms: N3_8  and  C3_9 
REMARK    3  A    between atoms: C3_9  and  C4_10 
REMARK    4  A    between atoms: C5_12  and  N4_13 
REMARK    5  A    between atoms: C6_16  and  O2_17 
REMARK    6  A    between atoms: C7_19  and  N6_20 
REMARK    7  A    between atoms: N6_20  and  O3_21 
REMARK    8  A    between atoms: N6_20  and  O4_23 
REMARK    9  A    between atoms: O4_23  and  N7_24 
REMARK   10  A    between atoms: N7_24  and  N8_25 
REMARK   11  A    between atoms: C8_28  and  O5_29 
REMARK   12  A    between atoms: C8_28  and  C9_31 
REMARK   13  A    between atoms: C9_31  and  O6_32 
REMARK   14  A    between atoms: C10_34  and  O7_35 
REMARK   15  A    between atoms: C11_39  and  N11_40 
ROOT
HETATM    1  C4  UNL     1       0.507   0.027   0.688  1.00  0.00     0.176 C 
HETATM    2  O1  UNL     1      -0.675  -0.568   1.199  1.00  0.00    -0.352 OA
HETATM    3  C5  UNL     1      -1.417  -0.557   0.002  1.00  0.00     0.285 C 
HETATM    4  C8  UNL     1      -0.566  -1.353  -0.898  1.00  0.00     0.152 C 
HETATM    5  C10 UNL     1       0.843  -0.937  -0.438  1.00  0.00     0.190 C 
ENDROOT
BRANCH   1   6
HETATM    6  C3  UNL     1       1.564   0.140   1.730  1.00  0.00     0.200 C 
BRANCH   6   7
HETATM    7  N3  UNL     1       2.744   0.757   1.165  1.00  0.00    -0.101 N 
HETATM    8  C2  UNL     1       3.886   0.425   0.548  1.00  0.00     0.747 A 
HETATM    9  N2  UNL     1       4.716  -0.498   0.050  1.00  0.00    -0.019 N 
HETATM   10  N10 UNL     1       4.258   1.716   0.450  1.00  0.00     0.107 N 
HETATM   11  C1  UNL     1       5.883  -0.168  -0.530  1.00  0.00     0.705 A 
ATOM     12  H2  UNL     1       4.456  -1.482   0.112  1.00  0.00     0.203 HD
HETATM   13  N12 UNL     1       6.221   1.132  -0.610  1.00  0.00    -0.020 N 
HETATM   14  C11 UNL     1       5.408   2.101  -0.118  1.00  0.00     0.725 A 
ATOM     15  H12 UNL     1       7.104   1.394  -1.048  1.00  0.00     0.203 HD
HETATM   16  N9  UNL     1       3.132   2.040   1.058  1.00  0.00     0.033 NA
BRANCH  11  17
HETATM   17  N1  UNL     1       6.693  -1.047  -1.014  1.00  0.00    -0.234 N 
ATOM     18  H12 UNL     1       6.437  -2.032  -0.953  1.00  0.00     0.174 HD
ATOM     19  H11 UNL     1       7.578  -0.797  -1.454  1.00  0.00     0.174 HD
ENDBRANCH  11  17
BRANCH  14  20
HETATM   20  N11 UNL     1       5.699   3.350  -0.177  1.00  0.00    -0.232 N 
ATOM     21 2H11 UNL     1       5.088   4.078   0.193  1.00  0.00     0.174 HD
ATOM     22 1H11 UNL     1       6.575   3.643  -0.610  1.00  0.00     0.174 HD
ENDBRANCH  14  20
ENDBRANCH   6   7
ENDBRANCH   1   6
BRANCH   5  23
HETATM   23  O7  UNL     1       1.528  -2.015   0.086  1.00  0.00    -0.390 OA
ATOM     24  H7  UNL     1       1.738  -2.618  -0.618  1.00  0.00     0.210 HD
ENDBRANCH   5  23
BRANCH   3  25
HETATM   25  N4  UNL     1      -2.779  -0.942   0.154  1.00  0.00    -0.238 N 
HETATM   26  N5  UNL     1      -3.480  -2.029   0.272  1.00  0.00    -0.271 N 
HETATM   27  C6  UNL     1      -4.631  -1.359   0.355  1.00  0.00     0.201 A 
ATOM     28  H5  UNL     1      -3.241  -3.020   0.293  1.00  0.00     0.189 HD
HETATM   29  C7  UNL     1      -3.905  -0.213   0.233  1.00  0.00     0.210 A 
BRANCH  27  30
HETATM   30  O2  UNL     1      -5.980  -1.624   0.500  1.00  0.00    -0.343 OA
ATOM     31  H2  UNL     1      -6.799  -1.147   0.559  1.00  0.00     0.219 HD
ENDBRANCH  27  30
BRANCH  29  32
HETATM   32  N6  UNL     1      -4.222   1.201   0.201  1.00  0.00     0.012 NA
BRANCH  32  33
HETATM   33  O3  UNL     1      -3.203   1.870   0.827  1.00  0.00    -0.281 OA
ATOM     34  H3  UNL     1      -3.411   2.797   0.806  1.00  0.00     0.240 HD
ENDBRANCH  32  33
BRANCH  32  35
HETATM   35  O4  UNL     1      -4.268   1.571  -1.076  1.00  0.00    -0.136 OA
BRANCH  35  36
HETATM   36  N7  UNL     1      -4.391   2.913  -1.188  1.00  0.00     0.036 NA
BRANCH  36  37
HETATM   37  N8  UNL     1      -5.752   3.209  -0.964  1.00  0.00    -0.321 N 
ATOM     38  H82 UNL     1      -6.487   2.532  -0.759  1.00  0.00     0.174 HD
ATOM     39  H81 UNL     1      -5.845   4.221  -1.048  1.00  0.00     0.174 HD
ENDBRANCH  36  37
ENDBRANCH  35  36
ENDBRANCH  32  35
ENDBRANCH  29  32
ENDBRANCH   3  25
BRANCH   4  40
HETATM   40  O5  UNL     1      -0.778  -1.005  -2.229  1.00  0.00    -0.380 OA
ATOM     41  H5  UNL     1      -0.229  -1.519  -2.810  1.00  0.00     0.211 HD
ENDBRANCH   4  40
BRANCH   4  42
HETATM   42  C9  UNL     1      -0.636  -2.831  -0.789  1.00  0.00     0.209 C 
BRANCH  42  43
HETATM   43  O6  UNL     1      -0.430  -3.295   0.517  1.00  0.00    -0.398 OA
ATOM     44  H6  UNL     1      -0.475  -4.241   0.587  1.00  0.00     0.209 HD
ENDBRANCH  42  43
ENDBRANCH   4  42
TORSDOF 15
