REMARK  14 active torsions:
REMARK  status: ('A' for Active; 'I' for Inactive)
REMARK    1  A    between atoms: N1_1  and  C1_4 
REMARK    2  A    between atoms: C1_4  and  O1_5 
REMARK    3  A    between atoms: C1_4  and  C13_37 
REMARK    4  A    between atoms: O1_5  and  C2_6 
REMARK    5  A    between atoms: C2_6  and  C3_7 
REMARK    6  A    between atoms: C3_7  and  O2_8 
REMARK    7  A    between atoms: C4_10  and  C5_11 
REMARK    8  A    between atoms: C5_11  and  O3_12 
REMARK    9  A    between atoms: C6_15  and  N2_16 
REMARK   10  A    between atoms: C9_21  and  N4_22 
REMARK   11  A    between atoms: C10_27  and  N6_28 
REMARK   12  A    between atoms: C12_34  and  O5_35 
REMARK   13  A    between atoms: C14_40  and  N9_41 
REMARK   14  A    between atoms: N10_44  and  N11_45 
ROOT
HETATM    1  C3  UNL     1      -0.319  -0.829  -0.735  1.00  0.00     0.137 C 
HETATM    2  C4  UNL     1      -0.216  -1.528   0.546  1.00  0.00     0.187 C 
HETATM    3  O4  UNL     1       1.045  -2.171   0.507  1.00  0.00    -0.353 OA
HETATM    4  C6  UNL     1       1.904  -1.348  -0.210  1.00  0.00     0.263 C 
HETATM    5  C12 UNL     1       1.142  -0.203  -0.759  1.00  0.00     0.206 C 
ENDROOT
BRANCH   1   6
HETATM    6  C2  UNL     1      -1.286   0.255  -0.953  1.00  0.00     0.220 C 
BRANCH   6   7
HETATM    7  O1  UNL     1      -2.586   0.046  -1.289  1.00  0.00    -0.330 OA
BRANCH   7   8
HETATM    8  C1  UNL     1      -3.632  -0.578  -0.735  1.00  0.00     0.183 C 
BRANCH   8   9
HETATM    9  N1  UNL     1      -3.548  -1.857  -0.627  1.00  0.00    -0.377 N 
ATOM     10  H12 UNL     1      -2.699  -2.310  -0.966  1.00  0.00     0.158 HD
ATOM     11  H11 UNL     1      -4.345  -2.333  -0.205  1.00  0.00     0.158 HD
ENDBRANCH   8   9
BRANCH   8  12
HETATM   12  C13 UNL     1      -4.867   0.081  -0.242  1.00  0.00     0.188 A 
HETATM   13  N8  UNL     1      -5.893  -0.584   0.306  1.00  0.00    -0.168 N 
HETATM   14  C14 UNL     1      -6.854   0.291   0.638  1.00  0.00     0.713 A 
ATOM     15  H8  UNL     1      -5.936  -1.593   0.448  1.00  0.00     0.186 HD
HETATM   16  N10 UNL     1      -6.438   1.522   0.300  1.00  0.00    -0.025 N 
HETATM   17  N12 UNL     1      -5.228   1.360  -0.232  1.00  0.00    -0.245 N 
ATOM     18  H12 UNL     1      -4.651   2.122  -0.587  1.00  0.00     0.191 HD
BRANCH  14  19
HETATM   19  N9  UNL     1      -7.977  -0.001   1.186  1.00  0.00    -0.231 N 
ATOM     20  H92 UNL     1      -8.293  -0.936   1.443  1.00  0.00     0.174 HD
ATOM     21  H91 UNL     1      -8.708   0.664   1.438  1.00  0.00     0.174 HD
ENDBRANCH  14  19
BRANCH  16  22
HETATM   22  N11 UNL     1      -7.129   2.724   0.471  1.00  0.00    -0.309 N 
ATOM     23 2H11 UNL     1      -8.056   2.848   0.878  1.00  0.00     0.179 HD
ATOM     24 1H11 UNL     1      -6.813   3.659   0.214  1.00  0.00     0.179 HD
ENDBRANCH  16  22
ENDBRANCH   8  12
ENDBRANCH   7   8
ENDBRANCH   6   7
ENDBRANCH   1   6
BRANCH   1  25
HETATM   25  O2  UNL     1      -0.242  -1.690  -1.841  1.00  0.00    -0.382 OA
ATOM     26  H2  UNL     1       0.383  -2.391  -1.700  1.00  0.00     0.210 HD
ENDBRANCH   1  25
BRANCH   2  27
HETATM   27  C5  UNL     1      -0.296  -0.746   1.805  1.00  0.00     0.199 C 
BRANCH  27  28
HETATM   28  O3  UNL     1      -1.467  -0.037   2.011  1.00  0.00    -0.398 OA
ATOM     29  H3  UNL     1      -1.518   0.464   2.817  1.00  0.00     0.209 HD
ENDBRANCH  27  28
ENDBRANCH   2  27
BRANCH   5  30
HETATM   30  O5  UNL     1       1.078   0.937  -0.025  1.00  0.00    -0.388 OA
ATOM     31  H5  UNL     1       1.951   1.311  -0.039  1.00  0.00     0.210 HD
ENDBRANCH   5  30
BRANCH   4  32
HETATM   32  N2  UNL     1       3.101  -1.028   0.516  1.00  0.00    -0.297 N 
HETATM   33  C7  UNL     1       3.406  -1.472   1.738  1.00  0.00     0.188 A 
HETATM   34  N3  UNL     1       4.587  -1.001   2.140  1.00  0.00    -0.346 N 
HETATM   35  C8  UNL     1       5.060  -0.227   1.142  1.00  0.00     0.123 A 
ATOM     36  H3  UNL     1       5.045  -1.190   3.032  1.00  0.00     0.167 HD
HETATM   37  C9  UNL     1       6.235   0.481   1.065  1.00  0.00     0.145 A 
HETATM   38  C11 UNL     1       4.115  -0.252   0.125  1.00  0.00     0.157 A 
HETATM   39  N5  UNL     1       6.468   1.182  -0.063  1.00  0.00    -0.175 N 
HETATM   40  C10 UNL     1       5.561   1.167  -1.054  1.00  0.00     0.679 A 
ATOM     41  H5  UNL     1       7.328   1.721  -0.163  1.00  0.00     0.186 HD
HETATM   42  N7  UNL     1       4.398   0.469  -0.984  1.00  0.00    -0.174 N 
ATOM     43  H7  UNL     1       3.741   0.488  -1.764  1.00  0.00     0.186 HD
BRANCH  37  44
HETATM   44  N4  UNL     1       7.111   0.506   2.004  1.00  0.00    -0.383 N 
ATOM     45  H42 UNL     1       6.935  -0.024   2.857  1.00  0.00     0.157 HD
ATOM     46  H41 UNL     1       7.983   1.032   1.947  1.00  0.00     0.157 HD
ENDBRANCH  37  44
BRANCH  40  47
HETATM   47  N6  UNL     1       5.788   1.842  -2.136  1.00  0.00    -0.234 N 
ATOM     48  H62 UNL     1       6.661   2.366  -2.189  1.00  0.00     0.174 HD
ATOM     49  H61 UNL     1       5.099   1.831  -2.888  1.00  0.00     0.174 HD
ENDBRANCH  40  47
ENDBRANCH   4  32
TORSDOF 14
