REMARK  14 active torsions:
REMARK  status: ('A' for Active; 'I' for Inactive)
REMARK    1  A    between atoms: C3_10  and  O2_11 
REMARK    2  A    between atoms: C4_13  and  O3_14 
REMARK    3  A    between atoms: C5_16  and  C6_17 
REMARK    4  A    between atoms: C6_17  and  O4_18 
REMARK    5  A    between atoms: C6_17  and  C9_25 
REMARK    6  A    between atoms: O4_18  and  C7_19 
REMARK    7  A    between atoms: C7_19  and  O5_20 
REMARK    8  A    between atoms: C7_19  and  C8_22 
REMARK    9  A    between atoms: C8_22  and  O6_23 
REMARK   10  A    between atoms: C9_25  and  O7_26 
REMARK   11  A    between atoms: C9_25  and  C10_28 
REMARK   12  A    between atoms: C10_28  and  O8_29 
REMARK   13  A    between atoms: C10_28  and  O9_31 
REMARK   14  A    between atoms: C11_33  and  O10_34 
ROOT
HETATM    1  O1  UNL     1       4.825  -0.575  -3.264  1.00  0.00    -0.267 OA
HETATM    2  C1  UNL     1       4.888  -0.417  -2.024  1.00  0.00     0.285 C 
HETATM    3  N1  UNL     1       6.222  -0.151  -1.504  1.00  0.00    -0.252 N 
ATOM      4  H1  UNL     1       6.988  -0.279  -2.165  1.00  0.00     0.187 HD
HETATM    5  N2  UNL     1       6.591   0.254  -0.227  1.00  0.00    -0.008 NA
HETATM    6  N3  UNL     1       5.561   1.046   0.297  1.00  0.00     0.005 NA
HETATM    7  N4  UNL     1       4.606   0.267   1.024  1.00  0.00    -0.005 NA
HETATM    8  N5  UNL     1       3.663  -0.078   0.080  1.00  0.00    -0.234 N 
HETATM    9  C2  UNL     1       2.245  -0.114   0.381  1.00  0.00     0.124 A 
HETATM   10  C3  UNL     1       1.574  -0.356   1.562  1.00  0.00     0.131 A 
HETATM   11  C4  UNL     1       0.185  -0.297   1.578  1.00  0.00     0.113 A 
HETATM   12  C5  UNL     1      -0.522   0.006   0.418  1.00  0.00     0.045 A 
HETATM   13  C11 UNL     1       0.171   0.248  -0.745  1.00  0.00     0.113 A 
HETATM   14  C12 UNL     1       1.584   0.184  -0.785  1.00  0.00     0.137 A 
HETATM   15  O11 UNL     1       2.569   0.352  -1.755  1.00  0.00    -0.310 OA
HETATM   16  C13 UNL     1       3.663  -0.528  -1.320  1.00  0.00     0.343 C 
ENDROOT
BRANCH  12  17
HETATM   17  C6  UNL     1      -2.053  -0.142   0.555  1.00  0.00     0.197 C 
BRANCH  17  18
HETATM   18  O4  UNL     1      -2.600  -0.546  -0.510  1.00  0.00    -0.346 OA
BRANCH  18  19
HETATM   19  C7  UNL     1      -3.132  -0.989  -1.540  1.00  0.00     0.281 C 
BRANCH  19  20
HETATM   20  O5  UNL     1      -3.357  -0.259  -2.711  1.00  0.00    -0.369 OA
ATOM     21  H5  UNL     1      -3.764  -0.598  -3.499  1.00  0.00     0.212 HD
ENDBRANCH  19  20
BRANCH  19  22
HETATM   22  C8  UNL     1      -4.662  -1.472  -1.191  1.00  0.00     0.224 C 
BRANCH  22  23
HETATM   23  O6  UNL     1      -5.146  -1.886  -2.407  1.00  0.00    -0.396 OA
ATOM     24  H6  UNL     1      -6.031  -2.165  -2.205  1.00  0.00     0.209 HD
ENDBRANCH  22  23
ENDBRANCH  19  22
ENDBRANCH  18  19
ENDBRANCH  17  18
BRANCH  17  25
HETATM   25  C9  UNL     1      -2.627   1.163   0.988  1.00  0.00     0.206 C 
BRANCH  25  26
HETATM   26  O7  UNL     1      -2.512   2.195   0.071  1.00  0.00    -0.388 OA
ATOM     27  H7  UNL     1      -2.878   3.027   0.347  1.00  0.00     0.210 HD
ENDBRANCH  25  26
BRANCH  25  28
HETATM   28  C10 UNL     1      -4.058   1.086   1.453  1.00  0.00     0.285 C 
BRANCH  28  29
HETATM   29  O8  UNL     1      -4.316   0.028   2.322  1.00  0.00    -0.369 OA
ATOM     30  H8  UNL     1      -5.218  -0.021   2.615  1.00  0.00     0.212 HD
ENDBRANCH  28  29
BRANCH  28  31
HETATM   31  O9  UNL     1      -4.256   2.259   2.240  1.00  0.00    -0.369 OA
ATOM     32  H9  UNL     1      -5.158   2.210   2.533  1.00  0.00     0.212 HD
ENDBRANCH  28  31
ENDBRANCH  25  28
ENDBRANCH  17  25
ENDBRANCH  12  17
BRANCH  11  33
HETATM   33  O3  UNL     1      -0.519  -0.536   2.747  1.00  0.00    -0.357 OA
ATOM     34  H3  UNL     1      -1.468  -0.496   2.758  1.00  0.00     0.217 HD
ENDBRANCH  11  33
BRANCH  13  35
HETATM   35  O10 UNL     1      -0.424   0.561  -1.870  1.00  0.00    -0.357 OA
ATOM     36  H10 UNL     1       0.055   0.728  -2.673  1.00  0.00     0.217 HD
ENDBRANCH  13  35
BRANCH  10  37
HETATM   37  O2  UNL     1       2.202  -0.647   2.738  1.00  0.00    -0.356 OA
ATOM     38  H2  UNL     1       1.740  -0.814   3.551  1.00  0.00     0.218 HD
ENDBRANCH  10  37
TORSDOF 14
