REMARK  12 active torsions:
REMARK  status: ('A' for Active; 'I' for Inactive)
REMARK    1  A    between atoms: C2_10  and  C3_11 
REMARK    2  A    between atoms: C5_17  and  O2_18 
REMARK    3  A    between atoms: O2_18  and  C6_19 
REMARK    4  A    between atoms: C7_20  and  C8_21 
REMARK    5  A    between atoms: C8_21  and  O3_22 
REMARK    6  A    between atoms: C8_21  and  O4_24 
REMARK    7  A    between atoms: C9_26  and  N6_27 
REMARK    8  A    between atoms: C9_26  and  C10_31 
REMARK    9  A    between atoms: C12_35  and  N7_36 
REMARK   10  A    between atoms: N7_36  and  N8_38 
REMARK   11  A    between atoms: C13_44  and  C14_45 
REMARK   12  A    between atoms: C14_45  and  O7_46 
ROOT
HETATM    1  C6  UNL     1       0.051  -0.058   0.301  1.00  0.00     0.095 C 
HETATM    2  C7  UNL     1      -0.686  -0.867   1.026  1.00  0.00     0.053 C 
HETATM    3  C9  UNL     1      -2.079  -0.337   1.148  1.00  0.00     0.253 C 
HETATM    4  C11 UNL     1      -1.967   1.094   0.750  1.00  0.00     0.142 C 
HETATM    5  C12 UNL     1      -3.018   1.578  -0.166  1.00  0.00     0.117 C 
HETATM    6  N9  UNL     1      -2.613   1.500  -1.385  1.00  0.00    -0.290 N 
ATOM      7  H9  UNL     1      -3.166   1.779  -2.195  1.00  0.00     0.183 HD
HETATM    8  N10 UNL     1      -1.311   0.981  -1.454  1.00  0.00    -0.119 NA
HETATM    9  C13 UNL     1      -0.749   1.088  -0.135  1.00  0.00     0.134 C 
ENDROOT
BRANCH   1  10
HETATM   10  O2  UNL     1       1.395  -0.197  -0.043  1.00  0.00    -0.293 OA
BRANCH  10  11
HETATM   11  C5  UNL     1       1.907  -0.900  -1.078  1.00  0.00     0.178 A 
HETATM   12  C3  UNL     1       3.217  -1.061  -1.450  1.00  0.00     0.118 A 
HETATM   13  N4  UNL     1       3.189  -1.868  -2.566  1.00  0.00    -0.347 N 
HETATM   14  C4  UNL     1       1.936  -2.188  -2.867  1.00  0.00     0.183 A 
ATOM     15  H4  UNL     1       4.011  -2.175  -3.086  1.00  0.00     0.167 HD
HETATM   16  N5  UNL     1       1.166  -1.595  -1.956  1.00  0.00    -0.331 N 
ATOM     17  H5  UNL     1       0.148  -1.660  -1.929  1.00  0.00     0.168 HD
BRANCH  12  18
HETATM   18  C2  UNL     1       4.436  -0.548  -0.877  1.00  0.00     0.133 A 
HETATM   19  C1  UNL     1       4.626   0.247   0.204  1.00  0.00     0.152 A 
HETATM   20  N1  UNL     1       3.800   0.767   1.018  1.00  0.00    -0.382 N 
HETATM   21  N2  UNL     1       5.972   0.449   0.332  1.00  0.00    -0.224 N 
ATOM     22  H12 UNL     1       3.943   1.365   1.832  1.00  0.00     0.157 HD
ATOM     23  H11 UNL     1       2.796   0.616   0.922  1.00  0.00     0.157 HD
HETATM   24  O1  UNL     1       6.555  -0.199  -0.633  1.00  0.00    -0.155 OA
ATOM     25  H2  UNL     1       6.434   1.005   1.052  1.00  0.00     0.198 HD
HETATM   26  N3  UNL     1       5.666  -0.797  -1.361  1.00  0.00    -0.236 N 
ATOM     27  H3  UNL     1       5.869  -1.371  -2.179  1.00  0.00     0.197 HD
ENDBRANCH  12  18
ENDBRANCH  10  11
ENDBRANCH   1  10
BRANCH   2  28
HETATM   28  C8  UNL     1      -0.253  -2.143   1.661  1.00  0.00     0.290 C 
BRANCH  28  29
HETATM   29  O3  UNL     1      -0.967  -3.197   1.100  1.00  0.00    -0.367 OA
ATOM     30  H3  UNL     1      -0.691  -4.011   1.505  1.00  0.00     0.213 HD
ENDBRANCH  28  29
BRANCH  28  31
HETATM   31  O4  UNL     1       1.090  -2.371   1.489  1.00  0.00    -0.367 OA
ATOM     32  H4  UNL     1       1.366  -3.185   1.894  1.00  0.00     0.213 HD
ENDBRANCH  28  31
ENDBRANCH   2  28
BRANCH   9  33
HETATM   33  C14 UNL     1       0.031   2.396   0.018  1.00  0.00     0.201 C 
BRANCH  33  34
HETATM   34  O7  UNL     1       1.046   2.388  -0.928  1.00  0.00    -0.398 OA
ATOM     35  H7  UNL     1       1.530   3.200  -0.833  1.00  0.00     0.209 HD
ENDBRANCH  33  34
ENDBRANCH   9  33
BRANCH   3  36
HETATM   36  N6  UNL     1      -2.383  -0.452   2.593  1.00  0.00    -0.055 N 
ATOM     37  H63 UNL     1      -2.257  -1.390   2.974  1.00  0.00     0.276 HD
ATOM     38  H62 UNL     1      -1.705   0.007   3.201  1.00  0.00     0.276 HD
ATOM     39  H61 UNL     1      -3.333  -0.090   2.676  1.00  0.00     0.276 HD
ENDBRANCH   3  36
BRANCH   3  40
HETATM   40  C10 UNL     1      -3.050  -1.145   0.415  1.00  0.00     0.216 C 
HETATM   41  O5  UNL     1      -3.995  -1.693   1.080  1.00  0.00    -0.646 OA
HETATM   42  O6  UNL     1      -3.076  -1.397  -0.936  1.00  0.00    -0.646 OA
ENDBRANCH   3  40
BRANCH   5  43
HETATM   43  N7  UNL     1      -4.285   2.054   0.286  1.00  0.00    -0.294 N 
ATOM     44  H7  UNL     1      -4.677   1.698   1.158  1.00  0.00     0.187 HD
BRANCH  43  45
HETATM   45  N8  UNL     1      -5.001   3.014  -0.464  1.00  0.00    -0.344 N 
ATOM     46  H82 UNL     1      -4.595   3.359  -1.334  1.00  0.00     0.176 HD
ATOM     47  H81 UNL     1      -5.907   3.354  -0.141  1.00  0.00     0.176 HD
ENDBRANCH  43  45
ENDBRANCH   5  43
TORSDOF 12
