REMARK  0 active torsions:
REMARK  status: ('A' for Active; 'I' for Inactive)
ROOT
HETATM    1  C1  UNL     1       4.455  -0.292   0.645  1.00  0.00     0.067 C 
HETATM    2  C2  UNL     1       3.112  -0.657   0.131  1.00  0.00     0.027 C 
HETATM    3  N1  UNL     1       2.686  -1.867   0.012  1.00  0.00    -0.273 N 
ATOM      4  H1  UNL     1       3.227  -2.696   0.258  1.00  0.00     0.193 HD
HETATM    5  O1  UNL     1       1.397  -1.895  -0.494  1.00  0.00    -0.267 OA
HETATM    6  C3  UNL     1       0.854  -0.622  -0.249  1.00  0.00     0.120 A 
HETATM    7  C4  UNL     1       0.099  -0.551   1.084  1.00  0.00     0.058 A 
HETATM    8  C5  UNL     1      -0.539  -0.305  -0.230  1.00  0.00     0.019 A 
HETATM    9  C6  UNL     1      -1.474  -1.418  -0.733  1.00  0.00     0.015 C 
HETATM   10  C7  UNL     1      -2.750  -1.457   0.032  1.00  0.00     0.001 C 
HETATM   11  C8  UNL     1      -2.963  -0.152   0.750  1.00  0.00     0.002 C 
HETATM   12  C9  UNL     1      -2.642   0.967  -0.215  1.00  0.00     0.026 C 
HETATM   13  C10 UNL     1      -1.165   0.984  -0.590  1.00  0.00     0.044 C 
HETATM   14  C11 UNL     1      -0.552   2.201   0.001  1.00  0.00     0.033 C 
HETATM   15 CL1  UNL     1      -1.126   1.177  -2.378  1.00  0.00    -0.119 Cl
HETATM   16  C12 UNL     1       2.024   0.260  -0.335  1.00  0.00     0.177 C 
HETATM   17  C13 UNL     1       2.368   0.619  -1.715  1.00  0.00     0.073 C 
HETATM   18  N2  UNL     1       2.659   0.907  -2.801  1.00  0.00    -0.196 NA
ENDROOT
TORSDOF 0
