REMARK  0 active torsions:
REMARK  status: ('A' for Active; 'I' for Inactive)
ROOT
HETATM    1  C1  UNL     1      -0.952   2.432  -0.639  1.00  0.00     0.043 C 
HETATM    2  C2  UNL     1      -0.587   1.220  -1.399  1.00  0.00     0.158 C 
HETATM    3  O1  UNL     1      -1.623   0.736  -2.180  1.00  0.00    -0.274 OA
HETATM    4  N1  UNL     1      -2.534  -0.104  -1.597  1.00  0.00    -0.258 N 
ATOM      5  H1  UNL     1      -3.447  -0.226  -2.035  1.00  0.00     0.195 HD
HETATM    6  C3  UNL     1      -2.274  -0.733  -0.531  1.00  0.00     0.110 C 
HETATM    7 CL1  UNL     1      -3.562  -1.782   0.096  1.00  0.00    -0.067 Cl
HETATM    8  C4  UNL     1      -0.964  -0.648   0.224  1.00  0.00     0.019 C 
HETATM    9  C5  UNL     1      -1.324  -0.060   1.576  1.00  0.00     0.023 C 
HETATM   10  C6  UNL     1      -0.626  -2.101   0.451  1.00  0.00     0.023 C 
HETATM   11  C7  UNL     1       0.049   0.120  -0.528  1.00  0.00     0.010 C 
HETATM   12  C8  UNL     1       1.059   0.868   0.264  1.00  0.00     0.015 C 
HETATM   13  C9  UNL     1       1.893   0.098   1.207  1.00  0.00     0.011 C 
HETATM   14  C10 UNL     1       3.026  -0.601   0.448  1.00  0.00     0.074 C 
HETATM   15  S1  UNL     1       2.349  -1.364  -1.008  1.00  0.00    -0.168 SA
HETATM   16  C11 UNL     1       0.747  -0.789  -1.506  1.00  0.00     0.087 C 
ENDROOT
TORSDOF 0
