REMARK  0 active torsions:
REMARK  status: ('A' for Active; 'I' for Inactive)
ROOT
HETATM    1  C1  UNL     1       3.002  -1.283   0.131  1.00  0.00     0.028 C 
HETATM    2  C2  UNL     1       2.389  -0.023  -0.472  1.00  0.00     0.040 C 
HETATM    3  C3  UNL     1       3.553   0.645  -1.232  1.00  0.00     0.028 C 
HETATM    4  C4  UNL     1       2.001   0.942   0.575  1.00  0.00    -0.011 C 
HETATM    5  C5  UNL     1       0.751   1.080   0.921  1.00  0.00     0.001 C 
HETATM    6  C6  UNL     1      -0.317   0.287   0.288  1.00  0.00     0.052 C 
HETATM    7  C7  UNL     1      -0.620  -0.879   1.182  1.00  0.00     0.035 C 
HETATM    8  C8  UNL     1      -2.061  -1.282   1.204  1.00  0.00     0.006 C 
HETATM    9  C9  UNL     1      -2.815  -0.904  -0.040  1.00  0.00     0.040 C 
HETATM   10  C10 UNL     1      -2.741   0.565  -0.322  1.00  0.00     0.140 C 
HETATM   11  C11 UNL     1      -3.904   1.206   0.340  1.00  0.00     0.084 C 
HETATM   12  N1  UNL     1      -4.812   1.701   0.859  1.00  0.00    -0.195 NA
HETATM   13  C12 UNL     1      -2.872   0.743  -1.789  1.00  0.00     0.084 C 
HETATM   14  N2  UNL     1      -2.969   0.896  -2.931  1.00  0.00    -0.195 NA
HETATM   15  C13 UNL     1      -1.493   1.225   0.124  1.00  0.00     0.075 C 
HETATM   16  N3  UNL     1       0.098  -0.202  -0.985  1.00  0.00    -0.357 N 
ATOM     17  H3  UNL     1      -0.641  -0.449  -1.644  1.00  0.00     0.162 HD
HETATM   18  C14 UNL     1       1.293  -0.362  -1.383  1.00  0.00     0.173 C 
HETATM   19  F1  UNL     1       1.545  -0.838  -2.623  1.00  0.00    -0.190 F 
ENDROOT
TORSDOF 0
