REMARK  0 active torsions:
REMARK  status: ('A' for Active; 'I' for Inactive)
ROOT
HETATM    1 CL1  UNL     1       0.102  -1.152  -2.590  1.00  0.00    -0.116 Cl
HETATM    2  C1  UNL     1       0.393  -1.304  -0.850  1.00  0.00     0.161 C 
HETATM    3  C2  UNL     1       1.669  -0.652  -0.490  1.00  0.00     0.106 C 
HETATM    4  C3  UNL     1       1.728  -0.126   0.710  1.00  0.00     0.137 C 
HETATM    5  O1  UNL     1       2.858   0.506   1.172  1.00  0.00    -0.340 OA
HETATM    6  C4  UNL     1       4.003   0.819   0.406  1.00  0.00     0.203 C 
HETATM    7  C5  UNL     1       3.711   0.609  -1.068  1.00  0.00     0.202 C 
HETATM    8  O2  UNL     1       2.862  -0.502  -1.250  1.00  0.00    -0.348 OA
HETATM    9  S1  UNL     1       0.107  -0.429   1.486  1.00  0.00    -0.091 SA
HETATM   10  C6  UNL     1      -0.747  -0.645  -0.142  1.00  0.00     0.037 C 
HETATM   11  C7  UNL     1      -1.919  -1.522   0.108  1.00  0.00     0.023 C 
HETATM   12  C8  UNL     1      -2.774  -0.830   1.173  1.00  0.00     0.002 C 
HETATM   13  C9  UNL     1      -3.124   0.574   0.758  1.00  0.00     0.000 C 
HETATM   14  C10 UNL     1      -1.932   1.406   0.392  1.00  0.00     0.002 C 
HETATM   15  C11 UNL     1      -1.170   0.660  -0.712  1.00  0.00     0.023 C 
ENDROOT
TORSDOF 0
