REMARK  7 active torsions:
REMARK  status: ('A' for Active; 'I' for Inactive)
REMARK    1  A    between atoms: C2_2  and  C3_3 
REMARK    2  A    between atoms: C4_4  and  O1_5 
REMARK    3  A    between atoms: C6_7  and  O2_8 
REMARK    4  A    between atoms: C8_10  and  O3_11 
REMARK    5  A    between atoms: C17_21  and  C18_22 
REMARK    6  A    between atoms: C21_25  and  O4_26 
REMARK    7  A    between atoms: C22_28  and  O5_29 
ROOT
HETATM    1  C3  UNL     1      -2.585   0.640  -0.378  1.00  0.00     0.014 A 
HETATM    2  C4  UNL     1      -3.218  -0.494   0.165  1.00  0.00     0.115 A 
HETATM    3  C6  UNL     1      -2.413  -1.459   0.672  1.00  0.00     0.137 A 
HETATM    4  C8  UNL     1      -1.025  -1.342   0.659  1.00  0.00     0.116 A 
HETATM    5  C10 UNL     1      -0.405  -0.243   0.131  1.00  0.00     0.026 A 
HETATM    6  C11 UNL     1      -1.215   0.768  -0.397  1.00  0.00     0.033 A 
HETATM    7  C12 UNL     1      -0.363   1.870  -0.914  1.00  0.00     0.131 A 
HETATM    8  N1  UNL     1      -0.763   2.896  -1.367  1.00  0.00    -0.427 NA
HETATM    9  C13 UNL     1      -1.221   4.030  -1.868  1.00  0.00     0.229 C 
HETATM   10  C14 UNL     1       1.039   1.410  -0.642  1.00  0.00     0.053 A 
HETATM   11  C15 UNL     1       0.979   0.190  -0.037  1.00  0.00    -0.005 A 
HETATM   12  C16 UNL     1       2.124  -0.457   0.343  1.00  0.00     0.028 A 
HETATM   13  C17 UNL     1       3.396   0.102   0.130  1.00  0.00     0.002 A 
HETATM   14  C21 UNL     1       3.406   1.324  -0.482  1.00  0.00     0.110 A 
HETATM   15  C22 UNL     1       2.240   2.005  -0.881  1.00  0.00     0.114 A 
ENDROOT
BRANCH   1  16
HETATM   16  C2  UNL     1      -3.429   1.712  -0.920  1.00  0.00     0.005 C 
HETATM   17  C1  UNL     1      -4.297   2.239  -0.055  1.00  0.00     0.012 C 
ENDBRANCH   1  16
BRANCH  15  18
HETATM   18  O5  UNL     1       2.358   3.226  -1.488  1.00  0.00    -0.357 OA
ATOM     19  H5  UNL     1       3.196   3.641  -1.655  1.00  0.00     0.217 HD
ENDBRANCH  15  18
BRANCH   2  20
HETATM   20  O1  UNL     1      -4.587  -0.528   0.137  1.00  0.00    -0.352 OA
HETATM   21  C5  UNL     1      -5.345  -1.054  -0.924  1.00  0.00     0.210 C 
ENDBRANCH   2  20
BRANCH   4  22
HETATM   22  O3  UNL     1      -0.317  -2.382   1.200  1.00  0.00    -0.352 OA
HETATM   23  C9  UNL     1      -0.039  -2.448   2.605  1.00  0.00     0.210 C 
ENDBRANCH   4  22
BRANCH  14  24
HETATM   24  O4  UNL     1       4.600   1.956  -0.742  1.00  0.00    -0.357 OA
ATOM     25  H4  UNL     1       4.607   2.805  -1.167  1.00  0.00     0.217 HD
ENDBRANCH  14  24
BRANCH   3  26
HETATM   26  O2  UNL     1      -2.953  -2.608   1.227  1.00  0.00    -0.351 OA
HETATM   27  C7  UNL     1      -3.143  -3.736   0.395  1.00  0.00     0.210 C 
ENDBRANCH   3  26
BRANCH  13  28
HETATM   28  C18 UNL     1       4.567  -0.589   0.671  1.00  0.00    -0.074 C 
HETATM   29  C19 UNL     1       4.485  -2.041   0.885  1.00  0.00     0.044 C 
HETATM   30  C20 UNL     1       5.914  -0.094   0.276  1.00  0.00     0.044 C 
ENDBRANCH  13  28
TORSDOF 7
