REMARK  7 active torsions:
REMARK  status: ('A' for Active; 'I' for Inactive)
REMARK    1  A    between atoms: C2_2  and  C3_3 
REMARK    2  A    between atoms: C3_3  and  C4_4 
REMARK    3  A    between atoms: C4_4  and  C5_5 
REMARK    4  A    between atoms: C5_5  and  C6_6 
REMARK    5  A    between atoms: C6_6  and  C7_7 
REMARK    6  A    between atoms: C7_7  and  O1_8 
REMARK    7  A    between atoms: N1_12  and  O2_14 
ROOT
HETATM    1  C7  UNL     1       1.090   0.217   0.310  1.00  0.00     0.065 C 
HETATM    2  C8  UNL     1       0.937   1.740   0.385  1.00  0.00     0.092 C 
HETATM    3  C9  UNL     1      -0.319   2.085  -0.401  1.00  0.00     0.019 C 
HETATM    4  N1  UNL     1      -0.354   3.058  -1.179  1.00  0.00    -0.277 N 
ATOM      5  H1  UNL     1       0.514   3.591  -1.239  1.00  0.00     0.193 HD
HETATM    6  C10 UNL     1      -1.431   1.159  -0.161  1.00  0.00     0.063 C 
HETATM    7  C11 UNL     1      -2.793   1.605  -0.534  1.00  0.00     0.018 C 
HETATM    8  C12 UNL     1      -3.812   1.035   0.475  1.00  0.00     0.045 C 
HETATM    9  C13 UNL     1      -4.090  -0.363   0.088  1.00  0.00     0.012 A 
HETATM   10  C14 UNL     1      -3.179  -1.333  -0.315  1.00  0.00     0.078 A 
HETATM   11  C15 UNL     1      -3.691  -2.579  -0.615  1.00  0.00     0.040 A 
HETATM   12  C16 UNL     1      -5.040  -2.847  -0.519  1.00  0.00     0.042 A 
HETATM   13  C17 UNL     1      -5.943  -1.886  -0.120  1.00  0.00     0.105 A 
HETATM   14  C18 UNL     1      -5.453  -0.635   0.184  1.00  0.00     0.114 A 
HETATM   15  O3  UNL     1      -6.559   0.125   0.550  1.00  0.00    -0.322 OA
HETATM   16  C19 UNL     1      -7.720  -0.514   0.051  1.00  0.00     0.352 C 
HETATM   17  O4  UNL     1      -7.331  -1.874   0.062  1.00  0.00    -0.323 OA
HETATM   18  O5  UNL     1      -1.793  -1.220  -0.461  1.00  0.00    -0.344 OA
HETATM   19  C20 UNL     1      -1.076  -0.104  -0.927  1.00  0.00     0.141 C 
HETATM   20  C21 UNL     1       0.410  -0.373  -0.885  1.00  0.00     0.071 C 
ENDROOT
BRANCH   1  21
HETATM   21  C6  UNL     1       2.548  -0.173   0.339  1.00  0.00     0.038 C 
BRANCH  21  22
HETATM   22  C5  UNL     1       3.362   0.350  -0.786  1.00  0.00     0.003 C 
BRANCH  22  23
HETATM   23  C4  UNL     1       4.782  -0.134  -0.631  1.00  0.00     0.000 C 
BRANCH  23  24
HETATM   24  C3  UNL     1       5.425   0.314   0.637  1.00  0.00    -0.000 C 
BRANCH  24  25
HETATM   25  C2  UNL     1       6.855  -0.176   0.761  1.00  0.00    -0.005 C 
HETATM   26  C1  UNL     1       6.928  -1.683   0.740  1.00  0.00     0.005 C 
ENDBRANCH  24  25
ENDBRANCH  23  24
ENDBRANCH  22  23
ENDBRANCH  21  22
ENDBRANCH   1  21
BRANCH   1  27
HETATM   27  O1  UNL     1       0.527  -0.389   1.455  1.00  0.00    -0.389 OA
ATOM     28  H1  UNL     1      -0.391  -0.144   1.437  1.00  0.00     0.210 HD
ENDBRANCH   1  27
BRANCH   4  29
HETATM   29  O2  UNL     1      -1.355   3.518  -1.953  1.00  0.00    -0.290 OA
ATOM     30  H2  UNL     1      -1.382   4.260  -2.546  1.00  0.00     0.244 HD
ENDBRANCH   4  29
TORSDOF 7
