REMARK  7 active torsions:
REMARK  status: ('A' for Active; 'I' for Inactive)
REMARK    1  A    between atoms: C4_4  and  C5_5 
REMARK    2  A    between atoms: C9_9  and  O1_10 
REMARK    3  A    between atoms: C11_12  and  O2_13 
REMARK    4  A    between atoms: O2_13  and  C12_14 
REMARK    5  A    between atoms: C18_21  and  O4_22 
REMARK    6  A    between atoms: N1_24  and  C19_25 
REMARK    7  A    between atoms: C22_28  and  O5_29 
ROOT
HETATM    1  C1  UNL     1       1.200  -1.009  -1.994  1.00  0.00     0.025 C 
HETATM    2  C2  UNL     1       1.880  -0.475  -1.019  1.00  0.00    -0.019 A 
HETATM    3  C3  UNL     1       1.614   0.042   0.311  1.00  0.00    -0.007 A 
HETATM    4  C4  UNL     1       0.664   0.229   1.187  1.00  0.00     0.050 C 
HETATM    5  C16 UNL     1       3.073   0.337   0.341  1.00  0.00     0.042 A 
HETATM    6  C17 UNL     1       3.315  -0.149  -0.909  1.00  0.00     0.041 A 
HETATM    7  C18 UNL     1       4.662   0.010  -1.152  1.00  0.00     0.157 A 
HETATM    8  N1  UNL     1       5.207   0.574  -0.076  1.00  0.00    -0.303 N 
HETATM    9  C22 UNL     1       4.273   0.781   0.837  1.00  0.00     0.157 A 
ENDROOT
BRANCH   4  10
HETATM   10  C5  UNL     1      -0.721  -0.128   0.997  1.00  0.00     0.077 A 
HETATM   11  C6  UNL     1      -1.325  -1.313   0.605  1.00  0.00     0.051 A 
HETATM   12  C7  UNL     1      -2.678  -1.068   0.594  1.00  0.00     0.003 A 
HETATM   13  C8  UNL     1      -3.803  -1.856   0.291  1.00  0.00     0.054 A 
HETATM   14  C15 UNL     1      -2.870   0.241   0.972  1.00  0.00     0.089 A 
HETATM   15  C9  UNL     1      -5.083  -1.378   0.354  1.00  0.00     0.102 A 
HETATM   16  C11 UNL     1      -5.240  -0.029   0.743  1.00  0.00     0.104 A 
HETATM   17  C14 UNL     1      -4.165   0.775   1.049  1.00  0.00     0.077 A 
HETATM   18  O3  UNL     1      -1.713   0.750   1.197  1.00  0.00    -0.310 OA
BRANCH  15  19
HETATM   19  O1  UNL     1      -6.186  -2.123   0.068  1.00  0.00    -0.353 OA
HETATM   20  C10 UNL     1      -6.237  -3.447  -0.321  1.00  0.00     0.210 C 
ENDBRANCH  15  19
BRANCH  16  21
HETATM   21  O2  UNL     1      -6.512   0.428   0.792  1.00  0.00    -0.349 OA
BRANCH  21  22
HETATM   22  C12 UNL     1      -6.899   1.712   1.098  1.00  0.00     0.171 C 
HETATM   23  C13 UNL     1      -6.460   2.767   0.144  1.00  0.00     0.034 C 
ENDBRANCH  21  22
ENDBRANCH  16  21
ENDBRANCH   4  10
BRANCH   9  24
HETATM   24  O5  UNL     1       4.440   1.360   2.120  1.00  0.00    -0.345 OA
ATOM     25  H5  UNL     1       5.271   1.667   2.463  1.00  0.00     0.219 HD
ENDBRANCH   9  24
BRANCH   7  26
HETATM   26  O4  UNL     1       5.270  -0.380  -2.345  1.00  0.00    -0.345 OA
ATOM     27  H4  UNL     1       6.199  -0.270  -2.513  1.00  0.00     0.219 HD
ENDBRANCH   7  26
BRANCH   8  28
HETATM   28  C19 UNL     1       6.604   0.908   0.060  1.00  0.00     0.086 C 
HETATM   29  C20 UNL     1       7.463   0.365  -1.043  1.00  0.00     0.032 C 
HETATM   30  C21 UNL     1       7.173   0.427   1.377  1.00  0.00     0.032 C 
ENDBRANCH   8  28
TORSDOF 7
