REMARK  6 active torsions:
REMARK  status: ('A' for Active; 'I' for Inactive)
REMARK    1  A    between atoms: C4_6  and  C5_7 
REMARK    2  A    between atoms: C11_15  and  C12_16 
REMARK    3  A    between atoms: C13_19  and  C14_20 
REMARK    4  A    between atoms: C14_20  and  N4_21 
REMARK    5  A    between atoms: N4_21  and  C15_24 
REMARK    6  A    between atoms: C19_28  and  O1_29 
ROOT
HETATM    1  C12 UNL     1       0.681  -0.121  -0.470  1.00  0.00     0.103 A 
HETATM    2  N3  UNL     1      -0.563   0.256  -0.611  1.00  0.00    -0.350 N 
ATOM      3  H3  UNL     1      -0.774   1.221  -0.867  1.00  0.00     0.166 HD
HETATM    4  C13 UNL     1      -1.538  -0.593  -0.426  1.00  0.00     0.042 A 
HETATM    5  C21 UNL     1      -1.184  -1.875  -0.082  1.00  0.00     0.078 A 
HETATM    6  S1  UNL     1       0.520  -1.769  -0.050  1.00  0.00    -0.080 SA
ENDROOT
BRANCH   1   7
HETATM    7  C11 UNL     1       1.946   0.629  -0.622  1.00  0.00     0.089 A 
HETATM    8  C2  UNL     1       1.874   1.945  -0.969  1.00  0.00     0.035 A 
HETATM    9  C1  UNL     1       0.590   2.640  -1.196  1.00  0.00     0.070 C 
HETATM   10  N1  UNL     1       3.068   2.601  -1.101  1.00  0.00    -0.366 N 
HETATM   11  C3  UNL     1       4.230   1.957  -0.892  1.00  0.00     0.113 A 
ATOM     12  H1  UNL     1       3.077   3.587  -1.360  1.00  0.00     0.165 HD
HETATM   13  C4  UNL     1       4.286   0.624  -0.541  1.00  0.00     0.029 A 
HETATM   14  N2  UNL     1       3.124  -0.031  -0.409  1.00  0.00    -0.354 N 
ATOM     15  H2  UNL     1       3.119  -1.018  -0.151  1.00  0.00     0.166 HD
BRANCH  13  16
HETATM   16  C5  UNL     1       5.592  -0.037  -0.325  1.00  0.00     0.037 C 
HETATM   17  C6  UNL     1       5.789  -1.255  -1.183  1.00  0.00     0.011 C 
HETATM   18  C7  UNL     1       7.178  -1.793  -0.909  1.00  0.00     0.001 C 
HETATM   19  C8  UNL     1       7.948  -0.950   0.074  1.00  0.00     0.000 C 
HETATM   20  C9  UNL     1       7.204  -0.725   1.361  1.00  0.00     0.001 C 
HETATM   21  C10 UNL     1       5.722  -0.465   1.115  1.00  0.00     0.011 C 
ENDBRANCH  13  16
ENDBRANCH   1   7
BRANCH   4  22
HETATM   22  C14 UNL     1      -3.021  -0.246  -0.566  1.00  0.00     0.289 C 
BRANCH  22  23
HETATM   23  N4  UNL     1      -3.583   0.053   0.715  1.00  0.00    -0.066 N 
ATOM     24  H42 UNL     1      -3.442  -0.699   1.389  1.00  0.00     0.278 HD
ATOM     25  H41 UNL     1      -3.067   0.781   1.208  1.00  0.00     0.278 HD
BRANCH  23  26
HETATM   26  C15 UNL     1      -4.978   0.385   0.538  1.00  0.00     0.188 C 
HETATM   27  C16 UNL     1      -5.639   0.562   1.898  1.00  0.00     0.033 C 
HETATM   28  C17 UNL     1      -7.040   1.078   1.702  1.00  0.00     0.004 C 
HETATM   29  C18 UNL     1      -7.637   0.696   0.382  1.00  0.00     0.032 C 
HETATM   30  C19 UNL     1      -7.171  -0.689  -0.018  1.00  0.00     0.120 C 
HETATM   31  C20 UNL     1      -5.676  -0.713  -0.207  1.00  0.00     0.064 C 
BRANCH  30  32
HETATM   32  O1  UNL     1      -7.565  -1.573   1.003  1.00  0.00    -0.396 OA
ATOM     33  H1  UNL     1      -7.273  -2.441   0.752  1.00  0.00     0.210 HD
ENDBRANCH  30  32
ENDBRANCH  23  26
ENDBRANCH  22  23
ENDBRANCH   4  22
TORSDOF 6
