REMARK  7 active torsions:
REMARK  status: ('A' for Active; 'I' for Inactive)
REMARK    1  A    between atoms: O1_2  and  C2_3 
REMARK    2  A    between atoms: C2_3  and  C3_5 
REMARK    3  A    between atoms: C6_10  and  C7_11 
REMARK    4  A    between atoms: C8_14  and  C9_15 
REMARK    5  A    between atoms: C13_20  and  O5_21 
REMARK    6  A    between atoms: O5_21  and  C14_22 
REMARK    7  A    between atoms: C21_29  and  O6_30 
ROOT
HETATM    1  C9  UNL     1      -0.562   0.333   0.118  1.00  0.00     0.081 C 
HETATM    2  C10 UNL     1      -0.630   1.576   0.991  1.00  0.00     0.074 C 
HETATM    3  N2  UNL     1      -0.600   2.554   1.661  1.00  0.00    -0.196 NA
HETATM    4  C11 UNL     1       0.242   0.876  -1.036  1.00  0.00     0.032 C 
HETATM    5  C12 UNL     1       1.687   1.118  -0.819  1.00  0.00     0.034 C 
HETATM    6  C13 UNL     1       2.395   0.153   0.100  1.00  0.00     0.122 C 
HETATM    7  C19 UNL     1       1.537   0.042   1.356  1.00  0.00     0.034 C 
HETATM    8  C20 UNL     1       0.191  -0.581   1.008  1.00  0.00     0.032 C 
ENDROOT
BRANCH   1   9
HETATM    9  C8  UNL     1      -1.911  -0.079  -0.215  1.00  0.00     0.032 A 
HETATM   10  C6  UNL     1      -2.155  -1.078  -1.141  1.00  0.00     0.120 A 
HETATM   11  N1  UNL     1      -3.463  -1.373  -1.452  1.00  0.00    -0.353 N 
HETATM   12  C4  UNL     1      -4.546  -0.799  -0.954  1.00  0.00     0.025 A 
ATOM     13  H1  UNL     1      -3.613  -2.112  -2.139  1.00  0.00     0.166 HD
HETATM   14  C3  UNL     1      -4.349   0.206  -0.018  1.00  0.00     0.095 A 
HETATM   15  C5  UNL     1      -5.898  -1.253  -1.415  1.00  0.00     0.069 C 
HETATM   16  C21 UNL     1      -3.049   0.555   0.342  1.00  0.00     0.094 A 
BRANCH  10  17
HETATM   17  C7  UNL     1      -1.196  -1.886  -1.803  1.00  0.00     0.227 C 
HETATM   18  O3  UNL     1      -1.697  -2.732  -2.667  1.00  0.00    -0.643 OA
HETATM   19  O4  UNL     1       0.127  -1.985  -1.739  1.00  0.00    -0.643 OA
ENDBRANCH  10  17
BRANCH  14  20
HETATM   20  C2  UNL     1      -5.497   0.866   0.557  1.00  0.00     0.297 C 
HETATM   21  O2  UNL     1      -5.458   1.780   1.400  1.00  0.00    -0.259 OA
BRANCH  20  22
HETATM   22  O1  UNL     1      -6.800   0.503   0.184  1.00  0.00    -0.322 OA
HETATM   23  C1  UNL     1      -7.948   1.111   0.710  1.00  0.00     0.213 C 
ENDBRANCH  20  22
ENDBRANCH  14  20
BRANCH  16  24
HETATM   24  O6  UNL     1      -2.913   1.531   1.257  1.00  0.00    -0.359 OA
ATOM     25  H6  UNL     1      -2.027   1.769   1.502  1.00  0.00     0.217 HD
ENDBRANCH  16  24
ENDBRANCH   1   9
BRANCH   6  26
HETATM   26  O5  UNL     1       3.643   0.645   0.360  1.00  0.00    -0.381 OA
BRANCH  26  27
HETATM   27  C14 UNL     1       4.684  -0.196   0.011  1.00  0.00     0.122 C 
HETATM   28  C15 UNL     1       5.529  -0.642   1.149  1.00  0.00     0.032 C 
HETATM   29  C16 UNL     1       6.890  -0.885   0.529  1.00  0.00     0.002 C 
HETATM   30  C17 UNL     1       6.991   0.203  -0.520  1.00  0.00     0.002 C 
HETATM   31  C18 UNL     1       5.566   0.363  -1.061  1.00  0.00     0.032 C 
ENDBRANCH  26  27
ENDBRANCH   6  26
TORSDOF 7
