REMARK  7 active torsions:
REMARK  status: ('A' for Active; 'I' for Inactive)
REMARK    1  A    between atoms: C2_2  and  O1_3 
REMARK    2  A    between atoms: O1_3  and  C3_4 
REMARK    3  A    between atoms: C3_4  and  C4_5 
REMARK    4  A    between atoms: C4_5  and  N1_6 
REMARK    5  A    between atoms: C15_20  and  C16_21 
REMARK    6  A    between atoms: C16_21  and  O2_22 
REMARK    7  A    between atoms: N4_24  and  O3_26 
ROOT
HETATM    1  N1  UNL     1       1.124  -0.292   1.189  1.00  0.00    -0.379 N 
HETATM    2  C5  UNL     1       0.443  -0.379   2.421  1.00  0.00     0.129 C 
HETATM    3  C6  UNL     1      -0.471  -1.584   2.501  1.00  0.00     0.077 C 
HETATM    4  C7  UNL     1      -1.305  -1.669   1.238  1.00  0.00     0.021 A 
HETATM    5  N2  UNL     1      -2.550  -2.252   1.344  1.00  0.00    -0.349 N 
ATOM      6  H2  UNL     1      -2.914  -2.622   2.222  1.00  0.00     0.166 HD
HETATM    7  C8  UNL     1      -3.260  -2.292   0.164  1.00  0.00     0.131 A 
HETATM    8  C9  UNL     1      -4.585  -2.858   0.094  1.00  0.00     0.119 C 
HETATM    9  N3  UNL     1      -5.648  -3.309   0.017  1.00  0.00    -0.190 NA
HETATM   10  C10 UNL     1      -2.739  -1.800  -0.954  1.00  0.00     0.045 A 
HETATM   11  C11 UNL     1      -1.501  -1.237  -1.081  1.00  0.00    -0.028 A 
HETATM   12  C12 UNL     1      -0.790  -1.175   0.091  1.00  0.00    -0.001 A 
HETATM   13  C13 UNL     1       0.403  -0.292  -0.020  1.00  0.00     0.143 C 
HETATM   14  C14 UNL     1      -0.044   1.038  -0.539  1.00  0.00     0.018 C 
HETATM   15  C15 UNL     1      -1.350   1.570  -0.725  1.00  0.00     0.012 C 
HETATM   16  C17 UNL     1      -2.641   1.046  -1.135  1.00  0.00     0.004 C 
HETATM   17  C18 UNL     1      -2.987   0.497  -2.441  1.00  0.00     0.076 C 
HETATM   18  C19 UNL     1      -1.650   0.191  -3.162  1.00  0.00     0.024 C 
HETATM   19  C20 UNL     1      -0.956  -0.898  -2.430  1.00  0.00     0.042 C 
HETATM   20  S1  UNL     1      -3.734  -1.232  -2.412  1.00  0.00    -0.118 SA
ENDROOT
BRANCH   1  21
HETATM   21  C4  UNL     1       2.384   0.314   1.279  1.00  0.00     0.085 C 
BRANCH  21  22
HETATM   22  C3  UNL     1       3.211   0.367   0.017  1.00  0.00     0.211 C 
BRANCH  22  23
HETATM   23  O1  UNL     1       3.494  -0.872  -0.518  1.00  0.00    -0.387 OA
BRANCH  23  24
HETATM   24  C2  UNL     1       4.208  -1.680   0.353  1.00  0.00     0.163 C 
HETATM   25  C1  UNL     1       5.524  -1.022   0.728  1.00  0.00     0.033 C 
ENDBRANCH  23  24
ENDBRANCH  22  23
ENDBRANCH  21  22
ENDBRANCH   1  21
BRANCH  15  26
HETATM   26  C16 UNL     1      -1.569   2.641   0.356  1.00  0.00     0.169 C 
HETATM   27  N4  UNL     1      -0.626   2.975   1.101  1.00  0.00    -0.247 N 
ATOM     28  H4  UNL     1       0.267   2.506   0.951  1.00  0.00     0.196 HD
BRANCH  26  29
HETATM   29  O2  UNL     1      -2.813   3.192   0.450  1.00  0.00    -0.344 OA
ATOM     30  H2  UNL     1      -2.948   3.854   1.118  1.00  0.00     0.219 HD
ENDBRANCH  26  29
BRANCH  27  31
HETATM   31  O3  UNL     1      -0.673   3.911   2.103  1.00  0.00    -0.288 OA
ATOM     32  H3  UNL     1       0.045   4.165   2.670  1.00  0.00     0.244 HD
ENDBRANCH  27  31
ENDBRANCH  15  26
TORSDOF 7
