REMARK  6 active torsions:
REMARK  status: ('A' for Active; 'I' for Inactive)
REMARK    1  A    between atoms: C2_2  and  O1_3 
REMARK    2  A    between atoms: O1_3  and  C3_4 
REMARK    3  A    between atoms: C3_4  and  C4_6 
REMARK    4  A    between atoms: C5_8  and  N1_9 
REMARK       I    between atoms: N1_9  and  C6_11 
REMARK    5  A    between atoms: C6_11  and  C7_13 
REMARK    6  A    between atoms: C7_13  and  C8_14 
ROOT
HETATM    1  C4  UNL     1       4.417  -0.167   0.252  1.00  0.00     0.089 A 
HETATM    2  S1  UNL     1       3.258   0.582  -0.711  1.00  0.00    -0.064 SA
HETATM    3  C5  UNL     1       1.794   0.056   0.122  1.00  0.00     0.099 A 
HETATM    4  C15 UNL     1       2.320  -0.687   1.120  1.00  0.00     0.086 A 
HETATM    5  C16 UNL     1       1.472  -1.370   2.126  1.00  0.00     0.103 C 
HETATM    6  N3  UNL     1       0.837  -1.921   2.936  1.00  0.00    -0.191 NA
HETATM    7  C17 UNL     1       3.674  -0.809   1.196  1.00  0.00    -0.015 A 
HETATM    8  C18 UNL     1       4.425  -1.613   2.263  1.00  0.00     0.051 C 
ENDROOT
BRANCH   3   9
HETATM    9  N1  UNL     1       0.504   0.436  -0.317  1.00  0.00    -0.320 N 
HETATM   10  C6  UNL     1      -0.789   0.221   0.072  1.00  0.00     0.222 C 
HETATM   11  O3  UNL     1      -1.179  -0.443   1.029  1.00  0.00    -0.273 OA
ATOM     12  H1  UNL     1       0.551   1.029  -1.145  1.00  0.00     0.169 HD
BRANCH  10  13
HETATM   13  C7  UNL     1      -1.867   0.901  -0.803  1.00  0.00     0.108 C 
BRANCH  13  14
HETATM   14  C8  UNL     1      -3.231   0.459  -0.336  1.00  0.00    -0.003 C 
HETATM   15  C9  UNL     1      -4.322   1.132  -1.151  1.00  0.00     0.007 C 
HETATM   16  C10 UNL     1      -5.570   1.351  -0.384  1.00  0.00     0.034 C 
HETATM   17  C11 UNL     1      -6.055   0.228   0.459  1.00  0.00     0.196 C 
HETATM   18  C12 UNL     1      -7.089  -0.636  -0.257  1.00  0.00     0.109 C 
HETATM   19  N2  UNL     1      -5.102  -0.609   1.050  1.00  0.00    -0.057 N 
HETATM   20  S2  UNL     1      -5.975  -1.956  -0.891  1.00  0.00    -0.134 SA
HETATM   21  C13 UNL     1      -4.534  -1.528   0.166  1.00  0.00     0.247 C 
HETATM   22  C14 UNL     1      -3.385  -1.021  -0.658  1.00  0.00     0.049 C 
ATOM     23  H22 UNL     1      -4.377  -0.059   1.511  1.00  0.00     0.279 HD
ATOM     24  H21 UNL     1      -5.496  -1.087   1.860  1.00  0.00     0.279 HD
ENDBRANCH  13  14
ENDBRANCH  10  13
ENDBRANCH   3   9
BRANCH   1  25
HETATM   25  C3  UNL     1       5.894  -0.137   0.108  1.00  0.00     0.300 C 
HETATM   26  O2  UNL     1       6.649  -0.732   0.883  1.00  0.00    -0.259 OA
BRANCH  25  27
HETATM   27  O1  UNL     1       6.416   0.589  -0.938  1.00  0.00    -0.317 OA
BRANCH  27  28
HETATM   28  C2  UNL     1       7.839   0.626  -1.088  1.00  0.00     0.174 C 
HETATM   29  C1  UNL     1       8.086   1.501  -2.321  1.00  0.00     0.034 C 
ENDBRANCH  27  28
ENDBRANCH  25  27
ENDBRANCH   1  25
TORSDOF 6
