REMARK  8 active torsions:
REMARK  status: ('A' for Active; 'I' for Inactive)
REMARK    1  A    between atoms: C5_5  and  C6_6 
REMARK    2  A    between atoms: C5_5  and  C8_9 
REMARK    3  A    between atoms: C11_12  and  C12_13 
REMARK    4  A    between atoms: C12_13  and  N2_14 
REMARK    5  A    between atoms: N2_14  and  N3_16 
REMARK    6  A    between atoms: N3_16  and  C13_18 
REMARK    7  A    between atoms: C16_27  and  C17_28 
REMARK    8  A    between atoms: C17_28  and  O2_29 
ROOT
HETATM    1  C6  UNL     1      -0.081  -0.316  -1.631  1.00  0.00     0.136 C 
HETATM    2  C7  UNL     1      -0.213   0.848  -2.500  1.00  0.00     0.060 C 
HETATM    3  N1  UNL     1      -0.338   1.762  -3.217  1.00  0.00    -0.197 NA
ENDROOT
BRANCH   1   4
HETATM    4  C5  UNL     1      -0.635  -0.125  -0.243  1.00  0.00     0.003 C 
HETATM    5  C4  UNL     1      -0.390  -1.515   0.420  1.00  0.00     0.018 C 
HETATM    6  C3  UNL     1      -0.974  -2.647  -0.304  1.00  0.00     0.034 C 
HETATM    7  C2  UNL     1      -2.391  -2.355  -0.644  1.00  0.00    -0.085 C 
HETATM    8  C1  UNL     1      -3.138  -3.247  -1.305  1.00  0.00     0.014 C 
HETATM    9  C20 UNL     1      -2.962  -1.079  -0.244  1.00  0.00     0.019 C 
HETATM   10  C15 UNL     1      -2.104   0.125  -0.321  1.00  0.00     0.012 C 
HETATM   11  C19 UNL     1      -3.599  -1.093   1.117  1.00  0.00     0.010 C 
HETATM   12  C16 UNL     1      -2.711   1.081   0.629  1.00  0.00     0.015 C 
HETATM   13  C18 UNL     1      -3.912   0.376   1.297  1.00  0.00     0.008 C 
BRANCH  12  14
HETATM   14  C17 UNL     1      -3.365   2.273  -0.096  1.00  0.00     0.169 C 
BRANCH  14  15
HETATM   15  O2  UNL     1      -4.364   1.863  -0.950  1.00  0.00    -0.400 OA
ATOM     16  H2  UNL     1      -4.767   2.598  -1.397  1.00  0.00     0.209 HD
ENDBRANCH  14  15
ENDBRANCH  12  14
BRANCH   4  17
HETATM   17  C8  UNL     1       0.172   0.776   0.622  1.00  0.00     0.132 C 
HETATM   18  C9  UNL     1       0.340   2.197   0.306  1.00  0.00     0.035 C 
HETATM   19  C10 UNL     1       1.493   2.486   1.337  1.00  0.00     0.040 C 
HETATM   20  C11 UNL     1       2.355   1.289   0.931  1.00  0.00     0.161 C 
HETATM   21  O1  UNL     1       1.479   0.252   0.836  1.00  0.00    -0.374 OA
BRANCH  20  22
HETATM   22  C12 UNL     1       3.444   1.051   1.874  1.00  0.00     0.112 C 
BRANCH  22  23
HETATM   23  N2  UNL     1       4.575   0.614   1.460  1.00  0.00    -0.311 N 
ATOM     24  H2  UNL     1       5.333   0.449   2.123  1.00  0.00     0.185 HD
BRANCH  23  25
HETATM   25  N3  UNL     1       4.767   0.365   0.106  1.00  0.00    -0.279 N 
ATOM     26  H3  UNL     1       4.151   0.757  -0.606  1.00  0.00     0.189 HD
BRANCH  25  27
HETATM   27  C13 UNL     1       5.791  -0.406  -0.207  1.00  0.00     0.180 A 
HETATM   28  N4  UNL     1       6.177  -0.785  -1.425  1.00  0.00    -0.330 N 
HETATM   29  C14 UNL     1       7.228  -1.559  -1.517  1.00  0.00     0.189 A 
ATOM     30  H4  UNL     1       5.671  -0.482  -2.257  1.00  0.00     0.168 HD
HETATM   31  N5  UNL     1       7.845  -1.917  -0.394  1.00  0.00    -0.320 N 
HETATM   32  S1  UNL     1       6.939  -1.160   0.803  1.00  0.00     0.025 SA
ATOM     33  H5  UNL     1       8.669  -2.508  -0.285  1.00  0.00     0.175 HD
ENDBRANCH  25  27
ENDBRANCH  23  25
ENDBRANCH  22  23
ENDBRANCH  20  22
ENDBRANCH   4  17
ENDBRANCH   1   4
TORSDOF 8
