REMARK  4 active torsions:
REMARK  status: ('A' for Active; 'I' for Inactive)
REMARK    1  A    between atoms: C2_2  and  O1_3 
REMARK    2  A    between atoms: O1_3  and  C3_4 
REMARK    3  A    between atoms: C3_4  and  O2_5 
REMARK    4  A    between atoms: C3_4  and  N1_7 
ROOT
HETATM    1  N1  UNL     1      -0.260   0.115  -0.298  1.00  0.00    -0.245 N 
HETATM    2  C4  UNL     1       0.063   1.553  -0.269  1.00  0.00     0.176 A 
HETATM    3  N2  UNL     1      -0.868   2.402  -0.546  1.00  0.00    -0.280 N 
ATOM      4  H2  UNL     1      -1.810   2.087  -0.780  1.00  0.00     0.189 HD
HETATM    5  N3  UNL     1      -0.555   3.759  -0.517  1.00  0.00    -0.272 N 
ATOM      6  H3  UNL     1      -1.267   4.457  -0.732  1.00  0.00     0.189 HD
HETATM    7  C5  UNL     1       0.762   4.157  -0.186  1.00  0.00     0.208 A 
HETATM    8  N4  UNL     1       1.030   5.564  -0.170  1.00  0.00    -0.062 NA
HETATM    9  N5  UNL     1       1.711   3.349   0.095  1.00  0.00    -0.312 N 
ATOM     10  H5  UNL     1       2.644   3.689   0.327  1.00  0.00     0.170 HD
HETATM   11  C6  UNL     1       1.412   1.937   0.071  1.00  0.00     0.156 A 
HETATM   12  N6  UNL     1       2.330   1.082   0.345  1.00  0.00    -0.323 N 
ATOM     13  H6  UNL     1       3.269   1.404   0.580  1.00  0.00     0.169 HD
HETATM   14  C7  UNL     1       2.042  -0.333   0.322  1.00  0.00     0.140 A 
HETATM   15  N7  UNL     1       3.027  -1.215   0.585  1.00  0.00    -0.328 N 
ATOM     16  H7  UNL     1       3.951  -0.850   0.817  1.00  0.00     0.168 HD
HETATM   17  C8  UNL     1       2.861  -2.548   0.559  1.00  0.00     0.142 A 
HETATM   18  N8  UNL     1       3.928  -3.437   0.845  1.00  0.00    -0.081 NA
HETATM   19  C9  UNL     1       1.629  -3.074   0.249  1.00  0.00     0.138 A 
HETATM   20  C10 UNL     1       1.385  -4.495   0.202  1.00  0.00     0.107 C 
HETATM   21  N9  UNL     1       1.168  -5.629   0.160  1.00  0.00    -0.191 NA
HETATM   22  C11 UNL     1       0.600  -2.159  -0.026  1.00  0.00     0.227 A 
HETATM   23  O3  UNL     1      -0.480  -2.679  -0.305  1.00  0.00    -0.284 OA
HETATM   24  C12 UNL     1       0.777  -0.801   0.007  1.00  0.00     0.141 A 
ENDROOT
BRANCH   1  25
HETATM   25  C3  UNL     1      -1.594  -0.214  -0.511  1.00  0.00     0.271 C 
BRANCH  25  26
HETATM   26  O1  UNL     1      -2.330  -1.288  -0.195  1.00  0.00    -0.317 OA
BRANCH  26  27
HETATM   27  C2  UNL     1      -3.732  -1.372  -0.521  1.00  0.00     0.175 C 
HETATM   28  C1  UNL     1      -4.400  -0.217   0.187  1.00  0.00     0.034 C 
ENDBRANCH  26  27
ENDBRANCH  25  26
BRANCH  25  29
HETATM   29  O2  UNL     1      -2.283   0.703  -1.133  1.00  0.00    -0.326 OA
ATOM     30  H2  UNL     1      -1.761   1.465  -1.357  1.00  0.00     0.221 HD
ENDBRANCH  25  29
ENDBRANCH   1  25
TORSDOF 4
