REMARK  5 active torsions:
REMARK  status: ('A' for Active; 'I' for Inactive)
REMARK    1  A    between atoms: C4_8  and  O2_9 
REMARK    2  A    between atoms: C5_11  and  O3_12 
REMARK    3  A    between atoms: C6_14  and  O4_15 
REMARK    4  A    between atoms: C7_17  and  N2_18 
REMARK    5  A    between atoms: C9_22  and  O7_23 
ROOT
HETATM    1  O1  UNL     1       4.828   1.239   1.340  1.00  0.00    -0.262 OA
HETATM    2  C1  UNL     1       3.771   0.885   0.740  1.00  0.00     0.314 A 
HETATM    3  N1  UNL     1       2.880   1.846   0.170  1.00  0.00    -0.312 N 
ATOM      4  H1  UNL     1       3.121   2.833   0.257  1.00  0.00     0.169 HD
HETATM    5  C2  UNL     1       1.821   1.551  -0.430  1.00  0.00     0.116 A 
HETATM    6  S1  UNL     1       0.454   2.423  -1.269  1.00  0.00    -0.068 SA
HETATM    7  C3  UNL     1      -0.766   1.241  -0.649  1.00  0.00     0.057 A 
HETATM    8  C4  UNL     1      -2.114   1.418  -0.516  1.00  0.00     0.119 A 
HETATM    9  C5  UNL     1      -2.872   0.414   0.037  1.00  0.00     0.136 A 
HETATM   10  C6  UNL     1      -2.216  -0.722   0.428  1.00  0.00     0.136 A 
HETATM   11  C7  UNL     1      -0.824  -0.888   0.283  1.00  0.00     0.151 A 
HETATM   12  C8  UNL     1      -0.066   0.118  -0.274  1.00  0.00     0.060 A 
HETATM   13  C9  UNL     1       1.371   0.160  -0.578  1.00  0.00     0.218 A 
HETATM   14  N3  UNL     1       2.216  -0.834  -0.082  1.00  0.00    -0.311 N 
ATOM     15  H3  UNL     1       1.965  -1.813  -0.218  1.00  0.00     0.166 HD
HETATM   16  C10 UNL     1       3.431  -0.512   0.615  1.00  0.00     0.312 A 
HETATM   17  O8  UNL     1       4.145  -1.444   1.086  1.00  0.00    -0.262 OA
ENDROOT
BRANCH  11  18
HETATM   18  N2  UNL     1      -0.301  -2.120   0.770  1.00  0.00    -0.112 N 
HETATM   19  O5  UNL     1      -0.438  -3.184   0.100  1.00  0.00    -0.532 OA
HETATM   20  O6  UNL     1       0.350  -2.177   1.990  1.00  0.00    -0.532 OA
ENDBRANCH  11  18
BRANCH  10  21
HETATM   21  O4  UNL     1      -2.990  -1.742   0.992  1.00  0.00    -0.356 OA
ATOM     22  H4  UNL     1      -2.535  -2.530   1.263  1.00  0.00     0.218 HD
ENDBRANCH  10  21
BRANCH   9  23
HETATM   23  O3  UNL     1      -4.244   0.578   0.179  1.00  0.00    -0.356 OA
ATOM     24  H3  UNL     1      -4.768  -0.116   0.561  1.00  0.00     0.218 HD
ENDBRANCH   9  23
BRANCH  13  25
HETATM   25  O7  UNL     1       1.396  -0.018  -2.025  1.00  0.00    -0.361 OA
ATOM     26  H7  UNL     1       1.105  -0.917  -2.121  1.00  0.00     0.213 HD
ENDBRANCH  13  25
BRANCH   8  27
HETATM   27  O2  UNL     1      -2.754   2.570  -0.917  1.00  0.00    -0.357 OA
ATOM     28  H2  UNL     1      -3.691   2.693  -0.825  1.00  0.00     0.218 HD
ENDBRANCH   8  27
TORSDOF 5
