REMARK  4 active torsions:
REMARK  status: ('A' for Active; 'I' for Inactive)
REMARK    1  A    between atoms: O1_2  and  C2_3 
REMARK    2  A    between atoms: C2_3  and  C3_5 
REMARK    3  A    between atoms: C7_13  and  N3_14 
REMARK    4  A    between atoms: N5_21  and  N6_22 
ROOT
HETATM    1  C3  UNL     1       2.573   0.290   0.412  1.00  0.00     0.094 A 
HETATM    2  N1  UNL     1       1.564  -0.438   0.152  1.00  0.00    -0.340 N 
ATOM      3  H1  UNL     1       1.743  -1.433   0.017  1.00  0.00     0.167 HD
HETATM    4  C4  UNL     1       0.216  -0.014   0.030  1.00  0.00     0.125 A 
HETATM    5  N2  UNL     1      -0.787  -0.866  -0.250  1.00  0.00    -0.325 N 
ATOM      6  H2  UNL     1      -0.588  -1.858  -0.382  1.00  0.00     0.169 HD
HETATM    7  C5  UNL     1      -2.053  -0.416  -0.357  1.00  0.00     0.149 A 
HETATM    8  C6  UNL     1      -2.363   0.926  -0.185  1.00  0.00     0.105 A 
HETATM    9  C7  UNL     1      -3.649   1.358  -0.297  1.00  0.00     0.119 A 
HETATM   10  N4  UNL     1      -4.586   0.380  -0.587  1.00  0.00    -0.317 N 
ATOM     11  H4  UNL     1      -5.563   0.656  -0.681  1.00  0.00     0.170 HD
HETATM   12  C8  UNL     1      -4.271  -0.905  -0.749  1.00  0.00     0.200 A 
HETATM   13  S1  UNL     1      -5.516  -1.936  -1.092  1.00  0.00    -0.038 SA
HETATM   14  N5  UNL     1      -3.011  -1.353  -0.643  1.00  0.00    -0.219 N 
HETATM   15  C9  UNL     1      -1.321   1.777   0.100  1.00  0.00     0.207 A 
HETATM   16  O3  UNL     1      -1.487   3.009   0.275  1.00  0.00    -0.286 OA
HETATM   17  C10 UNL     1      -0.007   1.334   0.215  1.00  0.00     0.105 A 
HETATM   18  C11 UNL     1       1.090   2.228   0.514  1.00  0.00     0.173 A 
HETATM   19  O4  UNL     1       0.835   3.475   0.679  1.00  0.00    -0.292 OA
HETATM   20  C12 UNL     1       2.466   1.736   0.630  1.00  0.00     0.147 A 
ENDROOT
BRANCH   1  21
HETATM   21  C2  UNL     1       3.930  -0.287   0.511  1.00  0.00     0.305 C 
HETATM   22  O2  UNL     1       4.923   0.432   0.768  1.00  0.00    -0.258 OA
BRANCH  21  23
HETATM   23  O1  UNL     1       4.152  -1.644   0.324  1.00  0.00    -0.322 OA
HETATM   24  C1  UNL     1       5.477  -2.156   0.430  1.00  0.00     0.213 C 
ENDBRANCH  21  23
ENDBRANCH   1  21
BRANCH  14  25
HETATM   25  N6  UNL     1      -2.701  -2.704  -0.817  1.00  0.00    -0.335 N 
ATOM     26  H62 UNL     1      -1.743  -3.045  -0.736  1.00  0.00     0.177 HD
ATOM     27  H61 UNL     1      -3.414  -3.402  -1.030  1.00  0.00     0.177 HD
ENDBRANCH  14  25
BRANCH   9  28
HETATM   28  N3  UNL     1      -4.012   2.543  -0.158  1.00  0.00    -0.385 N 
ATOM     29  H32 UNL     1      -3.322   3.263   0.056  1.00  0.00     0.157 HD
ATOM     30  H31 UNL     1      -4.976   2.867  -0.242  1.00  0.00     0.157 HD
ENDBRANCH   9  28
TORSDOF 4
