REMARK  3 active torsions:
REMARK  status: ('A' for Active; 'I' for Inactive)
REMARK    1  A    between atoms: C5_10  and  C6_11 
REMARK    2  A    between atoms: C7_16  and  N5_17 
REMARK    3  A    between atoms: C8_22  and  O2_23 
ROOT
HETATM    1  C1  UNL     1      -5.634   0.410   0.276  1.00  0.00     0.164 C 
HETATM    2  N1  UNL     1      -4.195   0.400   0.184  1.00  0.00    -0.269 N 
HETATM    3  C2  UNL     1      -3.532   1.483  -0.213  1.00  0.00     0.281 A 
HETATM    4  O1  UNL     1      -4.114   2.554  -0.524  1.00  0.00    -0.265 OA
HETATM    5  C3  UNL     1      -2.153   1.440  -0.291  1.00  0.00     0.148 A 
HETATM    6  N2  UNL     1      -1.258   2.348  -0.646  1.00  0.00    -0.328 N 
ATOM      7  H2  UNL     1      -1.448   3.305  -0.945  1.00  0.00     0.168 HD
HETATM    8  C4  UNL     1      -0.050   1.767  -0.537  1.00  0.00     0.160 A 
HETATM    9  S1  UNL     1       1.616   2.082  -0.750  1.00  0.00    -0.045 SA
HETATM   10  C5  UNL     1       2.207   0.570  -0.296  1.00  0.00     0.105 A 
HETATM   11  C8  UNL     1       1.058  -0.131   0.009  1.00  0.00     0.171 A 
HETATM   12  N7  UNL     1      -0.095   0.502  -0.121  1.00  0.00    -0.253 N 
HETATM   13  C9  UNL     1      -1.448   0.266   0.046  1.00  0.00     0.154 A 
HETATM   14  N8  UNL     1      -2.192  -0.786   0.438  1.00  0.00    -0.287 N 
HETATM   15  C10 UNL     1      -1.557  -2.038   0.805  1.00  0.00     0.163 C 
HETATM   16  C11 UNL     1      -3.565  -0.729   0.511  1.00  0.00     0.332 A 
HETATM   17  O3  UNL     1      -4.164  -1.756   0.885  1.00  0.00    -0.246 OA
ENDROOT
BRANCH  10  18
HETATM   18  C6  UNL     1       3.612   0.150  -0.252  1.00  0.00     0.157 A 
HETATM   19  N3  UNL     1       4.107  -1.035   0.102  1.00  0.00    -0.270 N 
HETATM   20  N4  UNL     1       5.446  -1.024   0.009  1.00  0.00    -0.131 N 
ATOM     21  H3  UNL     1       3.549  -1.835   0.401  1.00  0.00     0.189 HD
HETATM   22  C7  UNL     1       5.801   0.204  -0.415  1.00  0.00     0.692 A 
ATOM     23  H4  UNL     1       6.075  -1.799   0.220  1.00  0.00     0.205 HD
HETATM   24  N6  UNL     1       4.676   0.909  -0.570  1.00  0.00    -0.173 N 
ATOM     25  H6  UNL     1       4.631   1.879  -0.883  1.00  0.00     0.186 HD
BRANCH  22  26
HETATM   26  N5  UNL     1       7.023   0.561  -0.613  1.00  0.00    -0.233 N 
ATOM     27  H52 UNL     1       7.881   0.023  -0.495  1.00  0.00     0.174 HD
ATOM     28  H51 UNL     1       7.292   1.491  -0.934  1.00  0.00     0.174 HD
ENDBRANCH  22  26
ENDBRANCH  10  18
BRANCH  11  29
HETATM   29  O2  UNL     1       1.315  -1.479   0.432  1.00  0.00    -0.344 OA
ATOM     30  H2  UNL     1       0.524  -1.962   0.642  1.00  0.00     0.219 HD
ENDBRANCH  11  29
TORSDOF 3
