REMARK  8 active torsions:
REMARK  status: ('A' for Active; 'I' for Inactive)
REMARK    1  A    between atoms: O1_2  and  C2_3 
REMARK    2  A    between atoms: C5_8  and  N1_9 
REMARK    3  A    between atoms: N1_9  and  O4_11 
REMARK    4  A    between atoms: O4_11  and  C6_12 
REMARK    5  A    between atoms: C6_12  and  C7_13 
REMARK    6  A    between atoms: C10_25  and  N6_26 
REMARK    7  A    between atoms: N6_26  and  C11_28 
REMARK    8  A    between atoms: C11_28  and  C12_29 
ROOT
HETATM    1  C2  UNL     1      -1.247   0.573   2.155  1.00  0.00     0.217 A 
HETATM    2  O2  UNL     1      -0.159   1.050   2.709  1.00  0.00    -0.249 OA
HETATM    3  C3  UNL     1       1.026   1.034   2.149  1.00  0.00     0.306 A 
HETATM    4  O3  UNL     1       2.055   1.504   2.714  1.00  0.00    -0.259 OA
HETATM    5  C4  UNL     1       1.196   0.495   0.900  1.00  0.00     0.115 A 
HETATM    6  C5  UNL     1       2.442   0.480   0.313  1.00  0.00     0.159 A 
HETATM    7  N3  UNL     1       2.551  -0.061  -0.913  1.00  0.00    -0.174 N 
ATOM      8  H3  UNL     1       3.458  -0.090  -1.379  1.00  0.00     0.186 HD
HETATM    9  C8  UNL     1       1.451  -0.571  -1.534  1.00  0.00     0.678 A 
HETATM   10  N4  UNL     1       1.529  -1.096  -2.710  1.00  0.00    -0.234 N 
ATOM     11  H41 UNL     1       0.705  -1.478  -3.175  1.00  0.00     0.174 HD
ATOM     12  H42 UNL     1       2.451  -1.108  -3.146  1.00  0.00     0.174 HD
HETATM   13  N5  UNL     1       0.235  -0.555  -0.959  1.00  0.00    -0.189 N 
ATOM     14  H5  UNL     1      -0.567  -0.946  -1.453  1.00  0.00     0.184 HD
HETATM   15  C9  UNL     1       0.075  -0.024   0.268  1.00  0.00     0.100 A 
HETATM   16  C10 UNL     1      -1.159   0.013   0.898  1.00  0.00     0.116 A 
ENDROOT
BRANCH  16  17
HETATM   17  N6  UNL     1      -2.299  -0.515   0.255  1.00  0.00    -0.378 N 
ATOM     18  H6  UNL     1      -2.516  -1.499   0.410  1.00  0.00     0.160 HD
BRANCH  17  19
HETATM   19  C11 UNL     1      -3.170   0.230  -0.597  1.00  0.00     0.181 C 
BRANCH  19  20
HETATM   20  C12 UNL     1      -4.281  -0.604  -1.121  1.00  0.00     0.076 A 
HETATM   21  N7  UNL     1      -4.538  -1.906  -0.893  1.00  0.00    -0.242 N 
HETATM   22  O6  UNL     1      -5.612  -2.241  -1.549  1.00  0.00    -0.157 OA
ATOM     23  H7  UNL     1      -3.983  -2.527  -0.304  1.00  0.00     0.196 HD
HETATM   24  N8  UNL     1      -6.078  -1.230  -2.198  1.00  0.00    -0.244 N 
HETATM   25  C13 UNL     1      -5.273  -0.172  -1.960  1.00  0.00     0.056 A 
ATOM     26  H8  UNL     1      -6.910  -1.229  -2.788  1.00  0.00     0.196 HD
HETATM   27  C14 UNL     1      -5.432   1.191  -2.501  1.00  0.00     0.072 C 
ENDBRANCH  19  20
ENDBRANCH  17  19
ENDBRANCH  16  17
BRANCH   1  28
HETATM   28  O1  UNL     1      -2.475   0.625   2.816  1.00  0.00    -0.334 OA
HETATM   29  C1  UNL     1      -2.964  -0.466   3.571  1.00  0.00     0.212 C 
ENDBRANCH   1  28
BRANCH   6  30
HETATM   30  N1  UNL     1       3.488   0.975   0.925  1.00  0.00    -0.249 N 
ATOM     31  H1  UNL     1       3.376   1.379   1.855  1.00  0.00     0.196 HD
BRANCH  30  32
HETATM   32  O4  UNL     1       4.728   0.963   0.348  1.00  0.00    -0.270 OA
BRANCH  32  33
HETATM   33  C6  UNL     1       5.655   0.001   0.867  1.00  0.00     0.300 C 
BRANCH  33  34
HETATM   34  C7  UNL     1       6.936   0.099   0.162  1.00  0.00     0.257 C 
HETATM   35  N2  UNL     1       7.135   1.043  -0.876  1.00  0.00    -0.060 NA
HETATM   36  O5  UNL     1       7.873  -0.665   0.478  1.00  0.00    -0.274 OA
ENDBRANCH  33  34
ENDBRANCH  32  33
ENDBRANCH  30  32
ENDBRANCH   6  30
TORSDOF 8
