REMARK  9 active torsions:
REMARK  status: ('A' for Active; 'I' for Inactive)
REMARK    1  A    between atoms: C2_3  and  N2_4 
REMARK    2  A    between atoms: N2_4  and  N3_6 
REMARK    3  A    between atoms: N3_6  and  C3_8 
REMARK    4  A    between atoms: C4_11  and  N5_12 
REMARK    5  A    between atoms: C5_17  and  C6_18 
REMARK    6  A    between atoms: N8_20  and  N9_22 
REMARK    7  A    between atoms: C7_24  and  C8_25 
REMARK    8  A    between atoms: C11_28  and  N10_29 
REMARK    9  A    between atoms: C12_33  and  N11_34 
ROOT
HETATM    1  N1  UNL     1      -9.077   0.057  -0.803  1.00  0.00    -0.196 NA
HETATM    2  C1  UNL     1      -7.998  -0.120  -0.428  1.00  0.00     0.080 C 
HETATM    3  C2  UNL     1      -6.595  -0.329   0.051  1.00  0.00     0.263 C 
ENDROOT
BRANCH   3   4
HETATM    4  N2  UNL     1      -5.643   0.347  -0.799  1.00  0.00    -0.322 N 
ATOM      5  H2  UNL     1      -6.039   0.975  -1.499  1.00  0.00     0.181 HD
BRANCH   4   6
HETATM    6  N3  UNL     1      -4.336   0.257  -0.786  1.00  0.00    -0.286 N 
ATOM      7  H3  UNL     1      -3.975   0.383  -1.731  1.00  0.00     0.188 HD
BRANCH   6   8
HETATM    8  C3  UNL     1      -3.385   0.067   0.005  1.00  0.00     0.171 A 
HETATM    9  N4  UNL     1      -3.474  -0.135   1.324  1.00  0.00    -0.173 N 
HETATM   10  C4  UNL     1      -2.402  -0.333   2.112  1.00  0.00     0.678 A 
ATOM     11  H4  UNL     1      -4.399  -0.139   1.753  1.00  0.00     0.186 HD
HETATM   12  N6  UNL     1      -1.183  -0.331   1.576  1.00  0.00    -0.186 N 
HETATM   13  C5  UNL     1      -0.952  -0.136   0.244  1.00  0.00     0.128 A 
ATOM     14  H6  UNL     1      -0.383  -0.482   2.190  1.00  0.00     0.184 HD
HETATM   15  C12 UNL     1      -2.056   0.060  -0.523  1.00  0.00     0.179 A 
BRANCH  10  16
HETATM   16  N5  UNL     1      -2.549  -0.526   3.392  1.00  0.00    -0.234 N 
ATOM     17  H52 UNL     1      -3.483  -0.528   3.803  1.00  0.00     0.174 HD
ATOM     18  H51 UNL     1      -1.736  -0.676   3.990  1.00  0.00     0.174 HD
ENDBRANCH  10  16
BRANCH  13  19
HETATM   19  C6  UNL     1       0.410  -0.125  -0.238  1.00  0.00     0.161 C 
HETATM   20  N7  UNL     1       0.738   0.130  -1.583  1.00  0.00    -0.079 NA
HETATM   21  N8  UNL     1       1.351  -0.350   0.639  1.00  0.00    -0.286 N 
ATOM     22  H8  UNL     1       1.077  -0.520   1.607  1.00  0.00     0.188 HD
BRANCH  21  23
HETATM   23  N9  UNL     1       2.686  -0.370   0.330  1.00  0.00    -0.308 N 
HETATM   24  C7  UNL     1       3.601   0.404   0.739  1.00  0.00     0.144 C 
ATOM     25  H9  UNL     1       2.981  -1.104  -0.314  1.00  0.00     0.186 HD
BRANCH  24  26
HETATM   26  C8  UNL     1       4.976   0.169   0.252  1.00  0.00     0.095 A 
HETATM   27  C9  UNL     1       5.384  -0.821  -0.617  1.00  0.00     0.043 A 
HETATM   28  C10 UNL     1       6.719  -0.684  -0.802  1.00  0.00     0.065 A 
HETATM   29  C11 UNL     1       7.119   0.388  -0.046  1.00  0.00     0.215 A 
HETATM   30  O3  UNL     1       6.051   0.853   0.554  1.00  0.00    -0.287 OA
BRANCH  29  31
HETATM   31  N10 UNL     1       8.462   0.896   0.059  1.00  0.00    -0.090 N 
HETATM   32  O1  UNL     1       9.368   0.353  -0.567  1.00  0.00    -0.530 OA
HETATM   33  O2  UNL     1       8.749   1.977   0.847  1.00  0.00    -0.530 OA
ENDBRANCH  29  31
ENDBRANCH  24  26
ENDBRANCH  21  23
ENDBRANCH  13  19
BRANCH  15  34
HETATM   34  N11 UNL     1      -1.975   0.242  -1.917  1.00  0.00    -0.109 N 
HETATM   35  O4  UNL     1      -2.083   1.376  -2.416  1.00  0.00    -0.532 OA
HETATM   36  O5  UNL     1      -1.788  -0.820  -2.742  1.00  0.00    -0.532 OA
ENDBRANCH  15  34
ENDBRANCH   6   8
ENDBRANCH   4   6
ENDBRANCH   3   4
TORSDOF 9
