REMARK  11 active torsions:
REMARK  status: ('A' for Active; 'I' for Inactive)
REMARK    1  A    between atoms: N1_2  and  N2_4 
REMARK    2  A    between atoms: N3_6  and  O1_7 
REMARK    3  A    between atoms: N3_6  and  C2_9 
REMARK    4  A    between atoms: C3_12  and  C4_13 
REMARK    5  A    between atoms: C5_16  and  C6_17 
REMARK    6  A    between atoms: N5_18  and  N6_20 
REMARK       I    between atoms: N6_20  and  C7_22 
REMARK    7  A    between atoms: C7_22  and  C8_24 
REMARK    8  A    between atoms: C8_24  and  O5_25 
REMARK    9  A    between atoms: O5_25  and  C9_26 
REMARK   10  A    between atoms: C9_26  and  C10_28 
REMARK   11  A    between atoms: C10_28  and  O7_31 
ROOT
HETATM    1  C2  UNL     1      -4.139   0.359  -0.283  1.00  0.00     0.197 A 
HETATM    2  N4  UNL     1      -4.078   0.291   1.029  1.00  0.00    -0.327 N 
ATOM      3  H4  UNL     1      -4.929   0.399   1.581  1.00  0.00     0.168 HD
HETATM    4  C3  UNL     1      -2.946   0.088   1.628  1.00  0.00     0.130 A 
HETATM    5  C5  UNL     1      -1.828  -0.051   0.853  1.00  0.00     0.059 A 
HETATM    6  S1  UNL     1      -2.513   0.126  -0.736  1.00  0.00    -0.046 SA
ENDROOT
BRANCH   5   7
HETATM    7  C6  UNL     1      -0.429  -0.283   1.162  1.00  0.00     0.128 C 
HETATM    8  N5  UNL     1       0.405  -0.370   0.192  1.00  0.00    -0.308 N 
ATOM      9  H5  UNL     1       0.079  -0.277  -0.770  1.00  0.00     0.186 HD
BRANCH   8  10
HETATM   10  N6  UNL     1       1.769  -0.594   0.453  1.00  0.00    -0.269 N 
HETATM   11  C7  UNL     1       2.171  -1.868   0.875  1.00  0.00     0.260 C 
HETATM   12  O4  UNL     1       1.283  -2.763   1.010  1.00  0.00    -0.269 OA
ATOM     13  H6  UNL     1       2.451   0.155   0.337  1.00  0.00     0.190 HD
BRANCH  11  14
HETATM   14  C8  UNL     1       3.545  -2.304   1.193  1.00  0.00     0.283 C 
BRANCH  14  15
HETATM   15  O5  UNL     1       4.458  -1.295   0.855  1.00  0.00    -0.310 OA
BRANCH  15  16
HETATM   16  C9  UNL     1       4.705  -0.826  -0.419  1.00  0.00     0.293 C 
HETATM   17  O6  UNL     1       4.064  -1.347  -1.377  1.00  0.00    -0.262 OA
BRANCH  16  18
HETATM   18  C10 UNL     1       5.702   0.270  -0.695  1.00  0.00     0.138 C 
HETATM   19  C11 UNL     1       6.787  -0.243  -1.623  1.00  0.00     0.056 C 
HETATM   20  C12 UNL     1       5.026   1.465  -1.338  1.00  0.00     0.056 C 
BRANCH  18  21
HETATM   21  O7  UNL     1       6.237   0.636   0.531  1.00  0.00    -0.380 OA
ATOM     22  H7  UNL     1       6.865   1.327   0.357  1.00  0.00     0.211 HD
ENDBRANCH  18  21
ENDBRANCH  16  18
ENDBRANCH  15  16
ENDBRANCH  14  15
ENDBRANCH  11  14
ENDBRANCH   8  10
ENDBRANCH   5   7
BRANCH   4  23
HETATM   23  C4  UNL     1      -2.881   0.012   3.113  1.00  0.00     0.228 C 
HETATM   24  O2  UNL     1      -1.836  -0.178   3.739  1.00  0.00    -0.643 OA
HETATM   25  O3  UNL     1      -4.048   0.160   3.888  1.00  0.00    -0.643 OA
ENDBRANCH   4  23
BRANCH   1  26
HETATM   26  N3  UNL     1      -5.301   0.578  -1.123  1.00  0.00    -0.124 N 
HETATM   27  N2  UNL     1      -6.440   0.733  -0.639  1.00  0.00    -0.219 N 
ATOM     28  H2  UNL     1      -6.569   0.707   0.373  1.00  0.00     0.210 HD
BRANCH  27  29
HETATM   29  N1  UNL     1      -7.541   0.942  -1.474  1.00  0.00    -0.325 N 
HETATM   30  C1  UNL     1      -8.791   1.406  -0.865  1.00  0.00     0.169 C 
ATOM     31  H1  UNL     1      -7.477   0.776  -2.478  1.00  0.00     0.181 HD
ENDBRANCH  27  29
BRANCH  26  32
HETATM   32  O1  UNL     1      -5.069   0.602  -2.477  1.00  0.00    -0.265 OA
ATOM     33  H1  UNL     1      -4.201   0.484  -2.846  1.00  0.00     0.247 HD
ENDBRANCH  26  32
ENDBRANCH   1  26
TORSDOF 11
