REMARK  9 active torsions:
REMARK  status: ('A' for Active; 'I' for Inactive)
REMARK    1  A    between atoms: O1_2  and  C2_3 
REMARK    2  A    between atoms: C2_3  and  C3_5 
REMARK    3  A    between atoms: N1_7  and  N2_9 
REMARK    4  A    between atoms: N2_9  and  C5_11 
REMARK    5  A    between atoms: C7_18  and  C8_19 
REMARK    6  A    between atoms: C9_23  and  C10_24 
REMARK    7  A    between atoms: C11_27  and  C12_28 
REMARK    8  A    between atoms: C12_28  and  O6_29 
REMARK    9  A    between atoms: O6_29  and  C13_30 
ROOT
HETATM    1  C5  UNL     1       1.023  -0.754  -0.066  1.00  0.00     0.154 A 
HETATM    2  N3  UNL     1       1.490  -1.967  -0.382  1.00  0.00    -0.291 N 
ATOM      3  H3  UNL     1       2.479  -2.215  -0.404  1.00  0.00     0.172 HD
HETATM    4  C6  UNL     1       0.496  -2.811  -0.665  1.00  0.00     0.326 A 
HETATM    5  O3  UNL     1       0.619  -4.008  -0.994  1.00  0.00    -0.247 OA
HETATM    6  N4  UNL     1      -0.635  -2.062  -0.511  1.00  0.00    -0.303 N 
ATOM      7  H4  UNL     1      -1.579  -2.419  -0.657  1.00  0.00     0.171 HD
HETATM    8  C7  UNL     1      -0.361  -0.815  -0.149  1.00  0.00     0.119 A 
ENDROOT
BRANCH   8   9
HETATM    9  C8  UNL     1      -1.294   0.293   0.115  1.00  0.00     0.140 A 
HETATM   10  O4  UNL     1      -0.893   1.490   0.471  1.00  0.00    -0.234 OA
HETATM   11  N5  UNL     1      -1.868   2.286   0.646  1.00  0.00    -0.255 N 
HETATM   12  C9  UNL     1      -3.069   1.634   0.404  1.00  0.00     0.131 A 
ATOM     13  H5  UNL     1      -1.781   3.263   0.924  1.00  0.00     0.195 HD
HETATM   14  C11 UNL     1      -2.683   0.369   0.068  1.00  0.00     0.038 A 
BRANCH  12  15
HETATM   15  C10 UNL     1      -4.308   2.326   0.536  1.00  0.00     0.283 C 
HETATM   16  N6  UNL     1      -5.615   1.885   0.348  1.00  0.00    -0.056 NA
HETATM   17  O5  UNL     1      -4.246   3.575   0.890  1.00  0.00    -0.269 OA
ENDBRANCH  12  15
BRANCH  14  18
HETATM   18  C12 UNL     1      -3.495  -0.777  -0.295  1.00  0.00     0.226 C 
BRANCH  18  19
HETATM   19  O6  UNL     1      -4.878  -0.640  -0.325  1.00  0.00    -0.291 OA
BRANCH  19  20
HETATM   20  C13 UNL     1      -5.679  -1.725  -0.670  1.00  0.00     0.333 C 
HETATM   21  O7  UNL     1      -5.140  -2.824  -0.953  1.00  0.00    -0.624 OA
HETATM   22  O8  UNL     1      -7.057  -1.646  -0.716  1.00  0.00    -0.624 OA
ENDBRANCH  19  20
ENDBRANCH  18  19
ENDBRANCH  14  18
ENDBRANCH   8   9
BRANCH   1  23
HETATM   23  N2  UNL     1       1.836   0.338   0.279  1.00  0.00    -0.283 N 
ATOM     24  H2  UNL     1       1.423   1.241   0.512  1.00  0.00     0.188 HD
BRANCH  23  25
HETATM   25  N1  UNL     1       3.233   0.160   0.297  1.00  0.00    -0.298 N 
HETATM   26  C3  UNL     1       4.061   1.058  -0.040  1.00  0.00     0.097 C 
HETATM   27  C4  UNL     1       3.566   2.378  -0.481  1.00  0.00     0.076 C 
ATOM     28  H1  UNL     1       3.599  -0.743   0.598  1.00  0.00     0.187 HD
BRANCH  26  29
HETATM   29  C2  UNL     1       5.484   0.787   0.009  1.00  0.00     0.306 C 
HETATM   30  O2  UNL     1       6.352   1.655  -0.318  1.00  0.00    -0.258 OA
BRANCH  29  31
HETATM   31  O1  UNL     1       5.990  -0.442   0.418  1.00  0.00    -0.322 OA
HETATM   32  C1  UNL     1       7.382  -0.678   0.456  1.00  0.00     0.213 C 
ENDBRANCH  29  31
ENDBRANCH  26  29
ENDBRANCH  23  25
ENDBRANCH   1  23
TORSDOF 9
