REMARK  8 active torsions:
REMARK  status: ('A' for Active; 'I' for Inactive)
REMARK    1  A    between atoms: C4_4  and  C5_5 
REMARK    2  A    between atoms: C5_5  and  C6_6 
REMARK    3  A    between atoms: C6_6  and  C7_7 
REMARK    4  A    between atoms: C7_7  and  C8_8 
REMARK    5  A    between atoms: C7_7  and  C13_14 
REMARK    6  A    between atoms: C8_8  and  C9_9 
REMARK    7  A    between atoms: C13_14  and  C14_15 
REMARK    8  A    between atoms: C21_25  and  O5_26 
ROOT
HETATM    1  C14 UNL     1       0.059  -0.761  -0.744  1.00  0.00     0.337 C 
HETATM    2  O2  UNL     1       1.089  -1.576  -1.316  1.00  0.00    -0.175 OA
HETATM    3  O3  UNL     1       1.608  -2.268  -0.348  1.00  0.00    -0.059 OA
HETATM    4  O4  UNL     1       2.230  -1.580   0.564  1.00  0.00    -0.145 OA
HETATM    5  C15 UNL     1       2.826  -0.426   0.108  1.00  0.00     0.309 C 
HETATM    6  C16 UNL     1       3.803  -0.621  -1.001  1.00  0.00     0.099 C 
HETATM    7  C17 UNL     1       4.500  -1.926  -1.051  1.00  0.00     0.012 C 
HETATM    8  C18 UNL     1       5.182  -2.395   0.175  1.00  0.00     0.041 C 
HETATM    9  C19 UNL     1       5.673  -1.356   1.091  1.00  0.00    -0.026 A 
HETATM   10  C20 UNL     1       6.693  -0.959   1.799  1.00  0.00     0.048 A 
HETATM   11  C21 UNL     1       5.981   0.214   2.289  1.00  0.00     0.093 A 
HETATM   12  C22 UNL     1       4.938  -0.190   1.566  1.00  0.00     0.072 A 
HETATM   13  N1  UNL     1       3.585   0.166   1.223  1.00  0.00    -0.329 N 
ATOM     14  H1  UNL     1       3.121   0.876   1.790  1.00  0.00     0.165 HD
HETATM   15  O6  UNL     1       1.856   0.502  -0.294  1.00  0.00    -0.173 OA
HETATM   16  O7  UNL     1       0.708   0.086   0.143  1.00  0.00    -0.200 OA
ENDROOT
BRANCH   1  17
HETATM   17  C13 UNL     1      -0.613  -0.108  -1.877  1.00  0.00     0.071 C 
BRANCH  17  18
HETATM   18  C7  UNL     1      -1.720   0.829  -1.666  1.00  0.00    -0.005 C 
BRANCH  18  19
HETATM   19  C6  UNL     1      -2.899   0.284  -0.971  1.00  0.00     0.009 C 
BRANCH  19  20
HETATM   20  C5  UNL     1      -2.896   0.236   0.512  1.00  0.00     0.028 C 
BRANCH  20  21
HETATM   21  C4  UNL     1      -4.212  -0.361   0.919  1.00  0.00    -0.025 C 
HETATM   22  C2  UNL     1      -4.326  -1.474   1.615  1.00  0.00    -0.091 C 
HETATM   23  C1  UNL     1      -3.059  -2.151   2.001  1.00  0.00     0.042 C 
HETATM   24  C3  UNL     1      -5.634  -2.049   2.009  1.00  0.00     0.042 C 
ENDBRANCH  20  21
ENDBRANCH  19  20
ENDBRANCH  18  19
BRANCH  18  25
HETATM   25  C8  UNL     1      -1.348   2.256  -1.328  1.00  0.00     0.045 C 
BRANCH  25  26
HETATM   26  C9  UNL     1      -2.406   3.239  -1.655  1.00  0.00    -0.034 A 
HETATM   27  C10 UNL     1      -3.415   3.685  -0.845  1.00  0.00     0.033 A 
HETATM   28  C11 UNL     1      -4.162   4.593  -1.566  1.00  0.00     0.142 A 
HETATM   29  O1  UNL     1      -3.607   4.665  -2.735  1.00  0.00    -0.334 OA
HETATM   30  C12 UNL     1      -2.565   3.891  -2.854  1.00  0.00     0.148 A 
ENDBRANCH  25  26
ENDBRANCH  18  25
ENDBRANCH  17  18
ENDBRANCH   1  17
BRANCH  11  31
HETATM   31  O5  UNL     1       6.244   1.268   3.117  1.00  0.00    -0.358 OA
ATOM     32  H5  UNL     1       5.780   2.033   3.436  1.00  0.00     0.217 HD
ENDBRANCH  11  31
TORSDOF 8
