REMARK  8 active torsions:
REMARK  status: ('A' for Active; 'I' for Inactive)
REMARK    1  A    between atoms: N1_2  and  C4_5 
REMARK    2  A    between atoms: C4_5  and  C5_6 
REMARK    3  A    between atoms: C5_6  and  N2_7 
REMARK    4  A    between atoms: N2_7  and  C6_10 
REMARK    5  A    between atoms: C6_10  and  C7_11 
REMARK    6  A    between atoms: C7_11  and  C8_12 
REMARK    7  A    between atoms: C8_12  and  N3_13 
REMARK    8  A    between atoms: N3_13  and  C9_15 
ROOT
HETATM    1  C8  UNL     1       2.568  -0.255  -0.375  1.00  0.00     0.140 C 
ENDROOT
BRANCH   1   2
HETATM    2  C7  UNL     1       1.805  -1.586  -0.400  1.00  0.00     0.048 C 
BRANCH   2   3
HETATM    3  C6  UNL     1       0.322  -1.358  -0.262  1.00  0.00     0.234 C 
BRANCH   3   4
HETATM    4  N2  UNL     1      -0.077  -0.704   0.941  1.00  0.00    -0.073 N 
ATOM      5  H22 UNL     1       0.417   0.182   1.051  1.00  0.00     0.277 HD
ATOM      6  H21 UNL     1       0.281  -1.201   1.757  1.00  0.00     0.277 HD
BRANCH   4   7
HETATM    7  C5  UNL     1      -1.502  -0.509   1.047  1.00  0.00     0.260 C 
BRANCH   7   8
HETATM    8  C4  UNL     1      -1.952   0.495   0.043  1.00  0.00     0.263 C 
BRANCH   8   9
HETATM    9  N1  UNL     1      -3.382   0.743   0.093  1.00  0.00    -0.077 N 
HETATM   10  C1  UNL     1      -4.141  -0.418  -0.334  1.00  0.00     0.271 C 
HETATM   11  C2  UNL     1      -3.651   1.868  -0.786  1.00  0.00     0.271 C 
HETATM   12  C3  UNL     1      -3.857   1.115   1.405  1.00  0.00     0.271 C 
ENDBRANCH   8   9
ENDBRANCH   7   8
ENDBRANCH   4   7
ENDBRANCH   3   4
ENDBRANCH   2   3
ENDBRANCH   1   2
BRANCH   1  13
HETATM   13  N3  UNL     1       3.973  -0.503  -0.536  1.00  0.00    -0.223 N 
ATOM     14  H3  UNL     1       4.239  -1.055  -1.352  1.00  0.00     0.177 HD
BRANCH  13  15
HETATM   15  C9  UNL     1       4.925  -0.121   0.211  1.00  0.00     0.709 A 
HETATM   16  N4  UNL     1       5.003   0.593   1.328  1.00  0.00    -0.115 N 
HETATM   17  N5  UNL     1       6.278   0.691   1.699  1.00  0.00    -0.213 N 
ATOM     18  H4  UNL     1       4.211   1.002   1.824  1.00  0.00     0.207 HD
HETATM   19  N6  UNL     1       7.012   0.049   0.833  1.00  0.00    -0.213 N 
ATOM     20  H5  UNL     1       6.623   1.185   2.522  1.00  0.00     0.210 HD
HETATM   21  N7  UNL     1       6.218  -0.457  -0.086  1.00  0.00    -0.115 N 
ATOM     22  H6  UNL     1       8.027  -0.045   0.863  1.00  0.00     0.210 HD
ATOM     23  H7  UNL     1       6.517  -1.010  -0.889  1.00  0.00     0.207 HD
ENDBRANCH  13  15
ENDBRANCH   1  13
TORSDOF 8
