REMARK  9 active torsions:
REMARK  status: ('A' for Active; 'I' for Inactive)
REMARK    1  A    between atoms: N1_1  and  C1_4 
REMARK    2  A    between atoms: N3_9  and  C3_10 
REMARK    3  A    between atoms: C3_10  and  C4_11 
REMARK    4  A    between atoms: C4_11  and  C5_12 
REMARK    5  A    between atoms: C5_12  and  N4_13 
REMARK    6  A    between atoms: N5_18  and  C7_19 
REMARK    7  A    between atoms: C7_19  and  C8_20 
REMARK    8  A    between atoms: C8_20  and  C9_21 
REMARK    9  A    between atoms: C9_21  and  C10_22 
ROOT
HETATM    1  C1  UNL     1      -0.999   2.124  -0.657  1.00  0.00     0.682 A 
HETATM    2  N2  UNL     1       0.029   2.626   0.046  1.00  0.00    -0.141 N 
ATOM      3  H2  UNL     1       0.060   3.629   0.228  1.00  0.00     0.189 HD
HETATM    4  C2  UNL     1       1.024   1.843   0.520  1.00  0.00     0.341 A 
HETATM    5  O1  UNL     1       1.976   2.371   1.181  1.00  0.00    -0.246 OA
HETATM    6  N3  UNL     1       1.001   0.515   0.290  1.00  0.00    -0.294 N 
HETATM    7  C6  UNL     1      -0.036   0.035  -0.415  1.00  0.00     0.207 A 
HETATM    8  N5  UNL     1      -1.032   0.793  -0.893  1.00  0.00    -0.179 N 
ENDROOT
BRANCH   6   9
HETATM    9  C3  UNL     1       2.074  -0.331   0.800  1.00  0.00     0.136 C 
BRANCH   9  10
HETATM   10  C4  UNL     1       3.141  -0.389  -0.270  1.00  0.00     0.048 C 
BRANCH  10  11
HETATM   11  C5  UNL     1       4.312  -1.242   0.146  1.00  0.00     0.231 C 
BRANCH  11  12
HETATM   12  N4  UNL     1       4.953  -0.750   1.342  1.00  0.00    -0.079 N 
ATOM     13  H43 UNL     1       5.228   0.226   1.237  1.00  0.00     0.274 HD
ATOM     14  H42 UNL     1       4.282  -0.649   2.104  1.00  0.00     0.274 HD
ATOM     15  H41 UNL     1       5.745  -1.327   1.624  1.00  0.00     0.274 HD
ENDBRANCH  11  12
ENDBRANCH  10  11
ENDBRANCH   9  10
ENDBRANCH   6   9
BRANCH   8  16
HETATM   16  C7  UNL     1      -2.087   0.182  -1.630  1.00  0.00     0.148 C 
BRANCH  16  17
HETATM   17  C8  UNL     1      -3.250  -0.276  -0.805  1.00  0.00     0.023 C 
BRANCH  17  18
HETATM   18  C9  UNL     1      -2.889  -1.293   0.232  1.00  0.00     0.033 C 
BRANCH  18  19
HETATM   19  C10 UNL     1      -4.185  -1.645   0.975  1.00  0.00     0.222 C 
HETATM   20  F1  UNL     1      -3.965  -2.575   1.953  1.00  0.00    -0.255 F 
ENDBRANCH  18  19
ENDBRANCH  17  18
ENDBRANCH  16  17
ENDBRANCH   8  16
BRANCH   1  21
HETATM   21  N1  UNL     1      -1.914   2.922  -1.080  1.00  0.00    -0.234 N 
ATOM     22  H12 UNL     1      -1.889   3.926  -0.902  1.00  0.00     0.174 HD
ATOM     23  H11 UNL     1      -2.695   2.541  -1.614  1.00  0.00     0.174 HD
ENDBRANCH   1  21
TORSDOF 9
