REMARK  8 active torsions:
REMARK  status: ('A' for Active; 'I' for Inactive)
REMARK    1  A    between atoms: C2_2  and  N1_3 
REMARK    2  A    between atoms: N1_3  and  C5_6 
REMARK    3  A    between atoms: C5_6  and  N2_7 
REMARK    4  A    between atoms: C6_9  and  C7_10 
REMARK    5  A    between atoms: C7_10  and  C8_11 
REMARK    6  A    between atoms: C8_11  and  N3_12 
REMARK    7  A    between atoms: C11_15  and  N4_16 
REMARK    8  A    between atoms: C12_20  and  N5_21 
ROOT
HETATM    1  N3  UNL     1       2.955   0.545  -1.167  1.00  0.00     0.121 N 
HETATM    2  C9  UNL     1       3.611   1.834  -0.892  1.00  0.00     0.277 C 
HETATM    3  C10 UNL     1       4.120   1.604   0.543  1.00  0.00     0.067 C 
HETATM    4  C11 UNL     1       4.745   0.251   0.400  1.00  0.00     0.245 C 
HETATM    5  C12 UNL     1       3.758  -0.437  -0.533  1.00  0.00     0.447 C 
ENDROOT
BRANCH   1   6
HETATM    6  C8  UNL     1       1.568   0.616  -0.706  1.00  0.00     0.280 C 
BRANCH   6   7
HETATM    7  C7  UNL     1       1.247  -0.276   0.415  1.00  0.00     0.074 C 
BRANCH   7   8
HETATM    8  C6  UNL     1      -0.183  -0.341   0.739  1.00  0.00     0.059 C 
HETATM    9  N2  UNL     1      -1.301  -0.872   0.168  1.00  0.00    -0.380 N 
ATOM     10  H2  UNL     1      -1.473  -1.865   0.325  1.00  0.00     0.160 HD
BRANCH   9  11
HETATM   11  C5  UNL     1      -2.236  -0.181  -0.615  1.00  0.00     0.358 C 
BRANCH  11  12
HETATM   12  N1  UNL     1      -3.598  -0.529  -0.081  1.00  0.00    -0.059 N 
HETATM   13  C3  UNL     1      -3.722   0.408   1.081  1.00  0.00     0.274 C 
HETATM   14  C4  UNL     1      -3.779  -1.806   0.444  1.00  0.00     0.274 C 
BRANCH  12  15
HETATM   15  C2  UNL     1      -4.560  -0.207  -1.086  1.00  0.00     0.234 C 
HETATM   16  C1  UNL     1      -5.589   0.801  -0.602  1.00  0.00     0.035 C 
ENDBRANCH  12  15
ENDBRANCH  11  12
ENDBRANCH   9  11
ENDBRANCH   7   8
ENDBRANCH   6   7
ENDBRANCH   1   6
BRANCH   5  17
HETATM   17  N5  UNL     1       4.600  -1.023  -1.595  1.00  0.00    -0.045 N 
ATOM     18  H53 UNL     1       4.065  -1.383  -2.386  1.00  0.00     0.277 HD
ATOM     19  H52 UNL     1       5.139  -0.331  -2.115  1.00  0.00     0.277 HD
ATOM     20  H51 UNL     1       5.178  -1.729  -1.139  1.00  0.00     0.277 HD
ENDBRANCH   5  17
BRANCH   4  21
HETATM   21  N4  UNL     1       4.924  -0.450   1.652  1.00  0.00    -0.071 N 
ATOM     22  H43 UNL     1       5.454   0.122   2.310  1.00  0.00     0.274 HD
ATOM     23  H42 UNL     1       4.039  -0.516   2.155  1.00  0.00     0.274 HD
ATOM     24  H41 UNL     1       5.350  -1.372   1.555  1.00  0.00     0.274 HD
ENDBRANCH   4  21
TORSDOF 8
