REMARK  7 active torsions:
REMARK  status: ('A' for Active; 'I' for Inactive)
REMARK    1  A    between atoms: S1_2  and  N1_4 
REMARK    2  A    between atoms: S1_2  and  N3_14 
REMARK    3  A    between atoms: N1_4  and  C1_6 
REMARK    4  A    between atoms: C1_6  and  C2_7 
REMARK    5  A    between atoms: C2_7  and  N2_8 
REMARK    6  A    between atoms: N2_8  and  C3_11 
REMARK    7  A    between atoms: N3_14  and  C6_16 
ROOT
HETATM    1  N1  UNL     1       0.066   1.684  -0.781  1.00  0.00    -0.301 N 
ATOM      2  H1  UNL     1       0.237   1.698  -1.786  1.00  0.00     0.173 HD
ENDROOT
BRANCH   1   3
HETATM    3  S1  UNL     1      -1.446   2.071  -0.037  1.00  0.00     0.315 S 
HETATM    4  O1  UNL     1      -2.437   2.251  -1.126  1.00  0.00    -0.183 OA
HETATM    5  O2  UNL     1      -1.320   3.338   0.712  1.00  0.00    -0.183 OA
BRANCH   3   6
HETATM    6  N3  UNL     1      -1.842   0.821   1.057  1.00  0.00    -0.294 N 
ATOM      7  H3  UNL     1      -1.306   0.696   1.916  1.00  0.00     0.174 HD
BRANCH   6   8
HETATM    8  C6  UNL     1      -2.915  -0.031   0.758  1.00  0.00     0.142 C 
HETATM    9  C7  UNL     1      -4.271   0.549   0.519  1.00  0.00     0.195 C 
HETATM   10  O3  UNL     1      -4.337  -0.225  -0.651  1.00  0.00    -0.387 OA
HETATM   11  C8  UNL     1      -2.990  -0.621  -0.606  1.00  0.00     0.195 C 
ENDBRANCH   6   8
ENDBRANCH   3   6
ENDBRANCH   1   3
BRANCH   1  12
HETATM   12  C1  UNL     1       1.040   1.343   0.199  1.00  0.00     0.161 C 
BRANCH  12  13
HETATM   13  C2  UNL     1       1.266  -0.129   0.277  1.00  0.00     0.253 C 
BRANCH  13  14
HETATM   14  N2  UNL     1       1.721  -0.765  -0.901  1.00  0.00    -0.069 N 
ATOM     15  H22 UNL     1       0.934  -1.121  -1.443  1.00  0.00     0.277 HD
ATOM     16  H21 UNL     1       2.087  -0.079  -1.561  1.00  0.00     0.277 HD
BRANCH  14  17
HETATM   17  C3  UNL     1       2.686  -1.806  -0.666  1.00  0.00     0.186 A 
HETATM   18  C4  UNL     1       4.083  -1.582  -1.109  1.00  0.00     0.035 A 
HETATM   19  C5  UNL     1       3.732  -1.609   0.386  1.00  0.00     0.035 A 
ENDBRANCH  14  17
ENDBRANCH  13  14
ENDBRANCH  12  13
ENDBRANCH   1  12
TORSDOF 7
