REMARK  13 active torsions:
REMARK  status: ('A' for Active; 'I' for Inactive)
REMARK       I    between atoms: C2_2  and  N1_4 
REMARK    1  A    between atoms: N1_4  and  C3_6 
REMARK    2  A    between atoms: C4_7  and  N2_8 
REMARK    3  A    between atoms: N2_8  and  N3_9 
REMARK    4  A    between atoms: N2_8  and  C5_13 
REMARK    5  A    between atoms: N3_9  and  O2_11 
REMARK    6  A    between atoms: C5_13  and  O3_14 
REMARK    7  A    between atoms: C5_13  and  N4_16 
REMARK    8  A    between atoms: N4_16  and  O4_18 
REMARK    9  A    between atoms: C6_24  and  N7_25 
REMARK   10  A    between atoms: N7_25  and  C7_27 
REMARK   11  A    between atoms: C7_27  and  O5_28 
REMARK   12  A    between atoms: C7_27  and  C8_30 
REMARK   13  A    between atoms: C9_33  and  C10_34 
ROOT
HETATM    1  C3  UNL     1      -1.917  -0.017   0.071  1.00  0.00     0.111 A 
HETATM    2  C4  UNL     1      -1.933   1.404  -0.014  1.00  0.00     0.176 A 
HETATM    3  N5  UNL     1      -0.867   2.122   0.326  1.00  0.00    -0.280 N 
ATOM      4  H5  UNL     1      -0.923   3.137   0.248  1.00  0.00     0.188 HD
HETATM    5  N6  UNL     1       0.262   1.589   0.760  1.00  0.00    -0.282 N 
ATOM      6  H6  UNL     1       1.053   2.183   1.008  1.00  0.00     0.188 HD
HETATM    7  C6  UNL     1       0.350   0.265   0.868  1.00  0.00     0.149 A 
HETATM    8  C12 UNL     1      -0.758  -0.547   0.518  1.00  0.00     0.122 A 
HETATM    9  N12 UNL     1      -0.582  -1.949   0.702  1.00  0.00    -0.096 NA
ENDROOT
BRANCH   7  10
HETATM   10  N7  UNL     1       1.385  -0.304   1.299  1.00  0.00    -0.317 N 
ATOM     11  H7  UNL     1       1.268  -1.317   1.308  1.00  0.00     0.169 HD
BRANCH  10  12
HETATM   12  C7  UNL     1       2.648   0.058   1.768  1.00  0.00     0.187 C 
BRANCH  12  13
HETATM   13  O5  UNL     1       2.798   1.312   2.337  1.00  0.00    -0.343 OA
ATOM     14  H5  UNL     1       3.658   1.559   2.656  1.00  0.00     0.219 HD
ENDBRANCH  12  13
BRANCH  12  15
HETATM   15  C8  UNL     1       3.775  -0.302   0.874  1.00  0.00     0.174 A 
HETATM   16  N8  UNL     1       3.775  -1.520   0.312  1.00  0.00    -0.319 N 
HETATM   17  C9  UNL     1       4.790  -1.919  -0.486  1.00  0.00     0.200 A 
ATOM     18  H8  UNL     1       2.997  -2.155   0.490  1.00  0.00     0.169 HD
HETATM   19  N9  UNL     1       5.809  -1.116  -0.730  1.00  0.00    -0.170 N 
HETATM   20  C11 UNL     1       5.841   0.110  -0.182  1.00  0.00     0.679 A 
ATOM     21  H9  UNL     1       6.571  -1.426  -1.334  1.00  0.00     0.186 HD
HETATM   22  N10 UNL     1       6.811   0.968  -0.356  1.00  0.00    -0.234 N 
HETATM   23  N11 UNL     1       4.815   0.517   0.625  1.00  0.00    -0.172 N 
ATOM     24 2H10 UNL     1       7.576   0.664  -0.958  1.00  0.00     0.174 HD
ATOM     25 1H10 UNL     1       6.835   1.899   0.060  1.00  0.00     0.174 HD
ATOM     26  H11 UNL     1       4.837   1.448   1.042  1.00  0.00     0.186 HD
BRANCH  17  27
HETATM   27  C10 UNL     1       4.704  -3.276  -1.079  1.00  0.00     0.245 C 
HETATM   28  O6  UNL     1       3.722  -4.010  -0.848  1.00  0.00    -0.642 OA
HETATM   29  O7  UNL     1       5.738  -3.696  -1.882  1.00  0.00    -0.642 OA
ENDBRANCH  17  27
ENDBRANCH  12  15
ENDBRANCH  10  12
ENDBRANCH   7  10
BRANCH   1  30
HETATM   30  N1  UNL     1      -3.070  -0.703  -0.285  1.00  0.00    -0.323 N 
HETATM   31  C2  UNL     1      -3.255  -1.937  -0.925  1.00  0.00     0.218 C 
HETATM   32  C1  UNL     1      -4.643  -2.449  -1.173  1.00  0.00     0.117 C 
HETATM   33  O1  UNL     1      -2.336  -2.677  -1.319  1.00  0.00    -0.274 OA
ATOM     34  H1  UNL     1      -3.936  -0.225  -0.037  1.00  0.00     0.169 HD
ENDBRANCH   1  30
BRANCH   2  35
HETATM   35  N2  UNL     1      -3.151   1.980  -0.463  1.00  0.00    -0.178 N 
BRANCH  35  36
HETATM   36  N3  UNL     1      -3.471   1.934  -1.815  1.00  0.00    -0.198 N 
ATOM     37  H3  UNL     1      -4.463   1.919  -2.051  1.00  0.00     0.216 HD
BRANCH  36  38
HETATM   38  O2  UNL     1      -2.677   1.910  -2.757  1.00  0.00    -0.274 OA
ATOM     39  H2  UNL     1      -2.896   1.879  -3.681  1.00  0.00     0.246 HD
ENDBRANCH  36  38
ENDBRANCH  35  36
BRANCH  35  40
HETATM   40  C5  UNL     1      -4.026   2.603   0.433  1.00  0.00     0.266 C 
BRANCH  40  41
HETATM   41  O3  UNL     1      -4.305   2.066   1.667  1.00  0.00    -0.330 OA
ATOM     42  H3  UNL     1      -4.899   2.489   2.276  1.00  0.00     0.221 HD
ENDBRANCH  40  41
BRANCH  40  43
HETATM   43  N4  UNL     1      -4.632   3.728   0.150  1.00  0.00    -0.231 N 
ATOM     44  H4  UNL     1      -5.271   4.185   0.801  1.00  0.00     0.198 HD
BRANCH  43  45
HETATM   45  O4  UNL     1      -4.342   4.254  -1.101  1.00  0.00    -0.287 OA
ATOM     46  H4  UNL     1      -4.782   5.071  -1.306  1.00  0.00     0.244 HD
ENDBRANCH  43  45
ENDBRANCH  40  43
ENDBRANCH  35  40
ENDBRANCH   2  35
TORSDOF 13
