REMARK  9 active torsions:
REMARK  status: ('A' for Active; 'I' for Inactive)
REMARK    1  A    between atoms: N1_2  and  C2_4 
REMARK    2  A    between atoms: C3_5  and  C4_6 
REMARK    3  A    between atoms: C4_6  and  S1_7 
REMARK    4  A    between atoms: S1_7  and  C5_8 
REMARK    5  A    between atoms: N5_13  and  C6_14 
REMARK    6  A    between atoms: C8_19  and  C9_20 
REMARK    7  A    between atoms: C9_20  and  N8_21 
REMARK    8  A    between atoms: C9_20  and  N9_25 
REMARK    9  A    between atoms: C12_35  and  N13_36 
ROOT
HETATM    1  N9  UNL     1       6.083   0.930   1.266  1.00  0.00    -0.293 N 
ATOM      2  H9  UNL     1       5.208   1.358   1.568  1.00  0.00     0.174 HD
HETATM    3  C10 UNL     1       7.293   1.272   1.874  1.00  0.00     0.179 C 
HETATM    4  N10 UNL     1       8.304   1.573   2.386  1.00  0.00    -0.172 NA
ENDROOT
BRANCH   1   5
HETATM    5  C9  UNL     1       6.100  -0.034   0.211  1.00  0.00     0.358 C 
BRANCH   5   6
HETATM    6  C8  UNL     1       4.728  -0.296  -0.331  1.00  0.00     0.137 A 
HETATM    7  N7  UNL     1       3.855  -1.080   0.325  1.00  0.00    -0.329 N 
HETATM    8  C7  UNL     1       2.608  -1.338  -0.137  1.00  0.00     0.152 A 
ATOM      9  H7  UNL     1       4.144  -1.499   1.209  1.00  0.00     0.168 HD
HETATM   10  C6  UNL     1       2.188  -0.786  -1.329  1.00  0.00     0.165 A 
HETATM   11  N6  UNL     1       1.712  -2.160   0.564  1.00  0.00    -0.080 NA
HETATM   12  C11 UNL     1       3.091   0.018  -1.996  1.00  0.00     0.278 A 
HETATM   13  N11 UNL     1       4.319   0.244  -1.495  1.00  0.00    -0.308 N 
HETATM   14  O1  UNL     1       2.713   0.529  -3.090  1.00  0.00    -0.265 OA
ATOM     15  H11 UNL     1       4.961   0.844  -2.013  1.00  0.00     0.170 HD
BRANCH  10  16
HETATM   16  N5  UNL     1       0.897  -1.003  -1.883  1.00  0.00    -0.210 N 
HETATM   17  C5  UNL     1      -0.249  -0.326  -1.581  1.00  0.00     0.178 A 
HETATM   18  N2  UNL     1      -1.219  -0.850  -2.327  1.00  0.00    -0.264 N 
HETATM   19  N3  UNL     1      -0.720  -1.827  -3.081  1.00  0.00    -0.006 NA
ATOM     20  H2  UNL     1      -2.194  -0.549  -2.322  1.00  0.00     0.186 HD
HETATM   21  N4  UNL     1       0.570  -1.906  -2.798  1.00  0.00     0.001 NA
BRANCH  17  22
HETATM   22  S1  UNL     1      -0.275   0.994  -0.381  1.00  0.00    -0.085 SA
BRANCH  22  23
HETATM   23  C4  UNL     1      -1.937   1.654  -0.236  1.00  0.00     0.142 C 
BRANCH  23  24
HETATM   24  C3  UNL     1      -2.892   0.683   0.334  1.00  0.00     0.066 A 
HETATM   25  C2  UNL     1      -4.211   1.036   0.512  1.00  0.00     0.094 A 
HETATM   26  C13 UNL     1      -5.079   0.128   1.040  1.00  0.00     0.160 A 
HETATM   27  N14 UNL     1      -4.710  -1.124   1.405  1.00  0.00    -0.177 N 
HETATM   28  N15 UNL     1      -6.447   0.492   1.226  1.00  0.00    -0.080 NA
HETATM   29  C12 UNL     1      -3.398  -1.430   1.213  1.00  0.00     0.677 A 
ATOM     30  H14 UNL     1      -5.372  -1.793   1.798  1.00  0.00     0.185 HD
HETATM   31  N12 UNL     1      -2.516  -0.563   0.696  1.00  0.00    -0.193 N 
ATOM     32  H12 UNL     1      -1.545  -0.849   0.574  1.00  0.00     0.184 HD
BRANCH  25  33
HETATM   33  N1  UNL     1      -4.710   2.326   0.163  1.00  0.00    -0.390 N 
HETATM   34  C1  UNL     1      -5.245   2.648  -1.136  1.00  0.00     0.146 C 
ATOM     35  H1  UNL     1      -4.687   3.060   0.871  1.00  0.00     0.159 HD
ENDBRANCH  25  33
BRANCH  29  36
HETATM   36  N13 UNL     1      -3.053  -2.628   1.564  1.00  0.00    -0.234 N 
ATOM     37 2H13 UNL     1      -2.070  -2.857   1.420  1.00  0.00     0.174 HD
ATOM     38 1H13 UNL     1      -3.724  -3.288   1.957  1.00  0.00     0.174 HD
ENDBRANCH  29  36
ENDBRANCH  23  24
ENDBRANCH  22  23
ENDBRANCH  17  22
ENDBRANCH  10  16
ENDBRANCH   5   6
BRANCH   5  39
HETATM   39  N8  UNL     1       6.743  -1.236   0.683  1.00  0.00    -0.051 N 
ATOM     40  H83 UNL     1       6.163  -1.719   1.369  1.00  0.00     0.277 HD
ATOM     41  H82 UNL     1       6.765  -1.951  -0.044  1.00  0.00     0.277 HD
ATOM     42  H81 UNL     1       7.677  -1.058   1.052  1.00  0.00     0.277 HD
ENDBRANCH   5  39
ENDBRANCH   1   5
TORSDOF 9
