REMARK  14 active torsions:
REMARK  status: ('A' for Active; 'I' for Inactive)
REMARK    1  A    between atoms: S1_2  and  C2_3 
REMARK    2  A    between atoms: C3_5  and  C4_6 
REMARK    3  A    between atoms: C6_9  and  C7_10 
REMARK       I    between atoms: C7_10  and  N1_12 
REMARK    4  A    between atoms: N1_12  and  C8_14 
REMARK    5  A    between atoms: C8_14  and  C9_15 
REMARK    6  A    between atoms: C9_15  and  N2_16 
REMARK    7  A    between atoms: N2_16  and  C10_18 
REMARK    8  A    between atoms: C10_18  and  N3_19 
REMARK    9  A    between atoms: N3_19  and  O4_21 
REMARK   10  A    between atoms: O4_21  and  C11_22 
REMARK   11  A    between atoms: C12_30  and  O5_31 
REMARK   12  A    between atoms: C13_34  and  O7_35 
REMARK   13  A    between atoms: C14_37  and  O8_38 
REMARK   14  A    between atoms: C15_40  and  O9_41 
ROOT
HETATM    1  C4  UNL     1      -2.087  -0.161  -0.252  1.00  0.00     0.296 C 
HETATM    2  O2  UNL     1      -1.643  -1.029  -1.177  1.00  0.00    -0.356 OA
HETATM    3  C5  UNL     1      -0.408  -1.623  -1.010  1.00  0.00     0.214 C 
HETATM    4  C6  UNL     1       0.609  -0.740  -0.405  1.00  0.00     0.306 C 
HETATM    5  N6  UNL     1       0.448  -0.884   1.067  1.00  0.00    -0.010 N 
ATOM      6  H61 UNL     1       1.320  -0.815   1.592  1.00  0.00     0.284 HD
ATOM      7  H62 UNL     1       0.209  -1.828   1.371  1.00  0.00     0.284 HD
HETATM    8  C12 UNL     1      -0.529   0.112   1.414  1.00  0.00     0.470 C 
HETATM    9  O6  UNL     1      -1.783  -0.426   1.089  1.00  0.00    -0.306 OA
ENDROOT
BRANCH   4  10
HETATM   10  C7  UNL     1       2.065  -1.249  -0.514  1.00  0.00     0.251 C 
HETATM   11  O3  UNL     1       2.310  -2.358  -0.899  1.00  0.00    -0.271 OA
HETATM   12  N1  UNL     1       2.939  -0.249  -0.071  1.00  0.00    -0.354 N 
ATOM     13  H1  UNL     1       2.462   0.620   0.171  1.00  0.00     0.162 HD
BRANCH  12  14
HETATM   14  C8  UNL     1       4.349  -0.181   0.115  1.00  0.00     0.167 C 
BRANCH  14  15
HETATM   15  C9  UNL     1       4.589   1.193   0.747  1.00  0.00     0.091 C 
BRANCH  15  16
HETATM   16  N2  UNL     1       5.896   1.490   1.104  1.00  0.00    -0.319 N 
ATOM     17  H2  UNL     1       6.129   1.679   2.079  1.00  0.00     0.176 HD
BRANCH  16  18
HETATM   18  C10 UNL     1       6.798   1.526   0.220  1.00  0.00     0.073 C 
BRANCH  18  19
HETATM   19  N3  UNL     1       7.456   1.385  -0.910  1.00  0.00    -0.206 N 
ATOM     20  H3  UNL     1       7.513   2.095  -1.640  1.00  0.00     0.206 HD
BRANCH  19  21
HETATM   21  O4  UNL     1       8.069   0.126  -0.975  1.00  0.00    -0.196 OA
BRANCH  21  22
HETATM   22  C11 UNL     1       9.206  -0.003  -0.139  1.00  0.00     0.250 C 
HETATM   23  N4  UNL     1       9.652   0.927   0.608  1.00  0.00    -0.366 N 
ATOM     24  H42 UNL     1       9.134   1.805   0.567  1.00  0.00     0.159 HD
ATOM     25  H41 UNL     1      10.470   0.834   1.210  1.00  0.00     0.159 HD
HETATM   26  N5  UNL     1       9.935  -1.239  -0.081  1.00  0.00    -0.055 NA
ENDBRANCH  21  22
ENDBRANCH  19  21
ENDBRANCH  18  19
ENDBRANCH  16  18
ENDBRANCH  15  16
ENDBRANCH  14  15
ENDBRANCH  12  14
ENDBRANCH   4  10
BRANCH   8  27
HETATM   27  O5  UNL     1      -0.279   1.306   0.736  1.00  0.00    -0.349 OA
ATOM     28  H5  UNL     1      -0.925   1.964   0.965  1.00  0.00     0.214 HD
ENDBRANCH   8  27
BRANCH   1  29
HETATM   29  C3  UNL     1      -3.630  -0.082  -0.257  1.00  0.00     0.209 C 
HETATM   30  O1  UNL     1      -4.027   0.413  -1.457  1.00  0.00    -0.360 OA
HETATM   31  C2  UNL     1      -5.426   0.563  -1.523  1.00  0.00     0.214 C 
HETATM   32  C15 UNL     1      -6.069   0.876  -0.222  1.00  0.00     0.188 C 
HETATM   33  C14 UNL     1      -5.108   1.664   0.635  1.00  0.00     0.181 C 
HETATM   34  C13 UNL     1      -3.978   0.720   0.958  1.00  0.00     0.183 C 
BRANCH  31  35
HETATM   35  S1  UNL     1      -6.188  -0.900  -2.284  1.00  0.00    -0.139 SA
HETATM   36  C1  UNL     1      -5.974  -2.374  -1.257  1.00  0.00     0.092 C 
ENDBRANCH  31  35
BRANCH  32  37
HETATM   37  O9  UNL     1      -7.262   1.563  -0.418  1.00  0.00    -0.389 OA
ATOM     38  H9  UNL     1      -7.673   1.763   0.415  1.00  0.00     0.210 HD
ENDBRANCH  32  37
BRANCH  33  39
HETATM   39  O8  UNL     1      -4.598   2.708  -0.109  1.00  0.00    -0.390 OA
ATOM     40  H8  UNL     1      -5.310   3.303  -0.313  1.00  0.00     0.210 HD
ENDBRANCH  33  39
BRANCH  34  41
HETATM   41  O7  UNL     1      -4.303  -0.130   2.030  1.00  0.00    -0.390 OA
ATOM     42  H7  UNL     1      -4.524   0.379   2.801  1.00  0.00     0.210 HD
ENDBRANCH  34  41
ENDBRANCH   1  29
TORSDOF 14
