REMARK  12 active torsions:
REMARK  status: ('A' for Active; 'I' for Inactive)
REMARK    1  A    between atoms: C2_2  and  O1_3 
REMARK    2  A    between atoms: C2_2  and  C3_5 
REMARK    3  A    between atoms: C3_5  and  N1_6 
REMARK    4  A    between atoms: C3_5  and  O2_10 
REMARK    5  A    between atoms: C3_5  and  C4_12 
REMARK    6  A    between atoms: C4_12  and  O3_13 
REMARK    7  A    between atoms: C4_12  and  N2_15 
REMARK    8  A    between atoms: N2_15  and  C5_17 
REMARK    9  A    between atoms: C6_18  and  C7_19 
REMARK   10  A    between atoms: C7_19  and  O4_20 
REMARK   11  A    between atoms: C8_22  and  C9_23 
REMARK   12  A    between atoms: C11_29  and  C13_31 
ROOT
HETATM    1  C5  UNL     1      -0.626  -0.099   0.148  1.00  0.00     0.153 C 
HETATM    2  C6  UNL     1      -0.997  -1.534   0.349  1.00  0.00     0.022 C 
HETATM    3  C8  UNL     1      -2.198  -1.793  -0.129  1.00  0.00     0.155 C 
HETATM    4  O7  UNL     1      -2.672  -0.566  -0.657  1.00  0.00    -0.310 OA
HETATM    5  C10 UNL     1      -1.518   0.145  -1.068  1.00  0.00     0.307 C 
HETATM    6  O8  UNL     1      -1.859   1.442  -1.247  1.00  0.00    -0.329 OA
HETATM    7  C11 UNL     1      -2.612   2.015  -0.276  1.00  0.00     0.192 C 
HETATM    8  C12 UNL     1      -4.102   1.673  -0.415  1.00  0.00     0.065 C 
HETATM    9  C14 UNL     1      -2.154   1.631   1.126  1.00  0.00     0.088 A 
HETATM   10  N3  UNL     1      -2.627   2.236   2.227  1.00  0.00    -0.311 N 
ATOM     11  H3  UNL     1      -3.316   2.986   2.275  1.00  0.00     0.175 HD
HETATM   12  S1  UNL     1      -1.843   1.495   3.500  1.00  0.00     0.067 SA
HETATM   13  N4  UNL     1      -0.920   0.420   2.609  1.00  0.00    -0.311 N 
ATOM     14  H4  UNL     1      -0.257  -0.269   2.965  1.00  0.00     0.175 HD
HETATM   15  C15 UNL     1      -1.241   0.659   1.312  1.00  0.00     0.081 A 
ENDROOT
BRANCH   1  16
HETATM   16  N2  UNL     1       0.707   0.107  -0.041  1.00  0.00    -0.371 N 
ATOM     17  H2  UNL     1       1.179   0.616   0.706  1.00  0.00     0.157 HD
BRANCH  16  18
HETATM   18  C4  UNL     1       1.510  -0.271  -1.093  1.00  0.00     0.281 C 
BRANCH  18  19
HETATM   19  C3  UNL     1       2.984   0.046  -0.957  1.00  0.00     0.291 C 
BRANCH  19  20
HETATM   20  C2  UNL     1       3.664  -0.562   0.224  1.00  0.00     0.181 C 
HETATM   21  C1  UNL     1       5.131  -0.178   0.262  1.00  0.00     0.044 C 
BRANCH  20  22
HETATM   22  O1  UNL     1       3.582  -1.914   0.337  1.00  0.00    -0.391 OA
ATOM     23  H1  UNL     1       2.663  -2.154   0.313  1.00  0.00     0.210 HD
ENDBRANCH  20  22
ENDBRANCH  19  20
BRANCH  19  24
HETATM   24  N1  UNL     1       3.217   1.482  -0.896  1.00  0.00    -0.040 N 
ATOM     25  H13 UNL     1       2.926   1.897  -0.011  1.00  0.00     0.278 HD
ATOM     26  H12 UNL     1       4.206   1.724  -0.836  1.00  0.00     0.278 HD
ATOM     27  H11 UNL     1       2.752   1.898  -1.703  1.00  0.00     0.278 HD
ENDBRANCH  19  24
BRANCH  19  28
HETATM   28  O2  UNL     1       3.634  -0.391  -2.109  1.00  0.00    -0.360 OA
ATOM     29  H2  UNL     1       3.201  -0.004  -2.861  1.00  0.00     0.212 HD
ENDBRANCH  19  28
ENDBRANCH  18  19
BRANCH  18  30
HETATM   30  O3  UNL     1       1.169   0.295  -2.343  1.00  0.00    -0.372 OA
ATOM     31  H3  UNL     1       0.244   0.096  -2.428  1.00  0.00     0.212 HD
ENDBRANCH  18  30
ENDBRANCH  16  18
ENDBRANCH   1  16
BRANCH   2  32
HETATM   32  C7  UNL     1      -0.157  -2.574   1.014  1.00  0.00     0.204 C 
BRANCH  32  33
HETATM   33  O4  UNL     1       0.169  -2.260   2.333  1.00  0.00    -0.396 OA
ATOM     34  H4  UNL     1       0.703  -2.922   2.756  1.00  0.00     0.209 HD
ENDBRANCH  32  33
ENDBRANCH   2  32
BRANCH   3  35
HETATM   35  C9  UNL     1      -2.999  -3.027  -0.175  1.00  0.00     0.234 C 
HETATM   36  O5  UNL     1      -4.169  -3.003  -0.711  1.00  0.00    -0.642 OA
HETATM   37  O6  UNL     1      -2.631  -4.255   0.306  1.00  0.00    -0.642 OA
ENDBRANCH   3  35
BRANCH   7  38
HETATM   38  C13 UNL     1      -2.521   3.490  -0.431  1.00  0.00     0.215 C 
HETATM   39  O9  UNL     1      -1.854   4.006  -1.329  1.00  0.00    -0.645 OA
HETATM   40  O10 UNL     1      -3.223   4.292   0.482  1.00  0.00    -0.645 OA
ENDBRANCH   7  38
TORSDOF 12
