REMARK  14 active torsions:
REMARK  status: ('A' for Active; 'I' for Inactive)
REMARK    1  A    between atoms: N1_1  and  C1_5 
REMARK    2  A    between atoms: C2_9  and  O1_10 
REMARK    3  A    between atoms: C3_13  and  N3_14 
REMARK    4  A    between atoms: N3_14  and  N4_15 
REMARK    5  A    between atoms: N3_14  and  C4_18 
REMARK    6  A    between atoms: C4_18  and  C5_19 
REMARK    7  A    between atoms: C5_19  and  C6_20 
REMARK    8  A    between atoms: C6_20  and  O3_21 
REMARK    9  A    between atoms: C8_25  and  N5_26 
REMARK       I    between atoms: N5_26  and  C9_28 
REMARK   10  A    between atoms: C9_28  and  C10_30 
REMARK   11  A    between atoms: C11_31  and  C12_32 
REMARK   12  A    between atoms: C13_34  and  O7_35 
REMARK   13  A    between atoms: C14_37  and  O8_38 
REMARK   14  A    between atoms: C15_40  and  O9_41 
ROOT
HETATM    1  C5  UNL     1      -1.161  -2.040   0.547  1.00  0.00     0.201 C 
HETATM    2  O4  UNL     1      -0.716  -2.512  -0.708  1.00  0.00    -0.348 OA
HETATM    3  C7  UNL     1       0.642  -2.755  -0.553  1.00  0.00     0.225 C 
HETATM    4  C8  UNL     1       1.083  -1.841   0.540  1.00  0.00     0.251 C 
HETATM    5  O10 UNL     1      -0.085  -1.260   0.970  1.00  0.00    -0.325 OA
ENDROOT
BRANCH   1   6
HETATM    6  C4  UNL     1      -2.329  -1.166   0.380  1.00  0.00     0.187 C 
BRANCH   6   7
HETATM    7  N3  UNL     1      -3.499  -1.697  -0.222  1.00  0.00    -0.201 NA
BRANCH   7   8
HETATM    8  C3  UNL     1      -4.527  -0.685  -0.303  1.00  0.00     0.256 C 
HETATM    9  O2  UNL     1      -5.537  -1.049  -1.194  1.00  0.00    -0.306 OA
HETATM   10  C2  UNL     1      -5.589   0.216  -1.776  1.00  0.00     0.373 C 
HETATM   11  N2  UNL     1      -6.477   1.162  -1.179  1.00  0.00     0.037 N 
HETATM   12  C16 UNL     1      -4.257   0.519  -1.130  1.00  0.00     0.264 C 
HETATM   13  C1  UNL     1      -5.743   1.891  -0.194  1.00  0.00     0.528 C 
ATOM     14  H22 UNL     1      -7.321   0.730  -0.803  1.00  0.00     0.289 HD
ATOM     15  H21 UNL     1      -6.928   1.768  -1.864  1.00  0.00     0.289 HD
HETATM   16  O11 UNL     1      -4.394   1.730  -0.471  1.00  0.00    -0.322 OA
BRANCH  10  17
HETATM   17  O1  UNL     1      -5.592   0.109  -3.145  1.00  0.00    -0.341 OA
ATOM     18  H1  UNL     1      -5.001  -0.520  -3.542  1.00  0.00     0.215 HD
ENDBRANCH  10  17
BRANCH  13  19
HETATM   19  N1  UNL     1      -6.056   3.293  -0.136  1.00  0.00    -0.027 N 
ATOM     20  H13 UNL     1      -5.941   3.721  -1.055  1.00  0.00     0.279 HD
ATOM     21  H12 UNL     1      -7.058   3.428  -0.005  1.00  0.00     0.279 HD
ATOM     22  H11 UNL     1      -5.532   3.814   0.567  1.00  0.00     0.279 HD
ENDBRANCH  13  19
ENDBRANCH   7   8
BRANCH   7  23
HETATM   23  N4  UNL     1      -4.081  -2.765   0.461  1.00  0.00    -0.361 NA
ATOM     24  H42 UNL     1      -4.922  -3.147   0.028  1.00  0.00     0.171 HD
ATOM     25  H41 UNL     1      -3.355  -3.479   0.518  1.00  0.00     0.171 HD
ENDBRANCH   7  23
ENDBRANCH   6   7
ENDBRANCH   1   6
BRANCH   1  26
HETATM   26  C6  UNL     1      -1.259  -3.215   1.438  1.00  0.00     0.234 C 
BRANCH  26  27
HETATM   27  O3  UNL     1      -1.689  -2.910   2.729  1.00  0.00    -0.395 OA
ATOM     28  H3  UNL     1      -1.752  -3.665   3.302  1.00  0.00     0.209 HD
ENDBRANCH  26  27
ENDBRANCH   1  26
BRANCH   4  29
HETATM   29  N5  UNL     1       2.042  -0.847   0.085  1.00  0.00    -0.329 N 
HETATM   30  C9  UNL     1       3.299  -0.687   0.713  1.00  0.00     0.243 C 
HETATM   31  O5  UNL     1       3.587  -1.420   1.680  1.00  0.00    -0.269 OA
ATOM     32  H5  UNL     1       1.802  -0.250  -0.707  1.00  0.00     0.165 HD
BRANCH  30  33
HETATM   33  C10 UNL     1       4.270   0.309   0.267  1.00  0.00     0.077 C 
HETATM   34  C11 UNL     1       5.411   0.416   0.880  1.00  0.00     0.046 C 
BRANCH  34  35
HETATM   35  C12 UNL     1       6.436   1.367   0.515  1.00  0.00     0.114 A 
HETATM   36  O6  UNL     1       7.586   1.398   1.220  1.00  0.00    -0.283 OA
HETATM   37  C13 UNL     1       8.387   2.302   0.762  1.00  0.00     0.221 A 
HETATM   38  C14 UNL     1       7.821   2.948  -0.296  1.00  0.00     0.161 A 
HETATM   39  C15 UNL     1       6.544   2.331  -0.452  1.00  0.00     0.138 A 
BRANCH  37  40
HETATM   40  O7  UNL     1       9.655   2.549   1.311  1.00  0.00    -0.339 OA
ATOM     41  H7  UNL     1      10.244   3.214   0.974  1.00  0.00     0.220 HD
ENDBRANCH  37  40
BRANCH  38  42
HETATM   42  O8  UNL     1       8.357   3.966  -1.046  1.00  0.00    -0.354 OA
ATOM     43  H8  UNL     1       7.962   4.416  -1.784  1.00  0.00     0.218 HD
ENDBRANCH  38  42
BRANCH  39  44
HETATM   44  O9  UNL     1       5.697   2.720  -1.415  1.00  0.00    -0.356 OA
ATOM     45  H9  UNL     1       5.772   3.389  -2.086  1.00  0.00     0.218 HD
ENDBRANCH  39  44
ENDBRANCH  34  35
ENDBRANCH  30  33
ENDBRANCH   4  29
TORSDOF 14
