REMARK  9 active torsions:
REMARK  status: ('A' for Active; 'I' for Inactive)
REMARK    1  A    between atoms: C2_2  and  C3_4 
REMARK    2  A    between atoms: C5_9  and  N2_10 
REMARK    3  A    between atoms: N2_10  and  C6_12 
REMARK    4  A    between atoms: C6_12  and  C7_13 
REMARK    5  A    between atoms: C12_20  and  N4_21 
REMARK    6  A    between atoms: C13_26  and  N6_27 
REMARK    7  A    between atoms: N6_27  and  O2_29 
REMARK    8  A    between atoms: O2_29  and  C14_30 
REMARK    9  A    between atoms: C15_35  and  N9_36 
ROOT
HETATM    1  C7  UNL     1      -0.887   0.450  -0.931  1.00  0.00     0.030 A 
HETATM    2  C8  UNL     1       0.436   0.127  -1.168  1.00  0.00     0.060 A 
HETATM    3  C9  UNL     1       1.389   0.634  -0.324  1.00  0.00     0.090 A 
HETATM    4  C10 UNL     1       0.989   1.457   0.744  1.00  0.00     0.100 A 
HETATM    5  N3  UNL     1       2.079   1.819   1.412  1.00  0.00    -0.334 N 
ATOM      6  H3  UNL     1       2.110   2.417   2.238  1.00  0.00     0.168 HD
HETATM    7  C11 UNL     1       3.125   1.257   0.804  1.00  0.00     0.174 A 
HETATM    8  C12 UNL     1       4.455   1.384   1.199  1.00  0.00     0.160 C 
HETATM    9  N5  UNL     1       5.484   0.561   0.921  1.00  0.00    -0.171 N 
ATOM     10  H5  UNL     1       6.342   0.747   1.440  1.00  0.00     0.186 HD
HETATM   11  C13 UNL     1       5.549  -0.480   0.052  1.00  0.00     0.718 C 
HETATM   12  N8  UNL     1       4.624  -0.766  -0.915  1.00  0.00    -0.020 N 
ATOM     13  H8  UNL     1       4.869  -1.530  -1.545  1.00  0.00     0.203 HD
HETATM   14  C15 UNL     1       3.439  -0.181  -1.149  1.00  0.00     0.699 C 
HETATM   15  N10 UNL     1       2.722   0.523  -0.269  1.00  0.00    -0.126 N 
HETATM   16  C16 UNL     1      -0.335   1.761   0.955  1.00  0.00     0.143 A 
HETATM   17  C17 UNL     1      -0.783   2.596   2.031  1.00  0.00     0.120 C 
HETATM   18  N11 UNL     1      -1.148   3.285   2.890  1.00  0.00    -0.190 NA
HETATM   19  N12 UNL     1      -1.226   1.239   0.099  1.00  0.00    -0.348 N 
ATOM     20  H12 UNL     1      -2.213   1.453   0.239  1.00  0.00     0.166 HD
ENDROOT
BRANCH   1  21
HETATM   21  C6  UNL     1      -1.967  -0.090  -1.840  1.00  0.00     0.173 C 
BRANCH  21  22
HETATM   22  N2  UNL     1      -3.225   0.396  -1.400  1.00  0.00    -0.389 N 
ATOM     23  H2  UNL     1      -3.314   1.010  -0.590  1.00  0.00     0.155 HD
BRANCH  22  24
HETATM   24  C5  UNL     1      -4.354  -0.023  -2.154  1.00  0.00     0.309 C 
HETATM   25  C4  UNL     1      -4.604  -1.497  -2.155  1.00  0.00     0.289 C 
HETATM   26  N1  UNL     1      -5.103  -1.716  -0.803  1.00  0.00    -0.035 N 
HETATM   27  C3  UNL     1      -6.066  -0.617  -0.693  1.00  0.00     0.453 C 
ATOM     28  H12 UNL     1      -4.393  -1.756  -0.071  1.00  0.00     0.280 HD
ATOM     29  H11 UNL     1      -5.473  -2.648  -0.614  1.00  0.00     0.280 HD
HETATM   30  N13 UNL     1      -5.543   0.473  -1.457  1.00  0.00    -0.017 N 
ATOM     31 2H13 UNL     1      -6.231   0.889  -2.085  1.00  0.00     0.282 HD
ATOM     32 1H13 UNL     1      -5.360   1.305  -0.895  1.00  0.00     0.282 HD
BRANCH  27  33
HETATM   33  C2  UNL     1      -6.336  -0.306   0.716  1.00  0.00     0.180 C 
HETATM   34  C1  UNL     1      -7.288   0.781   1.050  1.00  0.00     0.095 C 
HETATM   35  O1  UNL     1      -5.807  -0.908   1.655  1.00  0.00    -0.294 OA
ENDBRANCH  27  33
ENDBRANCH  22  24
ENDBRANCH  21  22
ENDBRANCH   1  21
BRANCH  14  36
HETATM   36  N9  UNL     1       2.996  -0.329  -2.338  1.00  0.00    -0.233 N 
ATOM     37  H92 UNL     1       3.544  -0.867  -3.010  1.00  0.00     0.174 HD
ATOM     38  H91 UNL     1       2.095   0.116  -2.516  1.00  0.00     0.174 HD
ENDBRANCH  14  36
BRANCH   8  39
HETATM   39  N4  UNL     1       4.701   2.426   1.918  1.00  0.00    -0.382 N 
ATOM     40  H42 UNL     1       3.922   3.049   2.129  1.00  0.00     0.157 HD
ATOM     41  H41 UNL     1       5.675   2.519   2.207  1.00  0.00     0.157 HD
ENDBRANCH   8  39
BRANCH  11  42
HETATM   42  N6  UNL     1       6.572  -1.253   0.161  1.00  0.00    -0.086 N 
ATOM     43  H6  UNL     1       6.682  -2.055  -0.460  1.00  0.00     0.214 HD
BRANCH  42  44
HETATM   44  O2  UNL     1       7.507  -0.986   1.118  1.00  0.00    -0.169 OA
BRANCH  44  45
HETATM   45  C14 UNL     1       7.468  -1.457   2.403  1.00  0.00     0.395 C 
HETATM   46  N7  UNL     1       8.509  -1.098   3.290  1.00  0.00    -0.031 NA
HETATM   47  O3  UNL     1       6.514  -2.192   2.762  1.00  0.00    -0.240 OA
ENDBRANCH  44  45
ENDBRANCH  42  44
ENDBRANCH  11  42
TORSDOF 9
