REMARK  4 active torsions:
REMARK  status: ('A' for Active; 'I' for Inactive)
REMARK    1  A    between atoms: C2_2  and  C4_4 
REMARK    2  A    between atoms: C8_9  and  N1_10 
REMARK    3  A    between atoms: N3_23  and  C17_24 
REMARK    4  A    between atoms: C17_24  and  C19_26 
ROOT
HETATM    1  C4  UNL     1      -2.709  -2.380  -0.468  1.00  0.00    -0.050 A 
HETATM    2  C5  UNL     1      -1.605  -3.029   0.044  1.00  0.00     0.050 A 
HETATM    3  C6  UNL     1      -0.591  -2.312   0.632  1.00  0.00     0.131 A 
HETATM    4  F1  UNL     1       0.516  -2.910   1.150  1.00  0.00    -0.205 F 
HETATM    5  C7  UNL     1      -0.689  -0.920   0.706  1.00  0.00     0.058 A 
HETATM    6  C8  UNL     1       0.177   0.014   1.237  1.00  0.00     0.065 A 
HETATM    7  C16 UNL     1      -0.444   1.223   1.025  1.00  0.00     0.122 A 
HETATM    8  N3  UNL     1      -1.623   1.056   0.401  1.00  0.00    -0.349 N 
HETATM    9  C22 UNL     1      -1.792  -0.269   0.195  1.00  0.00     0.050 A 
HETATM   10  C23 UNL     1      -2.823  -1.010  -0.404  1.00  0.00     0.038 A 
ENDROOT
BRANCH   6  11
HETATM   11  N1  UNL     1       1.400  -0.258   1.845  1.00  0.00    -0.344 N 
HETATM   12  C9  UNL     1       2.562   0.051   1.429  1.00  0.00     0.084 C 
HETATM   13  C10 UNL     1       3.759  -0.318   2.202  1.00  0.00     0.078 C 
HETATM   14  N2  UNL     1       2.746   0.753   0.220  1.00  0.00    -0.316 N 
HETATM   15  C11 UNL     1       4.774  -0.866   1.229  1.00  0.00     0.026 C 
HETATM   16  C12 UNL     1       5.132   0.066   0.122  1.00  0.00     0.034 C 
HETATM   17  C13 UNL     1       5.527  -0.791  -1.084  1.00  0.00     0.025 C 
HETATM   18  C14 UNL     1       6.374   0.843   0.505  1.00  0.00     0.025 C 
HETATM   19  C15 UNL     1       4.057   1.000  -0.273  1.00  0.00     0.231 C 
HETATM   20  O1  UNL     1       4.291   1.961  -1.007  1.00  0.00    -0.272 OA
ATOM     21  H2  UNL     1       1.936   1.085  -0.303  1.00  0.00     0.170 HD
ATOM     22  H1  UNL     1       1.359  -0.765   2.729  1.00  0.00     0.167 HD
ENDBRANCH   6  11
BRANCH   8  23
HETATM   23  C17 UNL     1      -2.560   2.045   0.006  1.00  0.00     0.089 C 
HETATM   24  C18 UNL     1      -3.706   2.094   1.006  1.00  0.00     0.033 C 
BRANCH  23  25
HETATM   25  C19 UNL     1      -2.074   3.428  -0.156  1.00  0.00     0.000 C 
HETATM   26  C20 UNL     1      -3.248   4.294  -0.579  1.00  0.00     0.011 C 
HETATM   27  C21 UNL     1      -0.969   3.679  -1.111  1.00  0.00     0.011 C 
ENDBRANCH  23  25
ENDBRANCH   8  23
BRANCH   1  28
HETATM   28  C2  UNL     1      -3.804  -3.185  -1.106  1.00  0.00     0.010 C 
HETATM   29  C1  UNL     1      -4.317  -4.176  -0.057  1.00  0.00     0.015 C 
HETATM   30  C3  UNL     1      -3.221  -3.950  -2.253  1.00  0.00     0.015 C 
ENDBRANCH   1  28
TORSDOF 4
