REMARK  4 active torsions:
REMARK  status: ('A' for Active; 'I' for Inactive)
REMARK    1  A    between atoms: C3_5  and  C4_6 
REMARK    2  A    between atoms: C7_11  and  C8_12 
REMARK    3  A    between atoms: C8_12  and  C9_13 
REMARK    4  A    between atoms: C17_22  and  C18_23 
ROOT
HETATM    1  C1  UNL     1      -2.335   3.721   1.772  1.00  0.00     0.065 C 
HETATM    2  C2  UNL     1      -1.259   3.306   1.103  1.00  0.00     0.120 A 
HETATM    3  N1  UNL     1      -0.197   4.206   0.824  1.00  0.00    -0.331 N 
ATOM      4  H1  UNL     1      -0.243   5.174   1.143  1.00  0.00     0.168 HD
HETATM    5  C3  UNL     1       0.841   3.780   0.153  1.00  0.00     0.083 A 
HETATM    6  N2  UNL     1       0.944   2.453  -0.306  1.00  0.00    -0.330 N 
ATOM      7  H2  UNL     1       1.772   2.163  -0.827  1.00  0.00     0.168 HD
HETATM    8  C6  UNL     1      -0.089   1.513  -0.054  1.00  0.00     0.139 A 
HETATM    9  C7  UNL     1      -0.267   0.182  -0.362  1.00  0.00     0.017 A 
HETATM   10  C17 UNL     1      -1.509  -0.122   0.190  1.00  0.00     0.041 A 
HETATM   11  N3  UNL     1      -1.982   0.984   0.773  1.00  0.00    -0.294 N 
ATOM     12  H3  UNL     1      -2.877   1.045   1.259  1.00  0.00     0.187 HD
HETATM   13  N4  UNL     1      -1.144   1.977   0.637  1.00  0.00    -0.224 N 
ENDROOT
BRANCH   9  14
HETATM   14  C8  UNL     1       0.577  -0.741  -1.092  1.00  0.00     0.085 C 
BRANCH  14  15
HETATM   15  C9  UNL     1       1.890  -1.100  -0.572  1.00  0.00    -0.026 A 
HETATM   16  C10 UNL     1       2.147  -1.778   0.568  1.00  0.00    -0.053 A 
HETATM   17  C11 UNL     1       1.090  -2.167   1.505  1.00  0.00     0.049 C 
HETATM   18  C12 UNL     1       3.442  -2.152   0.957  1.00  0.00     0.014 A 
HETATM   19  C13 UNL     1       4.508  -1.835   0.175  1.00  0.00    -0.060 A 
HETATM   20  C14 UNL     1       5.909  -2.222   0.543  1.00  0.00     0.048 C 
HETATM   21  C15 UNL     1       4.278  -1.147  -0.990  1.00  0.00     0.031 A 
HETATM   22  C16 UNL     1       3.001  -0.778  -1.373  1.00  0.00     0.041 A 
HETATM   23 CL1  UNL     1       2.777   0.058  -2.879  1.00  0.00    -0.084 Cl
ENDBRANCH  14  15
ENDBRANCH   9  14
BRANCH  10  24
HETATM   24  C18 UNL     1      -2.279  -1.368   0.075  1.00  0.00     0.038 C 
HETATM   25  C19 UNL     1      -3.206  -1.487   1.302  1.00  0.00     0.011 C 
HETATM   26  C20 UNL     1      -3.456  -3.004   1.386  1.00  0.00     0.001 C 
HETATM   27  C21 UNL     1      -4.129  -3.363   0.077  1.00  0.00     0.000 C 
HETATM   28  C22 UNL     1      -4.459  -2.160  -0.758  1.00  0.00     0.001 C 
HETATM   29  C23 UNL     1      -3.301  -1.271  -1.077  1.00  0.00     0.011 C 
ENDBRANCH  10  24
BRANCH   5  30
HETATM   30  C4  UNL     1       1.889   4.805  -0.080  1.00  0.00     0.072 C 
HETATM   31  C5  UNL     1       1.319   5.897  -0.946  1.00  0.00     0.013 C 
ENDBRANCH   5  30
TORSDOF 4
