REMARK  4 active torsions:
REMARK  status: ('A' for Active; 'I' for Inactive)
REMARK    1  A    between atoms: C4_4  and  C5_5 
REMARK    2  A    between atoms: C15_17  and  N1_18 
REMARK    3  A    between atoms: N1_18  and  C16_20 
REMARK    4  A    between atoms: C16_20  and  C17_21 
ROOT
HETATM    1  C1  UNL     1      -0.434   0.423  -2.192  1.00  0.00     0.012 C 
HETATM    2  C2  UNL     1      -0.228   0.645  -0.709  1.00  0.00     0.004 C 
HETATM    3  C3  UNL     1       1.248   0.822  -0.392  1.00  0.00     0.016 C 
HETATM    4  C4  UNL     1       1.860  -0.383   0.255  1.00  0.00     0.026 C 
HETATM    5  C13 UNL     1       1.429  -1.680  -0.413  1.00  0.00     0.012 C 
HETATM    6  C14 UNL     1      -0.041  -1.771  -0.651  1.00  0.00     0.026 C 
HETATM    7  C15 UNL     1      -0.712  -0.572   0.018  1.00  0.00     0.080 C 
ENDROOT
BRANCH   4   8
HETATM    8  C5  UNL     1       3.342  -0.296   0.011  1.00  0.00    -0.012 A 
HETATM    9  C6  UNL     1       4.358  -0.201   0.923  1.00  0.00     0.027 A 
HETATM   10  C7  UNL     1       5.620  -0.138   0.430  1.00  0.00    -0.016 A 
HETATM   11  C8  UNL     1       6.798  -0.038   1.198  1.00  0.00     0.036 A 
HETATM   12  C12 UNL     1       5.764  -0.176  -0.925  1.00  0.00     0.015 A 
HETATM   13  C9  UNL     1       8.008   0.017   0.574  1.00  0.00     0.035 A 
HETATM   14 CL1  UNL     1       9.483   0.143   1.540  1.00  0.00    -0.084 Cl
HETATM   15  C10 UNL     1       8.191  -0.019  -0.795  1.00  0.00     0.025 A 
HETATM   16  C11 UNL     1       7.026  -0.118  -1.540  1.00  0.00     0.021 A 
HETATM   17  S1  UNL     1       4.154  -0.297  -1.480  1.00  0.00    -0.094 SA
ENDBRANCH   4   8
BRANCH   7  18
HETATM   18  N1  UNL     1      -2.122  -0.754  -0.096  1.00  0.00    -0.416 N 
ATOM     19  H1  UNL     1      -2.530  -1.572  -0.549  1.00  0.00     0.153 HD
BRANCH  18  20
HETATM   20  C16 UNL     1      -2.921   0.281   0.464  1.00  0.00     0.118 C 
BRANCH  20  21
HETATM   21  C17 UNL     1      -4.409   0.010   0.320  1.00  0.00     0.007 C 
HETATM   22  C18 UNL     1      -5.213   1.121   0.920  1.00  0.00     0.032 C 
HETATM   23  C19 UNL     1      -6.657   0.926   0.479  1.00  0.00     0.168 C 
HETATM   24  O1  UNL     1      -6.956  -0.418   0.412  1.00  0.00    -0.391 OA
HETATM   25  C20 UNL     1      -6.273  -1.184   1.343  1.00  0.00     0.168 C 
HETATM   26  C21 UNL     1      -4.804  -1.277   0.988  1.00  0.00     0.032 C 
ENDBRANCH  20  21
ENDBRANCH  18  20
ENDBRANCH   7  18
TORSDOF 4
