REMARK  2 active torsions:
REMARK  status: ('A' for Active; 'I' for Inactive)
REMARK       I    between atoms: N2_12  and  C8_13 
REMARK    1  A    between atoms: C8_13  and  C9_15 
REMARK       I    between atoms: N3_19  and  C13_20 
REMARK       I    between atoms: C13_20  and  N4_22 
REMARK    2  A    between atoms: N4_22  and  C14_24 
ROOT
HETATM    1  C9  UNL     1      -0.398  -1.548  -0.334  1.00  0.00     0.181 C 
HETATM    2  C10 UNL     1      -1.020  -2.897   0.075  1.00  0.00     0.037 C 
HETATM    3  C11 UNL     1      -1.018  -3.604  -1.260  1.00  0.00     0.022 C 
HETATM    4  C12 UNL     1       0.156  -3.079  -2.016  1.00  0.00     0.129 C 
HETATM    5  N3  UNL     1       0.652  -1.996  -1.218  1.00  0.00    -0.321 N 
HETATM    6  C13 UNL     1       1.950  -1.456  -1.288  1.00  0.00     0.319 C 
HETATM    7  O3  UNL     1       2.812  -1.930  -2.104  1.00  0.00    -0.247 OA
HETATM    8  N4  UNL     1       2.336  -0.377  -0.461  1.00  0.00    -0.338 N 
ATOM      9  H4  UNL     1       1.658   0.012   0.194  1.00  0.00     0.164 HD
ENDROOT
BRANCH   1  10
HETATM   10  C8  UNL     1      -1.450  -0.799  -1.082  1.00  0.00     0.244 C 
HETATM   11  N2  UNL     1      -2.551  -0.115  -0.537  1.00  0.00    -0.321 N 
HETATM   12  C3  UNL     1      -2.892   0.043   0.846  1.00  0.00     0.300 C 
HETATM   13  C7  UNL     1      -3.464   0.498  -1.494  1.00  0.00     0.128 C 
HETATM   14  N1  UNL     1      -1.850   0.172   1.779  1.00  0.00    -0.047 N 
HETATM   15  C4  UNL     1      -3.585   1.419   0.924  1.00  0.00     0.107 C 
HETATM   16  C2  UNL     1      -2.358   0.978   2.866  1.00  0.00     0.313 C 
ATOM     17  H12 UNL     1      -0.991   0.542   1.373  1.00  0.00     0.280 HD
ATOM     18  H11 UNL     1      -1.473  -0.724   2.086  1.00  0.00     0.280 HD
HETATM   19  C1  UNL     1      -3.588   1.646   2.370  1.00  0.00     0.160 C 
HETATM   20  O1  UNL     1      -4.357   2.229   3.109  1.00  0.00    -0.296 OA
HETATM   21  C5  UNL     1      -4.980   1.153   0.380  1.00  0.00     0.018 C 
HETATM   22  C6  UNL     1      -4.881   0.588  -1.016  1.00  0.00     0.021 C 
HETATM   23  O2  UNL     1      -1.352  -0.766  -2.377  1.00  0.00    -0.271 OA
ENDBRANCH   1  10
BRANCH   8  24
HETATM   24  C14 UNL     1       3.663   0.190  -0.517  1.00  0.00     0.086 C 
HETATM   25  C15 UNL     1       3.525   1.646  -0.903  1.00  0.00     0.025 C 
HETATM   26  C16 UNL     1       4.849   2.336  -0.680  1.00  0.00     0.002 C 
HETATM   27  C17 UNL     1       5.123   2.407   0.796  1.00  0.00     0.000 C 
HETATM   28  C18 UNL     1       4.425   1.327   1.577  1.00  0.00     0.002 C 
HETATM   29  C19 UNL     1       4.405   0.036   0.792  1.00  0.00     0.025 C 
ENDBRANCH   8  24
TORSDOF 2
