REMARK  7 active torsions:
REMARK  status: ('A' for Active; 'I' for Inactive)
REMARK    1  A    between atoms: C2_2  and  C5_5 
REMARK    2  A    between atoms: C6_6  and  C7_7 
REMARK    3  A    between atoms: C8_8  and  C9_9 
REMARK       I    between atoms: C9_9  and  N1_11 
REMARK    4  A    between atoms: N1_11  and  C10_13 
REMARK    5  A    between atoms: C10_13  and  O2_14 
REMARK    6  A    between atoms: C10_13  and  C15_19 
REMARK    7  A    between atoms: O2_14  and  C11_15 
ROOT
HETATM    1  C10 UNL     1      -2.229   0.435   0.216  1.00  0.00     0.248 C 
ENDROOT
BRANCH   1   2
HETATM    2  N1  UNL     1      -0.802   0.211   0.391  1.00  0.00    -0.322 N 
HETATM    3  C9  UNL     1       0.151   0.304  -0.657  1.00  0.00     0.299 C 
HETATM    4  O1  UNL     1      -0.202   0.597  -1.840  1.00  0.00    -0.258 OA
ATOM      5  H1  UNL     1      -0.466  -0.027   1.324  1.00  0.00     0.166 HD
BRANCH   3   6
HETATM    6  C8  UNL     1       1.553   0.076  -0.450  1.00  0.00     0.009 C 
HETATM    7  C7  UNL     1       2.734  -0.102  -0.281  1.00  0.00    -0.005 C 
BRANCH   7   8
HETATM    8  C6  UNL     1       4.124  -0.297  -0.103  1.00  0.00    -0.014 C 
HETATM    9  C5  UNL     1       5.313  -0.465   0.028  1.00  0.00    -0.084 C 
BRANCH   9  10
HETATM   10  C2  UNL     1       6.767  -0.673   0.165  1.00  0.00     0.013 C 
HETATM   11  C1  UNL     1       7.134  -0.970   1.609  1.00  0.00     0.028 C 
HETATM   12  C3  UNL     1       7.128  -1.872  -0.661  1.00  0.00     0.028 C 
HETATM   13  C4  UNL     1       7.509   0.571  -0.261  1.00  0.00     0.028 C 
ENDBRANCH   9  10
ENDBRANCH   7   8
ENDBRANCH   3   6
ENDBRANCH   1   2
BRANCH   1  14
HETATM   14  O2  UNL     1      -2.742   1.435   0.922  1.00  0.00    -0.355 OA
BRANCH  14  15
HETATM   15  C11 UNL     1      -3.277   2.536   0.432  1.00  0.00     0.052 C 
HETATM   16  C12 UNL     1      -3.817   3.559   1.385  1.00  0.00     0.045 C 
HETATM   17  C13 UNL     1      -2.143   3.265  -0.324  1.00  0.00     0.045 C 
HETATM   18  C14 UNL     1      -4.342   2.318  -0.634  1.00  0.00     0.045 C 
ENDBRANCH  14  15
ENDBRANCH   1  14
BRANCH   1  19
HETATM   19  C15 UNL     1      -2.901  -0.911   0.365  1.00  0.00     0.137 C 
HETATM   20  C16 UNL     1      -2.082  -1.919  -0.409  1.00  0.00     0.137 C 
HETATM   21  S1  UNL     1      -2.840  -3.536  -0.342  1.00  0.00     0.018 S 
HETATM   22  O3  UNL     1      -2.570  -4.246   1.167  1.00  0.00    -0.258 OA
HETATM   23  C17 UNL     1      -4.590  -3.309  -0.622  1.00  0.00     0.128 C 
HETATM   24  C18 UNL     1      -4.722  -1.820  -0.993  1.00  0.00     0.127 C 
HETATM   25  N2  UNL     1      -4.255  -0.943   0.000  1.00  0.00    -0.411 N 
ATOM     26  H2  UNL     1      -4.913  -0.317   0.465  1.00  0.00     0.153 HD
ENDBRANCH   1  19
TORSDOF 7
