REMARK  3 active torsions:
REMARK  status: ('A' for Active; 'I' for Inactive)
REMARK    1  A    between atoms: C9_11  and  C10_12 
REMARK    2  A    between atoms: C10_12  and  O1_13 
REMARK       I    between atoms: N3_16  and  C12_17 
REMARK       I    between atoms: C12_17  and  N4_19 
REMARK    3  A    between atoms: N4_19  and  C13_21 
ROOT
HETATM    1  C1  UNL     1      -2.214   2.596  -0.411  1.00  0.00     0.273 C 
HETATM    2  N1  UNL     1      -2.486   1.436  -1.275  1.00  0.00    -0.065 N 
HETATM    3  C2  UNL     1      -2.892   1.927  -2.577  1.00  0.00     0.239 A 
HETATM    4  C3  UNL     1      -4.303   1.469  -2.269  1.00  0.00     0.061 A 
HETATM    5  C4  UNL     1      -3.748   0.880  -0.980  1.00  0.00     0.192 A 
HETATM    6  C5  UNL     1      -3.884  -0.595  -0.998  1.00  0.00     0.035 C 
HETATM    7  C6  UNL     1      -3.231  -1.277   0.200  1.00  0.00     0.029 C 
HETATM    8  C7  UNL     1      -1.819  -1.554  -0.197  1.00  0.00     0.078 C 
HETATM    9  C8  UNL     1      -1.693  -2.191  -1.501  1.00  0.00     0.072 C 
HETATM   10  N2  UNL     1      -1.595  -2.711  -2.536  1.00  0.00    -0.196 NA
HETATM   11  C9  UNL     1      -1.048  -2.414   0.775  1.00  0.00     0.052 C 
HETATM   12  C11 UNL     1       0.383  -2.038   0.358  1.00  0.00     0.136 C 
HETATM   13  N3  UNL     1       0.268  -0.584   0.116  1.00  0.00    -0.326 N 
HETATM   14  C12 UNL     1       1.408   0.253   0.152  1.00  0.00     0.319 C 
HETATM   15  O2  UNL     1       1.235   1.480  -0.054  1.00  0.00    -0.247 OA
HETATM   16  N4  UNL     1       2.716  -0.266   0.413  1.00  0.00    -0.338 N 
ATOM     17  H4  UNL     1       2.846  -1.264   0.580  1.00  0.00     0.164 HD
HETATM   18  C18 UNL     1      -1.079  -0.215  -0.130  1.00  0.00     0.138 C 
HETATM   19  C19 UNL     1      -1.385   0.506  -1.387  1.00  0.00     0.264 C 
ENDROOT
BRANCH  11  20
HETATM   20  C10 UNL     1      -1.297  -2.063   2.205  1.00  0.00     0.172 C 
BRANCH  20  21
HETATM   21  O1  UNL     1      -0.532  -2.924   2.993  1.00  0.00    -0.400 OA
ATOM     22  H1  UNL     1      -0.690  -2.701   3.903  1.00  0.00     0.209 HD
ENDBRANCH  20  21
ENDBRANCH  11  20
BRANCH  16  23
HETATM   23  C13 UNL     1       3.839   0.615   0.439  1.00  0.00     0.086 C 
HETATM   24  C14 UNL     1       4.954   0.180  -0.484  1.00  0.00     0.025 C 
HETATM   25  C15 UNL     1       6.125   1.000   0.038  1.00  0.00     0.002 C 
HETATM   26  C16 UNL     1       5.910   1.096   1.535  1.00  0.00     0.002 C 
HETATM   27  C17 UNL     1       4.529   0.531   1.796  1.00  0.00     0.025 C 
ENDBRANCH  16  23
TORSDOF 3
