REMARK  6 active torsions:
REMARK  status: ('A' for Active; 'I' for Inactive)
REMARK       I    between atoms: N1_2  and  C2_4 
REMARK    1  A    between atoms: C2_4  and  C3_6 
REMARK    2  A    between atoms: N2_10  and  C7_11 
REMARK    3  A    between atoms: C7_11  and  O2_12 
REMARK    4  A    between atoms: C7_11  and  N3_14 
REMARK    5  A    between atoms: C10_17  and  C11_18 
REMARK       I    between atoms: C11_18  and  N4_20 
REMARK    6  A    between atoms: N4_20  and  C12_22 
ROOT
HETATM    1  N3  UNL     1       1.637   0.492  -0.151  1.00  0.00    -0.347 N 
HETATM    2  C8  UNL     1       1.168  -0.843  -0.372  1.00  0.00     0.127 C 
HETATM    3  C9  UNL     1      -0.380  -0.693  -0.487  1.00  0.00     0.034 C 
HETATM    4  C10 UNL     1      -0.819  -0.314   0.922  1.00  0.00     0.081 C 
HETATM    5  C22 UNL     1      -0.412   1.129   1.092  1.00  0.00     0.034 C 
HETATM    6  C23 UNL     1       0.672   1.559   0.178  1.00  0.00     0.127 C 
ENDROOT
BRANCH   1   7
HETATM    7  C7  UNL     1       2.982   0.856  -0.229  1.00  0.00     0.217 C 
BRANCH   7   8
HETATM    8  N2  UNL     1       4.111   0.085  -0.503  1.00  0.00    -0.347 N 
HETATM    9  C6  UNL     1       4.102  -1.317  -0.764  1.00  0.00     0.126 C 
HETATM   10  C5  UNL     1       5.545  -1.871  -0.633  1.00  0.00     0.021 C 
HETATM   11  C4  UNL     1       6.121  -1.248   0.617  1.00  0.00     0.017 C 
HETATM   12  C3  UNL     1       6.449   0.192   0.322  1.00  0.00     0.096 C 
HETATM   13  C24 UNL     1       5.404   0.805  -0.527  1.00  0.00     0.140 C 
BRANCH  12  14
HETATM   14  C2  UNL     1       7.746   0.189  -0.452  1.00  0.00     0.223 C 
HETATM   15  N1  UNL     1       8.909  -0.355   0.115  1.00  0.00    -0.365 N 
HETATM   16  C1  UNL     1      10.148  -0.355  -0.631  1.00  0.00     0.149 C 
ATOM     17  H1  UNL     1       8.880  -0.751   1.055  1.00  0.00     0.161 HD
HETATM   18  O1  UNL     1       7.795   0.676  -1.612  1.00  0.00    -0.273 OA
ENDBRANCH  12  14
ENDBRANCH   7   8
BRANCH   7  19
HETATM   19  O2  UNL     1       3.180   2.140   0.000  1.00  0.00    -0.333 OA
ATOM     20  H2  UNL     1       2.411   2.665   0.187  1.00  0.00     0.220 HD
ENDBRANCH   7  19
ENDBRANCH   1   7
BRANCH   4  21
HETATM   21  C11 UNL     1      -2.299  -0.423   0.944  1.00  0.00     0.222 C 
HETATM   22  O3  UNL     1      -2.780  -1.246   1.770  1.00  0.00    -0.273 OA
HETATM   23  N4  UNL     1      -3.105   0.362   0.078  1.00  0.00    -0.351 N 
ATOM     24  H4  UNL     1      -2.637   1.005  -0.560  1.00  0.00     0.163 HD
BRANCH  23  25
HETATM   25  C12 UNL     1      -4.529   0.305   0.047  1.00  0.00     0.034 C 
HETATM   26  C13 UNL     1      -5.170   0.660   1.371  1.00  0.00     0.035 C 
HETATM   27  C14 UNL     1      -6.671   0.584   1.204  1.00  0.00    -0.012 C 
HETATM   28  C15 UNL     1      -7.055  -0.819   0.822  1.00  0.00     0.009 C 
HETATM   29  C19 UNL     1      -7.177   1.606   0.211  1.00  0.00     0.009 C 
HETATM   30  C16 UNL     1      -6.488  -1.091  -0.550  1.00  0.00    -0.012 C 
HETATM   31  C17 UNL     1      -6.935  -0.094  -1.570  1.00  0.00     0.009 C 
HETATM   32  C21 UNL     1      -4.979  -1.068  -0.422  1.00  0.00     0.035 C 
HETATM   33  C18 UNL     1      -6.532   1.292  -1.119  1.00  0.00    -0.012 C 
HETATM   34  C20 UNL     1      -5.054   1.322  -0.952  1.00  0.00     0.035 C 
ENDBRANCH  23  25
ENDBRANCH   4  21
TORSDOF 6
