REMARK  5 active torsions:
REMARK  status: ('A' for Active; 'I' for Inactive)
REMARK       I    between atoms: C1_2  and  N1_3 
REMARK       I    between atoms: C1_2  and  N2_10 
REMARK    1  A    between atoms: N1_3  and  C2_5 
REMARK    2  A    between atoms: N3_13  and  C9_14 
REMARK    3  A    between atoms: C9_14  and  O2_15 
REMARK    4  A    between atoms: C9_14  and  C10_17 
REMARK       I    between atoms: N4_21  and  C14_22 
REMARK       I    between atoms: C14_22  and  N5_24 
REMARK    5  A    between atoms: N5_24  and  C15_26 
ROOT
HETATM    1  C9  UNL     1       0.116  -1.296   1.156  1.00  0.00     0.119 C 
ENDROOT
BRANCH   1   2
HETATM    2  N3  UNL     1      -1.105  -0.758   0.719  1.00  0.00    -0.362 N 
HETATM    3  C8  UNL     1      -1.970  -0.174   1.750  1.00  0.00     0.144 C 
HETATM    4  C7  UNL     1      -3.414  -0.070   1.304  1.00  0.00     0.147 C 
HETATM    5  N2  UNL     1      -3.489   0.509  -0.029  1.00  0.00    -0.331 N 
HETATM    6  C1  UNL     1      -4.702   0.999  -0.499  1.00  0.00     0.318 C 
HETATM    7  C23 UNL     1      -2.302   0.572  -0.870  1.00  0.00     0.147 C 
HETATM    8  O1  UNL     1      -4.795   1.506  -1.640  1.00  0.00    -0.247 OA
HETATM    9  N1  UNL     1      -5.864   0.934   0.305  1.00  0.00    -0.338 N 
ATOM     10  H1  UNL     1      -5.792   0.522   1.235  1.00  0.00     0.164 HD
HETATM   11  C22 UNL     1      -1.542  -0.753  -0.625  1.00  0.00     0.144 C 
BRANCH   9  12
HETATM   12  C2  UNL     1      -7.151   1.427  -0.137  1.00  0.00     0.086 C 
HETATM   13  C3  UNL     1      -7.732   2.412   0.825  1.00  0.00     0.025 C 
HETATM   14  C4  UNL     1      -8.886   1.756   1.533  1.00  0.00     0.002 C 
HETATM   15  C5  UNL     1      -8.695   0.290   1.232  1.00  0.00     0.002 C 
HETATM   16  C6  UNL     1      -8.158   0.280  -0.166  1.00  0.00     0.025 C 
ENDBRANCH   9  12
ENDBRANCH   1   2
BRANCH   1  17
HETATM   17  O2  UNL     1       0.388  -1.228   2.443  1.00  0.00    -0.349 OA
ATOM     18  H2  UNL     1       1.214  -1.592   2.739  1.00  0.00     0.219 HD
ENDBRANCH   1  17
BRANCH   1  19
HETATM   19  C10 UNL     1       1.113  -1.927   0.303  1.00  0.00     0.078 C 
HETATM   20  C11 UNL     1       0.671  -3.094  -0.495  1.00  0.00     0.016 C 
HETATM   21  C12 UNL     1       1.338  -3.127  -1.856  1.00  0.00     0.021 C 
HETATM   22  C13 UNL     1       2.784  -2.853  -1.806  1.00  0.00     0.127 C 
HETATM   23  N4  UNL     1       3.081  -1.615  -1.080  1.00  0.00    -0.333 N 
HETATM   24  C14 UNL     1       4.406  -1.145  -0.990  1.00  0.00     0.318 C 
HETATM   25  C21 UNL     1       1.952  -0.944  -0.478  1.00  0.00     0.140 C 
HETATM   26  O3  UNL     1       5.321  -1.831  -1.517  1.00  0.00    -0.247 OA
HETATM   27  N5  UNL     1       4.738   0.051  -0.343  1.00  0.00    -0.338 N 
ATOM     28  H5  UNL     1       4.011   0.624   0.085  1.00  0.00     0.164 HD
BRANCH  27  29
HETATM   29  C15 UNL     1       6.149   0.473  -0.287  1.00  0.00     0.086 C 
HETATM   30  C16 UNL     1       6.336   1.746  -1.135  1.00  0.00     0.025 C 
HETATM   31  C17 UNL     1       7.833   1.992  -1.166  1.00  0.00     0.002 C 
HETATM   32  C18 UNL     1       8.544   1.230  -0.085  1.00  0.00     0.000 C 
HETATM   33  C19 UNL     1       7.877   1.274   1.253  1.00  0.00     0.002 C 
HETATM   34  C20 UNL     1       6.436   0.895   1.130  1.00  0.00     0.025 C 
ENDBRANCH  27  29
ENDBRANCH   1  19
TORSDOF 5
