REMARK  3 active torsions:
REMARK  status: ('A' for Active; 'I' for Inactive)
REMARK    1  A    between atoms: C4_5  and  N2_6 
REMARK       I    between atoms: N2_6  and  C5_7 
REMARK       I    between atoms: C5_7  and  N3_9 
REMARK    2  A    between atoms: C6_10  and  C7_11 
REMARK       I    between atoms: C7_11  and  N4_13 
REMARK    3  A    between atoms: N4_13  and  C8_15 
ROOT
HETATM    1  N2  UNL     1       2.444   0.593  -1.314  1.00  0.00    -0.389 NA
HETATM    2  C5  UNL     1       1.596  -0.304  -1.862  1.00  0.00     0.392 C 
HETATM    3  O1  UNL     1       1.507  -0.463  -3.144  1.00  0.00    -0.230 OA
HETATM    4  N3  UNL     1       0.700  -1.180  -1.114  1.00  0.00    -0.303 N 
HETATM    5  C6  UNL     1       0.551  -1.184   0.304  1.00  0.00     0.183 C 
HETATM    6  C18 UNL     1      -0.145  -2.457   0.689  1.00  0.00     0.042 C 
HETATM    7  C19 UNL     1      -0.593  -3.064  -0.580  1.00  0.00     0.015 C 
HETATM    8  C20 UNL     1      -0.002  -4.396  -0.939  1.00  0.00    -0.008 C 
HETATM    9  C21 UNL     1       1.510  -4.383  -0.934  1.00  0.00     0.005 C 
HETATM   10  C22 UNL     1       1.907  -3.558  -2.171  1.00  0.00     0.007 C 
HETATM   11  C23 UNL     1       0.595  -3.060  -2.672  1.00  0.00     0.009 C 
HETATM   12  C24 UNL     1      -0.231  -4.341  -2.472  1.00  0.00     0.011 C 
HETATM   13  C25 UNL     1      -0.128  -2.166  -1.702  1.00  0.00     0.099 C 
ENDROOT
BRANCH   5  14
HETATM   14  C7  UNL     1      -0.378  -0.062   0.734  1.00  0.00     0.241 C 
HETATM   15  O2  UNL     1       0.052   0.906   1.383  1.00  0.00    -0.271 OA
HETATM   16  N4  UNL     1      -1.752  -0.088   0.406  1.00  0.00    -0.350 N 
ATOM     17  H4  UNL     1      -2.109  -0.891  -0.112  1.00  0.00     0.163 HD
BRANCH  16  18
HETATM   18  C8  UNL     1      -2.671   0.953   0.762  1.00  0.00     0.034 C 
HETATM   19  C9  UNL     1      -2.245   2.191  -0.017  1.00  0.00     0.035 C 
HETATM   20  C10 UNL     1      -3.318   3.237   0.154  1.00  0.00    -0.012 C 
HETATM   21  C11 UNL     1      -4.645   2.782  -0.358  1.00  0.00     0.009 C 
HETATM   22  C15 UNL     1      -3.478   3.600   1.621  1.00  0.00     0.009 C 
HETATM   23  C12 UNL     1      -5.048   1.565   0.447  1.00  0.00    -0.012 C 
HETATM   24  C13 UNL     1      -5.158   1.844   1.928  1.00  0.00     0.009 C 
HETATM   25  C17 UNL     1      -4.030   0.502   0.262  1.00  0.00     0.035 C 
HETATM   26  C14 UNL     1      -3.818   2.366   2.391  1.00  0.00    -0.012 C 
HETATM   27  C16 UNL     1      -2.709   1.344   2.204  1.00  0.00     0.035 C 
ENDBRANCH  16  18
ENDBRANCH   5  14
BRANCH   1  28
HETATM   28  C4  UNL     1       3.320   1.519  -0.759  1.00  0.00     0.198 C 
HETATM   29  C3  UNL     1       3.494   1.525   0.704  1.00  0.00     0.071 C 
HETATM   30  C2  UNL     1       4.945   1.179   0.938  1.00  0.00     0.275 C 
HETATM   31  N1  UNL     1       5.625   1.714  -0.238  1.00  0.00     0.087 N 
HETATM   32  C1  UNL     1       6.885   1.070  -0.410  1.00  0.00     0.310 C 
HETATM   33  C26 UNL     1       4.751   1.431  -1.315  1.00  0.00     0.311 C 
ENDBRANCH   1  28
TORSDOF 3
