REMARK  3 active torsions:
REMARK  status: ('A' for Active; 'I' for Inactive)
REMARK    1  A    between atoms: C3_5  and  C4_6 
REMARK    2  A    between atoms: C4_6  and  C5_7 
REMARK       I    between atoms: N1_13  and  C11_14 
REMARK       I    between atoms: C11_14  and  N2_16 
REMARK    3  A    between atoms: N2_16  and  C12_18 
ROOT
HETATM    1  O1  UNL     1      -0.137  -2.337  -3.079  1.00  0.00    -0.272 OA
HETATM    2  C1  UNL     1       0.641  -2.248  -2.067  1.00  0.00     0.238 C 
HETATM    3  C2  UNL     1       1.521  -3.363  -1.630  1.00  0.00     0.179 C 
HETATM    4  S1  UNL     1       2.790  -2.447  -0.709  1.00  0.00    -0.134 SA
HETATM    5  C3  UNL     1       2.171  -0.756  -1.079  1.00  0.00     0.160 C 
HETATM    6  N1  UNL     1       0.767  -1.080  -1.233  1.00  0.00    -0.255 N 
HETATM    7  C11 UNL     1      -0.369  -0.385  -0.693  1.00  0.00     0.326 C 
HETATM    8  O2  UNL     1      -0.191   0.654   0.017  1.00  0.00    -0.247 OA
HETATM    9  N2  UNL     1      -1.713  -0.793  -0.906  1.00  0.00    -0.333 N 
ATOM     10  H2  UNL     1      -1.852  -1.629  -1.473  1.00  0.00     0.165 HD
ENDROOT
BRANCH   9  11
HETATM   11  C12 UNL     1      -2.887  -0.155  -0.410  1.00  0.00     0.035 C 
HETATM   12  C13 UNL     1      -2.985   1.246  -0.927  1.00  0.00     0.035 C 
HETATM   13  C14 UNL     1      -4.321   1.862  -0.536  1.00  0.00    -0.012 C 
HETATM   14  C15 UNL     1      -4.429   1.905   0.974  1.00  0.00     0.009 C 
HETATM   15  C19 UNL     1      -5.480   1.084  -1.081  1.00  0.00     0.009 C 
HETATM   16  C16 UNL     1      -4.268   0.500   1.503  1.00  0.00    -0.012 C 
HETATM   17  C17 UNL     1      -5.427  -0.315   1.006  1.00  0.00     0.009 C 
HETATM   18  C21 UNL     1      -2.938  -0.115   1.099  1.00  0.00     0.035 C 
HETATM   19  C18 UNL     1      -5.392  -0.320  -0.503  1.00  0.00    -0.012 C 
HETATM   20  C20 UNL     1      -4.099  -0.907  -0.970  1.00  0.00     0.035 C 
ENDBRANCH   9  11
BRANCH   5  21
HETATM   21  C4  UNL     1       2.444   0.218  -0.010  1.00  0.00     0.041 C 
BRANCH  21  22
HETATM   22  C5  UNL     1       3.898   0.420   0.306  1.00  0.00    -0.012 C 
HETATM   23  C6  UNL     1       4.650  -0.768   0.772  1.00  0.00     0.005 C 
HETATM   24  C7  UNL     1       5.836  -0.226   1.600  1.00  0.00     0.000 C 
HETATM   25  C8  UNL     1       6.377   1.023   0.984  1.00  0.00     0.000 C 
HETATM   26  C9  UNL     1       6.103   1.116  -0.496  1.00  0.00     0.000 C 
HETATM   27  C10 UNL     1       4.651   1.049  -0.843  1.00  0.00     0.005 C 
ENDBRANCH  21  22
ENDBRANCH   5  21
TORSDOF 3
