REMARK  4 active torsions:
REMARK  status: ('A' for Active; 'I' for Inactive)
REMARK    1  A    between atoms: C6_6  and  N1_7 
REMARK    2  A    between atoms: C9_10  and  N2_11 
REMARK    3  A    between atoms: C12_14  and  O1_15 
REMARK    4  A    between atoms: C12_14  and  C13_17 
ROOT
HETATM    1  N2  UNL     1       0.182  -0.033   0.099  1.00  0.00    -0.388 N 
HETATM    2  C10 UNL     1       1.217  -0.990  -0.201  1.00  0.00     0.125 C 
HETATM    3  C11 UNL     1       2.293  -0.195  -0.909  1.00  0.00     0.058 C 
HETATM    4  C12 UNL     1       2.913   0.778   0.026  1.00  0.00     0.071 C 
HETATM    5  C19 UNL     1       2.023   1.236   1.145  1.00  0.00     0.054 C 
HETATM    6  C20 UNL     1       2.209   2.743   1.396  1.00  0.00     0.018 C 
HETATM    7  C21 UNL     1       0.573   0.900   1.009  1.00  0.00     0.066 C 
ENDROOT
BRANCH   1   8
HETATM    8  C9  UNL     1      -0.778  -0.015  -0.862  1.00  0.00     0.090 C 
HETATM    9  C8  UNL     1      -1.446  -1.394  -0.887  1.00  0.00     0.056 C 
HETATM   10  C7  UNL     1      -2.947  -1.319  -0.842  1.00  0.00     0.275 C 
HETATM   11  N1  UNL     1      -3.475  -0.437   0.135  1.00  0.00     0.097 N 
HETATM   12  C24 UNL     1      -2.748   0.803   0.277  1.00  0.00     0.279 C 
HETATM   13  C22 UNL     1      -1.861   0.972  -0.916  1.00  0.00     0.033 C 
HETATM   14  C23 UNL     1      -1.463   2.393  -1.192  1.00  0.00     0.014 C 
BRANCH  11  15
HETATM   15  C6  UNL     1      -4.860  -0.124  -0.159  1.00  0.00     0.251 C 
HETATM   16  C2  UNL     1      -5.784  -1.253  -0.124  1.00  0.00    -0.056 C 
HETATM   17  C1  UNL     1      -5.913  -2.248  -0.973  1.00  0.00     0.016 C 
HETATM   18  C3  UNL     1      -6.638  -1.118   1.090  1.00  0.00     0.035 C 
HETATM   19  C4  UNL     1      -6.717   0.372   1.353  1.00  0.00     0.007 C 
HETATM   20  C5  UNL     1      -5.414   0.900   0.806  1.00  0.00     0.041 C 
ENDBRANCH  11  15
ENDBRANCH   1   8
BRANCH   4  21
HETATM   21  O1  UNL     1       3.153   1.940  -0.759  1.00  0.00    -0.389 OA
ATOM     22  H1  UNL     1       3.550   2.562  -0.161  1.00  0.00     0.210 HD
ENDBRANCH   4  21
BRANCH   4  23
HETATM   23  C13 UNL     1       4.295   0.393   0.511  1.00  0.00     0.021 C 
HETATM   24  C14 UNL     1       5.275   0.262  -0.629  1.00  0.00     0.007 C 
HETATM   25  C15 UNL     1       6.537  -0.443  -0.110  1.00  0.00     0.000 C 
HETATM   26  C16 UNL     1       6.233  -1.897   0.128  1.00  0.00     0.000 C 
HETATM   27  C17 UNL     1       4.835  -2.066   0.670  1.00  0.00     0.000 C 
HETATM   28  C18 UNL     1       4.373  -0.792   1.391  1.00  0.00     0.007 C 
ENDBRANCH   4  23
TORSDOF 4
