REMARK  13 active torsions:
REMARK  status: ('A' for Active; 'I' for Inactive)
REMARK    1  A    between atoms: C5_6  and  O1_7 
REMARK    2  A    between atoms: N2_9  and  C6_10 
REMARK    3  A    between atoms: C7_14  and  O2_15 
REMARK    4  A    between atoms: C23_32  and  N3_33 
REMARK       I    between atoms: N3_33  and  C24_35 
REMARK    5  A    between atoms: C24_35  and  C25_37 
REMARK    6  A    between atoms: C25_37  and  C26_38 
REMARK    7  A    between atoms: C26_38  and  C27_39 
REMARK    8  A    between atoms: C27_39  and  C28_40 
REMARK    9  A    between atoms: C28_40  and  C29_41 
REMARK   10  A    between atoms: C29_41  and  C30_42 
REMARK   11  A    between atoms: C30_42  and  C31_43 
REMARK   12  A    between atoms: C31_43  and  C32_44 
REMARK   13  A    between atoms: C32_44  and  N4_45 
ROOT
HETATM    1  C1  UNL     1      -1.855  -1.895  -2.629  1.00  0.00     0.153 C 
HETATM    2  N1  UNL     1      -1.103  -1.450  -1.438  1.00  0.00    -0.350 N 
HETATM    3  C2  UNL     1      -1.877  -1.062  -0.273  1.00  0.00     0.169 C 
HETATM    4  C3  UNL     1      -3.118  -1.895  -0.094  1.00  0.00     0.026 A 
HETATM    5  C4  UNL     1      -4.394  -1.573   0.091  1.00  0.00     0.030 A 
HETATM    6  C5  UNL     1      -5.071  -2.809   0.205  1.00  0.00     0.162 A 
HETATM    7  N2  UNL     1      -4.228  -3.839   0.090  1.00  0.00    -0.212 N 
HETATM    8  C7  UNL     1      -3.027  -3.288  -0.093  1.00  0.00     0.160 A 
HETATM    9  C8  UNL     1      -5.153  -0.303   0.195  1.00  0.00    -0.060 C 
HETATM   10  C9  UNL     1      -5.650  -0.138   1.637  1.00  0.00     0.036 C 
HETATM   11  C10 UNL     1      -6.966   0.521   1.782  1.00  0.00     0.004 C 
HETATM   12  C11 UNL     1      -7.686   0.891   0.514  1.00  0.00     0.000 C 
HETATM   13  C12 UNL     1      -6.969   1.991  -0.176  1.00  0.00     0.001 C 
HETATM   14  C13 UNL     1      -5.922   1.597  -1.160  1.00  0.00     0.009 C 
HETATM   15  C14 UNL     1      -4.715   0.918  -0.430  1.00  0.00     0.015 C 
HETATM   16  C15 UNL     1      -4.229   2.052   0.426  1.00  0.00     0.009 C 
HETATM   17  C16 UNL     1      -4.008   3.334  -0.278  1.00  0.00     0.001 C 
HETATM   18  C17 UNL     1      -2.810   4.039   0.326  1.00  0.00     0.000 C 
HETATM   19  C18 UNL     1      -1.606   3.133   0.161  1.00  0.00     0.000 C 
HETATM   20  C19 UNL     1      -0.339   3.861  -0.189  1.00  0.00     0.000 C 
HETATM   21  C20 UNL     1       0.245   3.254  -1.441  1.00  0.00     0.000 C 
HETATM   22  C21 UNL     1       1.235   2.134  -1.167  1.00  0.00     0.002 C 
HETATM   23  C22 UNL     1       0.446   0.923  -0.842  1.00  0.00     0.035 C 
HETATM   24  C23 UNL     1       1.204  -0.399  -0.935  1.00  0.00     0.176 C 
HETATM   25  C33 UNL     1       0.311  -1.435  -1.532  1.00  0.00     0.242 C 
HETATM   26  O4  UNL     1       0.892  -2.368  -2.172  1.00  0.00    -0.271 OA
ENDROOT
BRANCH  24  27
HETATM   27  N3  UNL     1       1.791  -0.772   0.305  1.00  0.00    -0.348 N 
HETATM   28  C24 UNL     1       3.204  -0.764   0.564  1.00  0.00     0.218 C 
HETATM   29  O3  UNL     1       4.017  -0.412  -0.338  1.00  0.00    -0.274 OA
ATOM     30  H3  UNL     1       1.169  -1.064   1.059  1.00  0.00     0.163 HD
BRANCH  28  31
HETATM   31  C25 UNL     1       3.765  -1.157   1.865  1.00  0.00     0.103 C 
BRANCH  31  32
HETATM   32  C26 UNL     1       5.244  -1.194   1.903  1.00  0.00     0.009 C 
BRANCH  32  33
HETATM   33  C27 UNL     1       5.931  -2.164   1.018  1.00  0.00     0.000 C 
BRANCH  33  34
HETATM   34  C28 UNL     1       7.441  -2.147   1.122  1.00  0.00     0.000 C 
BRANCH  34  35
HETATM   35  C29 UNL     1       7.999  -0.760   0.742  1.00  0.00     0.000 C 
BRANCH  35  36
HETATM   36  C30 UNL     1       9.477  -0.868   0.866  1.00  0.00     0.002 C 
BRANCH  36  37
HETATM   37  C31 UNL     1      10.299   0.327   0.619  1.00  0.00     0.027 C 
BRANCH  37  38
HETATM   38  C32 UNL     1      10.186   0.931  -0.744  1.00  0.00     0.229 C 
BRANCH  38  39
HETATM   39  N4  UNL     1       8.852   1.403  -1.009  1.00  0.00    -0.079 N 
ATOM     40  H43 UNL     1       8.162   0.664  -0.871  1.00  0.00     0.274 HD
ATOM     41  H42 UNL     1       8.537   2.052  -0.288  1.00  0.00     0.274 HD
ATOM     42  H41 UNL     1       8.775   1.815  -1.939  1.00  0.00     0.274 HD
ENDBRANCH  38  39
ENDBRANCH  37  38
ENDBRANCH  36  37
ENDBRANCH  35  36
ENDBRANCH  34  35
ENDBRANCH  33  34
ENDBRANCH  32  33
ENDBRANCH  31  32
ENDBRANCH  28  31
ENDBRANCH  24  27
BRANCH   8  43
HETATM   43  O2  UNL     1      -1.891  -4.098  -0.252  1.00  0.00    -0.345 OA
ATOM     44  H2  UNL     1      -1.829  -5.046  -0.251  1.00  0.00     0.219 HD
ENDBRANCH   8  43
BRANCH   6  45
HETATM   45  O1  UNL     1      -6.437  -3.049   0.410  1.00  0.00    -0.345 OA
ATOM     46  H1  UNL     1      -6.892  -3.879   0.487  1.00  0.00     0.219 HD
ENDBRANCH   6  45
BRANCH   7  47
HETATM   47  C6  UNL     1      -4.569  -5.267   0.153  1.00  0.00     0.494 C 
HETATM   48  F1  UNL     1      -5.804  -5.467  -0.434  1.00  0.00    -0.150 F 
HETATM   49  F2  UNL     1      -4.658  -5.598   1.497  1.00  0.00    -0.150 F 
HETATM   50  F3  UNL     1      -3.579  -5.996  -0.423  1.00  0.00    -0.150 F 
ENDBRANCH   7  47
TORSDOF 13
