REMARK  11 active torsions:
REMARK  status: ('A' for Active; 'I' for Inactive)
REMARK    1  A    between atoms: C2_2  and  C3_3 
REMARK    2  A    between atoms: C3_3  and  N1_4 
REMARK    3  A    between atoms: N1_4  and  C4_6 
REMARK    4  A    between atoms: C4_6  and  C5_7 
REMARK    5  A    between atoms: C8_10  and  C9_11 
REMARK    6  A    between atoms: C9_11  and  N2_12 
REMARK    7  A    between atoms: C12_15  and  C13_16 
REMARK    8  A    between atoms: C17_21  and  O1_22 
REMARK    9  A    between atoms: N3_32  and  C25_33 
REMARK   10  A    between atoms: N6_40  and  C27_41 
REMARK   11  A    between atoms: C33_47  and  O2_48 
ROOT
HETATM    1  N1  UNL     1      -0.728  -0.590   1.667  1.00  0.00    -0.401 N 
ATOM      2  H1  UNL     1      -1.441  -0.187   2.275  1.00  0.00     0.158 HD
ENDROOT
BRANCH   1   3
HETATM    3  C3  UNL     1      -1.066  -1.364   0.557  1.00  0.00     0.069 C 
BRANCH   3   4
HETATM    4  C2  UNL     1      -2.557  -1.290   0.237  1.00  0.00     0.038 C 
HETATM    5  C1  UNL     1      -2.857  -2.253  -0.883  1.00  0.00     0.026 C 
HETATM    6  C23 UNL     1      -2.765   0.088  -0.462  1.00  0.00     0.039 C 
HETATM    7  C24 UNL     1      -3.385   0.872   0.676  1.00  0.00     0.129 C 
HETATM    8  N3  UNL     1      -4.296  -0.165   1.213  1.00  0.00    -0.332 N 
HETATM    9  C34 UNL     1      -3.481  -1.344   1.379  1.00  0.00     0.286 C 
HETATM   10  F3  UNL     1      -4.250  -2.521   1.415  1.00  0.00    -0.226 F 
BRANCH   8  11
HETATM   11  C25 UNL     1      -5.674   0.110   1.408  1.00  0.00     0.173 A 
HETATM   12  N4  UNL     1      -6.236   0.993   2.238  1.00  0.00    -0.172 N 
HETATM   13  C26 UNL     1      -7.606   0.928   2.017  1.00  0.00     0.682 A 
ATOM     14  H4  UNL     1      -5.754   1.597   2.904  1.00  0.00     0.186 HD
HETATM   15  N5  UNL     1      -8.394   1.702   2.693  1.00  0.00    -0.234 N 
HETATM   16  N6  UNL     1      -7.879   0.036   1.096  1.00  0.00    -0.154 N 
ATOM     17  H52 UNL     1      -8.182   2.396   3.410  1.00  0.00     0.174 HD
ATOM     18  H51 UNL     1      -9.400   1.654   2.531  1.00  0.00     0.174 HD
HETATM   19  C33 UNL     1      -6.734  -0.487   0.695  1.00  0.00     0.203 A 
BRANCH  16  20
HETATM   20  C27 UNL     1      -9.183  -0.353   0.566  1.00  0.00     0.110 C 
HETATM   21  C28 UNL     1      -9.038  -0.608  -0.883  1.00  0.00     0.026 C 
HETATM   22  C29 UNL     1     -10.336  -0.631  -1.678  1.00  0.00     0.002 C 
HETATM   23  C30 UNL     1     -11.121   0.612  -1.337  1.00  0.00     0.000 C 
HETATM   24  C31 UNL     1     -11.491   0.425   0.140  1.00  0.00     0.002 C 
HETATM   25  C32 UNL     1     -10.215   0.651   0.915  1.00  0.00     0.026 C 
ENDBRANCH  16  20
BRANCH  19  26
HETATM   26  O2  UNL     1      -6.443  -1.481  -0.264  1.00  0.00    -0.343 OA
ATOM     27  H2  UNL     1      -7.157  -1.883  -0.744  1.00  0.00     0.219 HD
ENDBRANCH  19  26
ENDBRANCH   8  11
ENDBRANCH   3   4
ENDBRANCH   1   3
BRANCH   1  28
HETATM   28  C4  UNL     1       0.670  -0.389   1.911  1.00  0.00     0.123 C 
BRANCH  28  29
HETATM   29  C5  UNL     1       1.398   0.673   1.202  1.00  0.00     0.003 C 
HETATM   30  C6  UNL     1       2.874   0.615   1.620  1.00  0.00     0.007 C 
HETATM   31  C7  UNL     1       3.606  -0.331   0.721  1.00  0.00     0.010 C 
HETATM   32  C8  UNL     1       3.488  -0.043  -0.733  1.00  0.00     0.024 C 
HETATM   33  C21 UNL     1       2.015   0.030  -1.168  1.00  0.00     0.010 C 
HETATM   34  C22 UNL     1       1.290   0.932  -0.221  1.00  0.00     0.007 C 
BRANCH  32  35
HETATM   35  C9  UNL     1       4.294   1.079  -1.287  1.00  0.00     0.067 C 
BRANCH  35  36
HETATM   36  N2  UNL     1       5.695   0.973  -1.212  1.00  0.00    -0.373 N 
HETATM   37  C10 UNL     1       6.281   0.015  -2.076  1.00  0.00     0.131 C 
HETATM   38  C11 UNL     1       7.362  -0.871  -1.496  1.00  0.00     0.055 C 
HETATM   39  C12 UNL     1       8.204  -0.109  -0.505  1.00  0.00    -0.057 C 
HETATM   40  C19 UNL     1       7.528   0.899   0.325  1.00  0.00     0.080 C 
HETATM   41  C20 UNL     1       6.409   1.680  -0.264  1.00  0.00     0.067 C 
BRANCH  39  42
HETATM   42  C13 UNL     1       9.634  -0.063  -0.730  1.00  0.00     0.047 A 
HETATM   43  C14 UNL     1      10.278   1.142  -0.875  1.00  0.00     0.130 A 
HETATM   44  F1  UNL     1       9.500   2.248  -1.058  1.00  0.00    -0.205 F 
HETATM   45  C15 UNL     1      11.645   1.323  -0.916  1.00  0.00     0.046 A 
HETATM   46  C16 UNL     1      12.478   0.240  -0.802  1.00  0.00     0.043 A 
HETATM   47  C17 UNL     1      11.885  -1.020  -0.653  1.00  0.00     0.105 A 
HETATM   48  C18 UNL     1      10.521  -1.175  -0.620  1.00  0.00     0.162 A 
HETATM   49  F2  UNL     1       9.958  -2.387  -0.458  1.00  0.00    -0.202 F 
BRANCH  47  50
HETATM   50  O1  UNL     1      12.762  -2.087  -0.540  1.00  0.00    -0.358 OA
ATOM     51  H1  UNL     1      12.360  -2.942  -0.439  1.00  0.00     0.217 HD
ENDBRANCH  47  50
ENDBRANCH  39  42
ENDBRANCH  35  36
ENDBRANCH  32  35
ENDBRANCH  28  29
ENDBRANCH   1  28
TORSDOF 11
