REMARK  11 active torsions:
REMARK  status: ('A' for Active; 'I' for Inactive)
REMARK    1  A    between atoms: C4_5  and  C5_6 
REMARK    2  A    between atoms: C5_6  and  N1_8 
REMARK    3  A    between atoms: N1_8  and  C7_11 
REMARK    4  A    between atoms: C9_13  and  C10_14 
REMARK    5  A    between atoms: C14_22  and  N2_23 
REMARK    6  A    between atoms: N2_23  and  C15_25 
REMARK    7  A    between atoms: C18_29  and  N3_30 
REMARK    8  A    between atoms: N3_30  and  C19_32 
REMARK    9  A    between atoms: C20_35  and  C21_36 
REMARK       I    between atoms: C21_36  and  N5_38 
REMARK   10  A    between atoms: N5_38  and  C22_40 
REMARK   11  A    between atoms: C22_40  and  C23_41 
ROOT
HETATM    1  C1  UNL     1       2.472  -3.768  -1.764  1.00  0.00     0.051 C 
HETATM    2  C2  UNL     1       1.757  -3.406  -0.468  1.00  0.00    -0.028 A 
HETATM    3  C3  UNL     1       2.276  -3.851   0.716  1.00  0.00     0.059 A 
HETATM    4  S1  UNL     1       1.197  -3.237   1.873  1.00  0.00    -0.101 SA
HETATM    5  C4  UNL     1       0.108  -2.429   0.839  1.00  0.00     0.040 A 
HETATM    6  C18 UNL     1       0.624  -2.663  -0.403  1.00  0.00     0.055 A 
ENDROOT
BRANCH   5   7
HETATM    7  C5  UNL     1      -1.137  -1.637   1.214  1.00  0.00     0.224 C 
HETATM    8  C6  UNL     1      -1.317  -1.698   2.716  1.00  0.00     0.046 C 
BRANCH   7   9
HETATM    9  N1  UNL     1      -1.025  -0.297   0.727  1.00  0.00    -0.059 N 
ATOM     10  H12 UNL     1      -0.188   0.161   1.088  1.00  0.00     0.278 HD
ATOM     11  H11 UNL     1      -0.799  -0.281  -0.267  1.00  0.00     0.278 HD
BRANCH   9  12
HETATM   12  C7  UNL     1      -2.206   0.473   1.008  1.00  0.00     0.210 C 
HETATM   13  C8  UNL     1      -3.420  -0.110   0.262  1.00  0.00     0.023 C 
HETATM   14  C9  UNL     1      -4.624   0.463   0.139  1.00  0.00     0.059 C 
HETATM   15  C11 UNL     1      -5.060   1.796   0.673  1.00  0.00     0.019 A 
HETATM   16  C12 UNL     1      -4.306   2.950   0.707  1.00  0.00    -0.038 A 
HETATM   17  C14 UNL     1      -6.346   1.918   1.107  1.00  0.00     0.087 A 
HETATM   18  C13 UNL     1      -4.899   4.080   1.155  1.00  0.00     0.060 A 
HETATM   19  C16 UNL     1      -2.797   3.022   0.291  1.00  0.00     0.042 C 
HETATM   20  S2  UNL     1      -6.474   3.614   1.539  1.00  0.00    -0.083 SA
HETATM   21  C17 UNL     1      -2.237   1.834   0.701  1.00  0.00     0.042 C 
BRANCH  14  22
HETATM   22  C10 UNL     1      -5.601  -0.300  -0.621  1.00  0.00     0.418 C 
HETATM   23  F1  UNL     1      -6.495   0.381  -1.414  1.00  0.00    -0.166 F 
HETATM   24  F2  UNL     1      -4.748  -0.627  -1.779  1.00  0.00    -0.166 F 
HETATM   25  F3  UNL     1      -5.848  -1.592  -0.306  1.00  0.00    -0.166 F 
ENDBRANCH  14  22
BRANCH  17  26
HETATM   26  N2  UNL     1      -7.360   0.952   1.305  1.00  0.00    -0.328 N 
ATOM     27  H2  UNL     1      -7.165  -0.047   1.233  1.00  0.00     0.168 HD
BRANCH  26  28
HETATM   28  C15 UNL     1      -8.667   1.436   1.610  1.00  0.00     0.353 C 
HETATM   29  O1  UNL     1      -8.876   2.670   1.691  1.00  0.00    -0.283 OA
ENDBRANCH  26  28
ENDBRANCH  17  26
ENDBRANCH   9  12
ENDBRANCH   7   9
ENDBRANCH   5   7
BRANCH   6  30
HETATM   30  N3  UNL     1      -0.028  -2.136  -1.604  1.00  0.00    -0.341 N 
ATOM     31  H3  UNL     1      -0.889  -2.576  -1.930  1.00  0.00     0.167 HD
BRANCH  30  32
HETATM   32  C19 UNL     1       0.443  -1.145  -2.258  1.00  0.00     0.112 A 
HETATM   33  N4  UNL     1       1.556  -0.466  -1.959  1.00  0.00    -0.338 N 
HETATM   34  C20 UNL     1       2.021   0.562  -2.693  1.00  0.00     0.102 A 
ATOM     35  H4  UNL     1       2.081  -0.742  -1.129  1.00  0.00     0.167 HD
HETATM   36  C28 UNL     1       1.313   0.952  -3.832  1.00  0.00     0.036 A 
HETATM   37  C29 UNL     1       0.169   0.275  -4.162  1.00  0.00     0.013 A 
HETATM   38  C30 UNL     1      -0.276  -0.772  -3.388  1.00  0.00    -0.018 A 
HETATM   39  C31 UNL     1      -1.522  -1.486  -3.783  1.00  0.00     0.052 C 
BRANCH  34  40
HETATM   40  C21 UNL     1       3.242   1.254  -2.328  1.00  0.00     0.268 C 
HETATM   41  O2  UNL     1       3.624   2.216  -3.083  1.00  0.00    -0.266 OA
HETATM   42  N5  UNL     1       4.051   0.961  -1.212  1.00  0.00    -0.355 N 
ATOM     43  H5  UNL     1       3.773   0.202  -0.590  1.00  0.00     0.162 HD
BRANCH  42  44
HETATM   44  C22 UNL     1       5.262   1.698  -0.916  1.00  0.00     0.127 C 
BRANCH  44  45
HETATM   45  C23 UNL     1       5.963   1.220   0.308  1.00  0.00     0.003 C 
HETATM   46  C24 UNL     1       6.422  -0.209   0.265  1.00  0.00     0.006 C 
HETATM   47  C25 UNL     1       6.453  -0.687   1.681  1.00  0.00     0.000 C 
HETATM   48  C26 UNL     1       5.626   0.242   2.482  1.00  0.00     0.000 C 
HETATM   49  C27 UNL     1       5.067   1.257   1.534  1.00  0.00     0.006 C 
ENDBRANCH  44  45
ENDBRANCH  42  44
ENDBRANCH  34  40
ENDBRANCH  30  32
ENDBRANCH   6  30
TORSDOF 11
