REMARK  10 active torsions:
REMARK  status: ('A' for Active; 'I' for Inactive)
REMARK    1  A    between atoms: O1_2  and  C2_3 
REMARK    2  A    between atoms: C3_4  and  N1_5 
REMARK       I    between atoms: N1_5  and  C4_7 
REMARK       I    between atoms: C4_7  and  N2_9 
REMARK    3  A    between atoms: N2_9  and  C5_11 
REMARK    4  A    between atoms: C8_14  and  S1_15 
REMARK    5  A    between atoms: C10_17  and  C11_18 
REMARK    6  A    between atoms: C14_24  and  N3_25 
REMARK    7  A    between atoms: C17_28  and  N4_29 
REMARK    8  A    between atoms: C20_32  and  C21_33 
REMARK    9  A    between atoms: C26_38  and  N5_39 
REMARK       I    between atoms: N5_39  and  C27_41 
REMARK       I    between atoms: C27_41  and  N6_43 
REMARK   10  A    between atoms: N6_43  and  C28_45 
ROOT
HETATM    1  C2  UNL     1       0.943   2.312   0.151  1.00  0.00     0.122 A 
HETATM    2  C3  UNL     1       1.275   0.949   0.094  1.00  0.00     0.074 A 
HETATM    3  C13 UNL     1       0.338  -0.008   0.317  1.00  0.00     0.062 A 
HETATM    4  C14 UNL     1      -0.984   0.340   0.609  1.00  0.00     0.034 A 
HETATM    5  C25 UNL     1      -1.302   1.680   0.663  1.00  0.00     0.062 A 
HETATM    6  C26 UNL     1      -0.367   2.673   0.440  1.00  0.00     0.074 A 
ENDROOT
BRANCH   2   7
HETATM    7  N1  UNL     1       2.617   0.657  -0.198  1.00  0.00    -0.306 N 
HETATM    8  C4  UNL     1       3.160  -0.644  -0.298  1.00  0.00     0.325 C 
HETATM    9  O2  UNL     1       2.551  -1.719  -0.149  1.00  0.00    -0.247 OA
HETATM   10  N2  UNL     1       4.577  -0.690  -0.606  1.00  0.00    -0.309 N 
ATOM     11  H2  UNL     1       5.081   0.190  -0.721  1.00  0.00     0.170 HD
ATOM     12  H1  UNL     1       3.248   1.444  -0.350  1.00  0.00     0.171 HD
BRANCH  10  13
HETATM   13  C5  UNL     1       5.278  -1.883  -0.751  1.00  0.00     0.037 A 
HETATM   14  C6  UNL     1       4.795  -3.114  -1.085  1.00  0.00     0.031 A 
HETATM   15  C7  UNL     1       5.585  -4.268  -1.172  1.00  0.00     0.021 A 
HETATM   16  C8  UNL     1       6.935  -4.173  -0.907  1.00  0.00     0.015 A 
HETATM   17  C10 UNL     1       7.437  -2.940  -0.570  1.00  0.00     0.066 A 
HETATM   18  C12 UNL     1       6.661  -1.809  -0.485  1.00  0.00     0.047 A 
BRANCH  16  19
HETATM   19  S1  UNL     1       8.010  -5.593  -0.999  1.00  0.00    -0.134 SA
HETATM   20  C9  UNL     1       8.129  -6.498   0.541  1.00  0.00     0.095 C 
ENDBRANCH  16  19
BRANCH  17  21
HETATM   21  C11 UNL     1       8.915  -2.865  -0.288  1.00  0.00     0.418 C 
HETATM   22  F1  UNL     1       9.224  -1.555   0.019  1.00  0.00    -0.166 F 
HETATM   23  F2  UNL     1       9.665  -3.362  -1.307  1.00  0.00    -0.166 F 
HETATM   24  F3  UNL     1       9.100  -3.569   0.910  1.00  0.00    -0.166 F 
ENDBRANCH  17  21
ENDBRANCH  10  13
ENDBRANCH   2   7
BRANCH   1  25
HETATM   25  O1  UNL     1       1.873   3.293  -0.070  1.00  0.00    -0.351 OA
HETATM   26  C1  UNL     1       2.163   3.853  -1.329  1.00  0.00     0.210 C 
ENDBRANCH   1  25
BRANCH   6  27
HETATM   27  N5  UNL     1      -0.665   4.044   0.490  1.00  0.00    -0.306 N 
HETATM   28  C27 UNL     1      -1.913   4.615   0.772  1.00  0.00     0.321 C 
HETATM   29  O3  UNL     1      -2.955   3.997   1.022  1.00  0.00    -0.247 OA
HETATM   30  N6  UNL     1      -1.994   6.064   0.771  1.00  0.00    -0.338 N 
ATOM     31  H6  UNL     1      -1.171   6.633   0.572  1.00  0.00     0.164 HD
ATOM     32  H5  UNL     1       0.103   4.688   0.302  1.00  0.00     0.171 HD
BRANCH  30  33
HETATM   33  C28 UNL     1      -3.263   6.679   1.058  1.00  0.00     0.086 C 
HETATM   34  C29 UNL     1      -3.553   7.786   0.057  1.00  0.00     0.025 C 
HETATM   35  C30 UNL     1      -2.753   8.709   0.976  1.00  0.00     0.004 C 
HETATM   36  C31 UNL     1      -3.130   7.780   2.114  1.00  0.00     0.025 C 
ENDBRANCH  30  33
ENDBRANCH   6  27
BRANCH   4  37
HETATM   37  N3  UNL     1      -1.921  -0.715   0.819  1.00  0.00    -0.380 N 
HETATM   38  C15 UNL     1      -3.079  -0.469   1.611  1.00  0.00     0.125 C 
HETATM   39  C16 UNL     1      -4.283  -1.115   0.913  1.00  0.00     0.056 C 
HETATM   40  C17 UNL     1      -3.963  -2.581   0.819  1.00  0.00     0.229 C 
HETATM   41  C20 UNL     1      -2.811  -2.867  -0.051  1.00  0.00     0.041 C 
HETATM   42  C24 UNL     1      -1.620  -1.984   0.191  1.00  0.00     0.130 C 
BRANCH  40  43
HETATM   43  N4  UNL     1      -5.087  -3.448   0.696  1.00  0.00     0.085 N 
HETATM   44  C18 UNL     1      -5.885  -3.390   1.959  1.00  0.00     0.309 C 
HETATM   45  C19 UNL     1      -6.052  -3.012  -0.307  1.00  0.00     0.309 C 
ENDBRANCH  40  43
BRANCH  41  46
HETATM   46  C21 UNL     1      -3.097  -2.934  -1.524  1.00  0.00    -0.007 A 
HETATM   47  C22 UNL     1      -1.975  -3.169  -2.481  1.00  0.00     0.005 A 
HETATM   48  C23 UNL     1      -2.725  -1.882  -2.470  1.00  0.00     0.005 A 
ENDBRANCH  41  46
ENDBRANCH   4  37
TORSDOF 10
