REMARK  5 active torsions:
REMARK  status: ('A' for Active; 'I' for Inactive)
REMARK    1  A    between atoms: C2_2  and  C4_4 
REMARK    2  A    between atoms: C4_4  and  O1_5 
REMARK    3  A    between atoms: C7_12  and  O5_14 
REMARK    4  A    between atoms: C9_16  and  O6_17 
REMARK    5  A    between atoms: O6_17  and  C10_18 
ROOT
HETATM    1  C4  UNL     1       2.770  -1.081   0.734  1.00  0.00     0.225 C 
HETATM    2  O2  UNL     1       1.706  -1.295   1.643  1.00  0.00    -0.194 OA
HETATM    3  O3  UNL     1       0.831  -0.300   1.445  1.00  0.00    -0.223 OA
HETATM    4  C5  UNL     1       0.714  -0.404   0.041  1.00  0.00     0.131 C 
HETATM    5  C6  UNL     1       0.195  -1.773  -0.223  1.00  0.00     0.213 C 
HETATM    6  O4  UNL     1      -0.902  -1.908   0.662  1.00  0.00    -0.350 OA
HETATM    7  C7  UNL     1      -2.049  -1.308   0.220  1.00  0.00     0.185 C 
HETATM    8  C8  UNL     1      -3.166  -2.047   1.000  1.00  0.00     0.081 C 
HETATM    9  C9  UNL     1      -2.245   0.115   0.562  1.00  0.00     0.194 C 
HETATM   10  C12 UNL     1      -1.157   1.076   0.271  1.00  0.00     0.046 C 
HETATM   11  C13 UNL     1      -0.107   0.578  -0.650  1.00  0.00     0.032 C 
HETATM   12  C14 UNL     1       0.734   1.646  -1.292  1.00  0.00    -0.011 C 
HETATM   13  C15 UNL     1      -0.232   2.472  -2.161  1.00  0.00     0.010 C 
HETATM   14  C16 UNL     1       1.692   0.998  -2.271  1.00  0.00     0.005 C 
HETATM   15  C17 UNL     1       2.428  -0.204  -1.655  1.00  0.00     0.014 C 
HETATM   16  C18 UNL     1       2.171  -0.167  -0.240  1.00  0.00     0.096 C 
ENDROOT
BRANCH   1  17
HETATM   17  C2  UNL     1       3.858  -0.399   1.525  1.00  0.00    -0.029 C 
HETATM   18  C1  UNL     1       3.802  -0.280   2.831  1.00  0.00     0.019 C 
HETATM   19  C3  UNL     1       5.031   0.156   0.797  1.00  0.00     0.048 C 
ENDBRANCH   1  17
BRANCH   1  20
HETATM   20  O1  UNL     1       3.302  -2.245   0.253  1.00  0.00    -0.359 OA
ATOM     21  H1  UNL     1       2.617  -2.675  -0.245  1.00  0.00     0.213 HD
ENDBRANCH   1  20
BRANCH   7  22
HETATM   22  O5  UNL     1      -2.313  -1.637  -1.106  1.00  0.00    -0.363 OA
ATOM     23  H5  UNL     1      -3.110  -1.220  -1.413  1.00  0.00     0.213 HD
ENDBRANCH   7  22
BRANCH   9  24
HETATM   24  O6  UNL     1      -3.507   0.524   0.051  1.00  0.00    -0.311 OA
BRANCH  24  25
HETATM   25  C10 UNL     1      -4.603   0.849   0.796  1.00  0.00     0.255 C 
HETATM   26  C11 UNL     1      -5.909   1.274   0.213  1.00  0.00     0.126 C 
HETATM   27  O7  UNL     1      -4.505   0.787   2.041  1.00  0.00    -0.266 OA
ENDBRANCH  24  25
ENDBRANCH   9  24
TORSDOF 5
