REMARK  6 active torsions:
REMARK  status: ('A' for Active; 'I' for Inactive)
REMARK    1  A    between atoms: C2_2  and  C3_4 
REMARK    2  A    between atoms: C4_5  and  N1_6 
REMARK    3  A    between atoms: N1_6  and  N2_8 
REMARK    4  A    between atoms: N2_8  and  C5_10 
REMARK    5  A    between atoms: C10_15  and  C11_16 
REMARK    6  A    between atoms: C14_25  and  O4_26 
ROOT
HETATM    1  C3  UNL     1      -2.193  -1.234   0.396  1.00  0.00     0.105 C 
HETATM    2  C4  UNL     1      -1.415  -0.195   0.086  1.00  0.00     0.138 C 
HETATM    3  N3  UNL     1      -1.823   1.001  -0.554  1.00  0.00    -0.331 N 
ATOM      4  H3  UNL     1      -1.069   1.534  -0.987  1.00  0.00     0.168 HD
HETATM    5  C12 UNL     1      -2.992   1.523  -0.677  1.00  0.00     0.076 C 
HETATM    6  C13 UNL     1      -3.110   2.809  -1.415  1.00  0.00     0.089 C 
HETATM    7  N4  UNL     1      -4.204   0.987  -0.171  1.00  0.00    -0.347 N 
ATOM      8  H4  UNL     1      -4.895   1.705   0.049  1.00  0.00     0.163 HD
HETATM    9  C14 UNL     1      -4.675  -0.346   0.101  1.00  0.00     0.295 C 
HETATM   10  C15 UNL     1      -3.627  -1.365   0.132  1.00  0.00     0.215 C 
HETATM   11  O5  UNL     1      -4.007  -2.527  -0.101  1.00  0.00    -0.287 OA
ENDROOT
BRANCH   2  12
HETATM   12  N1  UNL     1      -0.059  -0.285   0.428  1.00  0.00    -0.289 N 
ATOM     13  H1  UNL     1       0.212  -0.893   1.201  1.00  0.00     0.188 HD
BRANCH  12  14
HETATM   14  N2  UNL     1       0.859   0.370  -0.195  1.00  0.00    -0.329 N 
ATOM     15  H2  UNL     1       0.636   0.989  -0.974  1.00  0.00     0.180 HD
BRANCH  14  16
HETATM   16  C5  UNL     1       2.220   0.188   0.260  1.00  0.00     0.113 C 
HETATM   17  C6  UNL     1       2.598   1.228   1.272  1.00  0.00     0.028 C 
HETATM   18  C7  UNL     1       3.946   1.820   1.108  1.00  0.00     0.002 C 
HETATM   19  C8  UNL     1       5.013   0.915   0.597  1.00  0.00     0.001 C 
HETATM   20  C9  UNL     1       4.540  -0.180  -0.294  1.00  0.00     0.017 C 
HETATM   21  C10 UNL     1       3.209   0.236  -0.881  1.00  0.00     0.111 C 
BRANCH  21  22
HETATM   22  C11 UNL     1       2.868  -0.655  -1.981  1.00  0.00     0.179 C 
HETATM   23  O2  UNL     1       3.667  -1.563  -2.319  1.00  0.00    -0.648 OA
HETATM   24  O3  UNL     1       1.687  -0.582  -2.713  1.00  0.00    -0.648 OA
ENDBRANCH  21  22
ENDBRANCH  14  16
ENDBRANCH  12  14
ENDBRANCH   2  12
BRANCH   1  25
HETATM   25  C2  UNL     1      -1.529  -2.325   1.052  1.00  0.00     0.163 C 
HETATM   26  C1  UNL     1      -2.237  -3.541   1.473  1.00  0.00     0.097 C 
HETATM   27  O1  UNL     1      -0.277  -2.236   1.281  1.00  0.00    -0.293 OA
ENDBRANCH   1  25
BRANCH   9  28
HETATM   28  O4  UNL     1      -5.311  -0.328   1.351  1.00  0.00    -0.369 OA
ATOM     29  H4  UNL     1      -5.622  -1.208   1.530  1.00  0.00     0.212 HD
ENDBRANCH   9  28
TORSDOF 6
