REMARK  5 active torsions:
REMARK  status: ('A' for Active; 'I' for Inactive)
REMARK    1  A    between atoms: C2_3  and  C3_4 
REMARK       I    between atoms: C3_4  and  N2_6 
REMARK    2  A    between atoms: N2_6  and  C4_8 
REMARK    3  A    between atoms: C6_10  and  N3_11 
REMARK    4  A    between atoms: C7_12  and  O2_13 
REMARK    5  A    between atoms: C11_21  and  N4_22 
ROOT
HETATM    1  N1  UNL     1       6.234   0.889  -0.330  1.00  0.00    -0.196 NA
HETATM    2  C1  UNL     1       5.152   0.483  -0.258  1.00  0.00     0.079 C 
HETATM    3  C2  UNL     1       3.777  -0.053  -0.154  1.00  0.00     0.129 A 
HETATM    4  C12 UNL     1       3.489  -0.826   1.175  1.00  0.00     0.037 A 
HETATM    5  C13 UNL     1       3.663  -1.533  -0.134  1.00  0.00     0.037 A 
ENDROOT
BRANCH   3   6
HETATM    6  C3  UNL     1       2.656   0.779  -0.630  1.00  0.00     0.241 C 
HETATM    7  O1  UNL     1       2.947   1.825  -1.269  1.00  0.00    -0.272 OA
HETATM    8  N2  UNL     1       1.327   0.450  -0.402  1.00  0.00    -0.351 N 
ATOM      9  H2  UNL     1       1.164  -0.411   0.120  1.00  0.00     0.163 HD
BRANCH   8  10
HETATM   10  C4  UNL     1       0.145   1.173  -0.810  1.00  0.00     0.142 C 
HETATM   11  C5  UNL     1      -0.934   0.270  -1.251  1.00  0.00     0.057 C 
HETATM   12  C6  UNL     1      -2.128   0.140  -0.391  1.00  0.00     0.119 C 
HETATM   13  C10 UNL     1      -2.095   0.800   0.935  1.00  0.00     0.196 C 
HETATM   14  O3  UNL     1      -0.785   1.195   1.313  1.00  0.00    -0.356 OA
HETATM   15  C11 UNL     1      -0.379   2.056   0.319  1.00  0.00     0.341 C 
BRANCH  12  16
HETATM   16  N3  UNL     1      -2.588  -1.282  -0.286  1.00  0.00    -0.305 N 
HETATM   17  C7  UNL     1      -3.488  -1.801  -1.113  1.00  0.00     0.150 A 
HETATM   18  C8  UNL     1      -3.864  -3.098  -0.928  1.00  0.00     0.108 A 
HETATM   19  S1  UNL     1      -2.933  -3.559   0.417  1.00  0.00    -0.068 SA
HETATM   20  C9  UNL     1      -2.120  -2.087   0.672  1.00  0.00     0.147 A 
HETATM   21  S2  UNL     1      -1.036  -1.881   1.870  1.00  0.00    -0.052 SA
BRANCH  17  22
HETATM   22  O2  UNL     1      -4.080  -1.066  -2.188  1.00  0.00    -0.346 OA
ATOM     23  H2  UNL     1      -4.724  -1.437  -2.780  1.00  0.00     0.219 HD
ENDBRANCH  17  22
ENDBRANCH  12  16
BRANCH  15  24
HETATM   24  N4  UNL     1       0.618   3.005   0.758  1.00  0.00    -0.051 N 
ATOM     25  H43 UNL     1       1.486   2.539   1.022  1.00  0.00     0.277 HD
ATOM     26  H42 UNL     1       0.969   3.564  -0.020  1.00  0.00     0.277 HD
ATOM     27  H41 UNL     1       0.268   3.595   1.513  1.00  0.00     0.277 HD
ENDBRANCH  15  24
ENDBRANCH   8  10
ENDBRANCH   3   6
TORSDOF 5
