REMARK  6 active torsions:
REMARK  status: ('A' for Active; 'I' for Inactive)
REMARK    1  A    between atoms: O1_2  and  C2_3 
REMARK    2  A    between atoms: C3_6  and  N2_7 
REMARK    3  A    between atoms: C9_14  and  O2_16 
REMARK    4  A    between atoms: C11_19  and  C12_20 
REMARK    5  A    between atoms: C14_23  and  O4_24 
REMARK    6  A    between atoms: C15_26  and  O5_27 
ROOT
HETATM    1  C2  UNL     1       1.668  -1.301  -0.218  1.00  0.00     0.160 A 
HETATM    2  N1  UNL     1       0.484  -1.441  -0.716  1.00  0.00    -0.316 N 
ATOM      3  H1  UNL     1       0.127  -2.376  -0.913  1.00  0.00     0.170 HD
HETATM    4  C3  UNL     1      -0.270  -0.387  -0.973  1.00  0.00     0.151 A 
HETATM    5  S1  UNL     1       0.749   0.889  -0.485  1.00  0.00    -0.051 SA
HETATM    6  C11 UNL     1       2.105  -0.025   0.029  1.00  0.00     0.068 A 
ENDROOT
BRANCH   4   7
HETATM    7  N2  UNL     1      -1.579  -0.446  -1.519  1.00  0.00    -0.341 N 
HETATM    8  C4  UNL     1      -2.676  -0.300  -0.909  1.00  0.00     0.022 C 
HETATM    9  C5  UNL     1      -3.926  -0.410  -1.722  1.00  0.00     0.056 C 
HETATM   10  C9  UNL     1      -2.868  -0.030   0.534  1.00  0.00     0.092 C 
HETATM   11  C6  UNL     1      -4.906   0.686  -1.371  1.00  0.00     0.006 C 
HETATM   12  C7  UNL     1      -5.203   0.758   0.090  1.00  0.00     0.004 C 
HETATM   13  C8  UNL     1      -4.332  -0.185   0.883  1.00  0.00     0.043 C 
HETATM   14  C10 UNL     1      -2.092  -0.970   1.414  1.00  0.00     0.052 C 
ATOM     15  H2  UNL     1      -1.641  -0.627  -2.521  1.00  0.00     0.167 HD
BRANCH  10  16
HETATM   16  O2  UNL     1      -2.406   1.255   0.795  1.00  0.00    -0.384 OA
ATOM     17  H2  UNL     1      -2.529   1.428   1.721  1.00  0.00     0.211 HD
ENDBRANCH  10  16
ENDBRANCH   4   7
BRANCH   1  18
HETATM   18  O1  UNL     1       2.497  -2.415   0.068  1.00  0.00    -0.340 OA
HETATM   19  C1  UNL     1       2.101  -3.737  -0.165  1.00  0.00     0.211 C 
ENDBRANCH   1  18
BRANCH   6  20
HETATM   20  C12 UNL     1       3.426   0.376   0.597  1.00  0.00     0.197 C 
HETATM   21  O3  UNL     1       4.455  -0.077  -0.175  1.00  0.00    -0.375 OA
HETATM   22  C13 UNL     1       5.227   0.967  -0.605  1.00  0.00     0.203 C 
HETATM   23  C14 UNL     1       5.000   2.096   0.400  1.00  0.00     0.173 C 
HETATM   24  C15 UNL     1       3.511   1.870   0.698  1.00  0.00     0.183 C 
BRANCH  23  25
HETATM   25  O4  UNL     1       5.762   1.828   1.543  1.00  0.00    -0.391 OA
ATOM     26  H4  UNL     1       5.621   2.530   2.168  1.00  0.00     0.210 HD
ENDBRANCH  23  25
BRANCH  24  27
HETATM   27  O5  UNL     1       2.715   2.546  -0.193  1.00  0.00    -0.390 OA
ATOM     28  H5  UNL     1       2.769   3.492  -0.129  1.00  0.00     0.210 HD
ENDBRANCH  24  27
ENDBRANCH   6  20
TORSDOF 6
