REMARK  5 active torsions:
REMARK  status: ('A' for Active; 'I' for Inactive)
REMARK    1  A    between atoms: C2_2  and  O1_3 
REMARK    2  A    between atoms: C5_8  and  O2_9 
REMARK    3  A    between atoms: O2_9  and  C6_10 
REMARK    4  A    between atoms: C6_10  and  C7_11 
REMARK    5  A    between atoms: C12_20  and  O5_21 
ROOT
HETATM    1  C1  UNL     1       3.900  -1.097   0.788  1.00  0.00     0.049 C 
HETATM    2  C2  UNL     1       3.424   0.150   0.076  1.00  0.00     0.091 C 
HETATM    3  C3  UNL     1       2.596   0.965   1.045  1.00  0.00     0.114 C 
HETATM    4  S1  UNL     1       1.243   1.768   0.142  1.00  0.00    -0.153 SA
HETATM    5  C4  UNL     1       0.289   0.446  -0.672  1.00  0.00     0.140 C 
HETATM    6  C5  UNL     1      -0.585  -0.287   0.293  1.00  0.00     0.313 C 
HETATM    7  O3  UNL     1       0.410  -1.084   0.951  1.00  0.00    -0.206 OA
HETATM    8  O4  UNL     1       1.142  -1.580   0.016  1.00  0.00    -0.229 OA
HETATM    9  C11 UNL     1       1.300  -0.664  -0.979  1.00  0.00     0.210 C 
HETATM   10  C12 UNL     1       2.673  -0.155  -1.193  1.00  0.00     0.186 C 
ENDROOT
BRANCH   6  11
HETATM   11  O2  UNL     1      -1.391  -1.175  -0.334  1.00  0.00    -0.352 OA
BRANCH  11  12
HETATM   12  C6  UNL     1      -2.649  -1.353   0.142  1.00  0.00     0.218 C 
BRANCH  12  13
HETATM   13  C7  UNL     1      -3.408  -0.058   0.099  1.00  0.00     0.024 A 
HETATM   14  S2  UNL     1      -2.954   1.501  -0.419  1.00  0.00    -0.103 SA
HETATM   15  C8  UNL     1      -4.396   2.343  -0.120  1.00  0.00     0.051 A 
HETATM   16  C9  UNL     1      -5.219   1.374   0.388  1.00  0.00     0.027 A 
HETATM   17  C10 UNL     1      -4.710   0.132   0.502  1.00  0.00     0.027 A 
HETATM   18  S3  UNL     1      -5.681  -1.258   1.159  1.00  0.00    -0.051 SA
ENDBRANCH  12  13
ENDBRANCH  11  12
ENDBRANCH   6  11
BRANCH  10  19
HETATM   19  O5  UNL     1       2.636   0.980  -2.000  1.00  0.00    -0.390 OA
ATOM     20  H5  UNL     1       2.162   0.788  -2.801  1.00  0.00     0.210 HD
ENDBRANCH  10  19
BRANCH   2  21
HETATM   21  O1  UNL     1       4.585   0.856  -0.313  1.00  0.00    -0.387 OA
ATOM     22  H1  UNL     1       4.286   1.639  -0.760  1.00  0.00     0.210 HD
ENDBRANCH   2  21
TORSDOF 5
