REMARK  6 active torsions:
REMARK  status: ('A' for Active; 'I' for Inactive)
REMARK    1  A    between atoms: N1_2  and  C3_4 
REMARK    2  A    between atoms: C3_4  and  S2_6 
REMARK    3  A    between atoms: S2_6  and  C4_7 
REMARK    4  A    between atoms: C6_11  and  N3_12 
REMARK    5  A    between atoms: N3_12  and  C7_14 
REMARK    6  A    between atoms: C9_18  and  N5_19 
ROOT
HETATM    1  C4  UNL     1      -1.023   0.145  -0.712  1.00  0.00     0.097 A 
HETATM    2  C5  UNL     1      -0.070   0.006  -1.935  1.00  0.00     0.138 A 
HETATM    3  N2  UNL     1       1.203   0.469  -1.533  1.00  0.00    -0.377 N 
ATOM      4  H2  UNL     1       2.004   0.509  -2.163  1.00  0.00     0.160 HD
HETATM    5  C6  UNL     1       1.261   0.831  -0.319  1.00  0.00     0.097 A 
HETATM    6  C10 UNL     1      -0.051   0.674   0.329  1.00  0.00     0.175 A 
HETATM    7  C11 UNL     1      -0.435   2.025   0.781  1.00  0.00     0.073 C 
HETATM    8  N6  UNL     1      -0.725   3.107   1.138  1.00  0.00    -0.196 NA
ENDROOT
BRANCH   1   9
HETATM    9  S2  UNL     1      -1.625  -1.462  -0.338  1.00  0.00    -0.092 SA
BRANCH   9  10
HETATM   10  C3  UNL     1      -3.191  -1.755   0.299  1.00  0.00     0.136 C 
HETATM   11  S1  UNL     1      -3.568  -3.361   0.737  1.00  0.00    -0.053 SA
BRANCH  10  12
HETATM   12  N1  UNL     1      -4.236  -0.853   0.528  1.00  0.00    -0.375 N 
HETATM   13  C1  UNL     1      -5.527  -1.312   1.089  1.00  0.00     0.150 C 
HETATM   14  C2  UNL     1      -4.130   0.548   0.234  1.00  0.00     0.150 C 
ENDBRANCH  10  12
ENDBRANCH   9  10
ENDBRANCH   1   9
BRANCH   5  15
HETATM   15  N3  UNL     1       2.426   1.330   0.308  1.00  0.00    -0.338 N 
ATOM     16  H3  UNL     1       2.334   2.104   0.966  1.00  0.00     0.168 HD
BRANCH  15  17
HETATM   17  C7  UNL     1       3.743   0.787   0.053  1.00  0.00     0.094 A 
HETATM   18  C8  UNL     1       4.115  -0.290  -0.708  1.00  0.00     0.127 A 
HETATM   19  N4  UNL     1       5.389  -0.551  -0.816  1.00  0.00    -0.344 N 
HETATM   20  C9  UNL     1       6.261   0.234  -0.189  1.00  0.00     0.144 A 
ATOM     21  H4  UNL     1       5.711  -1.343  -1.372  1.00  0.00     0.167 HD
HETATM   22  S3  UNL     1       5.260   1.382   0.585  1.00  0.00    -0.035 SA
BRANCH  20  23
HETATM   23  N5  UNL     1       7.564   0.128  -0.184  1.00  0.00    -0.380 N 
ATOM     24  H52 UNL     1       8.162  -0.557  -0.646  1.00  0.00     0.158 HD
ATOM     25  H51 UNL     1       8.233   0.730   0.297  1.00  0.00     0.158 HD
ENDBRANCH  20  23
ENDBRANCH  15  17
ENDBRANCH   5  15
TORSDOF 6
