REMARK  5 active torsions:
REMARK  status: ('A' for Active; 'I' for Inactive)
REMARK    1  A    between atoms: N1_2  and  C3_4 
REMARK    2  A    between atoms: C3_4  and  C4_5 
REMARK    3  A    between atoms: C4_5  and  C5_6 
REMARK    4  A    between atoms: C5_6  and  N2_7 
REMARK    5  A    between atoms: C20_25  and  N4_26 
ROOT
HETATM    1  N2  UNL     1       1.518   0.114  -0.399  1.00  0.00    -0.307 N 
HETATM    2  C6  UNL     1       1.183   0.840  -1.574  1.00  0.00     0.320 C 
HETATM    3  O1  UNL     1       1.792   0.872  -2.675  1.00  0.00    -0.247 OA
HETATM    4  N3  UNL     1      -0.016   1.564  -1.288  1.00  0.00    -0.329 N 
ATOM      5  H3  UNL     1      -0.413   2.324  -1.841  1.00  0.00     0.165 HD
HETATM    6  C7  UNL     1      -0.567   1.006  -0.047  1.00  0.00     0.080 C 
HETATM    7  C8  UNL     1      -1.397   2.008   0.667  1.00  0.00     0.036 C 
HETATM    8  C9  UNL     1      -2.762   1.908   0.010  1.00  0.00     0.008 C 
HETATM    9  C10 UNL     1      -2.655   0.827  -1.039  1.00  0.00    -0.000 C 
HETATM   10  C11 UNL     1      -1.558  -0.053  -0.445  1.00  0.00     0.023 C 
HETATM   11  C12 UNL     1      -2.170  -0.664   0.792  1.00  0.00     0.016 C 
HETATM   12  C13 UNL     1      -3.335  -1.543   0.500  1.00  0.00    -0.047 C 
HETATM   13  C14 UNL     1      -2.795  -2.982   0.430  1.00  0.00     0.015 C 
HETATM   14  C15 UNL     1      -4.205  -1.539   1.769  1.00  0.00     0.015 C 
HETATM   15  C16 UNL     1      -4.129  -1.195  -0.699  1.00  0.00     0.018 C 
HETATM   16  C17 UNL     1      -3.902   0.111  -1.335  1.00  0.00    -0.043 C 
HETATM   17  C18 UNL     1      -5.076   1.062  -1.060  1.00  0.00     0.015 C 
HETATM   18  C19 UNL     1      -3.924  -0.097  -2.861  1.00  0.00     0.015 C 
HETATM   19  C20 UNL     1       0.616   0.502   0.688  1.00  0.00     0.261 C 
ENDROOT
BRANCH  19  20
HETATM   20  N4  UNL     1       1.256   1.653   1.342  1.00  0.00    -0.192 N 
HETATM   21  N5  UNL     1       1.735   2.684   0.696  1.00  0.00    -0.275 N 
HETATM   22  C21 UNL     1       2.250   3.557   1.568  1.00  0.00     0.217 A 
ATOM     23  H5  UNL     1       1.718   2.804  -0.317  1.00  0.00     0.189 HD
HETATM   24  N6  UNL     1       2.075   3.036   2.787  1.00  0.00    -0.279 N 
HETATM   25  N7  UNL     1       1.463   1.869   2.613  1.00  0.00    -0.223 N 
ATOM     26  H6  UNL     1       2.356   3.452   3.675  1.00  0.00     0.189 HD
ATOM     27  H7  UNL     1       1.194   1.234   3.364  1.00  0.00     0.210 HD
ENDBRANCH  19  20
BRANCH   1  28
HETATM   28  C5  UNL     1       2.567  -0.851  -0.266  1.00  0.00     0.132 C 
BRANCH  28  29
HETATM   29  C4  UNL     1       3.891  -0.210   0.169  1.00  0.00     0.050 C 
BRANCH  29  30
HETATM   30  C3  UNL     1       4.891  -1.334   0.267  1.00  0.00     0.273 C 
BRANCH  30  31
HETATM   31  N1  UNL     1       6.200  -0.878   0.671  1.00  0.00     0.080 N 
HETATM   32  C1  UNL     1       7.130  -1.956   0.758  1.00  0.00     0.309 C 
HETATM   33  C2  UNL     1       6.666   0.249  -0.087  1.00  0.00     0.309 C 
ENDBRANCH  30  31
ENDBRANCH  29  30
ENDBRANCH  28  29
ENDBRANCH   1  28
TORSDOF 5
