REMARK  5 active torsions:
REMARK  status: ('A' for Active; 'I' for Inactive)
REMARK    1  A    between atoms: C5_5  and  C6_6 
REMARK    2  A    between atoms: C6_6  and  C7_7 
REMARK    3  A    between atoms: C6_6  and  N4_19 
REMARK    4  A    between atoms: C7_7  and  N1_8 
REMARK    5  A    between atoms: N5_22  and  C16_23 
ROOT
HETATM    1  C6  UNL     1      -0.853  -0.343   0.368  1.00  0.00     0.018 C 
ENDROOT
BRANCH   1   2
HETATM    2  C5  UNL     1      -1.612   0.873   0.850  1.00  0.00    -0.017 A 
HETATM    3  C4  UNL     1      -2.539   1.527   0.031  1.00  0.00     0.013 A 
HETATM    4  C3  UNL     1      -3.238   2.623   0.454  1.00  0.00     0.007 A 
HETATM    5  C2  UNL     1      -3.050   3.127   1.719  1.00  0.00    -0.062 A 
HETATM    6  C1  UNL     1      -3.837   4.320   2.117  1.00  0.00     0.048 C 
HETATM    7  C24 UNL     1      -2.149   2.507   2.543  1.00  0.00     0.007 A 
HETATM    8  C23 UNL     1      -1.442   1.394   2.108  1.00  0.00     0.013 A 
ENDBRANCH   1   2
BRANCH   1   9
HETATM    9  C7  UNL     1      -1.571  -1.575   0.749  1.00  0.00     0.201 C 
BRANCH   9  10
HETATM   10  N1  UNL     1      -2.926  -1.728   0.277  1.00  0.00    -0.287 N 
HETATM   11  N2  UNL     1      -4.013  -1.159   0.872  1.00  0.00    -0.308 N 
HETATM   12  C8  UNL     1      -5.118  -1.434   0.209  1.00  0.00     0.122 A 
ATOM     13  H2  UNL     1      -3.976  -0.594   1.720  1.00  0.00     0.186 HD
HETATM   14  C9  UNL     1      -4.789  -2.215  -0.876  1.00  0.00     0.024 A 
HETATM   15  C10 UNL     1      -5.498  -2.804  -1.893  1.00  0.00     0.102 A 
HETATM   16  C13 UNL     1      -3.401  -2.378  -0.797  1.00  0.00     0.065 A 
HETATM   17  N3  UNL     1      -4.897  -3.549  -2.832  1.00  0.00    -0.374 N 
HETATM   18  C11 UNL     1      -3.552  -3.721  -2.772  1.00  0.00     0.090 A 
ATOM     19  H3  UNL     1      -5.442  -3.979  -3.579  1.00  0.00     0.164 HD
HETATM   20  C12 UNL     1      -2.822  -3.152  -1.781  1.00  0.00     0.049 A 
ENDBRANCH   9  10
ENDBRANCH   1   9
BRANCH   1  21
HETATM   21  N4  UNL     1      -0.329  -0.101  -0.883  1.00  0.00    -0.278 NA
HETATM   22  C14 UNL     1       0.459   1.132  -0.859  1.00  0.00     0.140 C 
HETATM   23  C15 UNL     1       1.820   0.958  -0.211  1.00  0.00     0.073 C 
HETATM   24  N5  UNL     1       2.506  -0.144  -0.757  1.00  0.00    -0.385 N 
HETATM   25  C21 UNL     1       1.706  -1.360  -0.705  1.00  0.00     0.137 C 
HETATM   26  C22 UNL     1       0.488  -1.064  -1.552  1.00  0.00     0.115 C 
BRANCH  24  27
HETATM   27  C16 UNL     1       3.864  -0.345  -0.446  1.00  0.00     0.109 C 
HETATM   28  C17 UNL     1       4.705   0.771  -0.951  1.00  0.00     0.028 C 
HETATM   29  C18 UNL     1       6.161   0.639  -0.554  1.00  0.00     0.029 C 
HETATM   30  C19 UNL     1       6.317   0.079   0.838  1.00  0.00     0.232 C 
HETATM   31  N6  UNL     1       5.087   0.284   1.571  1.00  0.00    -0.073 N 
HETATM   32  C20 UNL     1       4.120  -0.674   1.009  1.00  0.00     0.257 C 
ATOM     33  H62 UNL     1       5.197   0.207   2.582  1.00  0.00     0.277 HD
ATOM     34  H61 UNL     1       4.760   1.250   1.557  1.00  0.00     0.277 HD
ENDBRANCH  24  27
ENDBRANCH   1  21
TORSDOF 5
