REMARK  5 active torsions:
REMARK  status: ('A' for Active; 'I' for Inactive)
REMARK    1  A    between atoms: N1_7  and  C6_8 
REMARK    2  A    between atoms: C6_8  and  C7_9 
REMARK    3  A    between atoms: C7_9  and  C8_10 
REMARK    4  A    between atoms: C11_13  and  N2_14 
REMARK    5  A    between atoms: C13_19  and  C14_20 
ROOT
HETATM    1  N2  UNL     1       2.976  -0.194  -0.846  1.00  0.00    -0.192 N 
ATOM      2  H2  UNL     1       3.219   0.244  -1.735  1.00  0.00     0.184 HD
HETATM    3  C12 UNL     1       3.970  -0.369  -0.099  1.00  0.00     0.683 A 
HETATM    4  N3  UNL     1       5.215   0.022  -0.513  1.00  0.00    -0.191 N 
ATOM      5  H3  UNL     1       5.295   0.431  -1.444  1.00  0.00     0.184 HD
HETATM    6  C13 UNL     1       6.329  -0.091   0.206  1.00  0.00     0.063 A 
HETATM    7  C18 UNL     1       6.203  -0.650   1.460  1.00  0.00     0.048 A 
HETATM    8  C19 UNL     1       4.962  -1.062   1.917  1.00  0.00     0.108 A 
HETATM    9  N6  UNL     1       3.893  -0.911   1.137  1.00  0.00    -0.202 N 
ATOM     10  H6  UNL     1       2.984  -1.215   1.485  1.00  0.00     0.183 HD
ENDROOT
BRANCH   1  11
HETATM   11  C11 UNL     1       1.636  -0.461  -0.732  1.00  0.00     0.049 A 
HETATM   12  C10 UNL     1       0.761   0.606  -1.046  1.00  0.00     0.030 A 
HETATM   13  C9  UNL     1      -0.580   0.428  -1.014  1.00  0.00     0.010 A 
HETATM   14  C8  UNL     1      -1.170  -0.803  -0.676  1.00  0.00    -0.044 A 
HETATM   15  C21 UNL     1      -0.337  -1.805  -0.377  1.00  0.00     0.010 A 
HETATM   16  C20 UNL     1       1.065  -1.644  -0.402  1.00  0.00     0.030 A 
BRANCH  14  17
HETATM   17  C7  UNL     1      -2.635  -0.869  -0.773  1.00  0.00     0.019 A 
HETATM   18  C22 UNL     1      -3.271  -1.392  -2.023  1.00  0.00     0.021 A 
HETATM   19  C23 UNL     1      -3.209  -2.283  -0.864  1.00  0.00     0.021 A 
BRANCH  17  20
HETATM   20  C6  UNL     1      -3.431   0.201  -0.062  1.00  0.00     0.078 C 
BRANCH  20  21
HETATM   21  N1  UNL     1      -4.778   0.244  -0.291  1.00  0.00    -0.364 N 
HETATM   22  C2  UNL     1      -5.372   1.582  -0.129  1.00  0.00     0.108 C 
HETATM   23  C1  UNL     1      -4.444   2.654   0.272  1.00  0.00     0.035 C 
HETATM   24  C3  UNL     1      -6.590   1.607   0.722  1.00  0.00     0.193 C 
HETATM   25  O1  UNL     1      -6.488   0.816   1.864  1.00  0.00    -0.384 OA
HETATM   26  C4  UNL     1      -6.369  -0.488   1.463  1.00  0.00     0.212 C 
HETATM   27  C5  UNL     1      -5.778  -0.655   0.067  1.00  0.00     0.089 C 
ENDBRANCH  20  21
ENDBRANCH  17  20
ENDBRANCH  14  17
ENDBRANCH   1  11
BRANCH   6  28
HETATM   28  C14 UNL     1       7.627   0.365  -0.278  1.00  0.00     0.022 A 
HETATM   29  C15 UNL     1       7.739   0.864  -1.571  1.00  0.00     0.104 A 
HETATM   30  N4  UNL     1       8.912   1.350  -2.039  1.00  0.00    -0.361 N 
HETATM   31  C16 UNL     1      10.022   1.372  -1.280  1.00  0.00     0.180 A 
ATOM     32  H4  UNL     1       8.955   1.709  -2.993  1.00  0.00     0.166 HD
HETATM   33  N5  UNL     1       9.928   0.895  -0.036  1.00  0.00    -0.361 N 
HETATM   34  C17 UNL     1       8.764   0.391   0.487  1.00  0.00     0.104 A 
ATOM     35  H5  UNL     1      10.761   0.906   0.553  1.00  0.00     0.166 HD
ENDBRANCH   6  28
TORSDOF 5
