REMARK  5 active torsions:
REMARK  status: ('A' for Active; 'I' for Inactive)
REMARK    1  A    between atoms: O1_2  and  C2_3 
REMARK    2  A    between atoms: C2_3  and  C3_4 
REMARK    3  A    between atoms: C6_9  and  N2_10 
REMARK    4  A    between atoms: N3_17  and  C13_18 
REMARK    5  A    between atoms: C13_18  and  C14_19 
ROOT
HETATM    1  N2  UNL     1       0.928  -0.292   0.787  1.00  0.00    -0.217 N 
HETATM    2  C7  UNL     1       0.051  -0.241   1.924  1.00  0.00     0.143 C 
HETATM    3  C8  UNL     1      -1.386  -0.151   1.660  1.00  0.00     0.052 C 
HETATM    4  C9  UNL     1      -1.926  -0.614   0.336  1.00  0.00     0.043 C 
HETATM    5  C10 UNL     1      -3.137  -1.476   0.738  1.00  0.00     0.033 C 
HETATM    6  C11 UNL     1      -4.276  -1.142  -0.141  1.00  0.00     0.022 C 
HETATM    7  C12 UNL     1      -3.845   0.052  -0.880  1.00  0.00     0.123 C 
HETATM    8  N3  UNL     1      -2.490   0.315  -0.502  1.00  0.00    -0.378 N 
HETATM    9  C17 UNL     1      -0.891  -1.516  -0.375  1.00  0.00     0.005 C 
HETATM   10  C18 UNL     1      -1.233  -1.719  -1.823  1.00  0.00     0.040 C 
HETATM   11  C19 UNL     1      -1.900  -2.979  -2.167  1.00  0.00    -0.030 C 
HETATM   12  C20 UNL     1      -1.620  -4.059  -1.491  1.00  0.00    -0.031 C 
HETATM   13  C21 UNL     1      -0.659  -4.040  -0.400  1.00  0.00     0.028 C 
HETATM   14  C22 UNL     1      -0.553  -2.757   0.360  1.00  0.00     0.018 C 
HETATM   15  C23 UNL     1       0.445  -0.739  -0.465  1.00  0.00     0.153 C 
ENDROOT
BRANCH   8  16
HETATM   16  C13 UNL     1      -2.011   1.491  -1.009  1.00  0.00     0.117 C 
BRANCH  16  17
HETATM   17  C14 UNL     1      -1.673   2.639  -0.124  1.00  0.00     0.064 A 
HETATM   18  C15 UNL     1      -2.564   3.507   0.479  1.00  0.00     0.119 A 
HETATM   19  N4  UNL     1      -1.871   4.410   1.165  1.00  0.00    -0.360 N 
HETATM   20  C16 UNL     1      -0.566   4.141   1.017  1.00  0.00     0.180 A 
ATOM     21  H4  UNL     1      -2.265   5.177   1.711  1.00  0.00     0.166 HD
HETATM   22  N5  UNL     1      -0.465   3.069   0.236  1.00  0.00    -0.350 N 
ATOM     23  H5  UNL     1       0.414   2.637  -0.047  1.00  0.00     0.166 HD
ENDBRANCH  16  17
ENDBRANCH   8  16
BRANCH   1  24
HETATM   24  C6  UNL     1       2.316   0.119   0.927  1.00  0.00     0.680 A 
HETATM   25  N1  UNL     1       2.779   0.545   2.098  1.00  0.00    -0.202 N 
HETATM   26  C5  UNL     1       4.049   0.924   2.234  1.00  0.00     0.108 A 
ATOM     27  H1  UNL     1       2.154   0.582   2.903  1.00  0.00     0.183 HD
HETATM   28  C4  UNL     1       4.891   0.872   1.149  1.00  0.00     0.045 A 
HETATM   29  C3  UNL     1       4.429   0.431  -0.081  1.00  0.00     0.051 A 
HETATM   30  N6  UNL     1       3.137   0.070  -0.127  1.00  0.00    -0.193 N 
ATOM     31  H6  UNL     1       2.761  -0.260  -1.016  1.00  0.00     0.184 HD
BRANCH  29  32
HETATM   32  C2  UNL     1       5.320   0.367  -1.266  1.00  0.00     0.224 C 
BRANCH  32  33
HETATM   33  O1  UNL     1       5.103   1.417  -2.125  1.00  0.00    -0.390 OA
HETATM   34  C1  UNL     1       5.332   2.632  -1.503  1.00  0.00     0.201 C 
ENDBRANCH  32  33
ENDBRANCH  29  32
ENDBRANCH   1  24
TORSDOF 5
