REMARK  9 active torsions:
REMARK  status: ('A' for Active; 'I' for Inactive)
REMARK    1  A    between atoms: O1_2  and  C2_3 
REMARK    2  A    between atoms: C4_5  and  C5_6 
REMARK    3  A    between atoms: C5_6  and  C6_7 
REMARK    4  A    between atoms: C7_8  and  C8_9 
REMARK    5  A    between atoms: C11_15  and  O4_16 
REMARK    6  A    between atoms: O4_16  and  C12_17 
REMARK    7  A    between atoms: C12_17  and  C13_18 
REMARK    8  A    between atoms: C18_26  and  O7_27 
REMARK    9  A    between atoms: C20_29  and  O8_30 
ROOT
HETATM    1  C6  UNL     1       0.548   0.591  -1.396  1.00  0.00    -0.002 A 
HETATM    2  C7  UNL     1       0.888   1.879  -1.104  1.00  0.00     0.148 A 
HETATM    3  O3  UNL     1       2.122   1.898  -0.552  1.00  0.00    -0.304 OA
HETATM    4  C9  UNL     1       2.596   0.688  -0.476  1.00  0.00     0.089 A 
HETATM    5  C10 UNL     1       3.816   0.201   0.010  1.00  0.00     0.076 A 
HETATM    6  C11 UNL     1       4.124  -1.137  -0.004  1.00  0.00     0.089 A 
HETATM    7  C14 UNL     1       3.162  -2.015  -0.532  1.00  0.00     0.045 A 
HETATM    8 BR1  UNL     1       3.572  -3.869  -0.562  1.00  0.00    -0.048 Br
HETATM    9  C15 UNL     1       1.971  -1.521  -1.004  1.00  0.00     0.036 A 
HETATM   10  C16 UNL     1       1.657  -0.178  -0.990  1.00  0.00     0.009 A 
ENDROOT
BRANCH   1  11
HETATM   11  C5  UNL     1      -0.652  -0.017  -1.950  1.00  0.00     0.081 C 
BRANCH  11  12
HETATM   12  C4  UNL     1      -1.763  -0.250  -1.016  1.00  0.00    -0.048 A 
HETATM   13  C3  UNL     1      -1.724  -1.212   0.002  1.00  0.00     0.047 A 
HETATM   14  C2  UNL     1      -2.802  -1.439   0.844  1.00  0.00     0.104 A 
HETATM   15  C20 UNL     1      -3.935  -0.687   0.658  1.00  0.00     0.135 A 
HETATM   16  C18 UNL     1      -4.042   0.275  -0.322  1.00  0.00     0.104 A 
HETATM   17  C17 UNL     1      -2.935   0.457  -1.132  1.00  0.00     0.047 A 
BRANCH  14  18
HETATM   18  O1  UNL     1      -2.772  -2.389   1.855  1.00  0.00    -0.353 OA
HETATM   19  C1  UNL     1      -1.578  -3.142   2.008  1.00  0.00     0.210 C 
ENDBRANCH  14  18
BRANCH  15  20
HETATM   20  O8  UNL     1      -5.021  -0.898   1.487  1.00  0.00    -0.351 OA
HETATM   21  C21 UNL     1      -5.236  -0.225   2.696  1.00  0.00     0.210 C 
ENDBRANCH  15  20
BRANCH  16  22
HETATM   22  O7  UNL     1      -5.202   1.016  -0.482  1.00  0.00    -0.353 OA
HETATM   23  C19 UNL     1      -5.232   1.983  -1.512  1.00  0.00     0.210 C 
ENDBRANCH  16  22
ENDBRANCH  11  12
ENDBRANCH   1  11
BRANCH   2  24
HETATM   24  C8  UNL     1       0.129   3.095  -1.318  1.00  0.00     0.289 C 
HETATM   25  N1  UNL     1       0.583   4.303  -0.746  1.00  0.00    -0.055 NA
HETATM   26  O2  UNL     1      -0.907   3.122  -1.987  1.00  0.00    -0.269 OA
ENDBRANCH   2  24
BRANCH   6  27
HETATM   27  O4  UNL     1       5.314  -1.601   0.469  1.00  0.00    -0.339 OA
BRANCH  27  28
HETATM   28  C12 UNL     1       6.379  -0.933   1.036  1.00  0.00     0.288 C 
BRANCH  28  29
HETATM   29  C13 UNL     1       6.119  -0.236   2.303  1.00  0.00     0.198 C 
HETATM   30  O5  UNL     1       5.009  -0.323   2.860  1.00  0.00    -0.646 OA
HETATM   31  O6  UNL     1       7.114   0.521   2.881  1.00  0.00    -0.646 OA
ENDBRANCH  28  29
ENDBRANCH  27  28
ENDBRANCH   6  27
TORSDOF 9
