REMARK  11 active torsions:
REMARK  status: ('A' for Active; 'I' for Inactive)
REMARK    1  A    between atoms: C2_2  and  N1_3 
REMARK       I    between atoms: N1_3  and  C3_5 
REMARK    2  A    between atoms: C3_5  and  C4_7 
REMARK    3  A    between atoms: C16_20  and  O2_21 
REMARK    4  A    between atoms: C16_20  and  C21_29 
REMARK    5  A    between atoms: O2_21  and  C17_22 
REMARK    6  A    between atoms: C17_22  and  C18_23 
REMARK    7  A    between atoms: C18_23  and  S1_24 
REMARK    8  A    between atoms: S1_24  and  C19_25 
REMARK    9  A    between atoms: C19_25  and  C20_26 
REMARK   10  A    between atoms: C20_26  and  O3_27 
REMARK   11  A    between atoms: C21_29  and  O5_31 
ROOT
HETATM    1  C4  UNL     1      -1.165   1.443  -0.216  1.00  0.00     0.121 C 
HETATM    2  C5  UNL     1      -1.824   1.242  -1.593  1.00  0.00     0.017 C 
HETATM    3  C6  UNL     1      -2.584  -0.035  -1.690  1.00  0.00     0.001 C 
HETATM    4  C7  UNL     1      -3.910  -0.073  -0.998  1.00  0.00     0.000 C 
HETATM    5  C8  UNL     1      -4.278  -1.565  -0.899  1.00  0.00     0.000 C 
HETATM    6  C9  UNL     1      -3.319  -2.245   0.022  1.00  0.00     0.000 C 
HETATM    7  C10 UNL     1      -2.558  -3.397  -0.647  1.00  0.00     0.002 C 
HETATM    8  C11 UNL     1      -1.406  -3.847   0.174  1.00  0.00     0.035 C 
HETATM    9  C12 UNL     1      -0.086  -3.180  -0.125  1.00  0.00     0.218 C 
HETATM   10  C13 UNL     1       0.249  -3.039  -1.555  1.00  0.00     0.043 C 
HETATM   11  N2  UNL     1       0.043  -2.002   0.709  1.00  0.00     0.092 N 
HETATM   12  C14 UNL     1       0.526  -2.497   1.983  1.00  0.00     0.310 C 
HETATM   13  C15 UNL     1       0.826  -1.024   0.073  1.00  0.00     0.324 C 
HETATM   14  C16 UNL     1       0.989   0.326   0.618  1.00  0.00     0.210 C 
HETATM   15  C23 UNL     1       0.312   1.427  -0.259  1.00  0.00     0.154 C 
HETATM   16  C24 UNL     1       0.909   2.758   0.225  1.00  0.00     0.057 C 
HETATM   17  F1  UNL     1       0.849   1.220  -1.515  1.00  0.00    -0.239 F 
ENDROOT
BRANCH  14  18
HETATM   18  O2  UNL     1       2.314   0.722   0.460  1.00  0.00    -0.364 OA
BRANCH  18  19
HETATM   19  C17 UNL     1       3.319   0.059   1.004  1.00  0.00     0.179 C 
BRANCH  19  20
HETATM   20  C18 UNL     1       4.631   0.803   0.647  1.00  0.00     0.100 C 
BRANCH  20  21
HETATM   21  S1  UNL     1       4.814   0.856  -1.155  1.00  0.00    -0.165 SA
BRANCH  21  22
HETATM   22  C19 UNL     1       5.062  -0.804  -1.809  1.00  0.00     0.100 C 
BRANCH  22  23
HETATM   23  C20 UNL     1       6.397  -1.320  -1.310  1.00  0.00     0.174 C 
BRANCH  23  24
HETATM   24  O3  UNL     1       7.390  -0.448  -1.773  1.00  0.00    -0.400 OA
ATOM     25  H3  UNL     1       8.227  -0.771  -1.460  1.00  0.00     0.209 HD
ENDBRANCH  23  24
ENDBRANCH  22  23
ENDBRANCH  21  22
ENDBRANCH  20  21
ENDBRANCH  19  20
ENDBRANCH  18  19
ENDBRANCH  14  18
BRANCH  14  26
HETATM   26  C21 UNL     1       0.634   0.565   2.033  1.00  0.00     0.298 C 
HETATM   27  O4  UNL     1       1.441   1.073   2.870  1.00  0.00    -0.262 OA
BRANCH  26  28
HETATM   28  O5  UNL     1      -0.596   0.271   2.606  1.00  0.00    -0.324 OA
HETATM   29  C22 UNL     1      -0.920   0.509   3.961  1.00  0.00     0.213 C 
ENDBRANCH  26  28
ENDBRANCH  14  26
BRANCH   1  30
HETATM   30  C3  UNL     1      -1.723   2.740   0.249  1.00  0.00     0.225 C 
HETATM   31  N1  UNL     1      -1.587   3.885  -0.568  1.00  0.00    -0.361 N 
ATOM     32  H1  UNL     1      -1.110   3.808  -1.466  1.00  0.00     0.162 HD
HETATM   33  O1  UNL     1      -2.311   2.861   1.335  1.00  0.00    -0.273 OA
BRANCH  31  34
HETATM   34  C2  UNL     1      -2.121   5.178  -0.143  1.00  0.00     0.118 C 
HETATM   35  C1  UNL     1      -3.598   5.166   0.077  1.00  0.00     0.026 C 
ENDBRANCH  31  34
ENDBRANCH   1  30
TORSDOF 11
