REMARK  13 active torsions:
REMARK  status: ('A' for Active; 'I' for Inactive)
REMARK    1  A    between atoms: C2_2  and  O1_3 
REMARK    2  A    between atoms: O1_3  and  C3_4 
REMARK    3  A    between atoms: C3_4  and  C4_6 
REMARK    4  A    between atoms: C4_6  and  C5_7 
REMARK    5  A    between atoms: C5_7  and  C6_8 
REMARK       I    between atoms: C6_8  and  N1_10 
REMARK    6  A    between atoms: N1_10  and  C7_12 
REMARK    7  A    between atoms: C11_16  and  C12_17 
REMARK    8  A    between atoms: C12_17  and  N2_18 
REMARK    9  A    between atoms: N2_18  and  N3_19 
REMARK   10  A    between atoms: N3_19  and  C13_21 
REMARK   11  A    between atoms: C13_21  and  O4_22 
REMARK   12  A    between atoms: C13_21  and  C14_24 
REMARK   13  A    between atoms: C19_30  and  O5_31 
ROOT
HETATM    1  C7  UNL     1       1.705  -0.692   1.036  1.00  0.00     0.077 A 
HETATM    2  C8  UNL     1       0.810  -0.171   0.158  1.00  0.00     0.045 A 
HETATM    3  C9  UNL     1      -0.506  -0.461   0.327  1.00  0.00    -0.040 A 
HETATM    4  C10 UNL     1      -1.563   0.087  -0.629  1.00  0.00     0.050 C 
HETATM    5  C11 UNL     1      -0.833  -1.262   1.376  1.00  0.00     0.043 A 
HETATM    6  S1  UNL     1       0.675  -1.591   2.097  1.00  0.00    -0.070 SA
ENDROOT
BRANCH   5   7
HETATM    7  C12 UNL     1      -2.181  -1.718   1.793  1.00  0.00     0.228 C 
BRANCH   7   8
HETATM    8  N2  UNL     1      -3.266  -1.532   1.382  1.00  0.00    -0.335 NA
BRANCH   8   9
HETATM    9  N3  UNL     1      -4.373  -1.185   0.749  1.00  0.00    -0.213 N 
ATOM     10  H3  UNL     1      -4.729  -1.848   0.060  1.00  0.00     0.204 HD
BRANCH   9  11
HETATM   11  C13 UNL     1      -5.117   0.003   0.922  1.00  0.00     0.178 C 
BRANCH  11  12
HETATM   12  O4  UNL     1      -4.577   0.774   1.825  1.00  0.00    -0.344 OA
ATOM     13  H4  UNL     1      -5.077   1.573   1.941  1.00  0.00     0.219 HD
ENDBRANCH  11  12
BRANCH  11  14
HETATM   14  C14 UNL     1      -6.307   0.477   0.297  1.00  0.00     0.051 A 
HETATM   15  C15 UNL     1      -6.828   1.711   0.690  1.00  0.00     0.038 A 
HETATM   16  C16 UNL     1      -7.966   2.228   0.133  1.00  0.00     0.012 A 
HETATM   17 BR1  UNL     1      -8.586   3.922   0.746  1.00  0.00    -0.051 Br
HETATM   18  C17 UNL     1      -8.660   1.554  -0.846  1.00  0.00     0.022 A 
HETATM   19  C18 UNL     1      -8.167   0.344  -1.244  1.00  0.00     0.039 A 
HETATM   20  C19 UNL     1      -7.006  -0.194  -0.683  1.00  0.00     0.082 A 
BRANCH  20  21
HETATM   21  O5  UNL     1      -6.559  -1.426  -1.133  1.00  0.00    -0.355 OA
HETATM   22  C20 UNL     1      -7.287  -2.090  -2.137  1.00  0.00     0.210 C 
ENDBRANCH  20  21
ENDBRANCH  11  14
ENDBRANCH   9  11
ENDBRANCH   8   9
ENDBRANCH   7   8
ENDBRANCH   5   7
BRANCH   1  23
HETATM   23  N1  UNL     1       3.134  -0.572   1.125  1.00  0.00    -0.321 N 
HETATM   24  C6  UNL     1       3.952   0.181   0.276  1.00  0.00     0.223 C 
HETATM   25  O3  UNL     1       3.514   0.855  -0.675  1.00  0.00    -0.273 OA
ATOM     26  H1  UNL     1       3.595  -1.084   1.877  1.00  0.00     0.169 HD
BRANCH  24  27
HETATM   27  C5  UNL     1       5.429   0.195   0.496  1.00  0.00     0.113 C 
BRANCH  27  28
HETATM   28  C4  UNL     1       6.132   1.036  -0.534  1.00  0.00     0.120 C 
BRANCH  28  29
HETATM   29  C3  UNL     1       7.600   1.005  -0.312  1.00  0.00     0.259 C 
HETATM   30  O2  UNL     1       8.093   1.224   0.812  1.00  0.00    -0.265 OA
BRANCH  29  31
HETATM   31  O1  UNL     1       8.424   0.714  -1.413  1.00  0.00    -0.322 OA
BRANCH  31  32
HETATM   32  C2  UNL     1       9.816   0.678  -1.227  1.00  0.00     0.174 C 
HETATM   33  C1  UNL     1      10.240  -0.315  -0.183  1.00  0.00     0.034 C 
ENDBRANCH  31  32
ENDBRANCH  29  31
ENDBRANCH  28  29
ENDBRANCH  27  28
ENDBRANCH  24  27
ENDBRANCH   1  23
TORSDOF 13
