REMARK  12 active torsions:
REMARK  status: ('A' for Active; 'I' for Inactive)
REMARK    1  A    between atoms: C2_2  and  C3_3 
REMARK    2  A    between atoms: C3_3  and  C4_4 
REMARK    3  A    between atoms: C4_4  and  C5_5 
REMARK    4  A    between atoms: C5_5  and  O2_7 
REMARK    5  A    between atoms: O2_7  and  C6_8 
REMARK    6  A    between atoms: C6_8  and  C7_9 
REMARK    7  A    between atoms: C7_9  and  C8_10 
REMARK    8  A    between atoms: C7_9  and  C13_17 
REMARK    9  A    between atoms: C8_10  and  C9_11 
REMARK   10  A    between atoms: C13_17  and  C14_19 
REMARK   11  A    between atoms: C17_23  and  O6_24 
REMARK   12  A    between atoms: C22_30  and  O7_31 
ROOT
HETATM    1  C14 UNL     1      -1.188  -0.094  -0.133  1.00  0.00     0.083 C 
HETATM    2  C15 UNL     1      -0.769  -0.734   1.165  1.00  0.00     0.135 C 
HETATM    3  O5  UNL     1      -0.204  -0.150   2.055  1.00  0.00    -0.297 OA
HETATM    4  C16 UNL     1      -1.067  -2.174   1.373  1.00  0.00     0.111 C 
HETATM    5  C17 UNL     1      -2.440  -2.393   0.760  1.00  0.00     0.130 C 
HETATM    6  C18 UNL     1      -3.246  -1.157   0.632  1.00  0.00     0.034 C 
HETATM    7  C19 UNL     1      -4.678  -1.490   0.442  1.00  0.00    -0.015 C 
HETATM    8  C20 UNL     1      -5.610  -0.488   1.141  1.00  0.00     0.018 C 
HETATM    9  C21 UNL     1      -5.036  -2.821   1.132  1.00  0.00     0.018 C 
HETATM   10  C22 UNL     1      -5.104  -1.705  -0.990  1.00  0.00     0.126 C 
HETATM   11  C23 UNL     1      -4.415  -0.888  -1.992  1.00  0.00     0.033 C 
HETATM   12  C24 UNL     1      -2.993  -0.582  -1.764  1.00  0.00     0.013 C 
HETATM   13  C25 UNL     1      -2.663  -0.141  -0.325  1.00  0.00    -0.025 C 
HETATM   14  C26 UNL     1      -3.303   1.195  -0.230  1.00  0.00     0.016 C 
ENDROOT
BRANCH   1  15
HETATM   15  C13 UNL     1      -0.487   1.201  -0.215  1.00  0.00     0.100 C 
HETATM   16 CL1  UNL     1      -1.019   2.157   1.181  1.00  0.00    -0.124 Cl
BRANCH  15  17
HETATM   17  C7  UNL     1       0.998   1.161  -0.238  1.00  0.00     0.030 C 
BRANCH  17  18
HETATM   18  C6  UNL     1       1.529   0.301  -1.397  1.00  0.00     0.184 C 
BRANCH  18  19
HETATM   19  O2  UNL     1       2.932   0.271  -1.431  1.00  0.00    -0.321 OA
BRANCH  19  20
HETATM   20  C5  UNL     1       3.783  -0.224  -0.486  1.00  0.00     0.258 C 
HETATM   21  O1  UNL     1       3.298  -0.734   0.563  1.00  0.00    -0.265 OA
BRANCH  20  22
HETATM   22  C4  UNL     1       5.261  -0.216  -0.585  1.00  0.00     0.111 C 
BRANCH  22  23
HETATM   23  C3  UNL     1       5.700  -1.671  -0.755  1.00  0.00     0.009 C 
BRANCH  23  24
HETATM   24  C2  UNL     1       7.214  -1.703  -0.859  1.00  0.00    -0.004 C 
HETATM   25  C1  UNL     1       7.754  -1.107   0.441  1.00  0.00     0.005 C 
ENDBRANCH  23  24
ENDBRANCH  22  23
ENDBRANCH  20  22
ENDBRANCH  19  20
ENDBRANCH  18  19
ENDBRANCH  17  18
BRANCH  17  26
HETATM   26  C8  UNL     1       1.598   2.501  -0.577  1.00  0.00     0.023 C 
BRANCH  26  27
HETATM   27  C9  UNL     1       1.377   3.649   0.324  1.00  0.00     0.088 C 
HETATM   28  C10 UNL     1       1.898   3.453   1.706  1.00  0.00     0.041 C 
HETATM   29  C11 UNL     1       3.184   4.293   1.765  1.00  0.00     0.179 C 
HETATM   30  O3  UNL     1       2.925   5.321   0.812  1.00  0.00    -0.321 OA
HETATM   31  C12 UNL     1       2.262   4.745  -0.227  1.00  0.00     0.263 C 
HETATM   32  O4  UNL     1       2.386   5.091  -1.442  1.00  0.00    -0.265 OA
ENDBRANCH  26  27
ENDBRANCH  17  26
ENDBRANCH  15  17
ENDBRANCH   1  15
BRANCH   5  33
HETATM   33  O6  UNL     1      -2.243  -3.103  -0.402  1.00  0.00    -0.395 OA
ATOM     34  H6  UNL     1      -3.101  -3.240  -0.785  1.00  0.00     0.210 HD
ENDBRANCH   5  33
BRANCH  10  35
HETATM   35  O7  UNL     1      -6.488  -1.410  -1.031  1.00  0.00    -0.395 OA
ATOM     36  H7  UNL     1      -6.756  -1.545  -1.932  1.00  0.00     0.210 HD
ENDBRANCH  10  35
TORSDOF 12
