REMARK  9 active torsions:
REMARK  status: ('A' for Active; 'I' for Inactive)
REMARK    1  A    between atoms: C2_2  and  C3_3 
REMARK    2  A    between atoms: C3_3  and  N1_4 
REMARK    3  A    between atoms: C9_13  and  C10_14 
REMARK       I    between atoms: C10_14  and  N2_16 
REMARK    4  A    between atoms: N2_16  and  C11_18 
REMARK    5  A    between atoms: C11_18  and  C12_19 
REMARK    6  A    between atoms: C12_19  and  C13_20 
REMARK    7  A    between atoms: C13_20  and  N3_21 
REMARK    8  A    between atoms: N4_30  and  C22_31 
REMARK    9  A    between atoms: C22_31  and  C23_32 
ROOT
HETATM    1  N1  UNL     1       4.654   1.214   0.319  1.00  0.00    -0.265 N 
HETATM    2  C4  UNL     1       4.905   0.531   1.447  1.00  0.00     0.264 A 
HETATM    3  O1  UNL     1       6.054   0.553   1.985  1.00  0.00    -0.267 OA
HETATM    4  C5  UNL     1       3.934  -0.219   2.063  1.00  0.00     0.063 A 
HETATM    5  C6  UNL     1       4.212  -0.897   3.230  1.00  0.00     0.063 A 
HETATM    6  C7  UNL     1       3.244  -1.628   3.870  1.00  0.00     0.136 A 
HETATM    7  F1  UNL     1       3.586  -2.275   5.011  1.00  0.00    -0.205 F 
HETATM    8  C8  UNL     1       1.976  -1.713   3.391  1.00  0.00     0.068 A 
HETATM    9  S1  UNL     1       0.703  -2.672   4.242  1.00  0.00    -0.048 SA
HETATM   10  C9  UNL     1       1.670  -1.021   2.189  1.00  0.00     0.081 A 
HETATM   11  C21 UNL     1       2.611  -0.308   1.533  1.00  0.00     0.071 A 
HETATM   12  N4  UNL     1       2.426   0.382   0.404  1.00  0.00    -0.297 N 
HETATM   13  C25 UNL     1       3.433   1.134  -0.184  1.00  0.00     0.332 A 
HETATM   14  O3  UNL     1       3.144   1.751  -1.220  1.00  0.00    -0.246 OA
ENDROOT
BRANCH  10  15
HETATM   15  C10 UNL     1       0.240  -0.989   1.914  1.00  0.00     0.259 C 
HETATM   16  O2  UNL     1      -0.344   0.109   1.944  1.00  0.00    -0.267 OA
HETATM   17  N2  UNL     1      -0.487  -2.166   1.638  1.00  0.00    -0.333 N 
ATOM     18  H2  UNL     1       0.096  -3.003   1.626  1.00  0.00     0.168 HD
BRANCH  17  19
HETATM   19  C11 UNL     1      -1.834  -2.433   1.377  1.00  0.00     0.089 C 
BRANCH  19  20
HETATM   20  C12 UNL     1      -2.519  -1.913   0.205  1.00  0.00     0.020 C 
BRANCH  20  21
HETATM   21  C13 UNL     1      -2.704  -0.476  -0.051  1.00  0.00     0.301 C 
BRANCH  21  22
HETATM   22  N3  UNL     1      -3.520  -0.257  -1.272  1.00  0.00     0.092 N 
HETATM   23  C14 UNL     1      -3.584   1.180  -1.429  1.00  0.00     0.277 C 
HETATM   24  C15 UNL     1      -4.503   1.871  -0.478  1.00  0.00     0.010 C 
HETATM   25  C16 UNL     1      -4.641   3.317  -0.941  1.00  0.00     0.011 C 
HETATM   26  C17 UNL     1      -5.885   1.273  -0.437  1.00  0.00     0.012 C 
HETATM   27  C18 UNL     1      -5.899   0.166  -1.480  1.00  0.00     0.010 C 
HETATM   28  C19 UNL     1      -7.244  -0.519  -1.488  1.00  0.00     0.011 C 
HETATM   29  C20 UNL     1      -4.837  -0.826  -1.033  1.00  0.00     0.277 C 
ENDBRANCH  21  22
ENDBRANCH  20  21
ENDBRANCH  19  20
ENDBRANCH  17  19
ENDBRANCH  10  15
BRANCH  12  30
HETATM   30  C22 UNL     1       1.303   0.156  -0.443  1.00  0.00     0.133 C 
BRANCH  30  31
HETATM   31  C23 UNL     1       1.921  -0.770  -1.579  1.00  0.00     0.016 C 
HETATM   32  C24 UNL     1       2.441  -2.061  -1.009  1.00  0.00     0.006 C 
ENDBRANCH  30  31
ENDBRANCH  12  30
BRANCH   1  33
HETATM   33  C3  UNL     1       5.705   2.007  -0.299  1.00  0.00     0.137 C 
BRANCH  33  34
HETATM   34  C2  UNL     1       6.515   1.249  -1.293  1.00  0.00     0.016 C 
HETATM   35  C1  UNL     1       7.574   2.162  -1.871  1.00  0.00     0.006 C 
ENDBRANCH  33  34
ENDBRANCH   1  33
TORSDOF 9
