REMARK  4 active torsions:
REMARK  status: ('A' for Active; 'I' for Inactive)
REMARK    1  A    between atoms: N1_5  and  C4_6 
REMARK    2  A    between atoms: N2_14  and  N3_15 
REMARK    3  A    between atoms: C11_17  and  C12_18 
REMARK    4  A    between atoms: C15_21  and  N4_22 
ROOT
HETATM    1  O1  UNL     1       0.797   2.856   0.556  1.00  0.00    -0.263 OA
HETATM    2  C1  UNL     1      -0.139   2.033   0.399  1.00  0.00     0.301 A 
HETATM    3  C2  UNL     1      -1.452   2.363   0.625  1.00  0.00     0.146 A 
HETATM    4  C3  UNL     1      -2.479   1.428   0.444  1.00  0.00     0.079 A 
HETATM    5  N1  UNL     1      -2.180   0.181   0.040  1.00  0.00    -0.260 N 
HETATM    6  C10 UNL     1      -0.884  -0.120  -0.176  1.00  0.00     0.356 A 
HETATM    7  O2  UNL     1      -0.656  -1.312  -0.556  1.00  0.00    -0.244 OA
HETATM    8  N2  UNL     1       0.115   0.766  -0.006  1.00  0.00    -0.166 N 
HETATM    9  C18 UNL     1      -3.865   1.810   0.693  1.00  0.00     0.051 A 
HETATM   10  C19 UNL     1      -4.173   3.023   1.087  1.00  0.00     0.109 A 
HETATM   11  N5  UNL     1      -3.142   3.970   1.272  1.00  0.00    -0.311 N 
ATOM     12  H5  UNL     1      -3.393   4.910   1.579  1.00  0.00     0.186 HD
HETATM   13  N6  UNL     1      -1.800   3.679   1.055  1.00  0.00    -0.294 N 
ATOM     14  H6  UNL     1      -1.082   4.388   1.200  1.00  0.00     0.187 HD
ENDROOT
BRANCH   8  15
HETATM   15  N3  UNL     1       1.425   0.351  -0.258  1.00  0.00    -0.297 N 
HETATM   16  C11 UNL     1       2.366   0.370   0.582  1.00  0.00     0.119 C 
ATOM     17  H3  UNL     1       1.637   0.006  -1.194  1.00  0.00     0.186 HD
BRANCH  16  18
HETATM   18  C12 UNL     1       3.689  -0.086   0.207  1.00  0.00    -0.019 A 
HETATM   19  C13 UNL     1       3.967  -0.554  -1.067  1.00  0.00     0.015 A 
HETATM   20  C14 UNL     1       5.184  -0.994  -1.478  1.00  0.00     0.037 A 
HETATM   21  C15 UNL     1       6.226  -0.984  -0.582  1.00  0.00     0.102 A 
HETATM   22  C16 UNL     1       5.986  -0.518   0.717  1.00  0.00     0.037 A 
HETATM   23  C17 UNL     1       4.747  -0.077   1.113  1.00  0.00     0.015 A 
BRANCH  21  24
HETATM   24  N4  UNL     1       7.494  -1.433  -0.979  1.00  0.00    -0.116 N 
HETATM   25  O3  UNL     1       8.433  -1.418  -0.155  1.00  0.00    -0.532 OA
HETATM   26  O4  UNL     1       7.689  -1.878  -2.250  1.00  0.00    -0.532 OA
ENDBRANCH  21  24
ENDBRANCH  16  18
ENDBRANCH   8  15
BRANCH   5  27
HETATM   27  C4  UNL     1      -3.224  -0.769  -0.144  1.00  0.00     0.044 A 
HETATM   28  C5  UNL     1      -4.005  -0.818  -1.275  1.00  0.00     0.030 A 
HETATM   29  C6  UNL     1      -5.016  -1.776  -1.397  1.00  0.00     0.002 A 
HETATM   30  C7  UNL     1      -5.223  -2.669  -0.378  1.00  0.00     0.000 A 
HETATM   31  C8  UNL     1      -4.457  -2.644   0.763  1.00  0.00     0.002 A 
HETATM   32  C9  UNL     1      -3.473  -1.691   0.852  1.00  0.00     0.030 A 
ENDBRANCH   5  27
TORSDOF 4
