REMARK  6 active torsions:
REMARK  status: ('A' for Active; 'I' for Inactive)
REMARK    1  A    between atoms: C4_4  and  C5_5 
REMARK    2  A    between atoms: C5_5  and  O2_7 
REMARK    3  A    between atoms: O2_7  and  C6_8 
REMARK    4  A    between atoms: C8_11  and  C9_12 
REMARK    5  A    between atoms: C9_12  and  C10_13 
REMARK    6  A    between atoms: C10_13  and  O4_14 
ROOT
HETATM    1  C6  UNL     1      -1.836   1.351   0.712  1.00  0.00     0.302 C 
HETATM    2  O3  UNL     1      -2.813   0.704   1.497  1.00  0.00    -0.344 OA
HETATM    3  C7  UNL     1      -3.755   1.222   0.599  1.00  0.00     0.204 C 
HETATM    4  C8  UNL     1      -4.945   0.355   0.397  1.00  0.00     0.018 C 
HETATM    5  N1  UNL     1      -4.871  -0.578  -0.444  1.00  0.00    -0.363 N 
ATOM      6  H1  UNL     1      -5.703  -1.156  -0.561  1.00  0.00     0.162 HD
HETATM    7  C11 UNL     1      -3.750  -0.908  -1.246  1.00  0.00     0.127 C 
HETATM    8  C12 UNL     1      -3.962  -0.483  -2.705  1.00  0.00     0.070 C 
HETATM    9  C13 UNL     1      -3.469  -2.415  -1.208  1.00  0.00     0.070 C 
HETATM   10  O5  UNL     1      -2.570  -0.292  -0.833  1.00  0.00    -0.349 OA
HETATM   11  C14 UNL     1      -2.723   1.026  -0.491  1.00  0.00     0.214 C 
ENDROOT
BRANCH   1  12
HETATM   12  O2  UNL     1      -0.614   0.680   0.617  1.00  0.00    -0.281 OA
BRANCH  12  13
HETATM   13  C5  UNL     1       0.626   1.260   0.686  1.00  0.00     0.319 C 
HETATM   14  O1  UNL     1       0.672   2.507   0.849  1.00  0.00    -0.257 OA
BRANCH  13  15
HETATM   15  C4  UNL     1       1.879   0.514   0.580  1.00  0.00     0.144 C 
HETATM   16  C3  UNL     1       1.916  -0.795   0.408  1.00  0.00     0.023 C 
HETATM   17  C2  UNL     1       3.155  -1.599   0.295  1.00  0.00     0.041 C 
HETATM   18  C1  UNL     1       2.902  -2.884   1.082  1.00  0.00     0.017 C 
HETATM   19  C19 UNL     1       4.394  -0.911   0.742  1.00  0.00     0.188 C 
HETATM   20  C15 UNL     1       4.236   0.493   1.210  1.00  0.00     0.299 C 
HETATM   21  O8  UNL     1       5.291  -0.811  -0.322  1.00  0.00    -0.345 OA
HETATM   22  O6  UNL     1       3.111   1.149   0.657  1.00  0.00    -0.312 OA
HETATM   23  O7  UNL     1       5.365   1.161   0.734  1.00  0.00    -0.323 OA
HETATM   24  C16 UNL     1       6.077   0.281  -0.043  1.00  0.00     0.160 C 
HETATM   25  C17 UNL     1       6.477   0.922  -1.359  1.00  0.00     0.078 C 
HETATM   26  C18 UNL     1       7.289  -0.177   0.732  1.00  0.00     0.078 C 
ENDBRANCH  13  15
ENDBRANCH  12  13
ENDBRANCH   1  12
BRANCH   4  27
HETATM   27  C9  UNL     1      -6.146   0.669   1.223  1.00  0.00     0.081 C 
BRANCH  27  28
HETATM   28  C10 UNL     1      -6.595   2.088   0.911  1.00  0.00     0.170 C 
BRANCH  28  29
HETATM   29  O4  UNL     1      -6.922   2.237  -0.431  1.00  0.00    -0.401 OA
ATOM     30  H4  UNL     1      -7.202   3.123  -0.626  1.00  0.00     0.209 HD
ENDBRANCH  28  29
ENDBRANCH  27  28
ENDBRANCH   4  27
TORSDOF 6
