REMARK  4 active torsions:
REMARK  status: ('A' for Active; 'I' for Inactive)
REMARK    1  A    between atoms: S1_2  and  N1_5 
REMARK    2  A    between atoms: N1_5  and  N2_7 
REMARK    3  A    between atoms: C4_11  and  C5_12 
REMARK    4  A    between atoms: C10_17  and  N3_18 
ROOT
HETATM    1  N2  UNL     1      -2.364   0.449   0.139  1.00  0.00    -0.192 N 
HETATM    2  C2  UNL     1      -1.080   0.580  -0.464  1.00  0.00     0.283 C 
HETATM    3  O3  UNL     1      -1.124   0.843  -1.722  1.00  0.00    -0.265 OA
HETATM    4  C3  UNL     1       0.216   0.449   0.189  1.00  0.00     0.092 C 
HETATM    5  C4  UNL     1       1.315   0.579  -0.503  1.00  0.00     0.035 C 
HETATM    6  C11 UNL     1       0.284   0.143   1.621  1.00  0.00     0.231 C 
HETATM    7  O6  UNL     1       1.218  -0.430   2.194  1.00  0.00    -0.279 OA
HETATM    8  S2  UNL     1      -1.162   0.673   2.594  1.00  0.00    -0.015 SA
HETATM    9  C12 UNL     1      -2.537   0.163   1.517  1.00  0.00     0.172 C 
HETATM   10  S3  UNL     1      -3.796  -0.561   2.193  1.00  0.00    -0.050 SA
ENDROOT
BRANCH   5  11
HETATM   11  C5  UNL     1       2.687   0.502  -0.082  1.00  0.00    -0.002 A 
HETATM   12  C6  UNL     1       3.190   1.315   0.912  1.00  0.00     0.014 A 
HETATM   13  C7  UNL     1       4.493   1.230   1.289  1.00  0.00     0.001 A 
HETATM   14  C8  UNL     1       5.368   0.335   0.700  1.00  0.00     0.002 A 
HETATM   15  C9  UNL     1       4.910  -0.493  -0.291  1.00  0.00     0.037 A 
HETATM   16  C10 UNL     1       3.561  -0.396  -0.669  1.00  0.00     0.113 A 
BRANCH  16  17
HETATM   17  N3  UNL     1       3.163  -1.308  -1.677  1.00  0.00    -0.115 N 
HETATM   18  O4  UNL     1       3.759  -2.411  -1.799  1.00  0.00    -0.532 OA
HETATM   19  O5  UNL     1       2.148  -1.092  -2.561  1.00  0.00    -0.532 OA
ENDBRANCH  16  17
ENDBRANCH   5  11
BRANCH   1  20
HETATM   20  N1  UNL     1      -3.499   0.626  -0.638  1.00  0.00    -0.216 N 
ATOM     21  H1  UNL     1      -3.810   1.557  -0.916  1.00  0.00     0.200 HD
BRANCH  20  22
HETATM   22  S1  UNL     1      -4.346  -0.754  -1.105  1.00  0.00     0.240 S 
HETATM   23  C1  UNL     1      -6.056  -0.688  -0.578  1.00  0.00     0.187 C 
HETATM   24  O1  UNL     1      -3.759  -2.041  -0.571  1.00  0.00    -0.205 OA
HETATM   25  O2  UNL     1      -4.284  -0.893  -2.622  1.00  0.00    -0.205 OA
ENDBRANCH  20  22
ENDBRANCH   1  20
TORSDOF 4
