REMARK  7 active torsions:
REMARK  status: ('A' for Active; 'I' for Inactive)
REMARK    1  A    between atoms: C2_2  and  C3_3 
REMARK    2  A    between atoms: C3_3  and  O1_5 
REMARK    3  A    between atoms: O1_5  and  C5_6 
REMARK    4  A    between atoms: C8_12  and  C9_13 
REMARK    5  A    between atoms: C9_13  and  O5_16 
REMARK    6  A    between atoms: C14_20  and  O6_21 
REMARK    7  A    between atoms: O6_21  and  C15_22 
ROOT
HETATM    1  C5  UNL     1       1.823  -0.508  -0.001  1.00  0.00     0.291 C 
HETATM    2  C6  UNL     1       1.311  -0.910   1.335  1.00  0.00     0.298 C 
HETATM    3  O2  UNL     1       2.066  -0.888   2.364  1.00  0.00    -0.262 OA
HETATM    4  O3  UNL     1       0.005  -1.329   1.545  1.00  0.00    -0.277 OA
HETATM    5  C7  UNL     1      -0.992  -0.853   0.736  1.00  0.00     0.215 C 
HETATM    6  O4  UNL     1      -2.132  -1.640   0.595  1.00  0.00    -0.343 OA
HETATM    7  C8  UNL     1      -2.867  -0.921  -0.348  1.00  0.00     0.164 C 
HETATM    8  C12 UNL     1      -1.841  -0.147  -1.181  1.00  0.00     0.041 C 
HETATM    9  C13 UNL     1      -1.725   1.167  -0.408  1.00  0.00     0.047 C 
HETATM   10  C14 UNL     1      -1.316   0.619   0.947  1.00  0.00     0.196 C 
HETATM   11  C17 UNL     1      -0.593  -0.826  -0.752  1.00  0.00     0.086 C 
HETATM   12  C18 UNL     1      -0.434  -2.226  -1.287  1.00  0.00     0.030 C 
HETATM   13  C19 UNL     1       0.675  -0.144  -0.876  1.00  0.00     0.179 C 
HETATM   14  O8  UNL     1       0.814   0.734  -1.701  1.00  0.00    -0.293 OA
ENDROOT
BRANCH   1  15
HETATM   15  O1  UNL     1       2.724   0.515   0.184  1.00  0.00    -0.363 OA
BRANCH  15  16
HETATM   16  C3  UNL     1       4.018   0.274  -0.103  1.00  0.00     0.118 C 
HETATM   17  C4  UNL     1       4.996   0.374   1.019  1.00  0.00     0.039 C 
BRANCH  16  18
HETATM   18  C2  UNL     1       4.560   1.091  -1.270  1.00  0.00     0.027 C 
HETATM   19  C1  UNL     1       4.744   2.538  -0.911  1.00  0.00     0.007 C 
ENDBRANCH  16  18
ENDBRANCH  15  16
ENDBRANCH   1  15
BRANCH  10  20
HETATM   20  O6  UNL     1      -0.268   1.319   1.533  1.00  0.00    -0.311 OA
BRANCH  20  21
HETATM   21  C15 UNL     1      -0.427   1.992   2.734  1.00  0.00     0.255 C 
HETATM   22  C16 UNL     1       0.669   2.751   3.392  1.00  0.00     0.126 C 
HETATM   23  O7  UNL     1      -1.556   1.963   3.304  1.00  0.00    -0.266 OA
ENDBRANCH  20  21
ENDBRANCH  10  20
BRANCH   7  24
HETATM   24  C9  UNL     1      -3.871  -1.676  -1.111  1.00  0.00     0.077 C 
HETATM   25  C10 UNL     1      -4.666  -0.724  -1.977  1.00  0.00     0.048 C 
HETATM   26  C11 UNL     1      -4.882  -2.224  -0.089  1.00  0.00     0.048 C 
BRANCH  24  27
HETATM   27  O5  UNL     1      -3.483  -2.726  -1.876  1.00  0.00    -0.388 OA
ATOM     28  H5  UNL     1      -4.132  -3.214  -2.369  1.00  0.00     0.210 HD
ENDBRANCH  24  27
ENDBRANCH   7  24
TORSDOF 7
