REMARK  5 active torsions:
REMARK  status: ('A' for Active; 'I' for Inactive)
REMARK    1  A    between atoms: C4_8  and  C5_9 
REMARK    2  A    between atoms: C5_9  and  C6_10 
REMARK    3  A    between atoms: N2_12  and  C8_13 
REMARK    4  A    between atoms: C8_13  and  C9_14 
REMARK    5  A    between atoms: C12_17  and  S1_18 
ROOT
HETATM    1  C6  UNL     1      -2.685  -1.401   0.003  1.00  0.00     0.024 A 
HETATM    2  C7  UNL     1      -1.505  -1.713   0.643  1.00  0.00     0.111 A 
HETATM    3  N2  UNL     1      -0.616  -2.426  -0.002  1.00  0.00    -0.336 N 
HETATM    4  C14 UNL     1      -0.899  -2.813  -1.244  1.00  0.00     0.145 A 
HETATM    5  S3  UNL     1       0.016  -3.717  -2.287  1.00  0.00    -0.052 SA
HETATM    6  S4  UNL     1      -2.444  -2.169  -1.530  1.00  0.00    -0.059 SA
ENDROOT
BRANCH   3   7
HETATM    7  C8  UNL     1       0.684  -2.793   0.637  1.00  0.00     0.176 C 
BRANCH   7   8
HETATM    8  C9  UNL     1       1.704  -1.715   0.380  1.00  0.00     0.002 A 
HETATM    9  C10 UNL     1       2.653  -1.617  -0.595  1.00  0.00     0.018 A 
HETATM   10  C11 UNL     1       3.443  -0.539  -0.604  1.00  0.00     0.032 A 
HETATM   11  C12 UNL     1       3.241   0.398   0.374  1.00  0.00     0.099 A 
HETATM   12  S2  UNL     1       1.956  -0.257   1.273  1.00  0.00    -0.081 SA
BRANCH  11  13
HETATM   13  S1  UNL     1       4.105   1.903   0.624  1.00  0.00     0.178 S 
HETATM   14  C13 UNL     1       5.363   2.147  -0.575  1.00  0.00     0.167 C 
HETATM   15  O3  UNL     1       3.156   3.071   0.706  1.00  0.00    -0.222 OA
HETATM   16  O4  UNL     1       4.751   1.790   1.999  1.00  0.00    -0.222 OA
ENDBRANCH  11  13
ENDBRANCH   7   8
ENDBRANCH   3   7
BRANCH   1  17
HETATM   17  C5  UNL     1      -3.822  -0.662   0.503  1.00  0.00     0.040 C 
BRANCH  17  18
HETATM   18  C4  UNL     1      -4.117   0.587   0.403  1.00  0.00     0.070 A 
HETATM   19  C2  UNL     1      -3.488   1.646  -0.190  1.00  0.00     0.062 A 
HETATM   20  C1  UNL     1      -2.361   1.666  -0.849  1.00  0.00     0.046 C 
HETATM   21  N1  UNL     1      -4.270   2.763   0.022  1.00  0.00    -0.257 N 
HETATM   22  O1  UNL     1      -5.312   2.430   0.699  1.00  0.00    -0.194 OA
ATOM     23  H1  UNL     1      -4.056   3.705  -0.306  1.00  0.00     0.195 HD
HETATM   24  C3  UNL     1      -5.292   1.164   0.961  1.00  0.00     0.317 A 
HETATM   25  O2  UNL     1      -6.177   0.557   1.605  1.00  0.00    -0.257 OA
ENDBRANCH  17  18
ENDBRANCH   1  17
TORSDOF 5
