REMARK  5 active torsions:
REMARK  status: ('A' for Active; 'I' for Inactive)
REMARK    1  A    between atoms: C2_2  and  C3_3 
REMARK    2  A    between atoms: C3_3  and  S1_4 
REMARK    3  A    between atoms: S1_4  and  O2_6 
REMARK    4  A    between atoms: O2_6  and  C4_7 
REMARK    5  A    between atoms: C7_10  and  O3_11 
ROOT
HETATM    1  C4  UNL     1       0.709   0.592  -1.719  1.00  0.00     0.196 C 
HETATM    2  C5  UNL     1       0.899   0.302  -0.449  1.00  0.00     0.077 C 
HETATM    3  C6  UNL     1      -0.165  -0.370   0.340  1.00  0.00     0.015 C 
HETATM    4  C7  UNL     1       0.233  -1.191   1.283  1.00  0.00     0.155 C 
HETATM    5  C8  UNL     1      -0.591  -1.933   2.161  1.00  0.00     0.125 C 
HETATM    6  N1  UNL     1      -1.256  -2.547   2.919  1.00  0.00    -0.189 NA
HETATM    7  C9  UNL     1      -1.572  -0.052  -0.015  1.00  0.00     0.124 C 
HETATM    8  C10 UNL     1      -1.708   0.424  -1.459  1.00  0.00     0.207 C 
HETATM    9  O4  UNL     1      -0.542   0.220  -2.223  1.00  0.00    -0.328 OA
HETATM   10  C11 UNL     1      -2.417  -1.254   0.074  1.00  0.00     0.279 C 
HETATM   11  O5  UNL     1      -2.083  -2.344  -0.425  1.00  0.00    -0.264 OA
HETATM   12  O6  UNL     1      -3.651  -1.177   0.742  1.00  0.00    -0.319 OA
HETATM   13  C12 UNL     1      -4.382   0.026   0.559  1.00  0.00     0.191 C 
HETATM   14  C13 UNL     1      -3.547   1.187   1.031  1.00  0.00     0.063 A 
HETATM   15  C14 UNL     1      -4.005   1.463   2.416  1.00  0.00    -0.015 A 
HETATM   16  C15 UNL     1      -3.251   1.633   3.473  1.00  0.00    -0.003 A 
HETATM   17  C16 UNL     1      -1.811   1.530   3.220  1.00  0.00     0.000 A 
HETATM   18  C17 UNL     1      -1.312   1.287   2.050  1.00  0.00     0.005 A 
HETATM   19  C18 UNL     1      -2.119   1.081   0.841  1.00  0.00    -0.045 A 
ENDROOT
BRANCH   4  20
HETATM   20  O3  UNL     1       1.617  -1.374   1.473  1.00  0.00    -0.351 OA
ATOM     21  H3  UNL     1       1.905  -1.968   2.156  1.00  0.00     0.218 HD
ENDBRANCH   4  20
BRANCH   1  22
HETATM   22  O2  UNL     1       1.686   1.219  -2.480  1.00  0.00    -0.228 OA
BRANCH  22  23
HETATM   23  S1  UNL     1       3.092   0.456  -2.991  1.00  0.00     0.159 S 
HETATM   24  O1  UNL     1       4.139   1.664  -3.567  1.00  0.00    -0.228 OA
BRANCH  23  25
HETATM   25  C3  UNL     1       3.943  -0.354  -1.661  1.00  0.00     0.140 C 
BRANCH  25  26
HETATM   26  C2  UNL     1       5.237  -0.971  -2.125  1.00  0.00     0.010 C 
HETATM   27  C1  UNL     1       5.029  -2.003  -3.200  1.00  0.00     0.006 C 
ENDBRANCH  25  26
ENDBRANCH  23  25
ENDBRANCH  22  23
ENDBRANCH   1  22
TORSDOF 5
