REMARK  6 active torsions:
REMARK  status: ('A' for Active; 'I' for Inactive)
REMARK    1  A    between atoms: O1_2  and  C2_3 
REMARK    2  A    between atoms: C2_3  and  N1_4 
REMARK    3  A    between atoms: C2_3  and  C3_8 
REMARK    4  A    between atoms: C5_10  and  C6_11 
REMARK    5  A    between atoms: C6_11  and  C8_13 
REMARK    6  A    between atoms: C8_13  and  N2_14 
ROOT
HETATM    1  C6  UNL     1      -1.448  -0.576   0.598  1.00  0.00     0.052 C 
HETATM    2  C7  UNL     1      -1.837  -0.418   2.054  1.00  0.00     0.015 C 
ENDROOT
BRANCH   1   3
HETATM    3  C5  UNL     1       0.049  -0.582   0.548  1.00  0.00     0.002 A 
HETATM    4  C3  UNL     1       0.785  -0.721  -0.728  1.00  0.00     0.047 A 
HETATM    5  C4  UNL     1       0.639  -1.939   0.178  1.00  0.00     0.015 A 
BRANCH   4   6
HETATM    6  C2  UNL     1       2.205  -0.181  -0.748  1.00  0.00     0.322 C 
BRANCH   6   7
HETATM    7  O1  UNL     1       2.579   0.196   0.540  1.00  0.00    -0.364 OA
HETATM    8  C1  UNL     1       2.974   1.514   0.547  1.00  0.00     0.204 C 
ENDBRANCH   6   7
BRANCH   6   9
HETATM    9  N1  UNL     1       3.092  -1.296  -1.114  1.00  0.00    -0.053 N 
ATOM     10  H13 UNL     1       4.084  -1.074  -1.026  1.00  0.00     0.277 HD
ATOM     11  H12 UNL     1       3.078  -2.065  -0.444  1.00  0.00     0.277 HD
ATOM     12  H11 UNL     1       2.818  -1.572  -2.057  1.00  0.00     0.277 HD
ENDBRANCH   6   9
ENDBRANCH   4   6
ENDBRANCH   1   3
BRANCH   1  13
HETATM   13  C8  UNL     1      -2.043   0.592  -0.167  1.00  0.00     0.311 A 
HETATM   14  C9  UNL     1      -2.335   0.455  -1.576  1.00  0.00     0.305 A 
HETATM   15  N3  UNL     1      -3.424   0.485  -0.593  1.00  0.00    -0.035 N 
ATOM     16  H32 UNL     1      -4.210  -0.123  -0.362  1.00  0.00     0.280 HD
ATOM     17  H31 UNL     1      -4.269   1.042  -0.463  1.00  0.00     0.280 HD
BRANCH  13  18
HETATM   18  N2  UNL     1      -1.649   1.911   0.304  1.00  0.00    -0.042 N 
ATOM     19  H23 UNL     1      -1.855   2.003   1.299  1.00  0.00     0.277 HD
ATOM     20  H22 UNL     1      -0.632   1.987   0.323  1.00  0.00     0.277 HD
ATOM     21  H21 UNL     1      -2.049   2.696  -0.210  1.00  0.00     0.277 HD
ENDBRANCH  13  18
ENDBRANCH   1  13
TORSDOF 6
