REMARK  7 active torsions:
REMARK  status: ('A' for Active; 'I' for Inactive)
REMARK    1  A    between atoms: N1_2  and  C2_5 
REMARK    2  A    between atoms: C2_5  and  C3_6 
REMARK    3  A    between atoms: C3_6  and  C4_7 
REMARK    4  A    between atoms: C4_7  and  N2_8 
REMARK    5  A    between atoms: N2_8  and  C5_11 
REMARK    6  A    between atoms: C7_13  and  N3_14 
REMARK    7  A    between atoms: C8_18  and  N4_19 
ROOT
HETATM    1  C5  UNL     1       1.076   0.240   0.279  1.00  0.00     0.190 C 
HETATM    2  C6  UNL     1       1.794  -0.727  -0.614  1.00  0.00     0.067 C 
HETATM    3  C7  UNL     1       2.963   0.116  -1.145  1.00  0.00     0.215 C 
HETATM    4  C8  UNL     1       3.284   0.935   0.103  1.00  0.00     0.215 C 
HETATM    5  C9  UNL     1       1.874   1.521   0.335  1.00  0.00     0.067 C 
ENDROOT
BRANCH   1   6
HETATM    6  N2  UNL     1      -0.277   0.386  -0.124  1.00  0.00    -0.071 N 
ATOM      7  H22 UNL     1      -0.357   0.729  -1.081  1.00  0.00     0.277 HD
ATOM      8  H21 UNL     1      -0.737   1.163   0.350  1.00  0.00     0.277 HD
BRANCH   6   9
HETATM    9  C4  UNL     1      -0.983  -0.862   0.068  1.00  0.00     0.234 C 
BRANCH   9  10
HETATM   10  C3  UNL     1      -2.444  -0.705  -0.345  1.00  0.00     0.055 C 
BRANCH  10  11
HETATM   11  C2  UNL     1      -2.995   0.425   0.520  1.00  0.00     0.233 C 
BRANCH  11  12
HETATM   12  N1  UNL     1      -4.385   0.703   0.265  1.00  0.00    -0.079 N 
HETATM   13  C1  UNL     1      -5.271  -0.364   0.702  1.00  0.00     0.266 C 
ATOM     14  H12 UNL     1      -4.537   0.921  -0.720  1.00  0.00     0.276 HD
ATOM     15  H11 UNL     1      -4.659   1.594   0.678  1.00  0.00     0.276 HD
ENDBRANCH  11  12
ENDBRANCH  10  11
ENDBRANCH   9  10
ENDBRANCH   6   9
ENDBRANCH   1   6
BRANCH   3  16
HETATM   16  N3  UNL     1       4.065  -0.659  -1.594  1.00  0.00    -0.073 N 
ATOM     17  H33 UNL     1       4.382  -1.294  -0.861  1.00  0.00     0.274 HD
ATOM     18  H32 UNL     1       3.766  -1.341  -2.291  1.00  0.00     0.274 HD
ATOM     19  H31 UNL     1       4.841  -0.099  -1.947  1.00  0.00     0.274 HD
ENDBRANCH   3  16
BRANCH   4  20
HETATM   20  N4  UNL     1       3.505  -0.003   1.167  1.00  0.00    -0.073 N 
ATOM     21  H43 UNL     1       2.729  -0.651   1.300  1.00  0.00     0.274 HD
ATOM     22  H42 UNL     1       4.218  -0.699   0.948  1.00  0.00     0.274 HD
ATOM     23  H41 UNL     1       3.719   0.544   2.001  1.00  0.00     0.274 HD
ENDBRANCH   4  20
TORSDOF 7
