REMARK  16 active torsions:
REMARK  status: ('A' for Active; 'I' for Inactive)
REMARK    1  A    between atoms: C3_5  and  C4_6 
REMARK    2  A    between atoms: C4_6  and  C5_7 
REMARK    3  A    between atoms: C5_7  and  O1_8 
REMARK    4  A    between atoms: C5_7  and  N2_10 
REMARK    5  A    between atoms: N2_10  and  C6_12 
REMARK    6  A    between atoms: N4_17  and  C9_18 
REMARK    7  A    between atoms: N4_17  and  C11_20 
REMARK    8  A    between atoms: C11_20  and  C12_21 
REMARK    9  A    between atoms: C12_21  and  N5_22 
REMARK       I    between atoms: N5_22  and  C13_24 
REMARK   10  A    between atoms: C13_24  and  C14_26 
REMARK   11  A    between atoms: C14_26  and  C15_27 
REMARK   12  A    between atoms: C15_27  and  C16_28 
REMARK   13  A    between atoms: C16_28  and  C17_29 
REMARK   14  A    between atoms: C18_32  and  C19_33 
REMARK   15  A    between atoms: C19_33  and  O3_34 
REMARK   16  A    between atoms: C19_33  and  N7_36 
ROOT
HETATM    1  N5  UNL     1      -1.295  -2.860  -0.888  1.00  0.00    -0.360 N 
ATOM      2  H5  UNL     1      -0.763  -2.476  -1.669  1.00  0.00     0.162 HD
HETATM    3  C13 UNL     1      -0.563  -3.254   0.252  1.00  0.00     0.217 C 
HETATM    4  O2  UNL     1      -1.136  -3.731   1.239  1.00  0.00    -0.274 OA
ENDROOT
BRANCH   1   5
HETATM    5  C12 UNL     1      -2.739  -2.951  -1.053  1.00  0.00     0.142 C 
BRANCH   5   6
HETATM    6  C11 UNL     1      -3.450  -2.176  -0.009  1.00  0.00     0.144 C 
BRANCH   6   7
HETATM    7  N4  UNL     1      -4.869  -2.107  -0.195  1.00  0.00    -0.364 N 
HETATM    8  C8  UNL     1      -5.530  -1.037  -0.547  1.00  0.00     0.131 A 
HETATM    9  C2  UNL     1      -5.053   0.207  -0.844  1.00  0.00     0.068 A 
HETATM   10  N3  UNL     1      -6.872  -0.929  -0.587  1.00  0.00    -0.327 N 
HETATM   11  C1  UNL     1      -3.857   0.695  -1.000  1.00  0.00     0.047 C 
HETATM   12  N1  UNL     1      -6.148   1.020  -1.045  1.00  0.00    -0.340 N 
HETATM   13  C3  UNL     1      -7.267   0.342  -0.893  1.00  0.00     0.111 A 
ATOM     14  H1  UNL     1      -6.098   2.011  -1.279  1.00  0.00     0.167 HD
ATOM     15  H3  UNL     1      -7.514  -1.701  -0.410  1.00  0.00     0.169 HD
BRANCH  13  16
HETATM   16  C4  UNL     1      -8.517   0.669  -0.959  1.00  0.00     0.104 C 
BRANCH  16  17
HETATM   17  C5  UNL     1      -9.186   1.892  -1.220  1.00  0.00     0.139 C 
BRANCH  17  18
HETATM   18  O1  UNL     1     -10.517   1.861  -1.225  1.00  0.00    -0.346 OA
ATOM     19  H1  UNL     1     -10.965   2.680  -1.400  1.00  0.00     0.219 HD
ENDBRANCH  17  18
BRANCH  17  20
HETATM   20  N2  UNL     1      -8.622   3.149  -1.474  1.00  0.00    -0.371 N 
ATOM     21  H2  UNL     1      -7.608   3.255  -1.486  1.00  0.00     0.161 HD
BRANCH  20  22
HETATM   22  C6  UNL     1      -9.487   4.325  -1.725  1.00  0.00     0.117 C 
HETATM   23  C7  UNL     1      -8.665   5.564  -1.956  1.00  0.00     0.026 C 
ENDBRANCH  20  22
ENDBRANCH  17  20
ENDBRANCH  16  17
ENDBRANCH  13  16
BRANCH   7  24
HETATM   24  C9  UNL     1      -5.624  -3.316   0.054  1.00  0.00     0.120 C 
HETATM   25  C10 UNL     1      -5.487  -4.363  -1.020  1.00  0.00     0.026 C 
ENDBRANCH   7  24
ENDBRANCH   6   7
ENDBRANCH   5   6
ENDBRANCH   1   5
BRANCH   3  26
HETATM   26  C14 UNL     1       0.936  -3.094   0.290  1.00  0.00     0.103 C 
BRANCH  26  27
HETATM   27  C15 UNL     1       1.376  -3.281   1.703  1.00  0.00     0.017 C 
BRANCH  27  28
HETATM   28  C16 UNL     1       2.800  -3.141   1.999  1.00  0.00     0.077 C 
BRANCH  28  29
HETATM   29  C17 UNL     1       3.455  -1.853   1.771  1.00  0.00     0.083 A 
HETATM   30  N6  UNL     1       4.812  -1.835   1.592  1.00  0.00    -0.341 N 
HETATM   31  C18 UNL     1       5.203  -0.545   1.399  1.00  0.00     0.100 A 
ATOM     32  H6  UNL     1       5.426  -2.649   1.602  1.00  0.00     0.167 HD
HETATM   33  C27 UNL     1       4.059   0.187   1.472  1.00  0.00     0.125 A 
HETATM   34  N8  UNL     1       2.975  -0.626   1.704  1.00  0.00    -0.349 N 
HETATM   35  C28 UNL     1       1.604  -0.120   1.880  1.00  0.00     0.156 C 
BRANCH  31  36
HETATM   36  C19 UNL     1       6.604  -0.159   1.195  1.00  0.00     0.167 C 
BRANCH  36  37
HETATM   37  O3  UNL     1       7.471  -1.143   1.275  1.00  0.00    -0.344 OA
ATOM     38  H3  UNL     1       8.378  -0.893   1.143  1.00  0.00     0.219 HD
ENDBRANCH  36  37
BRANCH  36  39
HETATM   39  N7  UNL     1       7.164   1.071   0.932  1.00  0.00    -0.360 N 
HETATM   40  C20 UNL     1       6.306   2.206   0.790  1.00  0.00     0.125 C 
HETATM   41  C21 UNL     1       7.103   3.479   0.502  1.00  0.00     0.020 C 
HETATM   42  C22 UNL     1       7.588   3.612  -0.883  1.00  0.00     0.002 C 
HETATM   43  C23 UNL     1       7.751   2.370  -1.680  1.00  0.00     0.000 C 
HETATM   44  C24 UNL     1       9.121   1.729  -1.412  1.00  0.00     0.002 C 
HETATM   45  C25 UNL     1       8.927   0.477  -0.565  1.00  0.00     0.020 C 
HETATM   46  C26 UNL     1       8.663   0.967   0.843  1.00  0.00     0.125 C 
ENDBRANCH  36  39
ENDBRANCH  31  36
ENDBRANCH  28  29
ENDBRANCH  27  28
ENDBRANCH  26  27
ENDBRANCH   3  26
TORSDOF 16
