REMARK  15 active torsions:
REMARK  status: ('A' for Active; 'I' for Inactive)
REMARK    1  A    between atoms: C2_2  and  C3_3 
REMARK    2  A    between atoms: C3_3  and  C4_4 
REMARK    3  A    between atoms: C4_4  and  C5_5 
REMARK    4  A    between atoms: N1_8  and  C8_9 
REMARK    5  A    between atoms: C8_9  and  C9_10 
REMARK    6  A    between atoms: C9_10  and  C10_11 
REMARK    7  A    between atoms: C11_12  and  C12_13 
REMARK    8  A    between atoms: C12_13  and  N2_14 
REMARK    9  A    between atoms: N2_14  and  C13_15 
REMARK   10  A    between atoms: N2_14  and  C15_17 
REMARK   11  A    between atoms: C15_17  and  C16_21 
REMARK   12  A    between atoms: C16_21  and  C17_22 
REMARK   13  A    between atoms: C17_22  and  O1_23 
REMARK   14  A    between atoms: O1_23  and  C18_24 
REMARK       I    between atoms: C18_24  and  N4_26 
REMARK   15  A    between atoms: C19_27  and  N5_28 
REMARK       I    between atoms: N5_28  and  C20_29 
ROOT
HETATM    1  C15 UNL     1      -2.398   2.410   0.338  1.00  0.00     0.075 C 
HETATM    2  N3  UNL     1      -2.285   1.686  -0.748  1.00  0.00    -0.389 N 
ATOM      3  H31 UNL     1      -3.139   1.503  -1.275  1.00  0.00     0.157 HD
ATOM      4  H32 UNL     1      -1.371   1.331  -1.031  1.00  0.00     0.157 HD
ENDROOT
BRANCH   1   5
HETATM    5  N2  UNL     1      -1.223   2.662   1.063  1.00  0.00    -0.361 N 
BRANCH   5   6
HETATM    6  C12 UNL     1      -0.149   3.484   0.495  1.00  0.00     0.218 C 
BRANCH   6   7
HETATM    7  C11 UNL     1       1.038   2.666   0.234  1.00  0.00    -0.087 C 
HETATM    8  C10 UNL     1       2.012   1.984   0.039  1.00  0.00    -0.103 C 
BRANCH   8   9
HETATM    9  C9  UNL     1       3.199   1.138  -0.172  1.00  0.00     0.114 C 
BRANCH   9  10
HETATM   10  C8  UNL     1       4.411   2.044  -0.127  1.00  0.00     0.139 C 
BRANCH  10  11
HETATM   11  N1  UNL     1       5.617   1.269  -0.329  1.00  0.00    -0.366 N 
HETATM   12  C7  UNL     1       6.126   1.061  -1.551  1.00  0.00     0.091 A 
HETATM   13  C6  UNL     1       7.295   0.309  -1.724  1.00  0.00     0.024 A 
HETATM   14  C5  UNL     1       7.953  -0.238  -0.650  1.00  0.00    -0.056 A 
HETATM   15  C27 UNL     1       7.412  -0.013   0.610  1.00  0.00     0.024 A 
HETATM   16  C26 UNL     1       6.258   0.735   0.740  1.00  0.00     0.091 A 
BRANCH  14  17
HETATM   17  C4  UNL     1       9.194  -1.043  -0.786  1.00  0.00     0.038 C 
BRANCH  17  18
HETATM   18  C3  UNL     1       8.740  -2.488  -0.959  1.00  0.00     0.004 C 
BRANCH  18  19
HETATM   19  C2  UNL     1       9.941  -3.384  -1.101  1.00  0.00    -0.004 C 
HETATM   20  C1  UNL     1      10.727  -2.947  -2.303  1.00  0.00     0.005 C 
ENDBRANCH  18  19
ENDBRANCH  17  18
ENDBRANCH  14  17
ENDBRANCH  10  11
ENDBRANCH   9  10
ENDBRANCH   8   9
ENDBRANCH   6   7
ENDBRANCH   5   6
BRANCH   5  21
HETATM   21  C13 UNL     1      -1.007   2.154   2.375  1.00  0.00     0.120 C 
HETATM   22  C14 UNL     1      -1.024   3.256   3.429  1.00  0.00     0.026 C 
ENDBRANCH   5  21
ENDBRANCH   1   5
BRANCH   1  23
HETATM   23  C16 UNL     1      -3.707   2.918   0.743  1.00  0.00     0.102 C 
BRANCH  23  24
HETATM   24  C17 UNL     1      -4.426   2.157   1.796  1.00  0.00     0.188 C 
BRANCH  24  25
HETATM   25  O1  UNL     1      -4.707   0.812   1.466  1.00  0.00    -0.303 OA
BRANCH  25  26
HETATM   26  C18 UNL     1      -5.521   0.436   0.412  1.00  0.00     0.372 C 
HETATM   27  O2  UNL     1      -5.999   1.437  -0.227  1.00  0.00    -0.238 OA
HETATM   28  N4  UNL     1      -5.827  -0.896   0.034  1.00  0.00    -0.230 N 
HETATM   29  C19 UNL     1      -6.741  -1.060  -1.112  1.00  0.00     0.266 C 
HETATM   30  C25 UNL     1      -5.337  -2.089   0.628  1.00  0.00     0.203 C 
HETATM   31  N8  UNL     1      -6.673  -2.432  -1.668  1.00  0.00    -0.349 N 
HETATM   32  C21 UNL     1      -6.475  -3.595  -0.863  1.00  0.00     0.132 C 
ATOM     33  H8  UNL     1      -6.773  -2.552  -2.676  1.00  0.00     0.163 HD
HETATM   34  C22 UNL     1      -6.432  -3.148   0.567  1.00  0.00     0.051 C 
HETATM   35  C23 UNL     1      -5.820  -4.161   1.508  1.00  0.00     0.054 C 
HETATM   36  C24 UNL     1      -5.280  -3.204   2.535  1.00  0.00     0.058 C 
HETATM   37  N9  UNL     1      -5.029  -2.069   2.001  1.00  0.00    -0.381 N 
ATOM     38  H9  UNL     1      -4.657  -1.261   2.501  1.00  0.00     0.160 HD
BRANCH  29  39
HETATM   39  N5  UNL     1      -7.432  -0.234  -1.539  1.00  0.00    -0.339 NA
HETATM   40  C20 UNL     1      -8.251   0.656  -2.084  1.00  0.00     0.264 C 
HETATM   41  N6  UNL     1      -9.494   0.904  -1.710  1.00  0.00    -0.362 N 
HETATM   42  N7  UNL     1      -7.866   1.494  -3.209  1.00  0.00    -0.049 NA
ATOM     43  H62 UNL     1      -9.764   0.316  -0.921  1.00  0.00     0.159 HD
ATOM     44  H61 UNL     1     -10.124   1.588  -2.129  1.00  0.00     0.159 HD
ENDBRANCH  29  39
ENDBRANCH  25  26
ENDBRANCH  24  25
ENDBRANCH  23  24
ENDBRANCH   1  23
TORSDOF 15
