REMARK  14 active torsions:
REMARK  status: ('A' for Active; 'I' for Inactive)
REMARK    1  A    between atoms: C2_2  and  N1_3 
REMARK    2  A    between atoms: N1_3  and  C3_4 
REMARK       I    between atoms: N1_3  and  C5_6 
REMARK       I    between atoms: C5_6  and  N3_8 
REMARK    3  A    between atoms: N3_8  and  C6_10 
REMARK    4  A    between atoms: C9_13  and  C10_14 
REMARK    5  A    between atoms: C10_14  and  C11_15 
REMARK    6  A    between atoms: C13_19  and  C14_20 
REMARK    7  A    between atoms: C14_20  and  C15_21 
REMARK    8  A    between atoms: C16_24  and  C17_25 
REMARK    9  A    between atoms: C17_25  and  C18_26 
REMARK   10  A    between atoms: C18_26  and  C19_27 
REMARK   11  A    between atoms: C19_27  and  C20_28 
REMARK   12  A    between atoms: C20_28  and  C21_29 
REMARK   13  A    between atoms: C22_32  and  C23_33 
REMARK   14  A    between atoms: C27_38  and  C28_39 
ROOT
HETATM    1  C11 UNL     1      -0.645   0.290   1.026  1.00  0.00     0.045 A 
HETATM    2  N4  UNL     1      -0.736  -1.078   1.025  1.00  0.00    -0.364 N 
ATOM      3  H4  UNL     1      -1.593  -1.616   0.896  1.00  0.00     0.165 HD
HETATM    4  C12 UNL     1       0.477  -1.590   1.220  1.00  0.00     0.100 A 
HETATM    5  C13 UNL     1       1.382  -0.578   1.351  1.00  0.00    -0.005 A 
HETATM    6  C27 UNL     1       0.667   0.620   1.229  1.00  0.00     0.015 A 
ENDROOT
BRANCH   5   7
HETATM    7  C14 UNL     1       2.778  -0.762   1.589  1.00  0.00     0.043 C 
BRANCH   7   8
HETATM    8  C15 UNL     1       3.779  -0.818   0.744  1.00  0.00     0.040 A 
HETATM    9  N5  UNL     1       5.094  -1.000   1.064  1.00  0.00    -0.355 N 
HETATM   10  C16 UNL     1       5.862  -1.008  -0.028  1.00  0.00     0.043 A 
ATOM     11  H5  UNL     1       5.444  -1.115   2.015  1.00  0.00     0.166 HD
HETATM   12  C22 UNL     1       5.058  -0.827  -1.130  1.00  0.00     0.044 A 
HETATM   13  C25 UNL     1       3.753  -0.710  -0.627  1.00  0.00    -0.019 A 
HETATM   14  C26 UNL     1       2.589  -0.500  -1.537  1.00  0.00     0.052 C 
BRANCH  10  15
HETATM   15  C17 UNL     1       7.178  -1.159  -0.110  1.00  0.00     0.004 C 
BRANCH  15  16
HETATM   16  C18 UNL     1       7.960  -1.350   1.130  1.00  0.00     0.030 C 
BRANCH  16  17
HETATM   17  C19 UNL     1       9.382  -0.818   0.954  1.00  0.00     0.013 C 
BRANCH  17  18
HETATM   18  C20 UNL     1       9.363   0.660   0.629  1.00  0.00     0.100 C 
BRANCH  18  19
HETATM   19  C21 UNL     1      10.733   1.162   0.459  1.00  0.00     0.231 C 
HETATM   20  N6  UNL     1      11.002   2.505   0.156  1.00  0.00    -0.062 NA
HETATM   21  O1  UNL     1      11.725   0.368   0.586  1.00  0.00    -0.277 OA
ENDBRANCH  18  19
ENDBRANCH  17  18
ENDBRANCH  16  17
ENDBRANCH  15  16
ENDBRANCH  10  15
BRANCH  12  22
HETATM   22  C23 UNL     1       5.480  -0.768  -2.524  1.00  0.00     0.158 C 
HETATM   23  C24 UNL     1       5.583  -1.926  -3.417  1.00  0.00     0.097 C 
HETATM   24  O2  UNL     1       5.786   0.370  -3.018  1.00  0.00    -0.293 OA
ENDBRANCH  12  22
ENDBRANCH   7   8
ENDBRANCH   5   7
BRANCH   6  25
HETATM   25  C28 UNL     1       1.231   1.782   1.309  1.00  0.00     0.114 C 
HETATM   26  N7  UNL     1       0.577   3.019   1.199  1.00  0.00    -0.114 NA
ENDBRANCH   6  25
BRANCH   1  27
HETATM   27  C10 UNL     1      -1.689   1.070   0.845  1.00  0.00     0.043 C 
BRANCH  27  28
HETATM   28  C9  UNL     1      -3.001   0.492   0.633  1.00  0.00    -0.018 A 
HETATM   29  C8  UNL     1      -3.946   0.563   1.613  1.00  0.00     0.016 A 
HETATM   30  C7  UNL     1      -5.192   0.003   1.372  1.00  0.00     0.050 A 
HETATM   31  C6  UNL     1      -5.440  -0.604   0.160  1.00  0.00     0.109 A 
HETATM   32  N8  UNL     1      -4.488  -0.675  -0.822  1.00  0.00    -0.347 N 
HETATM   33  C29 UNL     1      -3.297  -0.133  -0.576  1.00  0.00     0.103 A 
HETATM   34  C30 UNL     1      -4.760  -1.328  -2.101  1.00  0.00     0.157 C 
BRANCH  31  35
HETATM   35  N3  UNL     1      -6.681  -1.166  -0.111  1.00  0.00    -0.317 N 
HETATM   36  C5  UNL     1      -7.853  -0.746  -0.015  1.00  0.00     0.192 C 
HETATM   37  N1  UNL     1      -8.253   0.534   0.439  1.00  0.00    -0.356 N 
HETATM   38  N2  UNL     1      -8.945  -1.642  -0.401  1.00  0.00    -0.063 NA
ATOM     39  H3  UNL     1      -6.623  -2.122  -0.462  1.00  0.00     0.170 HD
BRANCH  37  40
HETATM   40  C2  UNL     1      -8.862   0.629   1.785  1.00  0.00     0.121 C 
HETATM   41  C1  UNL     1     -10.339   0.988   1.634  1.00  0.00     0.026 C 
ENDBRANCH  37  40
BRANCH  37  42
HETATM   42  C3  UNL     1      -8.092   1.698  -0.374  1.00  0.00     0.121 C 
HETATM   43  C4  UNL     1      -7.544   1.349  -1.725  1.00  0.00     0.026 C 
ENDBRANCH  37  42
ENDBRANCH  31  35
ENDBRANCH  27  28
ENDBRANCH   1  27
TORSDOF 14
