REMARK  11 active torsions:
REMARK  status: ('A' for Active; 'I' for Inactive)
REMARK    1  A    between atoms: C2_2  and  C3_3 
REMARK    2  A    between atoms: C2_2  and  C11_15 
REMARK    3  A    between atoms: C3_3  and  C4_4 
REMARK    4  A    between atoms: C4_4  and  C5_5 
REMARK    5  A    between atoms: C5_5  and  N1_6 
REMARK    6  A    between atoms: N1_6  and  C7_8 
REMARK    7  A    between atoms: N1_6  and  C8_10 
REMARK    8  A    between atoms: C9_11  and  C10_12 
REMARK       I    between atoms: C11_15  and  N3_17 
REMARK    9  A    between atoms: C15_24  and  C16_25 
REMARK   10  A    between atoms: C16_25  and  N5_26 
REMARK   11  A    between atoms: C20_31  and  C22_33 
ROOT
HETATM    1  C11 UNL     1       2.932  -2.049  -0.223  1.00  0.00     0.239 C 
HETATM    2  O3  UNL     1       3.038  -3.283  -0.101  1.00  0.00    -0.272 OA
HETATM    3  N3  UNL     1       2.152  -1.315   0.688  1.00  0.00    -0.159 N 
ATOM      4  H3  UNL     1       2.531  -1.197   1.628  1.00  0.00     0.187 HD
HETATM    5  C12 UNL     1       1.016  -0.782   0.453  1.00  0.00     0.687 A 
HETATM    6  N4  UNL     1       0.267  -0.756  -0.649  1.00  0.00    -0.188 N 
ATOM      7  H4  UNL     1       0.526  -1.199  -1.531  1.00  0.00     0.184 HD
HETATM    8  C13 UNL     1      -0.876  -0.070  -0.449  1.00  0.00     0.095 A 
HETATM    9  C14 UNL     1      -2.072   0.416  -0.918  1.00  0.00     0.060 A 
HETATM   10  C15 UNL     1      -2.733   1.120   0.092  1.00  0.00     0.039 A 
HETATM   11  N8  UNL     1      -1.922   1.047   1.157  1.00  0.00    -0.342 N 
ATOM     12  H8  UNL     1      -2.126   1.468   2.063  1.00  0.00     0.167 HD
HETATM   13  C25 UNL     1      -0.808   0.351   0.883  1.00  0.00     0.148 A 
HETATM   14  N9  UNL     1       0.332  -0.088   1.396  1.00  0.00    -0.174 N 
ATOM     15  H9  UNL     1       0.647   0.072   2.353  1.00  0.00     0.186 HD
ENDROOT
BRANCH   1  16
HETATM   16  C2  UNL     1       3.640  -1.365  -1.343  1.00  0.00     0.074 C 
HETATM   17  C1  UNL     1       4.414  -2.340  -2.179  1.00  0.00     0.020 C 
BRANCH  16  18
HETATM   18  C3  UNL     1       4.415  -0.192  -0.908  1.00  0.00     0.015 C 
BRANCH  18  19
HETATM   19  C4  UNL     1       5.596  -0.310  -0.051  1.00  0.00     0.030 C 
BRANCH  19  20
HETATM   20  C5  UNL     1       6.751  -1.101  -0.560  1.00  0.00     0.252 C 
BRANCH  20  21
HETATM   21  N1  UNL     1       7.847  -1.045   0.421  1.00  0.00     0.003 N 
HETATM   22  C6  UNL     1       9.085  -1.532  -0.134  1.00  0.00     0.288 C 
BRANCH  21  23
HETATM   23  C7  UNL     1       7.513  -1.844   1.547  1.00  0.00     0.464 C 
HETATM   24  O1  UNL     1       7.619  -3.048   1.523  1.00  0.00    -0.275 OA
ENDBRANCH  21  23
BRANCH  21  25
HETATM   25  C8  UNL     1       8.064   0.322   0.818  1.00  0.00     0.216 C 
HETATM   26  C9  UNL     1       8.822   1.088   0.058  1.00  0.00     0.096 C 
BRANCH  26  27
HETATM   27  C10 UNL     1       9.056   2.461   0.432  1.00  0.00     0.256 C 
HETATM   28  N2  UNL     1       8.465   2.972   1.616  1.00  0.00    -0.058 NA
HETATM   29  O2  UNL     1       9.775   3.213  -0.275  1.00  0.00    -0.272 OA
ENDBRANCH  26  27
ENDBRANCH  21  25
ENDBRANCH  20  21
ENDBRANCH  19  20
ENDBRANCH  18  19
ENDBRANCH  16  18
ENDBRANCH   1  16
BRANCH  10  30
HETATM   30  C16 UNL     1      -4.050   1.794  -0.027  1.00  0.00     0.301 C 
BRANCH  30  31
HETATM   31  N5  UNL     1      -5.169   0.932   0.236  1.00  0.00    -0.032 N 
HETATM   32  C17 UNL     1      -4.762  -0.278   0.887  1.00  0.00     0.280 C 
HETATM   33  C18 UNL     1      -5.851   0.731  -0.991  1.00  0.00     0.292 C 
HETATM   34  N6  UNL     1      -7.090   0.526  -1.157  1.00  0.00    -0.357 N 
HETATM   35  C19 UNL     1      -7.637   0.337  -2.506  1.00  0.00     0.151 C 
HETATM   36  C20 UNL     1      -8.013   0.463  -0.076  1.00  0.00     0.109 C 
HETATM   37  C21 UNL     1      -9.268   1.269  -0.401  1.00  0.00     0.049 C 
HETATM   38  C23 UNL     1      -7.403   0.924   1.194  1.00  0.00     0.068 C 
HETATM   39  C24 UNL     1      -6.119   1.687   1.072  1.00  0.00     0.247 C 
BRANCH  36  40
HETATM   40  C22 UNL     1      -8.506  -0.961   0.035  1.00  0.00     0.259 C 
HETATM   41  N7  UNL     1      -9.452  -1.337   1.034  1.00  0.00    -0.060 NA
HETATM   42  O4  UNL     1      -8.069  -1.815  -0.769  1.00  0.00    -0.274 OA
ENDBRANCH  36  40
ENDBRANCH  30  31
ENDBRANCH  10  30
TORSDOF 11
