REMARK  3 active torsions:
REMARK  status: ('A' for Active; 'I' for Inactive)
REMARK    1  A    between atoms: C3_3  and  S1_4 
REMARK    2  A    between atoms: S1_4  and  C4_7 
REMARK    3  A    between atoms: C12_18  and  N1_19 
ROOT
HETATM    1  C1  UNL     1      -0.534  -1.614   1.027  1.00  0.00     0.051 C 
HETATM    2  C2  UNL     1      -1.319  -0.447   0.557  1.00  0.00    -0.017 A 
HETATM    3  C3  UNL     1      -0.832   0.822   0.711  1.00  0.00     0.071 A 
HETATM    4  C10 UNL     1      -1.670   1.850   0.243  1.00  0.00     0.027 A 
HETATM    5  C11 UNL     1      -2.886   1.587  -0.326  1.00  0.00     0.039 A 
HETATM    6  C12 UNL     1      -3.379   0.291  -0.482  1.00  0.00     0.124 A 
HETATM    7  C13 UNL     1      -2.567  -0.716  -0.027  1.00  0.00     0.085 A 
HETATM    8  C14 UNL     1      -3.024  -2.074  -0.158  1.00  0.00     0.102 C 
HETATM    9  N2  UNL     1      -3.380  -3.189  -0.251  1.00  0.00    -0.191 NA
ENDROOT
BRANCH   6  10
HETATM   10  N1  UNL     1      -4.648   0.065  -1.077  1.00  0.00    -0.114 N 
HETATM   11  O3  UNL     1      -5.541   0.925  -1.010  1.00  0.00    -0.532 OA
HETATM   12  O4  UNL     1      -4.925  -1.098  -1.736  1.00  0.00    -0.532 OA
ENDBRANCH   6  10
BRANCH   3  13
HETATM   13  S1  UNL     1       0.711   1.199   1.407  1.00  0.00     0.207 S 
HETATM   14  O1  UNL     1       0.869   2.714   1.508  1.00  0.00    -0.217 OA
HETATM   15  O2  UNL     1       0.815   0.737   2.856  1.00  0.00    -0.217 OA
BRANCH  13  16
HETATM   16  C4  UNL     1       2.083   0.604   0.554  1.00  0.00     0.067 A 
HETATM   17  C5  UNL     1       2.724  -0.523   1.016  1.00  0.00     0.049 A 
HETATM   18  C6  UNL     1       3.835  -1.037   0.350  1.00  0.00     0.058 A 
HETATM   19 CL1  UNL     1       4.640  -2.479   0.958  1.00  0.00    -0.082 Cl
HETATM   20  C7  UNL     1       4.314  -0.427  -0.786  1.00  0.00     0.073 A 
HETATM   21 CL2  UNL     1       5.712  -1.051  -1.650  1.00  0.00    -0.081 Cl
HETATM   22  C8  UNL     1       3.681   0.701  -1.258  1.00  0.00     0.035 A 
HETATM   23 BR1  UNL     1       4.333   1.576  -2.850  1.00  0.00    -0.049 Br
HETATM   24  C9  UNL     1       2.591   1.186  -0.585  1.00  0.00     0.044 A 
ENDBRANCH  13  16
ENDBRANCH   3  13
TORSDOF 3
