REMARK  4 active torsions:
REMARK  status: ('A' for Active; 'I' for Inactive)
REMARK    1  A    between atoms: C2_2  and  N1_3 
REMARK    2  A    between atoms: N3_10  and  C6_11 
REMARK    3  A    between atoms: C6_11  and  C7_12 
REMARK    4  A    between atoms: C7_12  and  C9_15 
ROOT
HETATM    1  N1  UNL     1      -2.245   1.179  -1.254  1.00  0.00    -0.145 N 
HETATM    2  C3  UNL     1      -1.290   1.487  -2.228  1.00  0.00     0.292 A 
HETATM    3  O1  UNL     1      -1.487   2.437  -3.068  1.00  0.00    -0.265 OA
HETATM    4  C4  UNL     1      -0.037   0.765  -2.348  1.00  0.00     0.148 A 
HETATM    5  N2  UNL     1       1.038   0.915  -3.122  1.00  0.00    -0.345 N 
ATOM      6  H2  UNL     1       1.133   1.594  -3.877  1.00  0.00     0.167 HD
HETATM    7  C5  UNL     1       1.959   0.045  -2.755  1.00  0.00     0.185 A 
HETATM    8  N3  UNL     1       1.490  -0.723  -1.688  1.00  0.00    -0.324 N 
HETATM    9  C11 UNL     1       0.242  -0.290  -1.460  1.00  0.00     0.167 A 
HETATM   10  N4  UNL     1      -0.736  -0.649  -0.460  1.00  0.00    -0.104 N 
HETATM   11  C12 UNL     1      -0.620  -1.829   0.281  1.00  0.00     0.198 C 
HETATM   12  S1  UNL     1       0.377  -3.037  -0.063  1.00  0.00    -0.040 SA
HETATM   13  N5  UNL     1      -1.723  -2.199   1.144  1.00  0.00    -0.340 N 
ATOM     14  H5  UNL     1      -1.802  -3.158   1.482  1.00  0.00     0.164 HD
HETATM   15  C13 UNL     1      -2.710  -1.219   1.528  1.00  0.00     0.115 C 
HETATM   16  C14 UNL     1      -2.525  -0.630   2.881  1.00  0.00     0.063 C 
HETATM   17  C15 UNL     1      -4.045  -1.977   1.523  1.00  0.00     0.063 C 
HETATM   18  N6  UNL     1      -2.806  -0.189   0.550  1.00  0.00    -0.199 N 
ATOM     19  H6  UNL     1      -3.650   0.383   0.585  1.00  0.00     0.180 HD
HETATM   20  C16 UNL     1      -1.966   0.109  -0.367  1.00  0.00     0.695 A 
ENDROOT
BRANCH   8  21
HETATM   21  C6  UNL     1       2.439  -1.434  -0.900  1.00  0.00     0.160 C 
BRANCH  21  22
HETATM   22  C7  UNL     1       3.599  -0.604  -0.298  1.00  0.00     0.084 C 
HETATM   23  C8  UNL     1       4.473   0.118  -1.210  1.00  0.00     0.037 C 
HETATM   24 CL1  UNL     1       4.751  -1.884   0.379  1.00  0.00    -0.115 Cl
BRANCH  22  25
HETATM   25  C9  UNL     1       3.263   0.165   0.927  1.00  0.00     0.132 C 
HETATM   26  C10 UNL     1       4.524   0.913   1.447  1.00  0.00     0.052 C 
HETATM   27 CL2  UNL     1       2.083   1.466   0.747  1.00  0.00    -0.100 Cl
HETATM   28 CL3  UNL     1       2.729  -0.841   2.293  1.00  0.00    -0.100 Cl
ENDBRANCH  22  25
ENDBRANCH  21  22
ENDBRANCH   8  21
BRANCH   1  29
HETATM   29  C2  UNL     1      -3.471   1.914  -1.144  1.00  0.00     0.146 C 
HETATM   30  C1  UNL     1      -3.366   3.103  -0.220  1.00  0.00     0.027 C 
ENDBRANCH   1  29
TORSDOF 4
