REMARK  5 active torsions:
REMARK  status: ('A' for Active; 'I' for Inactive)
REMARK    1  A    between atoms: C4_4  and  C5_5 
REMARK    2  A    between atoms: C6_9  and  N1_10 
REMARK    3  A    between atoms: C17_23  and  O3_25 
REMARK    4  A    between atoms: O3_25  and  C19_26 
REMARK    5  A    between atoms: C19_26  and  C20_28 
ROOT
HETATM    1  C1  UNL     1       1.229   1.234  -2.323  1.00  0.00     0.014 C 
HETATM    2  C2  UNL     1       0.831   0.631  -1.028  1.00  0.00     0.025 C 
HETATM    3  C3  UNL     1      -0.479  -0.067  -0.955  1.00  0.00     0.017 C 
HETATM    4  C4  UNL     1      -1.699   0.600  -1.466  1.00  0.00     0.113 C 
HETATM    5  C6  UNL     1      -2.742   0.577  -0.394  1.00  0.00     0.233 C 
HETATM    6  C9  UNL     1      -2.916  -0.747   0.266  1.00  0.00     0.041 C 
HETATM    7  C10 UNL     1      -1.659  -1.487   0.588  1.00  0.00    -0.005 C 
HETATM    8  C11 UNL     1      -1.746  -1.873   2.078  1.00  0.00     0.011 C 
HETATM    9  C12 UNL     1      -0.471  -0.580   0.442  1.00  0.00    -0.001 C 
HETATM   10  C13 UNL     1      -0.429   0.324   1.589  1.00  0.00     0.019 C 
HETATM   11  C14 UNL     1       0.875  -1.296   0.405  1.00  0.00     0.119 C 
HETATM   12  C15 UNL     1       0.862  -2.752   0.198  1.00  0.00     0.153 C 
HETATM   13  C16 UNL     1       2.033  -2.682   1.111  1.00  0.00     0.262 C 
HETATM   14  O1  UNL     1       3.087  -3.310   1.344  1.00  0.00    -0.265 OA
HETATM   15  O2  UNL     1       1.464  -1.524   1.679  1.00  0.00    -0.305 OA
HETATM   16  C17 UNL     1       1.735  -0.444  -0.507  1.00  0.00     0.103 C 
HETATM   17  C18 UNL     1       2.041  -1.303  -1.779  1.00  0.00     0.050 C 
ENDROOT
BRANCH  16  18
HETATM   18  O3  UNL     1       2.972  -0.205  -0.069  1.00  0.00    -0.307 OA
BRANCH  18  19
HETATM   19  C19 UNL     1       3.648   0.503   0.827  1.00  0.00     0.264 C 
HETATM   20  O4  UNL     1       2.934   1.223   1.536  1.00  0.00    -0.265 OA
BRANCH  19  21
HETATM   21  C20 UNL     1       5.132   0.493   1.029  1.00  0.00     0.085 A 
HETATM   22  C21 UNL     1       5.707   1.807   1.526  1.00  0.00     0.015 A 
HETATM   23  C22 UNL     1       5.546   0.715   2.487  1.00  0.00     0.015 A 
ENDBRANCH  19  21
ENDBRANCH  18  19
ENDBRANCH  16  18
BRANCH   4  24
HETATM   24  C5  UNL     1      -2.202  -0.086  -2.745  1.00  0.00     0.326 C 
HETATM   25  F1  UNL     1      -2.531  -1.409  -2.542  1.00  0.00    -0.187 F 
HETATM   26  F2  UNL     1      -1.165  -0.168  -3.693  1.00  0.00    -0.187 F 
HETATM   27 CL1  UNL     1      -3.481   0.802  -3.577  1.00  0.00    -0.048 Cl
ENDBRANCH   4  24
BRANCH   5  28
HETATM   28  N1  UNL     1      -4.029   1.135  -0.731  1.00  0.00     0.085 N 
HETATM   29  C7  UNL     1      -3.937   2.582  -0.960  1.00  0.00     0.309 C 
HETATM   30  C8  UNL     1      -4.897   0.979   0.420  1.00  0.00     0.309 C 
ENDBRANCH   5  28
TORSDOF 5
