REMARK  3 active torsions:
REMARK  status: ('A' for Active; 'I' for Inactive)
REMARK    1  A    between atoms: O1_2  and  C2_3 
REMARK    2  A    between atoms: N1_7  and  S2_9 
REMARK    3  A    between atoms: S2_9  and  C5_12 
ROOT
HETATM    1  S2  UNL     1      -1.500  -1.756   0.411  1.00  0.00     0.265 S 
HETATM    2  O2  UNL     1      -1.017  -1.597   1.839  1.00  0.00    -0.200 OA
HETATM    3  O3  UNL     1      -2.113  -3.137   0.322  1.00  0.00    -0.200 OA
ENDROOT
BRANCH   1   4
HETATM    4  N1  UNL     1      -0.209  -1.591  -0.700  1.00  0.00    -0.269 N 
HETATM    5  C4  UNL     1       0.912  -1.192  -0.248  1.00  0.00     0.119 C 
HETATM    6  S1  UNL     1       1.418  -0.751   1.411  1.00  0.00    -0.101 SA
HETATM    7  S3  UNL     1       2.373  -0.960  -1.256  1.00  0.00    -0.072 SA
HETATM    8  C3  UNL     1       3.243  -0.758   1.220  1.00  0.00     0.124 C 
HETATM    9  C2  UNL     1       3.447  -0.051  -0.079  1.00  0.00     0.198 C 
ATOM     10  H1  UNL     1      -0.333  -1.805  -1.690  1.00  0.00     0.180 HD
BRANCH   9  11
HETATM   11  O1  UNL     1       4.751  -0.025  -0.507  1.00  0.00    -0.379 OA
HETATM   12  C1  UNL     1       5.119   1.307  -0.702  1.00  0.00     0.203 C 
ENDBRANCH   9  11
ENDBRANCH   1   4
BRANCH   1  13
HETATM   13  C5  UNL     1      -2.691  -0.535   0.037  1.00  0.00     0.099 A 
HETATM   14  C6  UNL     1      -2.514   0.343  -0.986  1.00  0.00     0.052 A 
HETATM   15  C7  UNL     1      -3.464   1.289  -1.254  1.00  0.00     0.057 A 
HETATM   16 CL1  UNL     1      -3.273   2.437  -2.562  1.00  0.00    -0.083 Cl
HETATM   17  C8  UNL     1      -4.608   1.356  -0.488  1.00  0.00     0.057 A 
HETATM   18 CL2  UNL     1      -5.841   2.554  -0.808  1.00  0.00    -0.083 Cl
HETATM   19  C9  UNL     1      -4.776   0.450   0.557  1.00  0.00     0.046 A 
HETATM   20  C10 UNL     1      -3.827  -0.489   0.819  1.00  0.00     0.036 A 
HETATM   21 BR1  UNL     1      -4.080  -1.717   2.255  1.00  0.00    -0.049 Br
ENDBRANCH   1  13
TORSDOF 3
