REMARK  2 active torsions:
REMARK  status: ('A' for Active; 'I' for Inactive)
REMARK    1  A    between atoms: C4_6  and  C5_7 
REMARK    2  A    between atoms: C8_10  and  S1_11 
ROOT
HETATM    1  C1  UNL     1      -3.762  -4.121   0.036  1.00  0.00     0.159 C 
HETATM    2  N1  UNL     1      -2.606  -3.250   0.034  1.00  0.00    -0.325 N 
HETATM    3  C2  UNL     1      -1.345  -3.714  -0.007  1.00  0.00     0.137 A 
HETATM    4  C3  UNL     1      -0.225  -2.943  -0.013  1.00  0.00     0.144 A 
HETATM    5  F1  UNL     1       1.042  -3.424  -0.054  1.00  0.00    -0.204 F 
HETATM    6  C4  UNL     1      -0.414  -1.543   0.027  1.00  0.00     0.031 A 
HETATM    7  C12 UNL     1      -1.685  -1.040   0.068  1.00  0.00     0.057 A 
HETATM    8  C13 UNL     1      -1.925   0.383   0.112  1.00  0.00    -0.016 A 
HETATM    9  C14 UNL     1      -2.640   0.956  -0.933  1.00  0.00     0.038 A 
HETATM   10  C15 UNL     1      -2.937   2.298  -0.998  1.00  0.00     0.058 A 
HETATM   11 CL1  UNL     1      -3.844   2.992  -2.336  1.00  0.00    -0.082 Cl
HETATM   12  C16 UNL     1      -2.503   3.128   0.030  1.00  0.00     0.076 A 
HETATM   13 CL2  UNL     1      -2.879   4.844  -0.043  1.00  0.00    -0.081 Cl
HETATM   14  C17 UNL     1      -1.786   2.585   1.092  1.00  0.00     0.068 A 
HETATM   15  C18 UNL     1      -1.356   3.477   2.135  1.00  0.00     0.101 C 
HETATM   16  N2  UNL     1      -1.025   4.208   2.971  1.00  0.00    -0.191 NA
HETATM   17  C19 UNL     1      -1.510   1.232   1.117  1.00  0.00     0.037 A 
HETATM   18  C20 UNL     1      -2.766  -1.921   0.071  1.00  0.00     0.259 A 
HETATM   19  O3  UNL     1      -3.920  -1.419   0.109  1.00  0.00    -0.267 OA
ENDROOT
BRANCH   6  20
HETATM   20  C5  UNL     1       0.721  -0.652   0.022  1.00  0.00    -0.022 A 
HETATM   21  C6  UNL     1       1.631  -0.680   1.051  1.00  0.00     0.014 A 
HETATM   22  C7  UNL     1       2.740   0.133   1.100  1.00  0.00     0.024 A 
HETATM   23  C8  UNL     1       2.965   1.019   0.087  1.00  0.00     0.058 A 
HETATM   24  C10 UNL     1       2.073   1.086  -0.976  1.00  0.00     0.024 A 
HETATM   25  C11 UNL     1       0.955   0.240  -0.990  1.00  0.00     0.014 A 
BRANCH  23  26
HETATM   26  S1  UNL     1       4.374   2.059   0.129  1.00  0.00     0.171 S 
HETATM   27  C9  UNL     1       5.720   1.225  -0.704  1.00  0.00     0.167 C 
HETATM   28  O1  UNL     1       4.838   2.268   1.559  1.00  0.00    -0.223 OA
HETATM   29  O2  UNL     1       4.130   3.389  -0.490  1.00  0.00    -0.223 OA
ENDBRANCH  23  26
ENDBRANCH   6  20
TORSDOF 2
