REMARK  11 active torsions:
REMARK  status: ('A' for Active; 'I' for Inactive)
REMARK    1  A    between atoms: C2_2  and  C3_3 
REMARK       I    between atoms: C3_3  and  N1_5 
REMARK    2  A    between atoms: N1_5  and  C4_7 
REMARK    3  A    between atoms: C4_7  and  C6_9 
REMARK    4  A    between atoms: C4_7  and  C18_37 
REMARK       I    between atoms: N2_13  and  C10_14 
REMARK    5  A    between atoms: C10_14  and  C11_16 
REMARK    6  A    between atoms: C11_16  and  C12_17 
REMARK    7  A    between atoms: C11_16  and  N8_32 
REMARK    8  A    between atoms: C12_17  and  C13_18 
REMARK    9  A    between atoms: C15_22  and  N4_23 
REMARK   10  A    between atoms: N4_23  and  N5_25 
REMARK       I    between atoms: N8_32  and  C16_34 
REMARK   11  A    between atoms: C18_37  and  C21_40 
ROOT
HETATM    1  C6  UNL     1      -0.557  -0.167  -0.444  1.00  0.00     0.021 C 
HETATM    2  C7  UNL     1      -1.071  -0.697  -1.779  1.00  0.00     0.057 C 
HETATM    3  C8  UNL     1       0.119  -0.338  -2.629  1.00  0.00     0.026 C 
HETATM    4  C9  UNL     1       1.272  -0.154  -1.680  1.00  0.00     0.132 C 
HETATM    5  N2  UNL     1       0.694  -0.760  -0.433  1.00  0.00    -0.321 N 
HETATM    6  C10 UNL     1       1.553  -1.603   0.273  1.00  0.00     0.247 C 
HETATM    7  O2  UNL     1       1.341  -2.160   1.407  1.00  0.00    -0.271 OA
ENDROOT
BRANCH   6   8
HETATM    8  C11 UNL     1       2.922  -2.042  -0.160  1.00  0.00     0.182 C 
BRANCH   8   9
HETATM    9  C12 UNL     1       4.025  -1.332   0.588  1.00  0.00     0.094 C 
BRANCH   9  10
HETATM   10  C13 UNL     1       4.065   0.123   0.453  1.00  0.00     0.045 A 
HETATM   11  C14 UNL     1       3.470   1.074   1.242  1.00  0.00     0.131 A 
HETATM   12  N3  UNL     1       3.758   2.287   0.778  1.00  0.00    -0.199 N 
HETATM   13  C15 UNL     1       4.535   2.151  -0.308  1.00  0.00     0.698 A 
ATOM     14  H3  UNL     1       3.442   3.170   1.179  1.00  0.00     0.183 HD
HETATM   15  N7  UNL     1       4.725   0.840  -0.511  1.00  0.00    -0.193 N 
ATOM     16  H7  UNL     1       5.277   0.437  -1.268  1.00  0.00     0.184 HD
BRANCH  13  17
HETATM   17  N4  UNL     1       5.001   3.141  -1.014  1.00  0.00    -0.118 N 
ATOM     18  H4  UNL     1       5.585   2.948  -1.827  1.00  0.00     0.207 HD
BRANCH  17  19
HETATM   19  N5  UNL     1       4.711   4.461  -0.672  1.00  0.00    -0.235 N 
HETATM   20  N6  UNL     1       4.044   5.218  -1.442  1.00  0.00    -0.330 N 
ATOM     21  H62 UNL     1       3.719   4.835  -2.330  1.00  0.00     0.178 HD
ATOM     22  H61 UNL     1       3.832   6.184  -1.192  1.00  0.00     0.178 HD
ATOM     23  H5  UNL     1       5.043   4.828   0.220  1.00  0.00     0.208 HD
ENDBRANCH  17  19
ENDBRANCH  13  17
ENDBRANCH   9  10
ENDBRANCH   8   9
BRANCH   8  24
HETATM   24  N8  UNL     1       3.042  -3.445   0.305  1.00  0.00    -0.348 N 
HETATM   25  C16 UNL     1       3.308  -4.509  -0.588  1.00  0.00     0.214 C 
HETATM   26  C17 UNL     1       3.419  -5.895  -0.079  1.00  0.00     0.117 C 
HETATM   27  O3  UNL     1       3.444  -4.244  -1.802  1.00  0.00    -0.274 OA
ATOM     28  H8  UNL     1       2.929  -3.649   1.298  1.00  0.00     0.163 HD
ENDBRANCH   8  24
ENDBRANCH   6   8
BRANCH   1  29
HETATM   29  C4  UNL     1      -1.485   0.298   0.565  1.00  0.00     0.075 C 
HETATM   30  C5  UNL     1      -0.609   0.262   1.886  1.00  0.00     0.046 C 
BRANCH  29  31
HETATM   31  N1  UNL     1      -2.536  -0.678   0.752  1.00  0.00    -0.346 N 
HETATM   32  C3  UNL     1      -2.630  -2.033   0.905  1.00  0.00     0.218 C 
HETATM   33  O1  UNL     1      -1.699  -2.829   0.913  1.00  0.00    -0.274 OA
ATOM     34  H1  UNL     1      -3.455  -0.236   0.776  1.00  0.00     0.163 HD
BRANCH  32  35
HETATM   35  C2  UNL     1      -3.987  -2.701   1.087  1.00  0.00     0.098 C 
HETATM   36  C1  UNL     1      -3.849  -4.193   1.230  1.00  0.00     0.014 C 
ENDBRANCH  32  35
ENDBRANCH  29  31
BRANCH  29  37
HETATM   37  C18 UNL     1      -1.962   1.721   0.569  1.00  0.00    -0.011 C 
HETATM   38  C19 UNL     1      -0.698   2.613   0.509  1.00  0.00     0.018 C 
HETATM   39  C20 UNL     1      -2.618   2.043   1.910  1.00  0.00     0.018 C 
BRANCH  37  40
HETATM   40  C21 UNL     1      -2.861   2.309  -0.432  1.00  0.00    -0.042 C 
HETATM   41  C22 UNL     1      -3.050   3.768   0.096  1.00  0.00     0.015 C 
HETATM   42  C23 UNL     1      -4.260   1.784  -0.544  1.00  0.00     0.015 C 
HETATM   43  C24 UNL     1      -2.410   2.528  -1.841  1.00  0.00     0.015 C 
ENDBRANCH  37  40
ENDBRANCH  29  37
ENDBRANCH   1  29
TORSDOF 11
