REMARK  9 active torsions:
REMARK  status: ('A' for Active; 'I' for Inactive)
REMARK    1  A    between atoms: C2_2  and  N1_3 
REMARK       I    between atoms: N1_3  and  C3_5 
REMARK       I    between atoms: C3_5  and  N3_9 
REMARK    2  A    between atoms: N3_9  and  C4_11 
REMARK    3  A    between atoms: C4_11  and  C5_12 
REMARK    4  A    between atoms: C5_12  and  C6_13 
REMARK    5  A    between atoms: C6_13  and  C7_14 
REMARK       I    between atoms: C7_14  and  N4_16 
REMARK       I    between atoms: N5_19  and  C10_20 
REMARK    6  A    between atoms: C10_20  and  C11_22 
REMARK    7  A    between atoms: C11_22  and  N6_23 
REMARK    8  A    between atoms: N7_26  and  C14_27 
REMARK    9  A    between atoms: C14_27  and  C15_28 
ROOT
HETATM    1  C7  UNL     1      -3.695   0.915   0.558  1.00  0.00     0.221 C 
HETATM    2  O1  UNL     1      -4.432   1.572   1.360  1.00  0.00    -0.273 OA
HETATM    3  N4  UNL     1      -2.327   1.263   0.498  1.00  0.00    -0.334 N 
HETATM    4  C8  UNL     1      -1.689   2.303   1.279  1.00  0.00     0.147 C 
HETATM    5  C9  UNL     1      -0.290   1.778   1.432  1.00  0.00     0.147 C 
HETATM    6  N5  UNL     1      -0.106   0.849   0.365  1.00  0.00    -0.330 N 
HETATM    7  C10 UNL     1       1.161   0.216   0.069  1.00  0.00     0.268 C 
HETATM    8  O2  UNL     1       1.181  -0.577  -0.902  1.00  0.00    -0.267 OA
HETATM    9  C22 UNL     1      -1.335   0.647  -0.340  1.00  0.00     0.255 C 
ENDROOT
BRANCH   7  10
HETATM   10  C11 UNL     1       2.354   0.507   0.884  1.00  0.00     0.279 C 
BRANCH  10  11
HETATM   11  N6  UNL     1       3.474  -0.212   0.427  1.00  0.00    -0.011 N 
HETATM   12  C12 UNL     1       3.391  -1.628   0.594  1.00  0.00     0.273 C 
HETATM   13  C13 UNL     1       4.860  -2.080   0.667  1.00  0.00     0.268 C 
HETATM   14  N7  UNL     1       5.581  -0.829   0.547  1.00  0.00    -0.034 N 
HETATM   15  C18 UNL     1       5.446  -0.346  -0.789  1.00  0.00     0.273 C 
HETATM   16  C21 UNL     1       4.677   0.061   1.257  1.00  0.00     0.479 C 
HETATM   17  C19 UNL     1       3.986   0.129  -0.859  1.00  0.00     0.220 C 
HETATM   18  C20 UNL     1       4.028   1.617  -1.111  1.00  0.00     0.043 C 
BRANCH  14  19
HETATM   19  C14 UNL     1       6.896  -0.866   1.072  1.00  0.00     0.297 C 
BRANCH  19  20
HETATM   20  C15 UNL     1       7.951  -0.550   0.079  1.00  0.00     0.053 A 
HETATM   21  C16 UNL     1       8.530  -1.460  -0.776  1.00  0.00     0.117 A 
HETATM   22  N8  UNL     1       9.451  -0.851  -1.542  1.00  0.00    -0.341 N 
HETATM   23  C17 UNL     1       9.448   0.444  -1.166  1.00  0.00     0.176 A 
ATOM     24  H8  UNL     1      10.033  -1.281  -2.261  1.00  0.00     0.167 HD
HETATM   25  S1  UNL     1      10.443   1.566  -1.859  1.00  0.00    -0.041 SA
HETATM   26  N9  UNL     1       8.555   0.616  -0.201  1.00  0.00    -0.334 N 
ATOM     27  H9  UNL     1       8.356   1.504   0.261  1.00  0.00     0.168 HD
ENDBRANCH  19  20
ENDBRANCH  14  19
ENDBRANCH  10  11
ENDBRANCH   7  10
BRANCH   1  28
HETATM   28  C6  UNL     1      -4.221  -0.176  -0.289  1.00  0.00     0.105 C 
BRANCH  28  29
HETATM   29  C5  UNL     1      -5.700  -0.348  -0.260  1.00  0.00     0.029 C 
BRANCH  29  30
HETATM   30  C4  UNL     1      -6.434   0.864  -0.770  1.00  0.00     0.138 C 
BRANCH  30  31
HETATM   31  N3  UNL     1      -7.876   0.653  -0.722  1.00  0.00    -0.227 N 
HETATM   32  C3  UNL     1      -8.424  -0.310  -1.606  1.00  0.00     0.667 C 
HETATM   33  N1  UNL     1      -8.999  -1.529  -1.115  1.00  0.00    -0.227 N 
HETATM   34  N2  UNL     1      -8.410  -0.097  -2.876  1.00  0.00    -0.235 N 
ATOM     35  H1  UNL     1      -9.082  -2.332  -1.738  1.00  0.00     0.177 HD
ATOM     36  H22 UNL     1      -8.804  -0.790  -3.512  1.00  0.00     0.174 HD
ATOM     37  H21 UNL     1      -8.001   0.770  -3.225  1.00  0.00     0.174 HD
ATOM     38  H3  UNL     1      -8.467   1.178  -0.078  1.00  0.00     0.177 HD
BRANCH  33  39
HETATM   39  C2  UNL     1      -9.464  -1.637   0.252  1.00  0.00     0.133 C 
HETATM   40  C1  UNL     1     -10.682  -0.751   0.436  1.00  0.00     0.027 C 
ENDBRANCH  33  39
ENDBRANCH  30  31
ENDBRANCH  29  30
ENDBRANCH  28  29
ENDBRANCH   1  28
TORSDOF 9
