REMARK  7 active torsions:
REMARK  status: ('A' for Active; 'I' for Inactive)
REMARK    1  A    between atoms: C2_2  and  C3_3 
REMARK       I    between atoms: N1_5  and  C5_6 
REMARK       I    between atoms: N3_11  and  C8_12 
REMARK       I    between atoms: C8_12  and  N5_16 
REMARK    2  A    between atoms: N5_16  and  C9_18 
REMARK    3  A    between atoms: C9_18  and  C10_19 
REMARK    4  A    between atoms: C10_19  and  N6_20 
REMARK       I    between atoms: N6_20  and  C11_22 
REMARK    5  A    between atoms: C11_22  and  C12_24 
REMARK    6  A    between atoms: C13_25  and  C14_26 
REMARK       I    between atoms: N9_33  and  C18_35 
REMARK    7  A    between atoms: C18_35  and  C19_37 
ROOT
HETATM    1  C10 UNL     1      -1.462   0.467   0.315  1.00  0.00     0.105 C 
HETATM    2  N9  UNL     1      -1.339   1.736   0.012  1.00  0.00    -0.315 N 
ATOM      3  H9  UNL     1      -0.394   2.058  -0.200  1.00  0.00     0.170 HD
HETATM    4  C18 UNL     1      -2.395   2.747  -0.059  1.00  0.00     0.227 C 
HETATM    5  O3  UNL     1      -3.562   2.487   0.160  1.00  0.00    -0.273 OA
ENDROOT
BRANCH   1   6
HETATM    6  C9  UNL     1       0.288   0.081  -0.205  1.00  0.00     0.214 C 
BRANCH   6   7
HETATM    7  N5  UNL     1       0.884   0.708   0.876  1.00  0.00    -0.220 N 
HETATM    8  C8  UNL     1       2.271   0.532   1.258  1.00  0.00     0.670 C 
HETATM    9  N3  UNL     1       3.114  -0.325   0.567  1.00  0.00    -0.211 N 
HETATM   10  N4  UNL     1       2.723   1.152   2.335  1.00  0.00    -0.235 N 
HETATM   11  C3  UNL     1       4.143   0.093  -0.355  1.00  0.00     0.119 C 
HETATM   12  C7  UNL     1       2.936  -1.760   0.778  1.00  0.00     0.161 C 
HETATM   13  C4  UNL     1       4.839  -1.114  -0.951  1.00  0.00     0.153 C 
HETATM   14  N1  UNL     1       5.237  -2.040   0.075  1.00  0.00    -0.333 N 
HETATM   15  C5  UNL     1       6.489  -2.699   0.082  1.00  0.00     0.331 C 
HETATM   16  C6  UNL     1       4.310  -2.364   1.155  1.00  0.00     0.147 C 
HETATM   17  N2  UNL     1       7.378  -2.470  -1.021  1.00  0.00    -0.040 NA
HETATM   18  O1  UNL     1       6.814  -3.456   0.996  1.00  0.00    -0.251 OA
ATOM     19  H42 UNL     1       3.699   1.028   2.604  1.00  0.00     0.174 HD
ATOM     20  H41 UNL     1       2.103   1.782   2.843  1.00  0.00     0.174 HD
ATOM     21  H5  UNL     1       0.310   1.334   1.440  1.00  0.00     0.178 HD
BRANCH  11  22
HETATM   22  C2  UNL     1       5.218   0.915   0.373  1.00  0.00     0.023 C 
HETATM   23  C1  UNL     1       6.248   1.284  -0.664  1.00  0.00     0.007 C 
ENDBRANCH  11  22
ENDBRANCH   6   7
ENDBRANCH   1   6
BRANCH   1  24
HETATM   24  N6  UNL     1      -1.563  -0.727   0.596  1.00  0.00    -0.312 N 
HETATM   25  C11 UNL     1      -2.813  -1.326   1.158  1.00  0.00     0.246 C 
HETATM   26  O2  UNL     1      -2.686  -1.760   2.327  1.00  0.00    -0.268 OA
ATOM     27  H6  UNL     1      -0.759  -1.335   0.439  1.00  0.00     0.170 HD
BRANCH  25  28
HETATM   28  C12 UNL     1      -3.966  -1.300   0.261  1.00  0.00     0.077 C 
HETATM   29  C13 UNL     1      -4.158  -2.377  -0.631  1.00  0.00     0.036 C 
BRANCH  29  30
HETATM   30  C14 UNL     1      -4.496  -3.772  -0.381  1.00  0.00     0.050 A 
HETATM   31  C15 UNL     1      -4.604  -4.657  -1.534  1.00  0.00     0.118 A 
HETATM   32  N7  UNL     1      -4.904  -5.882  -1.074  1.00  0.00    -0.360 N 
HETATM   33  C16 UNL     1      -4.999  -5.850   0.256  1.00  0.00     0.182 A 
ATOM     34  H7  UNL     1      -5.039  -6.711  -1.653  1.00  0.00     0.166 HD
HETATM   35  N8  UNL     1      -4.741  -4.557   0.631  1.00  0.00    -0.346 N 
HETATM   36  C17 UNL     1      -4.848  -4.211   2.045  1.00  0.00     0.157 C 
ENDBRANCH  29  30
ENDBRANCH  25  28
ENDBRANCH   1  24
BRANCH   4  37
HETATM   37  C19 UNL     1      -1.967   4.101  -0.418  1.00  0.00     0.083 C 
HETATM   38  C20 UNL     1      -2.400   5.114   0.650  1.00  0.00     0.019 C 
HETATM   39  C21 UNL     1      -2.912   6.182  -0.243  1.00  0.00    -0.013 C 
HETATM   40  C22 UNL     1      -2.018   6.123  -1.504  1.00  0.00     0.010 C 
HETATM   41  C24 UNL     1      -3.875   5.373  -1.128  1.00  0.00     0.010 C 
HETATM   42  C23 UNL     1      -2.578   4.727  -1.612  1.00  0.00    -0.001 C 
ENDBRANCH   4  37
TORSDOF 7
