REMARK  14 active torsions:
REMARK  status: ('A' for Active; 'I' for Inactive)
REMARK    1  A    between atoms: C3_5  and  O1_6 
REMARK    2  A    between atoms: C5_9  and  C6_10 
REMARK    3  A    between atoms: C6_10  and  C7_11 
REMARK    4  A    between atoms: C7_11  and  N2_12 
REMARK    5  A    between atoms: N2_12  and  C10_15 
REMARK    6  A    between atoms: C10_15  and  C11_16 
REMARK    7  A    between atoms: C13_20  and  C14_21 
REMARK    8  A    between atoms: C15_22  and  C16_23 
REMARK    9  A    between atoms: C17_24  and  N4_25 
REMARK   10  A    between atoms: N4_25  and  C18_26 
REMARK   11  A    between atoms: C18_26  and  C19_27 
REMARK   12  A    between atoms: C19_27  and  N5_28 
REMARK   13  A    between atoms: C27_40  and  N8_41 
REMARK   14  A    between atoms: N8_41  and  N9_42 
ROOT
HETATM    1  C11 UNL     1      -2.154  -0.588  -0.920  1.00  0.00     0.045 A 
HETATM    2  C12 UNL     1      -1.980  -0.802   0.410  1.00  0.00     0.105 A 
HETATM    3  N3  UNL     1      -0.804  -0.586   1.036  1.00  0.00    -0.358 N 
ATOM      4  H3  UNL     1      -0.693  -0.757   2.035  1.00  0.00     0.166 HD
HETATM    5  C13 UNL     1       0.220  -0.133   0.278  1.00  0.00     0.090 A 
HETATM    6  C26 UNL     1       0.090   0.100  -1.056  1.00  0.00     0.086 A 
HETATM    7  C27 UNL     1      -1.110  -0.121  -1.725  1.00  0.00     0.146 A 
ENDROOT
BRANCH   5   8
HETATM    8  C14 UNL     1       1.502  -0.004   0.877  1.00  0.00    -0.035 C 
HETATM    9  C15 UNL     1       2.562   0.041   1.376  1.00  0.00    -0.007 C 
BRANCH   9  10
HETATM   10  C16 UNL     1       3.795   0.027   1.970  1.00  0.00     0.004 C 
HETATM   11  C17 UNL     1       4.846  -0.031   2.499  1.00  0.00     0.013 C 
BRANCH  11  12
HETATM   12  N4  UNL     1       6.082  -0.145   3.126  1.00  0.00    -0.159 NA
BRANCH  12  13
HETATM   13  C18 UNL     1       7.161  -0.231   2.228  1.00  0.00     0.145 C 
BRANCH  13  14
HETATM   14  C19 UNL     1       6.867   0.311   0.801  1.00  0.00     0.144 C 
BRANCH  14  15
HETATM   15  N5  UNL     1       8.242   0.288   0.234  1.00  0.00    -0.363 N 
HETATM   16  C20 UNL     1       8.923   1.439   0.425  1.00  0.00     0.091 A 
HETATM   17  C21 UNL     1      10.262   1.492   0.127  1.00  0.00     0.032 A 
HETATM   18  C22 UNL     1      10.880   0.375  -0.363  1.00  0.00     0.011 A 
HETATM   19  C23 UNL     1      12.186   0.127  -0.733  1.00  0.00     0.120 A 
HETATM   20  C24 UNL     1      10.166  -0.786  -0.551  1.00  0.00     0.075 A 
HETATM   21  N6  UNL     1      12.210  -1.165  -1.127  1.00  0.00    -0.311 N 
HETATM   22  N7  UNL     1      11.002  -1.703  -1.015  1.00  0.00    -0.299 N 
ATOM     23  H6  UNL     1      13.038  -1.657  -1.463  1.00  0.00     0.186 HD
ATOM     24  H7  UNL     1      10.757  -2.665  -1.248  1.00  0.00     0.187 HD
HETATM   25  C25 UNL     1       8.811  -0.808  -0.239  1.00  0.00     0.122 A 
ENDBRANCH  14  15
ENDBRANCH  13  14
ENDBRANCH  12  13
ENDBRANCH  11  12
ENDBRANCH   9  10
ENDBRANCH   5   8
BRANCH   7  26
HETATM   26  N8  UNL     1      -1.233   0.108  -2.946  1.00  0.00    -0.332 NA
BRANCH  26  27
HETATM   27  N9  UNL     1      -1.489   0.272  -4.148  1.00  0.00    -0.280 N 
ATOM     28  H92 UNL     1      -2.371  -0.184  -3.914  1.00  0.00     0.191 HD
ATOM     29  H91 UNL     1      -1.589   0.459  -5.146  1.00  0.00     0.191 HD
ENDBRANCH  26  27
ENDBRANCH   7  26
BRANCH   1  30
HETATM   30  C10 UNL     1      -3.418  -1.010  -1.594  1.00  0.00     0.217 C 
BRANCH  30  31
HETATM   31  N2  UNL     1      -4.548  -0.319  -1.200  1.00  0.00    -0.053 N 
HETATM   32  C8  UNL     1      -5.218   0.007  -2.524  1.00  0.00     0.277 C 
HETATM   33  C9  UNL     1      -4.152   1.088  -0.779  1.00  0.00     0.277 C 
BRANCH  31  34
HETATM   34  C7  UNL     1      -5.502  -0.646  -0.217  1.00  0.00     0.246 C 
BRANCH  34  35
HETATM   35  C6  UNL     1      -6.903  -0.399  -0.791  1.00  0.00     0.069 C 
BRANCH  35  36
HETATM   36  C5  UNL     1      -8.016  -0.309   0.158  1.00  0.00    -0.030 A 
HETATM   37  C2  UNL     1      -8.392   0.904   0.814  1.00  0.00     0.013 A 
HETATM   38  C1  UNL     1      -7.711   2.190   0.636  1.00  0.00     0.068 C 
HETATM   39  N1  UNL     1      -9.470   0.659   1.589  1.00  0.00    -0.341 N 
HETATM   40  C3  UNL     1      -9.828  -0.636   1.497  1.00  0.00     0.140 A 
ATOM     41  H1  UNL     1      -9.946   1.356   2.163  1.00  0.00     0.167 HD
HETATM   42  C4  UNL     1      -8.928  -1.216   0.613  1.00  0.00     0.065 A 
BRANCH  40  43
HETATM   43  O1  UNL     1     -10.881  -1.259   2.155  1.00  0.00    -0.346 OA
ATOM     44  H1  UNL     1     -11.134  -2.173   2.090  1.00  0.00     0.219 HD
ENDBRANCH  40  43
ENDBRANCH  35  36
ENDBRANCH  34  35
ENDBRANCH  31  34
ENDBRANCH  30  31
ENDBRANCH   1  30
TORSDOF 14
