REMARK  11 active torsions:
REMARK  status: ('A' for Active; 'I' for Inactive)
REMARK    1  A    between atoms: C2_2  and  C3_3 
REMARK    2  A    between atoms: C3_3  and  N1_4 
REMARK    3  A    between atoms: C6_7  and  C7_8 
REMARK    4  A    between atoms: C8_9  and  C9_10 
REMARK       I    between atoms: N3_15  and  C12_17 
REMARK       I    between atoms: C12_17  and  N4_19 
REMARK    5  A    between atoms: N4_19  and  C13_21 
REMARK    6  A    between atoms: C13_21  and  C14_22 
REMARK    7  A    between atoms: C13_21  and  C18_33 
REMARK    8  A    between atoms: C14_22  and  C15_23 
REMARK    9  A    between atoms: C17_27  and  N6_28 
REMARK   10  A    between atoms: C18_33  and  O2_34 
REMARK   11  A    between atoms: C18_33  and  N8_36 
ROOT
HETATM    1  C9  UNL     1       3.833  -0.813  -1.080  1.00  0.00     0.065 A 
HETATM    2  C10 UNL     1       3.269  -0.720   0.148  1.00  0.00     0.136 A 
HETATM    3  N2  UNL     1       1.934  -0.983   0.002  1.00  0.00    -0.199 N 
ATOM      4  H2  UNL     1       1.251  -0.986   0.759  1.00  0.00     0.183 HD
HETATM    5  C11 UNL     1       1.662  -1.233  -1.267  1.00  0.00     0.686 A 
HETATM    6  N3  UNL     1       0.500  -1.530  -1.757  1.00  0.00    -0.141 N 
ATOM      7  H3  UNL     1       0.437  -1.698  -2.761  1.00  0.00     0.189 HD
HETATM    8  C12 UNL     1      -0.684  -1.637  -0.998  1.00  0.00     0.335 C 
HETATM    9  O1  UNL     1      -0.663  -2.331   0.075  1.00  0.00    -0.246 OA
HETATM   10  N4  UNL     1      -1.860  -1.011  -1.390  1.00  0.00    -0.330 N 
ATOM     11  H4  UNL     1      -1.883  -0.455  -2.245  1.00  0.00     0.165 HD
HETATM   12  N10 UNL     1       2.813  -1.131  -1.936  1.00  0.00    -0.190 N 
ATOM     13  H10 UNL     1       2.917  -1.270  -2.941  1.00  0.00     0.184 HD
ENDROOT
BRANCH  10  14
HETATM   14  C13 UNL     1      -3.090  -1.154  -0.556  1.00  0.00     0.166 C 
BRANCH  14  15
HETATM   15  C14 UNL     1      -4.094  -1.965  -1.235  1.00  0.00     0.092 C 
BRANCH  15  16
HETATM   16  C15 UNL     1      -5.290  -2.346  -0.468  1.00  0.00     0.045 A 
HETATM   17  C16 UNL     1      -5.537  -2.211   0.874  1.00  0.00     0.131 A 
HETATM   18  N5  UNL     1      -6.758  -2.690   1.151  1.00  0.00    -0.200 N 
HETATM   19  C17 UNL     1      -7.289  -3.126   0.012  1.00  0.00     0.675 A 
ATOM     20  H5  UNL     1      -7.200  -2.716   2.070  1.00  0.00     0.183 HD
HETATM   21  N7  UNL     1      -6.397  -2.917  -0.971  1.00  0.00    -0.194 N 
ATOM     22  H7  UNL     1      -6.539  -3.156  -1.952  1.00  0.00     0.184 HD
BRANCH  19  23
HETATM   23  N6  UNL     1      -8.454  -3.655  -0.129  1.00  0.00    -0.234 N 
ATOM     24  H62 UNL     1      -9.131  -3.814   0.617  1.00  0.00     0.174 HD
ATOM     25  H61 UNL     1      -8.861  -3.989  -1.002  1.00  0.00     0.174 HD
ENDBRANCH  19  23
ENDBRANCH  15  16
ENDBRANCH  14  15
BRANCH  14  26
HETATM   26  C18 UNL     1      -3.380   0.216  -0.109  1.00  0.00     0.138 C 
BRANCH  26  27
HETATM   27  O2  UNL     1      -2.257   0.724   0.454  1.00  0.00    -0.348 OA
ATOM     28  H2  UNL     1      -2.444   1.609   0.743  1.00  0.00     0.219 HD
ENDBRANCH  26  27
BRANCH  26  29
HETATM   29  N8  UNL     1      -4.448   1.086  -0.122  1.00  0.00    -0.338 N 
HETATM   30  C19 UNL     1      -4.322   2.420   0.577  1.00  0.00     0.154 C 
HETATM   31  C20 UNL     1      -5.665   2.349   1.323  1.00  0.00     0.258 C 
HETATM   32  N9  UNL     1      -6.569   1.850   0.283  1.00  0.00    -0.057 N 
HETATM   33  C21 UNL     1      -7.254   2.974  -0.355  1.00  0.00     0.274 C 
HETATM   34  C22 UNL     1      -7.600   0.995   0.791  1.00  0.00     0.274 C 
HETATM   35  C23 UNL     1      -5.737   1.204  -0.714  1.00  0.00     0.362 C 
ENDBRANCH  26  29
ENDBRANCH  14  26
ENDBRANCH  10  14
BRANCH   1  36
HETATM   36  C8  UNL     1       5.199  -0.660  -1.493  1.00  0.00     0.028 C 
HETATM   37  C7  UNL     1       6.269  -0.481  -0.816  1.00  0.00    -0.010 C 
BRANCH  37  38
HETATM   38  C6  UNL     1       6.567  -0.361   0.616  1.00  0.00     0.102 C 
HETATM   39  C5  UNL     1       7.811  -1.254   0.854  1.00  0.00     0.038 C 
HETATM   40  C4  UNL     1       8.954  -0.453   0.279  1.00  0.00     0.127 C 
HETATM   41  N1  UNL     1       8.486   0.924   0.350  1.00  0.00    -0.348 N 
HETATM   42  C24 UNL     1       7.181   0.982   0.912  1.00  0.00     0.227 C 
HETATM   43  O3  UNL     1       6.678   1.955   1.518  1.00  0.00    -0.273 OA
BRANCH  41  44
HETATM   44  C3  UNL     1       9.298   2.055  -0.108  1.00  0.00     0.152 C 
BRANCH  44  45
HETATM   45  C2  UNL     1      10.140   2.556   1.024  1.00  0.00    -0.017 C 
HETATM   46  C1  UNL     1      11.447   2.541   0.893  1.00  0.00     0.008 C 
ENDBRANCH  44  45
ENDBRANCH  41  44
ENDBRANCH  37  38
ENDBRANCH   1  36
TORSDOF 11
