REMARK  13 active torsions:
REMARK  status: ('A' for Active; 'I' for Inactive)
REMARK    1  A    between atoms: C2_2  and  C3_3 
REMARK    2  A    between atoms: C3_3  and  C4_4 
REMARK    3  A    between atoms: C4_4  and  C5_5 
REMARK    4  A    between atoms: C5_5  and  N1_6 
REMARK    5  A    between atoms: C5_5  and  C19_24 
REMARK    6  A    between atoms: N1_6  and  C6_8 
REMARK    7  A    between atoms: C6_8  and  C7_10 
REMARK    8  A    between atoms: C7_10  and  C8_11 
REMARK       I    between atoms: C19_24  and  N5_26 
REMARK    9  A    between atoms: N5_26  and  C20_28 
REMARK   10  A    between atoms: C21_33  and  N8_34 
REMARK   11  A    between atoms: N8_34  and  C22_36 
REMARK   12  A    between atoms: C22_36  and  C23_37 
REMARK   13  A    between atoms: C23_37  and  N9_40 
ROOT
HETATM    1  C5  UNL     1       1.243  -2.626  -0.414  1.00  0.00     0.099 C 
ENDROOT
BRANCH   1   2
HETATM    2  C4  UNL     1       0.953  -3.833  -0.870  1.00  0.00     0.008 C 
BRANCH   2   3
HETATM    3  C3  UNL     1      -0.277  -4.157  -1.598  1.00  0.00     0.029 C 
BRANCH   3   4
HETATM    4  C2  UNL     1      -0.962  -5.327  -0.934  1.00  0.00    -0.001 C 
HETATM    5  C1  UNL     1      -1.337  -5.116   0.486  1.00  0.00     0.005 C 
ENDBRANCH   3   4
ENDBRANCH   2   3
ENDBRANCH   1   2
BRANCH   1   6
HETATM    6  N1  UNL     1       0.363  -1.573  -0.613  1.00  0.00    -0.341 N 
ATOM      7  H1  UNL     1       0.169  -1.328  -1.584  1.00  0.00     0.167 HD
BRANCH   6   8
HETATM    8  C6  UNL     1      -0.252  -0.852   0.299  1.00  0.00     0.115 C 
HETATM    9  N2  UNL     1       0.037  -1.224   1.623  1.00  0.00    -0.083 NA
BRANCH   8  10
HETATM   10  C7  UNL     1      -1.115   0.254  -0.061  1.00  0.00     0.052 C 
BRANCH  10  11
HETATM   11  C8  UNL     1      -2.578   0.178  -0.059  1.00  0.00     0.222 C 
HETATM   12  C9  UNL     1      -3.182   1.504  -0.544  1.00  0.00     0.066 C 
HETATM   13  C10 UNL     1      -4.366   1.511  -1.412  1.00  0.00     0.244 C 
HETATM   14  N3  UNL     1      -5.673   1.791  -1.008  1.00  0.00    -0.055 N 
HETATM   15  C11 UNL     1      -5.974   3.145  -1.631  1.00  0.00     0.277 C 
HETATM   16  C12 UNL     1      -6.593   0.974  -1.840  1.00  0.00     0.277 C 
HETATM   17  C13 UNL     1      -6.260   1.928   0.227  1.00  0.00     0.201 C 
HETATM   18  C14 UNL     1      -6.671   0.818   1.128  1.00  0.00     0.026 C 
HETATM   19  C15 UNL     1      -5.797  -0.144   1.518  1.00  0.00     0.026 C 
HETATM   20  C16 UNL     1      -4.508  -0.009   1.007  1.00  0.00     0.202 C 
HETATM   21  N4  UNL     1      -3.175  -0.321   1.185  1.00  0.00    -0.047 N 
HETATM   22  C17 UNL     1      -3.075  -1.768   1.242  1.00  0.00     0.279 C 
HETATM   23  C18 UNL     1      -2.669   0.292   2.371  1.00  0.00     0.279 C 
ENDBRANCH  10  11
ENDBRANCH   8  10
ENDBRANCH   6   8
ENDBRANCH   1   6
BRANCH   1  24
HETATM   24  C19 UNL     1       2.536  -2.485   0.287  1.00  0.00     0.286 C 
HETATM   25  O1  UNL     1       3.272  -3.495   0.417  1.00  0.00    -0.265 OA
HETATM   26  N5  UNL     1       3.022  -1.290   0.831  1.00  0.00    -0.152 N 
ATOM     27  H5  UNL     1       2.627  -0.996   1.724  1.00  0.00     0.187 HD
BRANCH  26  28
HETATM   28  C20 UNL     1       3.907  -0.538   0.320  1.00  0.00     0.714 A 
HETATM   29  N6  UNL     1       4.597  -0.663  -0.829  1.00  0.00    -0.117 N 
HETATM   30  N7  UNL     1       5.430   0.346  -0.992  1.00  0.00    -0.117 N 
ATOM     31  H6  UNL     1       4.490  -1.436  -1.486  1.00  0.00     0.206 HD
HETATM   32  C21 UNL     1       5.271   1.143   0.084  1.00  0.00     0.707 A 
ATOM     33  H7  UNL     1       6.067   0.494  -1.775  1.00  0.00     0.206 HD
HETATM   34  N10 UNL     1       4.344   0.603   0.879  1.00  0.00    -0.020 N 
ATOM     35  H10 UNL     1       4.021   0.992   1.765  1.00  0.00     0.203 HD
BRANCH  32  36
HETATM   36  N8  UNL     1       5.898   2.251   0.329  1.00  0.00    -0.222 N 
ATOM     37  H8  UNL     1       5.666   2.744   1.191  1.00  0.00     0.177 HD
BRANCH  36  38
HETATM   38  C22 UNL     1       6.890   2.833  -0.519  1.00  0.00     0.175 C 
BRANCH  38  39
HETATM   39  C23 UNL     1       8.294   2.673   0.030  1.00  0.00     0.133 C 
HETATM   40  C24 UNL     1       8.573   1.196   0.161  1.00  0.00     0.047 C 
HETATM   41  C25 UNL     1       8.472   3.359   1.347  1.00  0.00     0.047 C 
BRANCH  39  42
HETATM   42  N9  UNL     1       9.221   3.295  -0.913  1.00  0.00    -0.070 N 
ATOM     43  H93 UNL     1       9.124   2.930  -1.861  1.00  0.00     0.275 HD
ATOM     44  H92 UNL     1       8.985   4.266  -1.116  1.00  0.00     0.275 HD
ATOM     45  H91 UNL     1      10.166   3.187  -0.544  1.00  0.00     0.275 HD
ENDBRANCH  39  42
ENDBRANCH  38  39
ENDBRANCH  36  38
ENDBRANCH  32  36
ENDBRANCH  26  28
ENDBRANCH   1  24
TORSDOF 13
