REMARK  8 active torsions:
REMARK  status: ('A' for Active; 'I' for Inactive)
REMARK    1  A    between atoms: C3_5  and  N3_6 
REMARK    2  A    between atoms: N4_8  and  N5_10 
REMARK       I    between atoms: N5_10  and  C4_12 
REMARK       I    between atoms: C4_12  and  N6_14 
REMARK    3  A    between atoms: N6_14  and  N7_16 
REMARK    4  A    between atoms: N8_18  and  C5_20 
REMARK    5  A    between atoms: C6_26  and  C7_27 
REMARK    6  A    between atoms: N12_29  and  O3_31 
REMARK    7  A    between atoms: C8_33  and  N13_34 
REMARK    8  A    between atoms: N13_34  and  N14_36 
REMARK       I    between atoms: N14_36  and  C9_38 
ROOT
HETATM    1  N5  UNL     1      -1.007   1.191   0.491  1.00  0.00    -0.236 N 
ATOM      2  H5  UNL     1      -0.641   0.695  -0.321  1.00  0.00     0.193 HD
HETATM    3  C4  UNL     1      -0.094   1.761   1.420  1.00  0.00     0.355 C 
HETATM    4  O1  UNL     1      -0.503   2.382   2.437  1.00  0.00    -0.244 OA
HETATM    5  N6  UNL     1       1.309   1.652   1.237  1.00  0.00    -0.236 N 
ATOM      6  H6  UNL     1       1.659   1.153   0.419  1.00  0.00     0.193 HD
ENDROOT
BRANCH   1   7
HETATM    7  N4  UNL     1      -2.387   1.290   0.657  1.00  0.00    -0.238 N 
HETATM    8  N3  UNL     1      -3.246   0.466   0.245  1.00  0.00    -0.280 N 
ATOM      9  H3  UNL     1      -4.239   0.624   0.415  1.00  0.00     0.189 HD
ATOM     10  H4  UNL     1      -2.734   2.107   1.160  1.00  0.00     0.208 HD
BRANCH   8  11
HETATM   11  C3  UNL     1      -2.810  -0.681  -0.457  1.00  0.00     0.136 A 
HETATM   12  C2  UNL     1      -2.157  -1.700   0.256  1.00  0.00     0.154 A 
HETATM   13  N1  UNL     1      -1.722  -2.797  -0.379  1.00  0.00    -0.290 N 
HETATM   14  N2  UNL     1      -1.991  -1.522   1.649  1.00  0.00    -0.080 NA
HETATM   15  C1  UNL     1      -1.048  -3.835   0.392  1.00  0.00     0.162 C 
HETATM   16  C10 UNL     1      -1.923  -2.897  -1.699  1.00  0.00     0.329 A 
HETATM   17  N16 UNL     1      -2.542  -1.946  -2.411  1.00  0.00    -0.291 N 
HETATM   18  O5  UNL     1      -1.492  -3.958  -2.258  1.00  0.00    -0.246 OA
HETATM   19  C8  UNL     1      -3.009  -0.797  -1.803  1.00  0.00     0.156 A 
ATOM     20  H16 UNL     1      -2.670  -2.072  -3.415  1.00  0.00     0.172 HD
BRANCH  19  21
HETATM   21  N13 UNL     1      -3.595   0.055  -2.520  1.00  0.00    -0.280 N 
ATOM     22  H13 UNL     1      -3.671  -0.166  -3.513  1.00  0.00     0.188 HD
BRANCH  21  23
HETATM   23  N14 UNL     1      -4.137   1.233  -2.123  1.00  0.00    -0.252 N 
HETATM   24  C9  UNL     1      -3.632   2.470  -2.666  1.00  0.00     0.347 C 
HETATM   25  N15 UNL     1      -4.182   3.712  -2.266  1.00  0.00    -0.038 NA
HETATM   26  O4  UNL     1      -2.694   2.449  -3.501  1.00  0.00    -0.249 OA
ATOM     27  H14 UNL     1      -4.898   1.244  -1.444  1.00  0.00     0.191 HD
ENDBRANCH  21  23
ENDBRANCH  19  21
ENDBRANCH   8  11
ENDBRANCH   1   7
BRANCH   5  28
HETATM   28  N7  UNL     1       2.216   2.194   2.120  1.00  0.00    -0.237 N 
HETATM   29  N8  UNL     1       3.242   1.561   2.473  1.00  0.00    -0.267 N 
ATOM     30  H8  UNL     1       3.882   2.007   3.130  1.00  0.00     0.190 HD
ATOM     31  H7  UNL     1       2.051   3.128   2.495  1.00  0.00     0.208 HD
BRANCH  29  32
HETATM   32  C5  UNL     1       3.561   0.245   2.002  1.00  0.00     0.175 A 
HETATM   33  N9  UNL     1       3.025  -0.923   2.396  1.00  0.00    -0.222 N 
HETATM   34  O2  UNL     1       3.590  -1.880   1.723  1.00  0.00    -0.155 OA
ATOM     35  H9  UNL     1       2.299  -1.038   3.103  1.00  0.00     0.198 HD
HETATM   36  N10 UNL     1       4.471  -1.388   0.908  1.00  0.00    -0.234 N 
HETATM   37  C6  UNL     1       4.500  -0.044   1.037  1.00  0.00     0.146 A 
ATOM     38  H10 UNL     1       5.051  -1.932   0.269  1.00  0.00     0.197 HD
BRANCH  37  39
HETATM   39  C7  UNL     1       5.327   0.918   0.330  1.00  0.00     0.168 C 
HETATM   40  N11 UNL     1       5.199   2.301   0.619  1.00  0.00    -0.078 NA
HETATM   41  N12 UNL     1       6.188   0.585  -0.563  1.00  0.00    -0.253 N 
ATOM     42  H12 UNL     1       6.719   1.338  -1.001  1.00  0.00     0.195 HD
BRANCH  41  43
HETATM   43  O3  UNL     1       6.454  -0.678  -0.975  1.00  0.00    -0.288 OA
ATOM     44  H3  UNL     1       7.091  -0.924  -1.636  1.00  0.00     0.244 HD
ENDBRANCH  41  43
ENDBRANCH  37  39
ENDBRANCH  29  32
ENDBRANCH   5  28
TORSDOF 8
