REMARK  2 active torsions:
REMARK  status: ('A' for Active; 'I' for Inactive)
REMARK    1  A    between atoms: C2_2  and  C3_3 
REMARK    2  A    between atoms: N3_12  and  N4_14 
ROOT
HETATM    1  C3  UNL     1       0.619  -0.153   1.144  1.00  0.00     0.223 C 
HETATM    2  O1  UNL     1       0.686   1.271   1.127  1.00  0.00    -0.305 OA
HETATM    3  C4  UNL     1      -0.159   1.760   0.143  1.00  0.00     0.219 C 
HETATM    4  N1  UNL     1      -0.236   2.973  -0.289  1.00  0.00    -0.365 N 
ATOM      5  H11 UNL     1      -0.858   3.333  -1.013  1.00  0.00     0.159 HD
ATOM      6  H12 UNL     1       0.345   3.733   0.064  1.00  0.00     0.159 HD
HETATM    7  N2  UNL     1      -0.968   0.702  -0.349  1.00  0.00    -0.308 N 
ATOM      8  H2  UNL     1      -1.680   0.772  -1.076  1.00  0.00     0.170 HD
HETATM    9  C5  UNL     1      -0.601  -0.471   0.359  1.00  0.00     0.134 C 
HETATM   10  N3  UNL     1      -1.210  -1.600   0.330  1.00  0.00    -0.272 N 
ATOM     11  H3  UNL     1      -0.864  -2.387   0.879  1.00  0.00     0.190 HD
ENDROOT
BRANCH   1  12
HETATM   12  C2  UNL     1       1.837  -0.765   0.573  1.00  0.00     0.003 C 
HETATM   13  C1  UNL     1       2.483  -0.232  -0.456  1.00  0.00     0.010 C 
ENDBRANCH   1  12
BRANCH  10  14
HETATM   14  N4  UNL     1      -2.347  -1.738  -0.459  1.00  0.00    -0.248 N 
HETATM   15  N5  UNL     1      -3.427  -2.176   0.025  1.00  0.00    -0.331 N 
ATOM     16  H52 UNL     1      -3.450  -2.428   1.013  1.00  0.00     0.178 HD
ATOM     17  H51 UNL     1      -4.261  -2.277  -0.554  1.00  0.00     0.178 HD
ATOM     18  H4  UNL     1      -2.307  -1.481  -1.445  1.00  0.00     0.207 HD
ENDBRANCH  10  14
TORSDOF 2
