REMARK  5 active torsions:
REMARK  status: ('A' for Active; 'I' for Inactive)
REMARK    1  A    between atoms: C5_6  and  C6_7 
REMARK    2  A    between atoms: C6_7  and  N2_8 
REMARK    3  A    between atoms: N2_8  and  N3_9 
REMARK    4  A    between atoms: N2_8  and  C7_12 
REMARK    5  A    between atoms: C7_12  and  N4_13 
ROOT
HETATM    1  N2  UNL     1      -1.984  -0.312  -0.177  1.00  0.00    -0.208 NA
ENDROOT
BRANCH   1   2
HETATM    2  C6  UNL     1      -1.092  -0.362   0.947  1.00  0.00     0.154 C 
BRANCH   2   3
HETATM    3  C5  UNL     1       0.327  -0.570   0.550  1.00  0.00    -0.028 A 
HETATM    4  C4  UNL     1       0.847  -1.842   0.430  1.00  0.00     0.011 A 
HETATM    5  C3  UNL     1       2.163  -2.021   0.062  1.00  0.00     0.018 A 
HETATM    6  C2  UNL     1       2.954  -0.915  -0.184  1.00  0.00     0.090 A 
HETATM    7  N1  UNL     1       2.470   0.335  -0.073  1.00  0.00    -0.370 N 
HETATM    8  C1  UNL     1       3.314   1.504  -0.335  1.00  0.00     0.154 C 
HETATM    9  C8  UNL     1       1.183   0.480   0.287  1.00  0.00     0.098 A 
ENDBRANCH   2   3
ENDBRANCH   1   2
BRANCH   1  10
HETATM   10  N3  UNL     1      -2.914  -1.374  -0.055  1.00  0.00    -0.362 NA
ATOM     11  H32 UNL     1      -2.357  -2.228  -0.021  1.00  0.00     0.171 HD
ATOM     12  H31 UNL     1      -3.548  -1.338  -0.853  1.00  0.00     0.171 HD
ENDBRANCH   1  10
BRANCH   1  13
HETATM   13  C7  UNL     1      -2.776   0.903  -0.225  1.00  0.00     0.342 C 
BRANCH  13  14
HETATM   14  N4  UNL     1      -2.057   2.066  -0.563  1.00  0.00    -0.066 N 
ATOM     15  H43 UNL     1      -1.264   2.186   0.067  1.00  0.00     0.275 HD
ATOM     16  H42 UNL     1      -1.563   1.932  -1.445  1.00  0.00     0.275 HD
ATOM     17  H41 UNL     1      -2.614   2.920  -0.597  1.00  0.00     0.275 HD
ENDBRANCH  13  14
ENDBRANCH   1  13
TORSDOF 5
