REMARK  3 active torsions:
REMARK  status: ('A' for Active; 'I' for Inactive)
REMARK    1  A    between atoms: C1_4  and  C2_6 
REMARK    2  A    between atoms: C3_7  and  C4_8 
REMARK    3  A    between atoms: C4_8  and  N3_9 
ROOT
HETATM    1  C4  UNL     1      -0.683  -1.121   1.288  1.00  0.00     0.177 C 
ENDROOT
BRANCH   1   2
HETATM    2  C3  UNL     1       0.738  -0.795   0.994  1.00  0.00    -0.002 C 
HETATM    3  C2  UNL     1       1.109   0.130   0.154  1.00  0.00     0.042 C 
BRANCH   3   4
HETATM    4  C1  UNL     1       2.515   0.378  -0.070  1.00  0.00     0.109 C 
HETATM    5  N1  UNL     1       2.895   1.289  -0.896  1.00  0.00    -0.388 N 
ATOM      6  H12 UNL     1       3.887   1.464  -1.054  1.00  0.00     0.157 HD
ATOM      7  H11 UNL     1       2.186   1.832  -1.389  1.00  0.00     0.157 HD
HETATM    8  N2  UNL     1       3.496  -0.373   0.613  1.00  0.00    -0.083 NA
ENDBRANCH   3   4
ENDBRANCH   1   2
BRANCH   1   9
HETATM    9  N3  UNL     1      -1.579  -0.262   0.508  1.00  0.00    -0.284 N 
HETATM   10  C5  UNL     1      -2.064  -0.524  -0.717  1.00  0.00     0.130 A 
HETATM   11  C6  UNL     1      -2.866   0.530  -1.100  1.00  0.00     0.127 A 
HETATM   12  N4  UNL     1      -2.843   1.416  -0.078  1.00  0.00    -0.296 N 
HETATM   13  N5  UNL     1      -2.075   0.914   0.849  1.00  0.00    -0.241 N 
ATOM     14  H4  UNL     1      -3.334   2.309  -0.040  1.00  0.00     0.187 HD
ATOM     15  H5  UNL     1      -1.880   1.377   1.737  1.00  0.00     0.208 HD
ENDBRANCH   1   9
TORSDOF 3
