REMARK  3 active torsions:
REMARK  status: ('A' for Active; 'I' for Inactive)
REMARK    1  A    between atoms: N3_4  and  C2_6 
REMARK    2  A    between atoms: C2_6  and  C3_7 
REMARK    3  A    between atoms: C3_7  and  N4_8 
ROOT
HETATM    1  N4  UNL     1       1.827  -0.483   0.032  1.00  0.00    -0.285 N 
HETATM    2  C4  UNL     1       2.709   0.115   0.845  1.00  0.00     0.201 A 
HETATM    3  N5  UNL     1       3.756   0.598   0.145  1.00  0.00    -0.346 N 
ATOM      4  H5  UNL     1       4.566   1.096   0.516  1.00  0.00     0.167 HD
HETATM    5  C5  UNL     1       3.514   0.289  -1.143  1.00  0.00     0.198 A 
HETATM    6  N6  UNL     1       2.337  -0.367  -1.185  1.00  0.00    -0.293 N 
ATOM      7  H6  UNL     1       1.900  -0.724  -2.035  1.00  0.00     0.188 HD
ENDROOT
BRANCH   1   8
HETATM    8  C3  UNL     1       0.567  -1.127   0.415  1.00  0.00     0.169 C 
BRANCH   8   9
HETATM    9  C2  UNL     1      -0.496  -0.077   0.360  1.00  0.00     0.143 C 
BRANCH   9  10
HETATM   10  N3  UNL     1      -1.801  -0.539   0.708  1.00  0.00    -0.365 N 
HETATM   11  C1  UNL     1      -2.825  -0.028   0.102  1.00  0.00     0.197 C 
HETATM   12  N1  UNL     1      -2.657   0.989  -0.907  1.00  0.00    -0.067 NA
HETATM   13  N2  UNL     1      -4.155  -0.415   0.373  1.00  0.00    -0.067 NA
ATOM     14  H3  UNL     1      -1.925  -1.258   1.421  1.00  0.00     0.161 HD
ENDBRANCH   9  10
ENDBRANCH   8   9
ENDBRANCH   1   8
TORSDOF 3
