REMARK  5 active torsions:
REMARK  status: ('A' for Active; 'I' for Inactive)
REMARK    1  A    between atoms: C5_5  and  C6_6 
REMARK    2  A    between atoms: C6_6  and  C7_7 
REMARK    3  A    between atoms: C8_10  and  C9_11 
REMARK    4  A    between atoms: C30_36  and  N3_37 
REMARK    5  A    between atoms: N3_37  and  O3_39 
ROOT
HETATM    1  C1  UNL     1       3.682  -1.565   4.172  1.00  0.00     0.018 C 
HETATM    2  C2  UNL     1       3.998  -0.995   3.150  1.00  0.00    -0.075 C 
HETATM    3  C3  UNL     1       4.355  -0.336   1.924  1.00  0.00     0.046 A 
HETATM    4  C4  UNL     1       3.476   0.413   1.176  1.00  0.00     0.030 A 
HETATM    5  C5  UNL     1       3.815   1.038  -0.011  1.00  0.00    -0.051 A 
HETATM    6  C28 UNL     1       5.095   0.913  -0.477  1.00  0.00     0.010 A 
HETATM    7  C29 UNL     1       6.005   0.174   0.238  1.00  0.00     0.034 A 
HETATM    8  C30 UNL     1       5.652  -0.442   1.416  1.00  0.00     0.079 A 
ENDROOT
BRANCH   8   9
HETATM    9  N3  UNL     1       6.598  -1.193   2.151  1.00  0.00    -0.245 N 
HETATM   10  C31 UNL     1       7.636  -0.611   2.616  1.00  0.00     0.156 C 
BRANCH   9  11
HETATM   11  O3  UNL     1       6.408  -2.523   2.340  1.00  0.00    -0.284 OA
ATOM     12  H3  UNL     1       7.044  -3.028   2.834  1.00  0.00     0.245 HD
ENDBRANCH   9  11
ENDBRANCH   8   9
BRANCH   5  13
HETATM   13  C6  UNL     1       2.820   1.852  -0.735  1.00  0.00     0.096 C 
BRANCH  13  14
HETATM   14  C7  UNL     1       1.627   1.137  -1.185  1.00  0.00     0.025 A 
HETATM   15  N1  UNL     1       0.494   1.218  -0.417  1.00  0.00    -0.361 N 
HETATM   16  C8  UNL     1      -0.639   0.566  -0.730  1.00  0.00     0.029 A 
ATOM     17  H1  UNL     1       0.512   1.795   0.424  1.00  0.00     0.165 HD
HETATM   18  C21 UNL     1      -0.737  -0.227  -1.843  1.00  0.00     0.038 A 
HETATM   19  C22 UNL     1       0.370  -0.342  -2.649  1.00  0.00    -0.022 A 
HETATM   20  C23 UNL     1       0.294  -1.127  -3.779  1.00  0.00     0.012 A 
HETATM   21  C27 UNL     1       1.537   0.351  -2.297  1.00  0.00    -0.003 A 
HETATM   22  C24 UNL     1       1.382  -1.256  -4.615  1.00  0.00     0.001 A 
HETATM   23  C25 UNL     1       2.530  -0.574  -4.273  1.00  0.00     0.001 A 
HETATM   24  C26 UNL     1       2.609   0.212  -3.142  1.00  0.00     0.014 A 
BRANCH  16  25
HETATM   25  C9  UNL     1      -1.807   0.726   0.162  1.00  0.00     0.186 C 
HETATM   26  C10 UNL     1      -2.937   1.411  -0.527  1.00  0.00     0.179 C 
HETATM   27  O1  UNL     1      -2.897   2.297  -1.444  1.00  0.00    -0.291 OA
HETATM   28  C11 UNL     1      -4.157   0.873   0.052  1.00  0.00     0.042 A 
HETATM   29  C12 UNL     1      -5.474   1.285   0.081  1.00  0.00     0.031 A 
HETATM   30  C19 UNL     1      -3.849  -0.301   0.690  1.00  0.00     0.094 A 
HETATM   31  C13 UNL     1      -6.428   0.532   0.730  1.00  0.00    -0.009 A 
HETATM   32  C14 UNL     1      -7.751   0.899   0.785  1.00  0.00     0.014 A 
HETATM   33  C18 UNL     1      -6.056  -0.644   1.357  1.00  0.00     0.043 A 
HETATM   34  C15 UNL     1      -8.707   0.151   1.429  1.00  0.00     0.001 A 
HETATM   35  C16 UNL     1      -8.310  -1.016   2.045  1.00  0.00     0.002 A 
HETATM   36  C17 UNL     1      -6.985  -1.437   2.022  1.00  0.00     0.030 A 
HETATM   37  N2  UNL     1      -4.774  -1.046   1.329  1.00  0.00    -0.352 N 
ATOM     38  H2  UNL     1      -4.501  -1.914   1.791  1.00  0.00     0.166 HD
HETATM   39  C20 UNL     1      -2.406  -0.573   0.549  1.00  0.00     0.194 C 
HETATM   40  O2  UNL     1      -1.808  -1.657   0.719  1.00  0.00    -0.289 OA
ENDBRANCH  16  25
ENDBRANCH  13  14
ENDBRANCH   5  13
TORSDOF 5
