REMARK  4 active torsions:
REMARK  status: ('A' for Active; 'I' for Inactive)
REMARK    1  A    between atoms: C2_3  and  N1_4 
REMARK    2  A    between atoms: C3_7  and  C4_8 
REMARK    3  A    between atoms: C11_15  and  C12_16 
REMARK    4  A    between atoms: N3_30  and  C24_31 
ROOT
HETATM    1  N1  UNL     1       0.247  -0.792   0.988  1.00  0.00    -0.262 N 
HETATM    2  N2  UNL     1      -0.674   0.201   0.820  1.00  0.00    -0.295 N 
ATOM      3  H2  UNL     1      -0.510   1.163   1.116  1.00  0.00     0.187 HD
HETATM    4  C3  UNL     1      -1.781  -0.183   0.249  1.00  0.00     0.072 A 
HETATM    5  C10 UNL     1      -1.687  -1.582  -0.021  1.00  0.00     0.035 A 
HETATM    6  C11 UNL     1      -2.528  -2.475  -0.410  1.00  0.00     0.054 C 
HETATM    7  C16 UNL     1      -0.307  -1.965   0.481  1.00  0.00     0.131 A 
HETATM    8  S1  UNL     1       0.348  -3.423   0.431  1.00  0.00    -0.058 SA
ENDROOT
BRANCH   1   9
HETATM    9  C2  UNL     1       1.539  -0.566   1.615  1.00  0.00     0.235 C 
HETATM   10  C1  UNL     1       2.674  -1.056   0.793  1.00  0.00     0.255 C 
HETATM   11  O1  UNL     1       3.135  -2.185   1.003  1.00  0.00    -0.270 OA
HETATM   12  N3  UNL     1       3.248  -0.258  -0.231  1.00  0.00    -0.297 N 
HETATM   13  C23 UNL     1       2.590   0.992  -0.541  1.00  0.00     0.172 C 
HETATM   14  C22 UNL     1       2.233   1.669   0.719  1.00  0.00    -0.031 A 
HETATM   15  C17 UNL     1       1.720   0.933   1.769  1.00  0.00    -0.017 A 
HETATM   16  C21 UNL     1       2.401   3.052   0.858  1.00  0.00     0.009 A 
HETATM   17  C18 UNL     1       1.391   1.600   2.921  1.00  0.00     0.010 A 
HETATM   18  C19 UNL     1       1.555   2.960   3.061  1.00  0.00     0.001 A 
HETATM   19  C20 UNL     1       2.066   3.706   2.020  1.00  0.00     0.001 A 
BRANCH  12  20
HETATM   20  C24 UNL     1       4.412  -0.603  -0.959  1.00  0.00     0.110 A 
HETATM   21  C25 UNL     1       4.438  -1.801  -1.644  1.00  0.00     0.049 A 
HETATM   22  C26 UNL     1       5.554  -2.177  -2.360  1.00  0.00     0.005 A 
HETATM   23  C27 UNL     1       6.622  -1.302  -2.354  1.00  0.00     0.017 A 
HETATM   24  C28 UNL     1       6.598  -0.106  -1.671  1.00  0.00     0.089 A 
HETATM   25  N4  UNL     1       5.500   0.217  -0.992  1.00  0.00    -0.352 N 
ATOM     26  H4  UNL     1       5.472   1.101  -0.483  1.00  0.00     0.166 HD
ENDBRANCH  12  20
ENDBRANCH   1   9
BRANCH   4  27
HETATM   27  C4  UNL     1      -2.805   0.834   0.044  1.00  0.00    -0.007 A 
HETATM   28  C5  UNL     1      -3.712   0.862  -0.956  1.00  0.00     0.014 A 
HETATM   29  C6  UNL     1      -4.742   1.820  -1.039  1.00  0.00     0.001 A 
HETATM   30  C7  UNL     1      -4.868   2.794  -0.082  1.00  0.00     0.000 A 
HETATM   31  C8  UNL     1      -3.957   2.787   0.941  1.00  0.00     0.001 A 
HETATM   32  C9  UNL     1      -2.962   1.850   1.012  1.00  0.00     0.014 A 
ENDBRANCH   4  27
BRANCH   6  33
HETATM   33  C12 UNL     1      -3.930  -2.478  -0.731  1.00  0.00     0.075 A 
HETATM   34  C13 UNL     1      -4.476  -2.947  -1.948  1.00  0.00     0.039 A 
HETATM   35  C14 UNL     1      -5.839  -2.807  -1.905  1.00  0.00     0.027 A 
HETATM   36  C15 UNL     1      -6.094  -2.257  -0.666  1.00  0.00     0.142 A 
HETATM   37  O2  UNL     1      -4.972  -2.092  -0.041  1.00  0.00    -0.323 OA
ENDBRANCH   6  33
TORSDOF 4
