REMARK  4 active torsions:
REMARK  status: ('A' for Active; 'I' for Inactive)
REMARK    1  A    between atoms: C4_7  and  C5_8 
REMARK    2  A    between atoms: C12_15  and  C13_16 
REMARK    3  A    between atoms: C13_16  and  N3_17 
REMARK    4  A    between atoms: C22_28  and  C24_31 
ROOT
HETATM    1  N3  UNL     1      -0.977   1.260   0.091  1.00  0.00    -0.313 N 
HETATM    2  C14 UNL     1      -1.301   2.320   1.014  1.00  0.00     0.256 A 
HETATM    3  O1  UNL     1      -0.514   2.894   1.799  1.00  0.00    -0.267 OA
HETATM    4  C15 UNL     1      -2.717   2.651   0.917  1.00  0.00     0.042 A 
HETATM    5  C16 UNL     1      -3.499   3.572   1.582  1.00  0.00     0.019 A 
HETATM    6  C17 UNL     1      -4.831   3.678   1.301  1.00  0.00     0.024 A 
HETATM    7  C18 UNL     1      -5.371   2.847   0.341  1.00  0.00     0.045 A 
HETATM    8  C19 UNL     1      -6.773   2.978   0.064  1.00  0.00     0.099 C 
HETATM    9  N4  UNL     1      -7.895   3.070  -0.173  1.00  0.00    -0.191 NA
HETATM   10  C20 UNL     1      -4.579   1.931  -0.319  1.00  0.00     0.034 A 
HETATM   11  C21 UNL     1      -3.233   1.822  -0.036  1.00  0.00     0.006 A 
HETATM   12  C22 UNL     1      -2.176   0.934  -0.611  1.00  0.00     0.181 A 
HETATM   13  C23 UNL     1      -1.932   1.444  -2.014  1.00  0.00     0.101 C 
HETATM   14  N5  UNL     1      -1.765   1.823  -3.086  1.00  0.00    -0.194 NA
ENDROOT
BRANCH  12  15
HETATM   15  C24 UNL     1      -2.566  -0.466  -0.702  1.00  0.00    -0.011 A 
HETATM   16  C25 UNL     1      -1.975  -1.321  -1.641  1.00  0.00     0.011 A 
HETATM   17  C26 UNL     1      -2.343  -2.646  -1.757  1.00  0.00     0.001 A 
HETATM   18  C27 UNL     1      -3.319  -3.176  -0.940  1.00  0.00     0.000 A 
HETATM   19  C28 UNL     1      -3.913  -2.352  -0.010  1.00  0.00     0.001 A 
HETATM   20  C29 UNL     1      -3.540  -1.006   0.108  1.00  0.00     0.011 A 
ENDBRANCH  12  15
BRANCH   1  21
HETATM   21  C13 UNL     1       0.368   0.768  -0.057  1.00  0.00     0.168 C 
BRANCH  21  22
HETATM   22  C12 UNL     1       0.677  -0.286   0.895  1.00  0.00    -0.029 A 
HETATM   23  C11 UNL     1      -0.160  -0.735   1.893  1.00  0.00     0.010 A 
HETATM   24  C10 UNL     1       0.227  -1.731   2.782  1.00  0.00     0.002 A 
HETATM   25  C9  UNL     1       1.457  -2.314   2.709  1.00  0.00     0.012 A 
HETATM   26  C8  UNL     1       2.310  -1.884   1.724  1.00  0.00    -0.025 A 
HETATM   27  C7  UNL     1       3.564  -2.450   1.625  1.00  0.00     0.013 A 
HETATM   28  C30 UNL     1       1.935  -0.899   0.842  1.00  0.00    -0.017 A 
HETATM   29  C6  UNL     1       4.450  -2.057   0.668  1.00  0.00     0.014 A 
HETATM   30  C5  UNL     1       4.074  -1.046  -0.244  1.00  0.00    -0.007 A 
HETATM   31  C31 UNL     1       2.829  -0.486  -0.143  1.00  0.00     0.026 A 
BRANCH  30  32
HETATM   32  C4  UNL     1       5.020  -0.664  -1.275  1.00  0.00     0.061 A 
HETATM   33  N1  UNL     1       5.006   0.339  -2.139  1.00  0.00    -0.296 N 
HETATM   34  C1  UNL     1       4.014   1.396  -2.344  1.00  0.00     0.178 C 
HETATM   35  N2  UNL     1       6.122   0.335  -2.902  1.00  0.00    -0.310 N 
HETATM   36  C2  UNL     1       6.872  -0.683  -2.529  1.00  0.00     0.109 A 
ATOM     37  H2  UNL     1       6.345   1.004  -3.639  1.00  0.00     0.186 HD
HETATM   38  C3  UNL     1       6.215  -1.326  -1.517  1.00  0.00     0.050 A 
ENDBRANCH  30  32
ENDBRANCH  21  22
ENDBRANCH   1  21
TORSDOF 4
