REMARK  9 active torsions:
REMARK  status: ('A' for Active; 'I' for Inactive)
REMARK    1  A    between atoms: C3_3  and  C5_5 
REMARK    2  A    between atoms: C5_5  and  C6_6 
REMARK    3  A    between atoms: C6_6  and  C7_7 
REMARK    4  A    between atoms: C7_7  and  N1_8 
REMARK    5  A    between atoms: N2_11  and  C10_12 
REMARK    6  A    between atoms: C10_12  and  C11_13 
REMARK    7  A    between atoms: C11_13  and  C12_14 
REMARK    8  A    between atoms: C12_14  and  N3_15 
REMARK    9  A    between atoms: N3_15  and  C13_17 
ROOT
HETATM    1  C13 UNL     1      -3.705   0.203  -0.122  1.00  0.00     0.068 C 
HETATM    2  C14 UNL     1      -4.288  -0.337   1.041  1.00  0.00     0.001 C 
HETATM    3  C15 UNL     1      -5.498  -0.988   1.192  1.00  0.00     0.089 C 
HETATM    4  N4  UNL     1      -6.355  -1.391   0.197  1.00  0.00    -0.329 N 
ATOM      5  H4  UNL     1      -7.019  -2.128   0.435  1.00  0.00     0.168 HD
HETATM    6  C16 UNL     1      -6.408  -0.916  -1.054  1.00  0.00     0.202 C 
HETATM    7  F1  UNL     1      -7.218  -1.562  -1.897  1.00  0.00    -0.185 F 
HETATM    8  C17 UNL     1      -5.718   0.170  -1.584  1.00  0.00     0.061 A 
HETATM    9  C18 UNL     1      -4.493   0.686  -1.163  1.00  0.00     0.076 A 
HETATM   10  N5  UNL     1      -4.175   1.741  -1.923  1.00  0.00    -0.352 N 
ATOM     11  H5  UNL     1      -3.335   2.313  -1.838  1.00  0.00     0.166 HD
HETATM   12  C19 UNL     1      -5.170   1.911  -2.825  1.00  0.00     0.051 A 
HETATM   13  C20 UNL     1      -5.331   2.852  -3.839  1.00  0.00    -0.013 A 
HETATM   14  C21 UNL     1      -4.305   3.875  -4.047  1.00  0.00     0.052 C 
HETATM   15  C22 UNL     1      -6.449   2.819  -4.640  1.00  0.00     0.042 A 
HETATM   16 CL1  UNL     1      -6.684   3.984  -5.922  1.00  0.00    -0.084 Cl
HETATM   17  C23 UNL     1      -7.389   1.842  -4.414  1.00  0.00     0.025 A 
HETATM   18  C24 UNL     1      -7.254   0.884  -3.404  1.00  0.00     0.016 A 
HETATM   19  C25 UNL     1      -6.136   0.937  -2.622  1.00  0.00     0.008 A 
HETATM   20  C26 UNL     1      -6.285  -1.464   2.318  1.00  0.00     0.176 C 
HETATM   21  O1  UNL     1      -7.494  -1.721   1.993  1.00  0.00    -0.291 OA
HETATM   22  C27 UNL     1      -5.978  -1.711   3.747  1.00  0.00     0.085 C 
HETATM   23  C28 UNL     1      -4.642  -2.418   3.833  1.00  0.00     0.008 C 
HETATM   24  C29 UNL     1      -3.490  -1.452   3.960  1.00  0.00     0.001 C 
HETATM   25  C30 UNL     1      -2.762  -1.244   2.655  1.00  0.00     0.005 C 
HETATM   26  C31 UNL     1      -3.209   0.022   1.955  1.00  0.00     0.043 C 
ENDROOT
BRANCH   1  27
HETATM   27  N3  UNL     1      -2.461   0.245  -0.206  1.00  0.00    -0.367 N 
ATOM     28  H3  UNL     1      -2.025  -0.138   0.633  1.00  0.00     0.165 HD
BRANCH  27  29
HETATM   29  C12 UNL     1      -1.500   0.666  -1.119  1.00  0.00     0.066 C 
BRANCH  29  30
HETATM   30  C11 UNL     1      -0.153  -0.047  -1.071  1.00  0.00     0.089 C 
BRANCH  30  31
HETATM   31  C10 UNL     1       0.451   0.204   0.286  1.00  0.00     0.073 C 
BRANCH  31  32
HETATM   32  N2  UNL     1       1.708  -0.369   0.532  1.00  0.00    -0.351 N 
HETATM   33  C9  UNL     1       2.225  -0.060   1.800  1.00  0.00     0.087 C 
HETATM   34  C8  UNL     1       3.682  -0.407   1.983  1.00  0.00     0.162 C 
HETATM   35  N1  UNL     1       4.392  -0.013   0.816  1.00  0.00    -0.403 N 
HETATM   36  C33 UNL     1       3.966  -0.546  -0.420  1.00  0.00     0.162 C 
HETATM   37  C32 UNL     1       2.501  -0.896  -0.475  1.00  0.00     0.087 C 
BRANCH  35  38
HETATM   38  C7  UNL     1       5.812   0.146   0.971  1.00  0.00     0.118 C 
BRANCH  38  39
HETATM   39  C6  UNL     1       6.551  -1.104   1.236  1.00  0.00     0.023 C 
BRANCH  39  40
HETATM   40  C5  UNL     1       8.019  -0.876   1.341  1.00  0.00     0.035 C 
BRANCH  40  41
HETATM   41  C3  UNL     1       8.743  -0.491   0.139  1.00  0.00    -0.088 C 
HETATM   42  C2  UNL     1       8.196  -0.417  -1.054  1.00  0.00    -0.029 C 
HETATM   43  C1  UNL     1       8.969   0.021  -2.255  1.00  0.00     0.036 C 
HETATM   44  C4  UNL     1      10.216  -0.116   0.268  1.00  0.00     0.043 C 
ENDBRANCH  40  41
ENDBRANCH  39  40
ENDBRANCH  38  39
ENDBRANCH  35  38
ENDBRANCH  31  32
ENDBRANCH  30  31
ENDBRANCH  29  30
ENDBRANCH  27  29
ENDBRANCH   1  27
TORSDOF 9
