REMARK  8 active torsions:
REMARK  status: ('A' for Active; 'I' for Inactive)
REMARK    1  A    between atoms: C1_2  and  C2_3 
REMARK       I    between atoms: C1_2  and  N3_23 
REMARK    2  A    between atoms: C2_3  and  C3_4 
REMARK    3  A    between atoms: C3_4  and  S1_5 
REMARK    4  A    between atoms: S1_5  and  C4_6 
REMARK    5  A    between atoms: C4_6  and  C5_7 
REMARK    6  A    between atoms: C5_7  and  C6_8 
REMARK    7  A    between atoms: C6_8  and  S2_9 
REMARK    8  A    between atoms: S2_9  and  C7_10 
ROOT
HETATM    1  C4  UNL     1       1.512   0.800   0.880  1.00  0.00     0.074 C 
ENDROOT
BRANCH   1   2
HETATM    2  S1  UNL     1       0.385   0.458   2.246  1.00  0.00    -0.169 SA
BRANCH   2   3
HETATM    3  C3  UNL     1      -0.855  -0.755   1.765  1.00  0.00     0.083 C 
BRANCH   3   4
HETATM    4  C2  UNL     1      -1.746  -0.102   0.698  1.00  0.00     0.113 C 
BRANCH   4   5
HETATM    5  C1  UNL     1      -2.791  -1.065   0.271  1.00  0.00     0.220 C 
HETATM    6  O1  UNL     1      -2.858  -2.234   0.720  1.00  0.00    -0.273 OA
HETATM    7  N3  UNL     1      -3.753  -0.655  -0.681  1.00  0.00    -0.348 N 
HETATM    8  C14 UNL     1      -3.739   0.659  -1.239  1.00  0.00     0.130 C 
HETATM    9  C22 UNL     1      -4.812  -1.563  -1.138  1.00  0.00     0.164 C 
HETATM   10  C15 UNL     1      -5.099   1.260  -1.379  1.00  0.00     0.059 C 
HETATM   11  C16 UNL     1      -6.206   0.436  -0.833  1.00  0.00    -0.049 A 
HETATM   12  C17 UNL     1      -7.398   1.045  -0.433  1.00  0.00     0.008 A 
HETATM   13  C21 UNL     1      -6.085  -0.927  -0.716  1.00  0.00    -0.034 A 
HETATM   14  C18 UNL     1      -8.430   0.298   0.067  1.00  0.00     0.001 A 
HETATM   15  C19 UNL     1      -8.322  -1.077   0.190  1.00  0.00     0.001 A 
HETATM   16  C20 UNL     1      -7.131  -1.654  -0.213  1.00  0.00     0.009 A 
ENDBRANCH   4   5
ENDBRANCH   3   4
ENDBRANCH   2   3
ENDBRANCH   1   2
BRANCH   1  17
HETATM   17  C5  UNL     1       2.307  -0.477   0.633  1.00  0.00     0.021 C 
BRANCH  17  18
HETATM   18  C6  UNL     1       3.029  -0.758   1.941  1.00  0.00     0.083 C 
BRANCH  18  19
HETATM   19  S2  UNL     1       4.127   0.614   2.385  1.00  0.00    -0.094 SA
BRANCH  19  20
HETATM   20  C7  UNL     1       5.473   0.690   1.183  1.00  0.00     0.145 A 
HETATM   21  N1  UNL     1       5.528   1.364   0.024  1.00  0.00    -0.335 N 
HETATM   22  C8  UNL     1       6.707   1.170  -0.595  1.00  0.00     0.063 A 
ATOM     23  H1  UNL     1       4.775   1.947  -0.340  1.00  0.00     0.168 HD
HETATM   24  C9  UNL     1       7.303   1.588  -1.761  1.00  0.00     0.051 A 
HETATM   25  C13 UNL     1       7.452   0.316   0.224  1.00  0.00     0.078 A 
HETATM   26  C10 UNL     1       8.575   1.206  -2.140  1.00  0.00     0.014 A 
HETATM   27 BR1  UNL     1       9.326   1.842  -3.784  1.00  0.00    -0.051 Br
HETATM   28  C11 UNL     1       9.295   0.364  -1.321  1.00  0.00     0.040 A 
HETATM   29  C12 UNL     1       8.723  -0.070  -0.149  1.00  0.00     0.041 A 
HETATM   30 BR2  UNL     1       9.696  -1.224   0.986  1.00  0.00    -0.049 Br
HETATM   31  N2  UNL     1       6.662   0.055   1.286  1.00  0.00    -0.334 N 
ATOM     32  H2  UNL     1       6.928  -0.545   2.067  1.00  0.00     0.168 HD
ENDBRANCH  19  20
ENDBRANCH  18  19
ENDBRANCH  17  18
ENDBRANCH   1  17
TORSDOF 8
