REMARK  8 active torsions:
REMARK  status: ('A' for Active; 'I' for Inactive)
REMARK    1  A    between atoms: N1_4  and  C4_5 
REMARK    2  A    between atoms: C7_9  and  C8_10 
REMARK    3  A    between atoms: C10_12  and  C11_13 
REMARK    4  A    between atoms: C11_13  and  C12_14 
REMARK       I    between atoms: N2_22  and  C17_23 
REMARK    5  A    between atoms: C17_23  and  C18_25 
REMARK    6  A    between atoms: N3_28  and  C21_29 
REMARK    7  A    between atoms: C21_29  and  C22_30 
REMARK    8  A    between atoms: C22_30  and  C23_31 
ROOT
HETATM    1  C1  UNL     1       0.841  -1.114  -2.212  1.00  0.00     0.034 C 
HETATM    2  C2  UNL     1       0.981  -0.502  -0.839  1.00  0.00     0.101 C 
HETATM    3  C3  UNL     1       2.337   0.100  -0.688  1.00  0.00     0.148 C 
HETATM    4  N1  UNL     1       3.329  -0.681  -0.027  1.00  0.00    -0.376 N 
HETATM    5  C15 UNL     1       2.999  -1.866   0.716  1.00  0.00     0.143 C 
HETATM    6  C16 UNL     1       1.696  -2.511   0.349  1.00  0.00     0.146 C 
HETATM    7  N2  UNL     1       0.658  -1.465   0.165  1.00  0.00    -0.344 N 
HETATM    8  C17 UNL     1      -0.500  -1.494   0.966  1.00  0.00     0.224 C 
HETATM    9  O3  UNL     1      -0.611  -2.424   1.837  1.00  0.00    -0.273 OA
ENDROOT
BRANCH   8  10
HETATM   10  C18 UNL     1      -1.592  -0.511   0.855  1.00  0.00     0.084 C 
HETATM   11  C19 UNL     1      -2.447  -0.487   2.117  1.00  0.00     0.034 C 
HETATM   12  C20 UNL     1      -3.818   0.106   1.852  1.00  0.00     0.128 C 
HETATM   13  N3  UNL     1      -4.531  -0.809   1.008  1.00  0.00    -0.374 N 
HETATM   14  C29 UNL     1      -3.741  -1.502   0.074  1.00  0.00     0.064 C 
HETATM   15  C30 UNL     1      -2.475  -0.778  -0.347  1.00  0.00     0.059 C 
BRANCH  13  16
HETATM   16  C21 UNL     1      -5.878  -0.566   0.750  1.00  0.00     0.063 C 
BRANCH  16  17
HETATM   17  C22 UNL     1      -6.242   0.619  -0.081  1.00  0.00     0.049 C 
BRANCH  17  18
HETATM   18  C23 UNL     1      -7.750   0.650  -0.219  1.00  0.00    -0.010 C 
HETATM   19  C24 UNL     1      -8.482   0.757   1.077  1.00  0.00     0.005 C 
HETATM   20  C25 UNL     1      -9.927   1.107   0.779  1.00  0.00     0.000 C 
HETATM   21  C26 UNL     1     -10.289   0.673  -0.646  1.00  0.00     0.000 C 
HETATM   22  C27 UNL     1      -9.541   1.504  -1.671  1.00  0.00     0.000 C 
HETATM   23  C28 UNL     1      -8.149   1.805  -1.120  1.00  0.00     0.005 C 
ENDBRANCH  17  18
ENDBRANCH  16  17
ENDBRANCH  13  16
ENDBRANCH   8  10
BRANCH   4  24
HETATM   24  C4  UNL     1       4.704  -0.273  -0.094  1.00  0.00     0.053 A 
HETATM   25  C5  UNL     1       5.344   0.194   1.050  1.00  0.00     0.055 A 
HETATM   26  C6  UNL     1       6.651   0.601   1.028  1.00  0.00     0.043 A 
HETATM   27 CL1  UNL     1       7.418   1.192   2.483  1.00  0.00    -0.084 Cl
HETATM   28  C7  UNL     1       7.409   0.568  -0.142  1.00  0.00    -0.030 A 
HETATM   29  C13 UNL     1       6.755   0.104  -1.251  1.00  0.00     0.035 A 
HETATM   30  C14 UNL     1       5.426  -0.314  -1.249  1.00  0.00     0.061 A 
HETATM   31 CL2  UNL     1       4.696  -0.909  -2.740  1.00  0.00    -0.082 Cl
BRANCH  28  32
HETATM   32  C8  UNL     1       8.801   0.997  -0.195  1.00  0.00     0.025 A 
HETATM   33  C9  UNL     1       9.530   0.799  -1.500  1.00  0.00     0.015 A 
HETATM   34  C10 UNL     1       9.961   0.084  -0.193  1.00  0.00     0.004 A 
BRANCH  34  35
HETATM   35  C11 UNL     1      11.304   0.575   0.297  1.00  0.00     0.118 C 
BRANCH  35  36
HETATM   36  C12 UNL     1      11.292   1.029   1.707  1.00  0.00     0.172 C 
HETATM   37  O1  UNL     1      10.917   0.250   2.618  1.00  0.00    -0.648 OA
HETATM   38  O2  UNL     1      11.689   2.319   2.073  1.00  0.00    -0.648 OA
ENDBRANCH  35  36
ENDBRANCH  34  35
ENDBRANCH  28  32
ENDBRANCH   4  24
TORSDOF 8
