REMARK  13 active torsions:
REMARK  status: ('A' for Active; 'I' for Inactive)
REMARK    1  A    between atoms: N1_2  and  C3_4 
REMARK    2  A    between atoms: C3_4  and  C4_5 
REMARK    3  A    between atoms: C4_5  and  C5_6 
REMARK    4  A    between atoms: C5_6  and  N2_7 
REMARK    5  A    between atoms: N2_7  and  C6_8 
REMARK    6  A    between atoms: C8_12  and  C9_13 
REMARK    7  A    between atoms: C9_13  and  C10_14 
REMARK    8  A    between atoms: C10_14  and  N4_15 
REMARK    9  A    between atoms: N4_15  and  C11_17 
REMARK   10  A    between atoms: C12_20  and  N6_21 
REMARK   11  A    between atoms: N6_21  and  C13_23 
REMARK   12  A    between atoms: C13_23  and  C14_24 
REMARK   13  A    between atoms: C14_24  and  C15_25 
ROOT
HETATM    1  C11 UNL     1       3.431   1.264   0.806  1.00  0.00     0.129 A 
HETATM    2  N5  UNL     1       3.981   0.319   0.028  1.00  0.00    -0.176 N 
ATOM      3  H5  UNL     1       3.375  -0.382  -0.398  1.00  0.00     0.186 HD
HETATM    4  C12 UNL     1       5.325   0.264  -0.213  1.00  0.00     0.680 A 
HETATM    5  N7  UNL     1       6.130   1.177   0.340  1.00  0.00    -0.191 N 
ATOM      6  H7  UNL     1       7.132   1.128   0.154  1.00  0.00     0.184 HD
HETATM    7  C16 UNL     1       5.670   2.144   1.122  1.00  0.00     0.063 A 
HETATM    8  C17 UNL     1       6.544   3.076   1.680  1.00  0.00     0.032 A 
HETATM    9  C18 UNL     1       6.066   4.081   2.492  1.00  0.00     0.021 A 
HETATM   10  C19 UNL     1       4.695   4.141   2.739  1.00  0.00     0.012 A 
HETATM   11 BR1  UNL     1       4.054   5.538   3.863  1.00  0.00    -0.051 Br
HETATM   12  C20 UNL     1       3.850   3.211   2.178  1.00  0.00     0.036 A 
HETATM   13  C21 UNL     1       4.308   2.188   1.356  1.00  0.00     0.037 A 
ENDROOT
BRANCH   1  14
HETATM   14  N4  UNL     1       2.180   1.369   1.069  1.00  0.00    -0.375 N 
ATOM     15  H4  UNL     1       1.892   2.136   1.676  1.00  0.00     0.161 HD
BRANCH  14  16
HETATM   16  C10 UNL     1       1.150   0.493   0.577  1.00  0.00     0.127 C 
BRANCH  16  17
HETATM   17  C9  UNL     1      -0.215   1.161   0.526  1.00  0.00     0.078 C 
BRANCH  17  18
HETATM   18  C8  UNL     1      -1.233   0.209   0.012  1.00  0.00     0.030 A 
HETATM   19  C7  UNL     1      -1.075  -1.094  -0.370  1.00  0.00     0.117 A 
HETATM   20  N3  UNL     1      -2.222  -1.589  -0.773  1.00  0.00    -0.325 N 
HETATM   21  C6  UNL     1      -3.189  -0.613  -0.667  1.00  0.00     0.253 A 
ATOM     22  H3  UNL     1      -2.373  -2.540  -1.109  1.00  0.00     0.169 HD
HETATM   23  N8  UNL     1      -2.520   0.483  -0.175  1.00  0.00    -0.319 N 
ATOM     24  H8  UNL     1      -2.953   1.385   0.020  1.00  0.00     0.170 HD
BRANCH  21  25
HETATM   25  N2  UNL     1      -4.365  -0.681  -0.939  1.00  0.00    -0.416 NA
BRANCH  25  26
HETATM   26  C5  UNL     1      -5.652  -0.354  -1.108  1.00  0.00     0.223 C 
BRANCH  26  27
HETATM   27  C4  UNL     1      -6.567  -1.545  -1.486  1.00  0.00     0.064 C 
BRANCH  27  28
HETATM   28  C3  UNL     1      -7.974  -1.072  -1.631  1.00  0.00     0.274 C 
BRANCH  28  29
HETATM   29  N1  UNL     1      -8.491  -0.483  -0.399  1.00  0.00     0.080 N 
HETATM   30  C1  UNL     1      -8.624  -1.501   0.640  1.00  0.00     0.309 C 
HETATM   31  C2  UNL     1      -9.833   0.061  -0.691  1.00  0.00     0.309 C 
ENDBRANCH  28  29
ENDBRANCH  27  28
ENDBRANCH  26  27
ENDBRANCH  25  26
ENDBRANCH  21  25
ENDBRANCH  17  18
ENDBRANCH  16  17
ENDBRANCH  14  16
ENDBRANCH   1  14
BRANCH   4  32
HETATM   32  N6  UNL     1       5.710  -0.681  -0.968  1.00  0.00    -0.225 N 
ATOM     33  H6  UNL     1       4.975  -1.298  -1.314  1.00  0.00     0.177 HD
BRANCH  32  34
HETATM   34  C13 UNL     1       7.030  -0.994  -1.396  1.00  0.00     0.148 C 
BRANCH  34  35
HETATM   35  C14 UNL     1       7.808  -1.913  -0.511  1.00  0.00     0.133 C 
BRANCH  35  36
HETATM   36  C15 UNL     1       7.195  -3.245  -0.322  1.00  0.00     0.174 C 
HETATM   37  O1  UNL     1       7.802  -4.062   0.405  1.00  0.00    -0.648 OA
HETATM   38  O2  UNL     1       6.001  -3.650  -0.890  1.00  0.00    -0.648 OA
ENDBRANCH  35  36
ENDBRANCH  34  35
ENDBRANCH  32  34
ENDBRANCH   4  32
TORSDOF 13
