REMARK  15 active torsions:
REMARK  status: ('A' for Active; 'I' for Inactive)
REMARK    1  A    between atoms: N1_2  and  C3_4 
REMARK    2  A    between atoms: C3_4  and  N2_6 
REMARK    3  A    between atoms: N2_6  and  C4_8 
REMARK    4  A    between atoms: C5_11  and  N4_12 
REMARK    5  A    between atoms: C8_21  and  C9_22 
REMARK    6  A    between atoms: C9_22  and  C10_23 
REMARK    7  A    between atoms: C10_23  and  N7_24 
REMARK    8  A    between atoms: C10_23  and  C11_28 
REMARK       I    between atoms: C11_28  and  N8_30 
REMARK    9  A    between atoms: N8_30  and  C13_32 
REMARK   10  A    between atoms: C13_32  and  C14_33 
REMARK   11  A    between atoms: C14_33  and  C15_34 
REMARK   12  A    between atoms: C15_34  and  C16_35 
REMARK   13  A    between atoms: C16_35  and  C17_36 
REMARK   14  A    between atoms: C17_36  and  C18_37 
REMARK   15  A    between atoms: C18_37  and  C19_38 
ROOT
HETATM    1  C4  UNL     1      -3.703  -0.331  -1.294  1.00  0.00     0.137 A 
HETATM    2  N3  UNL     1      -4.584   0.209  -2.137  1.00  0.00    -0.176 N 
ATOM      3  H3  UNL     1      -5.564   0.283  -1.864  1.00  0.00     0.186 HD
HETATM    4  C5  UNL     1      -4.193   0.657  -3.342  1.00  0.00     0.679 A 
HETATM    5  N5  UNL     1      -2.912   0.579  -3.740  1.00  0.00    -0.176 N 
ATOM      6  H5  UNL     1      -2.634   0.924  -4.659  1.00  0.00     0.186 HD
HETATM    7  C6  UNL     1      -2.001   0.039  -2.909  1.00  0.00     0.135 A 
HETATM    8  N6  UNL     1      -0.667  -0.174  -3.052  1.00  0.00    -0.351 N 
ATOM      9  H6  UNL     1      -0.106   0.068  -3.869  1.00  0.00     0.166 HD
HETATM   10  C7  UNL     1      -0.219  -0.753  -1.940  1.00  0.00     0.098 A 
HETATM   11  C8  UNL     1      -1.268  -0.935  -1.024  1.00  0.00    -0.022 A 
HETATM   12  C20 UNL     1      -2.370  -0.438  -1.645  1.00  0.00     0.061 A 
ENDROOT
BRANCH  11  13
HETATM   13  C9  UNL     1      -1.121  -1.500   0.293  1.00  0.00     0.083 C 
BRANCH  13  14
HETATM   14  C10 UNL     1      -0.960  -0.516   1.441  1.00  0.00     0.279 C 
BRANCH  14  15
HETATM   15  N7  UNL     1      -0.840  -1.328   2.627  1.00  0.00    -0.066 N 
ATOM     16  H73 UNL     1      -1.609  -1.985   2.754  1.00  0.00     0.275 HD
ATOM     17  H72 UNL     1      -0.096  -2.024   2.575  1.00  0.00     0.275 HD
ATOM     18  H71 UNL     1      -0.732  -0.668   3.397  1.00  0.00     0.275 HD
ENDBRANCH  14  15
BRANCH  14  19
HETATM   19  C11 UNL     1       0.232   0.316   1.293  1.00  0.00     0.250 C 
HETATM   20  O1  UNL     1       0.183   1.210   0.383  1.00  0.00    -0.271 OA
HETATM   21  N8  UNL     1       1.417   0.237   2.043  1.00  0.00    -0.355 N 
HETATM   22  C12 UNL     1       1.688  -0.718   3.104  1.00  0.00     0.152 C 
BRANCH  21  23
HETATM   23  C13 UNL     1       2.501   1.210   1.792  1.00  0.00     0.125 C 
BRANCH  23  24
HETATM   24  C14 UNL     1       3.459   0.750   0.704  1.00  0.00     0.020 C 
BRANCH  24  25
HETATM   25  C15 UNL     1       4.151  -0.517   0.977  1.00  0.00     0.002 C 
BRANCH  25  26
HETATM   26  C16 UNL     1       5.043  -1.137  -0.017  1.00  0.00     0.000 C 
BRANCH  26  27
HETATM   27  C17 UNL     1       6.234  -0.471  -0.562  1.00  0.00     0.001 C 
BRANCH  27  28
HETATM   28  C18 UNL     1       5.982   0.710  -1.408  1.00  0.00     0.011 C 
BRANCH  28  29
HETATM   29  C19 UNL     1       7.331   1.285  -1.944  1.00  0.00     0.085 C 
HETATM   30 BR1  UNL     1       6.974   2.832  -3.047  1.00  0.00    -0.097 Br
ENDBRANCH  28  29
ENDBRANCH  27  28
ENDBRANCH  26  27
ENDBRANCH  25  26
ENDBRANCH  24  25
ENDBRANCH  23  24
ENDBRANCH  21  23
ENDBRANCH  14  19
ENDBRANCH  13  14
ENDBRANCH  11  13
BRANCH   1  31
HETATM   31  N2  UNL     1      -4.053  -0.795  -0.137  1.00  0.00    -0.318 N 
ATOM     32  H2  UNL     1      -3.337  -1.198   0.468  1.00  0.00     0.170 HD
BRANCH  31  33
HETATM   33  C3  UNL     1      -5.394  -0.763   0.320  1.00  0.00     0.174 C 
HETATM   34  S1  UNL     1      -6.405  -1.916  -0.220  1.00  0.00    -0.041 SA
BRANCH  33  35
HETATM   35  N1  UNL     1      -5.894   0.211   1.216  1.00  0.00    -0.367 N 
HETATM   36  C1  UNL     1      -7.266   0.207   1.656  1.00  0.00     0.151 C 
HETATM   37  C2  UNL     1      -5.030   1.276   1.738  1.00  0.00     0.151 C 
ENDBRANCH  33  35
ENDBRANCH  31  33
ENDBRANCH   1  31
BRANCH   4  38
HETATM   38  N4  UNL     1      -5.112   1.173  -4.110  1.00  0.00    -0.234 N 
ATOM     39  H42 UNL     1      -6.084   1.232  -3.808  1.00  0.00     0.174 HD
ATOM     40  H41 UNL     1      -4.815   1.513  -5.025  1.00  0.00     0.174 HD
ENDBRANCH   4  38
TORSDOF 15
