REMARK  11 active torsions:
REMARK  status: ('A' for Active; 'I' for Inactive)
REMARK       I    between atoms: N2_7  and  C5_9 
REMARK       I    between atoms: C5_9  and  N7_22 
REMARK    1  A    between atoms: N3_10  and  C6_12 
REMARK    2  A    between atoms: C6_12  and  C7_13 
REMARK    3  A    between atoms: C7_13  and  C8_14 
REMARK    4  A    between atoms: C8_14  and  N4_15 
REMARK       I    between atoms: N4_15  and  C9_17 
REMARK    5  A    between atoms: N7_22  and  C10_24 
REMARK    6  A    between atoms: C10_24  and  C11_25 
REMARK    7  A    between atoms: C11_25  and  C12_26 
REMARK    8  A    between atoms: C12_26  and  C13_27 
REMARK    9  A    between atoms: C13_27  and  O1_28 
REMARK   10  A    between atoms: O1_28  and  C14_29 
REMARK   11  A    between atoms: C14_29  and  N8_30 
ROOT
HETATM    1  C1  UNL     1      -4.240   5.917  -0.231  1.00  0.00     0.051 C 
HETATM    2  C2  UNL     1      -3.832   4.526   0.087  1.00  0.00    -0.029 A 
HETATM    3  C3  UNL     1      -4.431   3.889   1.157  1.00  0.00     0.097 A 
HETATM    4  N1  UNL     1      -4.087   2.628   1.476  1.00  0.00    -0.351 N 
ATOM      5  H1  UNL     1      -4.537   2.169   2.268  1.00  0.00     0.166 HD
HETATM    6  C4  UNL     1      -3.155   1.963   0.762  1.00  0.00     0.122 A 
HETATM    7  N2  UNL     1      -2.873   0.761   1.117  1.00  0.00    -0.177 N 
ATOM      8  H2  UNL     1      -3.363   0.363   1.918  1.00  0.00     0.185 HD
HETATM    9  C5  UNL     1      -1.912  -0.040   0.447  1.00  0.00     0.675 C 
HETATM   10  N3  UNL     1      -2.165  -0.659  -0.651  1.00  0.00    -0.226 N 
ATOM     11  H3  UNL     1      -1.428  -1.219  -1.080  1.00  0.00     0.177 HD
HETATM   12  N7  UNL     1      -0.603  -0.176   1.016  1.00  0.00    -0.226 N 
ATOM     13  H7  UNL     1      -0.236  -1.105   1.222  1.00  0.00     0.177 HD
HETATM   14  C20 UNL     1      -2.540   2.564  -0.306  1.00  0.00     0.068 A 
HETATM   15  C21 UNL     1      -2.877   3.849  -0.647  1.00  0.00     0.021 A 
HETATM   16 BR1  UNL     1      -2.065   4.746  -2.118  1.00  0.00    -0.050 Br
ENDROOT
BRANCH  10  17
HETATM   17  C6  UNL     1      -3.441  -0.592  -1.293  1.00  0.00     0.139 C 
BRANCH  17  18
HETATM   18  C7  UNL     1      -4.030  -1.994  -1.513  1.00  0.00     0.040 C 
BRANCH  18  19
HETATM   19  C8  UNL     1      -4.167  -2.602  -0.156  1.00  0.00     0.123 C 
BRANCH  19  20
HETATM   20  N4  UNL     1      -4.702  -3.923  -0.118  1.00  0.00    -0.365 N 
HETATM   21  C9  UNL     1      -6.040  -4.211  -0.455  1.00  0.00     0.181 C 
HETATM   22  N5  UNL     1      -6.942  -3.326  -0.686  1.00  0.00    -0.374 N 
HETATM   23  N6  UNL     1      -6.484  -5.581  -0.559  1.00  0.00    -0.064 NA
ATOM     24  H52 UNL     1      -6.628  -2.358  -0.613  1.00  0.00     0.158 HD
ATOM     25  H51 UNL     1      -7.910  -3.534  -0.930  1.00  0.00     0.158 HD
ATOM     26  H4  UNL     1      -4.092  -4.690   0.164  1.00  0.00     0.162 HD
ENDBRANCH  19  20
ENDBRANCH  18  19
ENDBRANCH  17  18
ENDBRANCH  10  17
BRANCH  12  27
HETATM   27  C10 UNL     1       0.201   0.989   1.301  1.00  0.00     0.138 C 
BRANCH  27  28
HETATM   28  C11 UNL     1       1.528   0.547   1.878  1.00  0.00     0.022 C 
BRANCH  28  29
HETATM   29  C12 UNL     1       2.239  -0.329   0.847  1.00  0.00     0.028 C 
BRANCH  29  30
HETATM   30  C13 UNL     1       3.544  -0.748   1.464  1.00  0.00     0.176 C 
BRANCH  30  31
HETATM   31  O1  UNL     1       4.402   0.236   1.807  1.00  0.00    -0.346 OA
BRANCH  31  32
HETATM   32  C14 UNL     1       4.962   1.023   0.846  1.00  0.00     0.231 C 
BRANCH  32  33
HETATM   33  N8  UNL     1       5.809   0.352  -0.093  1.00  0.00    -0.309 N 
HETATM   34  C15 UNL     1       7.222   0.206   0.268  1.00  0.00     0.133 C 
HETATM   35  C16 UNL     1       7.785  -1.071  -0.314  1.00  0.00     0.021 C 
HETATM   36  C17 UNL     1       7.388  -1.319  -1.728  1.00  0.00     0.011 C 
HETATM   37  C18 UNL     1       5.883  -1.451  -1.810  1.00  0.00     0.103 C 
HETATM   38  C19 UNL     1       5.311  -0.160  -1.302  1.00  0.00     0.225 C 
HETATM   39  O2  UNL     1       4.416   0.438  -1.945  1.00  0.00    -0.273 OA
ENDBRANCH  32  33
ENDBRANCH  31  32
ENDBRANCH  30  31
ENDBRANCH  29  30
ENDBRANCH  28  29
ENDBRANCH  27  28
ENDBRANCH  12  27
TORSDOF 11
