REMARK  11 active torsions:
REMARK  status: ('A' for Active; 'I' for Inactive)
REMARK    1  A    between atoms: C2_2  and  C3_3 
REMARK    2  A    between atoms: C3_3  and  C5_5 
REMARK    3  A    between atoms: C6_8  and  O1_9 
REMARK    4  A    between atoms: C7_11  and  C8_12 
REMARK    5  A    between atoms: C8_12  and  C9_13 
REMARK    6  A    between atoms: C13_20  and  C14_21 
REMARK    7  A    between atoms: C14_21  and  C15_22 
REMARK    8  A    between atoms: C15_22  and  N3_23 
REMARK    9  A    between atoms: C16_25  and  C17_26 
REMARK   10  A    between atoms: C17_26  and  C18_27 
REMARK   11  A    between atoms: C23_33  and  C24_34 
ROOT
HETATM    1  C5  UNL     1      -2.935  -0.748  -0.208  1.00  0.00     0.083 C 
HETATM    2  N1  UNL     1      -3.073   0.622   0.271  1.00  0.00    -0.337 N 
ATOM      3  H1  UNL     1      -3.963   1.054   0.024  1.00  0.00     0.167 HD
HETATM    4  C6  UNL     1      -2.240   1.448   0.991  1.00  0.00     0.139 C 
HETATM    5  C7  UNL     1      -0.948   2.107   0.676  1.00  0.00     0.159 C 
HETATM    6  N2  UNL     1      -0.593   2.065  -0.713  1.00  0.00    -0.349 N 
ATOM      7  H2  UNL     1      -1.288   2.422  -1.369  1.00  0.00     0.163 HD
HETATM    8  C12 UNL     1       0.607   1.587  -1.274  1.00  0.00     0.222 C 
HETATM    9  O2  UNL     1       1.000   2.003  -2.413  1.00  0.00    -0.273 OA
HETATM   10  C13 UNL     1       1.503   0.594  -0.627  1.00  0.00     0.084 C 
HETATM   11  C19 UNL     1       1.332  -0.682  -1.433  1.00  0.00     0.039 C 
HETATM   12  C20 UNL     1       0.278  -1.541  -0.776  1.00  0.00     0.089 C 
HETATM   13  C21 UNL     1       0.794  -2.943  -0.643  1.00  0.00     0.028 C 
HETATM   14  C22 UNL     1       0.212  -3.732  -1.786  1.00  0.00     0.037 C 
HETATM   15  C23 UNL     1      -0.473  -2.632  -2.598  1.00  0.00     0.177 C 
HETATM   16  N5  UNL     1      -0.933  -1.667  -1.631  1.00  0.00    -0.329 N 
HETATM   17  C25 UNL     1      -2.105  -0.921  -1.384  1.00  0.00     0.267 C 
HETATM   18  O4  UNL     1      -2.526  -0.255  -2.414  1.00  0.00    -0.266 OA
ENDROOT
BRANCH  10  19
HETATM   19  C14 UNL     1       2.872   1.175  -0.667  1.00  0.00     0.058 C 
BRANCH  19  20
HETATM   20  C15 UNL     1       3.926   0.278  -0.022  1.00  0.00     0.061 C 
BRANCH  20  21
HETATM   21  N3  UNL     1       5.140   0.933  -0.110  1.00  0.00    -0.382 N 
HETATM   22  C16 UNL     1       6.356   0.512   0.345  1.00  0.00     0.061 C 
ATOM     23  H3  UNL     1       5.125   1.842  -0.572  1.00  0.00     0.163 HD
BRANCH  22  24
HETATM   24  C17 UNL     1       6.731   0.407   1.757  1.00  0.00     0.059 C 
BRANCH  24  25
HETATM   25  C18 UNL     1       5.914  -0.538   2.595  1.00  0.00     0.119 C 
HETATM   26 CL1  UNL     1       5.990  -2.204   1.945  1.00  0.00    -0.130 Cl
ENDBRANCH  24  25
ENDBRANCH  22  24
ENDBRANCH  20  21
ENDBRANCH  19  20
ENDBRANCH  10  19
BRANCH   5  27
HETATM   27  C8  UNL     1      -0.778   3.473   1.268  1.00  0.00     0.037 C 
BRANCH  27  28
HETATM   28  C9  UNL     1      -1.649   4.574   0.943  1.00  0.00    -0.020 C 
HETATM   29  C10 UNL     1      -3.095   4.570   1.187  1.00  0.00     0.009 C 
HETATM   30  C11 UNL     1      -1.434   5.036  -0.515  1.00  0.00     0.009 C 
ENDBRANCH  27  28
ENDBRANCH   5  27
BRANCH   4  31
HETATM   31  O1  UNL     1      -2.576   1.772   2.208  1.00  0.00    -0.348 OA
ATOM     32  H1  UNL     1      -2.001   2.342   2.705  1.00  0.00     0.219 HD
ENDBRANCH   4  31
BRANCH  15  33
HETATM   33  C24 UNL     1      -1.385  -3.157  -3.574  1.00  0.00     0.254 C 
HETATM   34  N4  UNL     1      -2.755  -2.860  -3.642  1.00  0.00    -0.060 NA
HETATM   35  O3  UNL     1      -0.959  -3.966  -4.472  1.00  0.00    -0.275 OA
ENDBRANCH  15  33
BRANCH   1  36
HETATM   36  C3  UNL     1      -2.793  -1.734   0.919  1.00  0.00     0.037 C 
HETATM   37  C4  UNL     1      -2.875  -3.143   0.455  1.00  0.00     0.016 C 
BRANCH  36  38
HETATM   38  C2  UNL     1      -4.087  -1.548   1.757  1.00  0.00     0.006 C 
HETATM   39  C1  UNL     1      -4.033  -2.535   2.873  1.00  0.00     0.006 C 
ENDBRANCH  36  38
ENDBRANCH   1  36
TORSDOF 11
