REMARK  11 active torsions:
REMARK  status: ('A' for Active; 'I' for Inactive)
REMARK    1  A    between atoms: C2_2  and  C3_3 
REMARK    2  A    between atoms: C6_6  and  S1_7 
REMARK    3  A    between atoms: S1_7  and  N1_10 
REMARK    4  A    between atoms: N1_10  and  C7_12 
REMARK    5  A    between atoms: C7_12  and  C8_13 
REMARK    6  A    between atoms: C15_20  and  C16_21 
REMARK    7  A    between atoms: C16_21  and  N2_22 
REMARK    8  A    between atoms: N2_22  and  C17_23 
REMARK       I    between atoms: N2_22  and  C21_31 
REMARK    9  A    between atoms: C17_23  and  C18_24 
REMARK   10  A    between atoms: C18_24  and  C19_25 
REMARK   11  A    between atoms: C19_25  and  N3_26 
ROOT
HETATM    1  C8  UNL     1      -1.780  -1.429   0.709  1.00  0.00    -0.000 A 
HETATM    2  C9  UNL     1      -2.320  -1.807   1.906  1.00  0.00     0.013 A 
HETATM    3  C10 UNL     1      -1.473  -2.098   2.928  1.00  0.00     0.013 A 
HETATM    4  C11 UNL     1      -0.080  -2.023   2.811  1.00  0.00    -0.022 A 
HETATM    5  C12 UNL     1       0.714  -2.296   3.897  1.00  0.00     0.012 A 
HETATM    6  C13 UNL     1       2.066  -2.172   3.761  1.00  0.00     0.002 A 
HETATM    7  C14 UNL     1       2.599  -1.784   2.559  1.00  0.00     0.010 A 
HETATM    8  C15 UNL     1       1.838  -1.505   1.452  1.00  0.00    -0.026 A 
HETATM    9  C22 UNL     1       0.434  -1.628   1.565  1.00  0.00     0.021 A 
HETATM   10  C23 UNL     1      -0.403  -1.338   0.527  1.00  0.00     0.136 A 
HETATM   11  F1  UNL     1       0.083  -0.982  -0.674  1.00  0.00    -0.205 F 
ENDROOT
BRANCH   8  12
HETATM   12  C16 UNL     1       2.386  -1.106   0.172  1.00  0.00     0.165 C 
BRANCH  12  13
HETATM   13  N2  UNL     1       3.863  -0.935   0.316  1.00  0.00    -0.352 N 
HETATM   14  C21 UNL     1       4.751  -1.914  -0.185  1.00  0.00     0.184 C 
HETATM   15  N6  UNL     1       5.564  -2.620   0.481  1.00  0.00    -0.374 N 
HETATM   16  N7  UNL     1       4.689  -2.117  -1.610  1.00  0.00    -0.064 NA
ATOM     17  H62 UNL     1       5.608  -2.476   1.490  1.00  0.00     0.158 HD
ATOM     18  H61 UNL     1       6.205  -3.326   0.119  1.00  0.00     0.158 HD
BRANCH  13  19
HETATM   19  C17 UNL     1       4.363   0.245   0.948  1.00  0.00     0.127 C 
BRANCH  19  20
HETATM   20  C18 UNL     1       5.809   0.493   1.038  1.00  0.00     0.039 C 
BRANCH  20  21
HETATM   21  C19 UNL     1       6.579   0.628  -0.232  1.00  0.00     0.123 C 
BRANCH  21  22
HETATM   22  N3  UNL     1       5.998   1.676  -1.070  1.00  0.00    -0.367 N 
HETATM   23  C20 UNL     1       6.617   2.724  -1.445  1.00  0.00     0.196 C 
HETATM   24  N4  UNL     1       6.036   3.714  -2.246  1.00  0.00    -0.067 NA
HETATM   25  N5  UNL     1       7.974   2.921  -1.038  1.00  0.00    -0.067 NA
ATOM     26  H3  UNL     1       5.032   1.560  -1.375  1.00  0.00     0.161 HD
ENDBRANCH  21  22
ENDBRANCH  20  21
ENDBRANCH  19  20
ENDBRANCH  13  19
ENDBRANCH  12  13
ENDBRANCH   8  12
BRANCH   1  27
HETATM   27  C7  UNL     1      -2.641  -1.118  -0.475  1.00  0.00     0.174 C 
BRANCH  27  28
HETATM   28  N1  UNL     1      -2.231   0.208  -0.945  1.00  0.00    -0.311 N 
ATOM     29  H1  UNL     1      -1.484   0.777  -0.547  1.00  0.00     0.172 HD
BRANCH  28  30
HETATM   30  S1  UNL     1      -3.229   0.643  -2.288  1.00  0.00     0.259 S 
HETATM   31  O1  UNL     1      -3.187  -0.494  -3.275  1.00  0.00    -0.201 OA
HETATM   32  O2  UNL     1      -2.806   1.923  -2.912  1.00  0.00    -0.201 OA
BRANCH  30  33
HETATM   33  C6  UNL     1      -4.871   0.755  -1.636  1.00  0.00     0.079 A 
HETATM   34  C5  UNL     1      -5.711  -0.319  -1.597  1.00  0.00     0.026 A 
HETATM   35  C4  UNL     1      -6.985  -0.135  -1.053  1.00  0.00     0.009 A 
HETATM   36  C3  UNL     1      -7.398   1.080  -0.568  1.00  0.00    -0.058 A 
HETATM   37  C25 UNL     1      -6.523   2.160  -0.619  1.00  0.00     0.009 A 
HETATM   38  C24 UNL     1      -5.270   1.995  -1.149  1.00  0.00     0.026 A 
BRANCH  36  39
HETATM   39  C2  UNL     1      -8.762   1.195  -0.003  1.00  0.00     0.034 C 
HETATM   40  C1  UNL     1      -9.808   1.543  -1.015  1.00  0.00     0.010 C 
ENDBRANCH  36  39
ENDBRANCH  30  33
ENDBRANCH  28  30
ENDBRANCH  27  28
ENDBRANCH   1  27
TORSDOF 11
