REMARK  13 active torsions:
REMARK  status: ('A' for Active; 'I' for Inactive)
REMARK    1  A    between atoms: C7_7  and  C8_8 
REMARK    2  A    between atoms: C8_8  and  C9_9 
REMARK    3  A    between atoms: C9_9  and  N1_10 
REMARK    4  A    between atoms: N1_10  and  S1_12 
REMARK    5  A    between atoms: S1_12  and  N2_15 
REMARK    6  A    between atoms: N2_15  and  C11_17 
REMARK    7  A    between atoms: C11_17  and  C12_19 
REMARK       I    between atoms: N3_20  and  C13_22 
REMARK    8  A    between atoms: C13_22  and  C14_24 
REMARK    9  A    between atoms: C14_24  and  N4_25 
REMARK   10  A    between atoms: C14_24  and  C15_29 
REMARK   11  A    between atoms: C15_29  and  C16_30 
REMARK   12  A    between atoms: C16_30  and  C17_31 
REMARK   13  A    between atoms: C17_31  and  N5_32 
REMARK       I    between atoms: N5_32  and  C18_34 
ROOT
HETATM    1  N2  UNL     1       0.925   0.316  -0.121  1.00  0.00    -0.276 N 
HETATM    2  C10 UNL     1       1.936   0.975  -0.833  1.00  0.00     0.166 C 
ENDROOT
BRANCH   1   3
HETATM    3  S1  UNL     1      -0.230  -0.475  -1.009  1.00  0.00     0.318 S 
HETATM    4  O1  UNL     1      -0.559  -1.792  -0.299  1.00  0.00    -0.183 OA
HETATM    5  O2  UNL     1       0.352  -0.828  -2.376  1.00  0.00    -0.183 OA
BRANCH   3   6
HETATM    6  N1  UNL     1      -1.725   0.397  -1.258  1.00  0.00    -0.302 N 
ATOM      7  H1  UNL     1      -1.829   1.239  -1.824  1.00  0.00     0.173 HD
BRANCH   6   8
HETATM    8  C9  UNL     1      -2.772  -0.250  -0.550  1.00  0.00     0.148 C 
BRANCH   8   9
HETATM    9  C8  UNL     1      -4.157   0.318  -0.612  1.00  0.00     0.004 C 
HETATM   10  C19 UNL     1      -4.346   1.666  -0.026  1.00  0.00     0.016 C 
HETATM   11  C20 UNL     1      -4.113   2.825  -0.965  1.00  0.00     0.001 C 
HETATM   12  C21 UNL     1      -5.421   3.359  -1.526  1.00  0.00     0.000 C 
HETATM   13  C22 UNL     1      -5.749   2.481  -2.714  1.00  0.00     0.000 C 
HETATM   14  C23 UNL     1      -5.961   1.068  -2.182  1.00  0.00     0.001 C 
HETATM   15  C24 UNL     1      -4.678   0.324  -2.032  1.00  0.00     0.016 C 
BRANCH   9  16
HETATM   16  C7  UNL     1      -4.952  -0.653   0.233  1.00  0.00    -0.047 A 
HETATM   17  C6  UNL     1      -5.104  -1.961  -0.173  1.00  0.00     0.014 A 
HETATM   18  C4  UNL     1      -5.789  -2.886   0.577  1.00  0.00    -0.061 A 
HETATM   19  C3  UNL     1      -6.337  -2.471   1.772  1.00  0.00     0.013 A 
HETATM   20  C5  UNL     1      -5.906  -4.305   0.093  1.00  0.00     0.048 C 
HETATM   21  C2  UNL     1      -6.210  -1.175   2.214  1.00  0.00    -0.061 A 
HETATM   22  C1  UNL     1      -6.804  -0.737   3.499  1.00  0.00     0.048 C 
HETATM   23  C25 UNL     1      -5.499  -0.260   1.417  1.00  0.00     0.014 A 
ENDBRANCH   9  16
ENDBRANCH   8   9
ENDBRANCH   6   8
ENDBRANCH   3   6
ENDBRANCH   1   3
BRANCH   1  24
HETATM   24  C11 UNL     1       1.136   0.024   1.209  1.00  0.00     0.232 C 
HETATM   25 CL1  UNL     1       0.997   1.441   2.293  1.00  0.00    -0.096 Cl
BRANCH  24  26
HETATM   26  C12 UNL     1       2.542  -0.487   1.438  1.00  0.00     0.105 C 
HETATM   27  N3  UNL     1       3.450   0.374   1.515  1.00  0.00    -0.336 N 
HETATM   28  C13 UNL     1       4.816   0.299   1.713  1.00  0.00     0.252 C 
ATOM     29  H3  UNL     1       3.110   1.330   1.409  1.00  0.00     0.168 HD
HETATM   30  O3  UNL     1       5.332   1.258   2.394  1.00  0.00    -0.271 OA
BRANCH  28  31
HETATM   31  C14 UNL     1       5.745  -0.737   1.242  1.00  0.00     0.275 C 
BRANCH  31  32
HETATM   32  N4  UNL     1       5.037  -1.941   0.792  1.00  0.00    -0.066 N 
ATOM     33  H43 UNL     1       4.417  -2.300   1.518  1.00  0.00     0.275 HD
ATOM     34  H42 UNL     1       4.339  -1.718   0.082  1.00  0.00     0.275 HD
ATOM     35  H41 UNL     1       5.682  -2.660   0.465  1.00  0.00     0.275 HD
ENDBRANCH  31  32
BRANCH  31  36
HETATM   36  C15 UNL     1       6.604  -0.310   0.072  1.00  0.00     0.044 C 
BRANCH  36  37
HETATM   37  C16 UNL     1       7.477   0.873   0.372  1.00  0.00     0.022 C 
BRANCH  37  38
HETATM   38  C17 UNL     1       8.305   1.258  -0.848  1.00  0.00     0.122 C 
BRANCH  38  39
HETATM   39  N5  UNL     1       9.172   0.188  -1.284  1.00  0.00    -0.365 N 
HETATM   40  C18 UNL     1      10.309  -0.274  -0.585  1.00  0.00     0.181 C 
HETATM   41  N6  UNL     1      10.247  -1.032   0.435  1.00  0.00    -0.374 N 
HETATM   42  N7  UNL     1      11.603   0.140  -1.060  1.00  0.00    -0.064 NA
ATOM     43  H62 UNL     1       9.330  -1.325   0.772  1.00  0.00     0.158 HD
ATOM     44  H61 UNL     1      11.068  -1.366   0.940  1.00  0.00     0.158 HD
ATOM     45  H5  UNL     1       8.945  -0.270  -2.167  1.00  0.00     0.162 HD
ENDBRANCH  38  39
ENDBRANCH  37  38
ENDBRANCH  36  37
ENDBRANCH  31  36
ENDBRANCH  28  31
ENDBRANCH  24  26
ENDBRANCH   1  24
TORSDOF 13
