REMARK  15 active torsions:
REMARK  status: ('A' for Active; 'I' for Inactive)
REMARK    1  A    between atoms: C3_5  and  N2_6 
REMARK    2  A    between atoms: C4_11  and  C5_12 
REMARK    3  A    between atoms: C5_12  and  C6_13 
REMARK    4  A    between atoms: C6_13  and  C7_14 
REMARK       I    between atoms: C7_14  and  N4_16 
REMARK    5  A    between atoms: N4_16  and  C8_18 
REMARK    6  A    between atoms: C8_18  and  C10_20 
REMARK    7  A    between atoms: C10_20  and  C11_21 
REMARK    8  A    between atoms: C11_21  and  C12_22 
REMARK    9  A    between atoms: C12_22  and  N5_23 
REMARK   10  A    between atoms: C16_27  and  C17_28 
REMARK   11  A    between atoms: C17_28  and  O2_29 
REMARK   12  A    between atoms: C17_28  and  N6_31 
REMARK   13  A    between atoms: C21_35  and  C22_36 
REMARK   14  A    between atoms: C22_36  and  C23_37 
REMARK   15  A    between atoms: C29_44  and  N7_45 
ROOT
HETATM    1  N5  UNL     1      -0.820  -0.589  -2.151  1.00  0.00     0.101 N 
HETATM    2  C13 UNL     1       0.323  -1.393  -2.359  1.00  0.00     0.273 C 
HETATM    3  C14 UNL     1      -0.077  -2.674  -3.072  1.00  0.00     0.033 C 
HETATM    4  C15 UNL     1      -1.560  -2.620  -3.122  1.00  0.00     0.046 C 
HETATM    5  C16 UNL     1      -1.992  -1.291  -2.499  1.00  0.00     0.296 C 
ENDROOT
BRANCH   1   6
HETATM    6  C12 UNL     1      -0.763   0.753  -2.584  1.00  0.00     0.273 C 
BRANCH   6   7
HETATM    7  C11 UNL     1       0.055   1.705  -1.808  1.00  0.00     0.032 C 
BRANCH   7   8
HETATM    8  C10 UNL     1       1.494   1.342  -1.706  1.00  0.00     0.026 C 
BRANCH   8   9
HETATM    9  C8  UNL     1       2.211   2.451  -0.891  1.00  0.00     0.080 C 
HETATM   10  C9  UNL     1       2.067   3.757  -1.612  1.00  0.00     0.032 C 
BRANCH   9  11
HETATM   11  N4  UNL     1       3.600   2.064  -0.785  1.00  0.00    -0.357 N 
HETATM   12  C7  UNL     1       4.065   1.593   0.464  1.00  0.00     0.218 C 
HETATM   13  O1  UNL     1       3.291   1.512   1.475  1.00  0.00    -0.274 OA
ATOM     14  H4  UNL     1       4.226   2.129  -1.588  1.00  0.00     0.162 HD
BRANCH  12  15
HETATM   15  C6  UNL     1       5.466   1.174   0.635  1.00  0.00     0.109 C 
BRANCH  15  16
HETATM   16  C5  UNL     1       5.677   0.561   2.017  1.00  0.00     0.069 C 
BRANCH  16  17
HETATM   17  C4  UNL     1       7.092   0.150   2.093  1.00  0.00     0.049 A 
HETATM   18  C2  UNL     1       8.211   0.923   2.279  1.00  0.00     0.045 A 
HETATM   19  C1  UNL     1       8.183   2.417   2.451  1.00  0.00     0.071 C 
HETATM   20  N1  UNL     1       9.308   0.149   2.281  1.00  0.00    -0.194 N 
HETATM   21  C3  UNL     1       8.893  -1.117   2.098  1.00  0.00     0.676 A 
ATOM     22  H1  UNL     1      10.272   0.461   2.399  1.00  0.00     0.184 HD
HETATM   23  N3  UNL     1       7.561  -1.129   1.984  1.00  0.00    -0.194 N 
ATOM     24  H3  UNL     1       6.987  -1.960   1.839  1.00  0.00     0.184 HD
BRANCH  21  25
HETATM   25  N2  UNL     1       9.637  -2.166   2.039  1.00  0.00    -0.234 N 
ATOM     26  H22 UNL     1      10.653  -2.157   2.126  1.00  0.00     0.174 HD
ATOM     27  H21 UNL     1       9.322  -3.126   1.900  1.00  0.00     0.174 HD
ENDBRANCH  21  25
ENDBRANCH  16  17
ENDBRANCH  15  16
ENDBRANCH  12  15
ENDBRANCH   9  11
ENDBRANCH   8   9
ENDBRANCH   7   8
ENDBRANCH   6   7
ENDBRANCH   1   6
BRANCH   5  28
HETATM   28  C17 UNL     1      -2.960  -1.606  -1.454  1.00  0.00     0.149 C 
BRANCH  28  29
HETATM   29  O2  UNL     1      -3.991  -2.289  -1.895  1.00  0.00    -0.348 OA
ATOM     30  H2  UNL     1      -4.621  -2.494  -1.215  1.00  0.00     0.219 HD
ENDBRANCH  28  29
BRANCH  28  31
HETATM   31  N6  UNL     1      -3.017  -1.329  -0.082  1.00  0.00    -0.336 N 
HETATM   32  C18 UNL     1      -1.936  -0.625   0.560  1.00  0.00     0.127 C 
HETATM   33  C19 UNL     1      -2.092  -0.701   2.084  1.00  0.00     0.020 C 
HETATM   34  C20 UNL     1      -3.432  -0.188   2.484  1.00  0.00     0.010 C 
HETATM   35  C21 UNL     1      -4.597  -0.754   1.719  1.00  0.00     0.040 C 
HETATM   36  C29 UNL     1      -4.159  -1.751   0.720  1.00  0.00     0.289 C 
BRANCH  35  37
HETATM   37  C22 UNL     1      -5.357   0.426   1.172  1.00  0.00     0.047 C 
BRANCH  37  38
HETATM   38  C23 UNL     1      -6.552   0.140   0.409  1.00  0.00    -0.056 A 
HETATM   39  C24 UNL     1      -6.535  -0.000  -0.947  1.00  0.00     0.007 A 
HETATM   40  C25 UNL     1      -7.685  -0.271  -1.640  1.00  0.00     0.002 A 
HETATM   41  C26 UNL     1      -8.876  -0.403  -0.964  1.00  0.00     0.024 A 
HETATM   42  C27 UNL     1      -8.954  -0.270   0.417  1.00  0.00     0.034 A 
HETATM   43 CL1  UNL     1     -10.483  -0.443   1.251  1.00  0.00    -0.084 Cl
HETATM   44  C28 UNL     1      -7.766   0.001   1.060  1.00  0.00     0.031 A 
ENDBRANCH  37  38
ENDBRANCH  35  37
BRANCH  36  45
HETATM   45  N7  UNL     1      -3.737  -3.015   1.354  1.00  0.00    -0.058 N 
ATOM     46  H73 UNL     1      -3.414  -3.721   0.692  1.00  0.00     0.276 HD
ATOM     47  H72 UNL     1      -2.867  -2.942   1.881  1.00  0.00     0.276 HD
ATOM     48  H71 UNL     1      -4.536  -3.310   1.915  1.00  0.00     0.276 HD
ENDBRANCH  36  45
ENDBRANCH  28  31
ENDBRANCH   5  28
TORSDOF 15
