REMARK  15 active torsions:
REMARK  status: ('A' for Active; 'I' for Inactive)
REMARK       I    between atoms: C2_2  and  N1_4 
REMARK    1  A    between atoms: N1_4  and  C3_6 
REMARK    2  A    between atoms: C3_6  and  C4_7 
REMARK    3  A    between atoms: C5_8  and  C6_9 
REMARK    4  A    between atoms: C6_9  and  C7_10 
REMARK    5  A    between atoms: C6_9  and  C15_28 
REMARK    6  A    between atoms: C7_10  and  O2_11 
REMARK    7  A    between atoms: C7_10  and  N2_13 
REMARK    8  A    between atoms: N2_13  and  C8_15 
REMARK    9  A    between atoms: C8_15  and  C10_17 
REMARK   10  A    between atoms: C10_17  and  C11_18 
REMARK   11  A    between atoms: C11_18  and  C13_20 
REMARK   12  A    between atoms: C13_20  and  N3_21 
REMARK   13  A    between atoms: C13_20  and  C14_25 
REMARK   14  A    between atoms: N4_37  and  C23_38 
REMARK   15  A    between atoms: C23_38  and  C24_39 
ROOT
HETATM    1  C6  UNL     1      -1.138  -1.573  -0.300  1.00  0.00    -0.019 C 
ENDROOT
BRANCH   1   2
HETATM    2  C5  UNL     1      -2.275  -1.027   0.460  1.00  0.00     0.056 C 
HETATM    3  C4  UNL     1      -2.438   0.471   0.479  1.00  0.00     0.248 C 
HETATM    4  N4  UNL     1      -2.275   0.937   1.836  1.00  0.00     0.095 N 
HETATM    5  C22 UNL     1      -1.778  -0.164   2.587  1.00  0.00     0.273 C 
HETATM    6  C21 UNL     1      -2.366  -1.363   1.913  1.00  0.00     0.041 C 
BRANCH   3   7
HETATM    7  C3  UNL     1      -3.883   0.851   0.115  1.00  0.00     0.159 C 
BRANCH   7   8
HETATM    8  N1  UNL     1      -4.289   0.397  -1.173  1.00  0.00    -0.359 N 
HETATM    9  C2  UNL     1      -3.642   0.817  -2.344  1.00  0.00     0.213 C 
HETATM   10  C1  UNL     1      -4.115   0.302  -3.664  1.00  0.00     0.117 C 
HETATM   11  O1  UNL     1      -2.677   1.609  -2.338  1.00  0.00    -0.274 OA
ATOM     12  H1  UNL     1      -5.073  -0.252  -1.245  1.00  0.00     0.162 HD
ENDBRANCH   7   8
ENDBRANCH   3   7
BRANCH   4  13
HETATM   13  C23 UNL     1      -1.557   2.164   1.958  1.00  0.00     0.277 C 
BRANCH  13  14
HETATM   14  C24 UNL     1      -1.410   2.509   3.425  1.00  0.00     0.014 A 
HETATM   15  C25 UNL     1      -0.685   3.736   3.850  1.00  0.00     0.007 A 
HETATM   16  C26 UNL     1      -2.163   3.648   4.029  1.00  0.00     0.007 A 
ENDBRANCH  13  14
ENDBRANCH   4  13
ENDBRANCH   1   2
BRANCH   1  17
HETATM   17  C7  UNL     1       0.234  -1.259   0.074  1.00  0.00     0.139 C 
BRANCH  17  18
HETATM   18  O2  UNL     1       0.993  -2.178   0.603  1.00  0.00    -0.346 OA
ATOM     19  H2  UNL     1       1.888  -1.973   0.847  1.00  0.00     0.219 HD
ENDBRANCH  17  18
BRANCH  17  20
HETATM   20  N2  UNL     1       0.926  -0.034  -0.057  1.00  0.00    -0.367 N 
ATOM     21  H2  UNL     1       0.431   0.768  -0.447  1.00  0.00     0.162 HD
BRANCH  20  22
HETATM   22  C8  UNL     1       2.349   0.133   0.351  1.00  0.00     0.080 C 
HETATM   23  C9  UNL     1       2.325   1.045   1.564  1.00  0.00     0.032 C 
BRANCH  22  24
HETATM   24  C10 UNL     1       3.032   0.828  -0.756  1.00  0.00     0.031 C 
BRANCH  24  25
HETATM   25  C11 UNL     1       4.466   1.129  -0.681  1.00  0.00     0.024 C 
HETATM   26  C12 UNL     1       4.975   1.985   0.404  1.00  0.00     0.012 C 
BRANCH  25  27
HETATM   27  C13 UNL     1       4.866   1.768  -2.026  1.00  0.00     0.287 C 
BRANCH  27  28
HETATM   28  N3  UNL     1       4.141   2.976  -2.262  1.00  0.00    -0.065 N 
ATOM     29  H33 UNL     1       3.134   2.826  -2.204  1.00  0.00     0.275 HD
ATOM     30  H32 UNL     1       4.246   3.633  -1.489  1.00  0.00     0.275 HD
ATOM     31  H31 UNL     1       4.406   3.399  -3.152  1.00  0.00     0.275 HD
ENDBRANCH  27  28
BRANCH  27  32
HETATM   32  C14 UNL     1       6.310   2.053  -1.997  1.00  0.00     0.204 C 
HETATM   33  O3  UNL     1       6.793   3.221  -2.151  1.00  0.00    -0.646 OA
HETATM   34  O4  UNL     1       7.268   1.042  -1.800  1.00  0.00    -0.646 OA
ENDBRANCH  27  32
ENDBRANCH  25  27
ENDBRANCH  24  25
ENDBRANCH  22  24
ENDBRANCH  20  22
ENDBRANCH  17  20
ENDBRANCH   1  17
BRANCH   1  35
HETATM   35  C15 UNL     1      -1.352  -2.981  -0.826  1.00  0.00     0.024 C 
HETATM   36  C16 UNL     1      -0.186  -3.520  -1.589  1.00  0.00     0.013 C 
HETATM   37  C17 UNL     1      -0.710  -4.701  -2.424  1.00  0.00     0.029 C 
HETATM   38  C18 UNL     1      -1.375  -5.691  -1.564  1.00  0.00    -0.012 C 
HETATM   39  C19 UNL     1      -1.819  -5.351  -0.375  1.00  0.00    -0.015 C 
HETATM   40 BR1  UNL     1      -2.686  -6.663   0.740  1.00  0.00    -0.056 Br
HETATM   41  C20 UNL     1      -1.712  -3.992   0.221  1.00  0.00     0.055 C 
ENDBRANCH   1  35
TORSDOF 15
