REMARK  14 active torsions:
REMARK  status: ('A' for Active; 'I' for Inactive)
REMARK    1  A    between atoms: N2_6  and  C5_7 
REMARK    2  A    between atoms: C5_7  and  C6_8 
REMARK    3  A    between atoms: C6_8  and  C7_9 
REMARK    4  A    between atoms: C7_9  and  C8_10 
REMARK    5  A    between atoms: C8_10  and  C9_11 
REMARK    6  A    between atoms: C9_11  and  C10_12 
REMARK    7  A    between atoms: C10_12  and  C11_13 
REMARK    8  A    between atoms: C11_13  and  C12_14 
REMARK       I    between atoms: C12_14  and  N3_16 
REMARK    9  A    between atoms: N3_16  and  C13_17 
REMARK   10  A    between atoms: N3_16  and  C21_28 
REMARK   11  A    between atoms: C13_17  and  C14_18 
REMARK   12  A    between atoms: C14_18  and  C15_19 
REMARK   13  A    between atoms: C18_22  and  O2_23 
REMARK   14  A    between atoms: C24_34  and  N5_35 
ROOT
HETATM    1  C12 UNL     1      -2.195  -1.229   1.317  1.00  0.00     0.225 C 
HETATM    2  O1  UNL     1      -1.698  -0.397   2.119  1.00  0.00    -0.273 OA
HETATM    3  N3  UNL     1      -3.609  -1.233   1.045  1.00  0.00    -0.303 N 
ENDROOT
BRANCH   3   4
HETATM    4  C13 UNL     1      -4.442  -0.220   1.618  1.00  0.00     0.138 C 
BRANCH   4   5
HETATM    5  C14 UNL     1      -4.661   1.011   0.822  1.00  0.00     0.059 C 
BRANCH   5   6
HETATM    6  C15 UNL     1      -3.473   1.808   0.478  1.00  0.00    -0.055 A 
HETATM    7  C16 UNL     1      -3.004   2.835   1.294  1.00  0.00     0.010 A 
HETATM    8  C17 UNL     1      -1.887   3.571   0.926  1.00  0.00     0.038 A 
HETATM    9  C18 UNL     1      -1.207   3.321  -0.242  1.00  0.00     0.083 A 
HETATM   10  C19 UNL     1      -1.648   2.320  -1.058  1.00  0.00     0.044 A 
HETATM   11 BR1  UNL     1      -0.716   1.958  -2.686  1.00  0.00    -0.048 Br
HETATM   12  C20 UNL     1      -2.762   1.582  -0.695  1.00  0.00     0.029 A 
BRANCH   9  13
HETATM   13  O2  UNL     1      -0.079   4.061  -0.619  1.00  0.00    -0.359 OA
ATOM     14  H2  UNL     1       0.391   3.888  -1.426  1.00  0.00     0.217 HD
ENDBRANCH   9  13
ENDBRANCH   5   6
ENDBRANCH   4   5
ENDBRANCH   3   4
BRANCH   3  15
HETATM   15  C21 UNL     1      -4.192  -2.207   0.224  1.00  0.00     0.131 A 
HETATM   16  C22 UNL     1      -4.687  -1.982  -1.036  1.00  0.00     0.124 A 
HETATM   17  C23 UNL     1      -5.239  -3.060  -1.720  1.00  0.00     0.263 A 
HETATM   18  O3  UNL     1      -5.694  -2.864  -2.873  1.00  0.00    -0.268 OA
HETATM   19  N4  UNL     1      -5.281  -4.270  -1.161  1.00  0.00    -0.156 N 
HETATM   20  C24 UNL     1      -4.799  -4.494   0.067  1.00  0.00     0.680 A 
ATOM     21  H4  UNL     1      -5.691  -5.045  -1.683  1.00  0.00     0.187 HD
HETATM   22  N6  UNL     1      -4.264  -3.468   0.743  1.00  0.00    -0.176 N 
ATOM     23  H6  UNL     1      -3.897  -3.635   1.680  1.00  0.00     0.186 HD
BRANCH  20  24
HETATM   24  N5  UNL     1      -4.861  -5.680   0.565  1.00  0.00    -0.234 N 
ATOM     25  H52 UNL     1      -5.268  -6.461   0.050  1.00  0.00     0.174 HD
ATOM     26  H51 UNL     1      -4.494  -5.851   1.501  1.00  0.00     0.174 HD
ENDBRANCH  20  24
ENDBRANCH   3  15
BRANCH   1  27
HETATM   27  C11 UNL     1      -1.372  -2.241   0.617  1.00  0.00     0.103 C 
BRANCH  27  28
HETATM   28  C10 UNL     1       0.092  -2.020   0.840  1.00  0.00     0.009 C 
BRANCH  28  29
HETATM   29  C9  UNL     1       0.607  -0.742   0.305  1.00  0.00     0.001 C 
BRANCH  29  30
HETATM   30  C8  UNL     1       2.093  -0.501   0.585  1.00  0.00     0.004 C 
BRANCH  30  31
HETATM   31  C7  UNL     1       2.892  -1.566  -0.029  1.00  0.00     0.028 C 
BRANCH  31  32
HETATM   32  C6  UNL     1       4.353  -1.592   0.092  1.00  0.00    -0.009 C 
BRANCH  32  33
HETATM   33  C5  UNL     1       5.257  -0.603  -0.461  1.00  0.00     0.095 C 
BRANCH  33  34
HETATM   34  N2  UNL     1       5.224   0.768  -0.158  1.00  0.00    -0.307 N 
HETATM   35  C4  UNL     1       5.772   1.323   0.953  1.00  0.00     0.100 A 
HETATM   36  C3  UNL     1       5.740   2.643   1.264  1.00  0.00     0.035 A 
HETATM   37  C2  UNL     1       5.116   3.506   0.414  1.00  0.00     0.094 A 
HETATM   38  N1  UNL     1       4.560   2.977  -0.704  1.00  0.00    -0.335 N 
HETATM   39  C1  UNL     1       3.899   3.904  -1.606  1.00  0.00     0.158 C 
HETATM   40  C25 UNL     1       4.617   1.652  -0.974  1.00  0.00     0.200 A 
HETATM   41  N7  UNL     1       3.992   1.230  -2.197  1.00  0.00    -0.062 NA
ENDBRANCH  33  34
ENDBRANCH  32  33
ENDBRANCH  31  32
ENDBRANCH  30  31
ENDBRANCH  29  30
ENDBRANCH  28  29
ENDBRANCH  27  28
ENDBRANCH   1  27
TORSDOF 14
