REMARK  13 active torsions:
REMARK  status: ('A' for Active; 'I' for Inactive)
REMARK    1  A    between atoms: C2_7  and  N3_8 
REMARK    2  A    between atoms: C3_13  and  N5_14 
REMARK    3  A    between atoms: N5_14  and  C4_16 
REMARK    4  A    between atoms: C4_16  and  C5_17 
REMARK    5  A    between atoms: C5_17  and  C6_18 
REMARK    6  A    between atoms: C6_18  and  C7_19 
REMARK    7  A    between atoms: C9_21  and  C10_22 
REMARK    8  A    between atoms: N6_34  and  C21_35 
REMARK    9  A    between atoms: C21_35  and  C22_36 
REMARK   10  A    between atoms: C22_36  and  C23_37 
REMARK   11  A    between atoms: C23_37  and  C24_38 
REMARK   12  A    between atoms: C24_38  and  C25_39 
REMARK   13  A    between atoms: C25_39  and  N7_40 
ROOT
HETATM    1  C7  UNL     1      -1.054   0.820   1.261  1.00  0.00     0.111 C 
HETATM    2  C8  UNL     1      -0.846   2.266   1.628  1.00  0.00     0.016 C 
HETATM    3  C9  UNL     1       0.204   2.783   1.029  1.00  0.00     0.041 C 
HETATM    4  C20 UNL     1       0.936   1.657   0.492  1.00  0.00     0.255 C 
HETATM    5  O1  UNL     1       2.005   1.604  -0.160  1.00  0.00    -0.267 OA
HETATM    6  N6  UNL     1       0.210   0.427   0.845  1.00  0.00    -0.340 N 
ENDROOT
BRANCH   1   7
HETATM    7  C6  UNL     1      -2.215   0.864   0.330  1.00  0.00     0.031 C 
BRANCH   7   8
HETATM    8  C5  UNL     1      -2.732  -0.406  -0.214  1.00  0.00     0.022 C 
BRANCH   8   9
HETATM    9  C4  UNL     1      -3.972  -0.107  -1.108  1.00  0.00     0.138 C 
BRANCH   9  10
HETATM   10  N5  UNL     1      -4.412  -1.361  -1.571  1.00  0.00    -0.225 N 
ATOM     11  H5  UNL     1      -3.664  -2.047  -1.675  1.00  0.00     0.177 HD
BRANCH  10  12
HETATM   12  C3  UNL     1      -5.525  -1.789  -1.874  1.00  0.00     0.707 A 
HETATM   13  N4  UNL     1      -6.642  -1.040  -1.808  1.00  0.00    -0.022 N 
HETATM   14  C2  UNL     1      -7.829  -1.561  -2.154  1.00  0.00     0.705 A 
ATOM     15  H4  UNL     1      -6.585  -0.071  -1.493  1.00  0.00     0.203 HD
HETATM   16  N2  UNL     1      -7.979  -2.813  -2.571  1.00  0.00    -0.022 N 
HETATM   17  C1  UNL     1      -6.853  -3.618  -2.651  1.00  0.00     0.705 A 
ATOM     18  H2  UNL     1      -8.899  -3.173  -2.826  1.00  0.00     0.203 HD
HETATM   19  N1  UNL     1      -6.967  -4.776  -3.041  1.00  0.00    -0.234 N 
HETATM   20  N9  UNL     1      -5.671  -3.081  -2.302  1.00  0.00    -0.022 N 
ATOM     21  H12 UNL     1      -7.864  -5.183  -3.306  1.00  0.00     0.174 HD
ATOM     22  H11 UNL     1      -6.139  -5.368  -3.100  1.00  0.00     0.174 HD
ATOM     23  H9  UNL     1      -4.839  -3.668  -2.359  1.00  0.00     0.203 HD
BRANCH  14  24
HETATM   24  N3  UNL     1      -8.893  -0.802  -2.081  1.00  0.00    -0.234 N 
ATOM     25  H32 UNL     1      -9.795  -1.198  -2.344  1.00  0.00     0.174 HD
ATOM     26  H31 UNL     1      -8.778   0.160  -1.761  1.00  0.00     0.174 HD
ENDBRANCH  14  24
ENDBRANCH  10  12
ENDBRANCH   9  10
ENDBRANCH   8   9
ENDBRANCH   7   8
ENDBRANCH   1   7
BRANCH   6  27
HETATM   27  C21 UNL     1       0.866  -0.857   0.839  1.00  0.00     0.127 C 
BRANCH  27  28
HETATM   28  C22 UNL     1       0.910  -1.645  -0.392  1.00  0.00     0.020 C 
BRANCH  28  29
HETATM   29  C23 UNL     1       1.670  -2.943  -0.153  1.00  0.00     0.003 C 
BRANCH  29  30
HETATM   30  C24 UNL     1       3.100  -2.737   0.238  1.00  0.00     0.022 C 
BRANCH  30  31
HETATM   31  C25 UNL     1       3.786  -4.085   0.428  1.00  0.00     0.148 C 
BRANCH  31  32
HETATM   32  N7  UNL     1       5.153  -3.955   0.839  1.00  0.00    -0.300 N 
HETATM   33  C26 UNL     1       5.369  -3.891   2.185  1.00  0.00     0.112 A 
HETATM   34  C27 UNL     1       6.643  -3.768   2.709  1.00  0.00     0.048 A 
HETATM   35  C28 UNL     1       7.709  -3.710   1.851  1.00  0.00     0.104 A 
HETATM   36 CL1  UNL     1       9.350  -3.554   2.475  1.00  0.00    -0.078 Cl
HETATM   37  C29 UNL     1       7.457  -3.777   0.506  1.00  0.00     0.281 A 
HETATM   38  O2  UNL     1       8.411  -3.728  -0.330  1.00  0.00    -0.265 OA
HETATM   39  N8  UNL     1       6.205  -3.895   0.073  1.00  0.00    -0.263 N 
ATOM     40  H8  UNL     1       6.057  -3.942  -0.935  1.00  0.00     0.190 HD
ENDBRANCH  31  32
ENDBRANCH  30  31
ENDBRANCH  29  30
ENDBRANCH  28  29
ENDBRANCH  27  28
ENDBRANCH   6  27
BRANCH   3  41
HETATM   41  C10 UNL     1       0.558   4.182   1.246  1.00  0.00    -0.010 A 
HETATM   42  C11 UNL     1       0.237   4.766   2.494  1.00  0.00     0.013 A 
HETATM   43  C12 UNL     1       0.497   6.065   2.807  1.00  0.00     0.002 A 
HETATM   44  C13 UNL     1       1.097   6.868   1.889  1.00  0.00     0.012 A 
HETATM   45  C14 UNL     1       1.427   6.350   0.654  1.00  0.00    -0.025 A 
HETATM   46  C15 UNL     1       1.994   7.176  -0.307  1.00  0.00     0.012 A 
HETATM   47  C19 UNL     1       1.148   5.003   0.345  1.00  0.00    -0.015 A 
HETATM   48  C16 UNL     1       2.287   6.710  -1.563  1.00  0.00     0.001 A 
HETATM   49  C17 UNL     1       2.021   5.406  -1.893  1.00  0.00     0.001 A 
HETATM   50  C18 UNL     1       1.450   4.585  -0.913  1.00  0.00     0.013 A 
ENDBRANCH   3  41
TORSDOF 13
