REMARK  11 active torsions:
REMARK  status: ('A' for Active; 'I' for Inactive)
REMARK    1  A    between atoms: C2_2  and  N1_3 
REMARK    2  A    between atoms: N1_3  and  C3_4 
REMARK       I    between atoms: N1_3  and  C14_24 
REMARK    3  A    between atoms: C5_8  and  C6_9 
REMARK       I    between atoms: C14_24  and  N6_26 
REMARK    4  A    between atoms: N6_26  and  C15_28 
REMARK    5  A    between atoms: C15_28  and  C16_29 
REMARK    6  A    between atoms: C16_29  and  C17_30 
REMARK    7  A    between atoms: C17_30  and  C18_31 
REMARK    8  A    between atoms: C18_31  and  C19_32 
REMARK    9  A    between atoms: C19_32  and  C20_33 
REMARK   10  A    between atoms: C20_33  and  N7_34 
REMARK       I    between atoms: N7_34  and  C21_36 
REMARK       I    between atoms: C21_36  and  N9_40 
REMARK   11  A    between atoms: N9_40  and  C22_42 
ROOT
HETATM    1  N1  UNL     1      -2.712  -1.621   1.168  1.00  0.00    -0.307 N 
HETATM    2  C14 UNL     1      -1.724  -0.654   1.423  1.00  0.00     0.322 C 
HETATM    3  O1  UNL     1      -1.951   0.227   2.290  1.00  0.00    -0.247 OA
HETATM    4  N6  UNL     1      -0.476  -0.611   0.754  1.00  0.00    -0.343 N 
ATOM      5  H6  UNL     1      -0.264  -1.312   0.044  1.00  0.00     0.164 HD
ENDROOT
BRANCH   1   6
HETATM    6  C2  UNL     1      -2.372  -2.615   0.167  1.00  0.00     0.128 C 
HETATM    7  C1  UNL     1      -2.752  -2.208  -1.218  1.00  0.00     0.027 C 
ENDBRANCH   1   6
BRANCH   1   8
HETATM    8  C3  UNL     1      -3.947  -1.612   1.852  1.00  0.00     0.138 C 
HETATM    9  C4  UNL     1      -5.124  -0.944   1.369  1.00  0.00     0.099 C 
HETATM   10  N2  UNL     1      -5.649  -1.363   0.086  1.00  0.00    -0.346 N 
HETATM   11  N5  UNL     1      -5.298   0.453   1.311  1.00  0.00    -0.255 NA
HETATM   12  C5  UNL     1      -6.680  -0.549  -0.135  1.00  0.00     0.057 C 
ATOM     13  H2  UNL     1      -5.306  -2.113  -0.514  1.00  0.00     0.167 HD
HETATM   14  C10 UNL     1      -6.770   0.367   1.003  1.00  0.00     0.142 C 
HETATM   15  C11 UNL     1      -7.360   1.692   0.843  1.00  0.00     0.258 C 
HETATM   16  N4  UNL     1      -6.778   2.539  -0.145  1.00  0.00    -0.072 N 
HETATM   17  C12 UNL     1      -5.367   2.535   0.016  1.00  0.00     0.247 C 
ATOM     18  H42 UNL     1      -7.062   2.284  -1.091  1.00  0.00     0.277 HD
ATOM     19  H41 UNL     1      -7.168   3.481  -0.128  1.00  0.00     0.277 HD
HETATM   20  C13 UNL     1      -4.774   1.149   0.175  1.00  0.00     0.125 C 
BRANCH  12  21
HETATM   21  C6  UNL     1      -7.447  -0.709  -1.367  1.00  0.00     0.058 A 
HETATM   22  C7  UNL     1      -7.194  -1.654  -2.368  1.00  0.00     0.052 A 
HETATM   23  C8  UNL     1      -8.110  -1.530  -3.365  1.00  0.00     0.028 A 
HETATM   24 BR1  UNL     1      -8.259  -2.550  -4.986  1.00  0.00    -0.050 Br
HETATM   25  C9  UNL     1      -8.947  -0.507  -3.001  1.00  0.00     0.107 A 
HETATM   26  N3  UNL     1      -8.524  -0.040  -1.804  1.00  0.00    -0.363 N 
ATOM     27  H3  UNL     1      -8.969   0.725  -1.297  1.00  0.00     0.165 HD
ENDBRANCH  12  21
ENDBRANCH   1   8
BRANCH   4  28
HETATM   28  C15 UNL     1       0.514   0.421   1.063  1.00  0.00     0.124 C 
BRANCH  28  29
HETATM   29  C16 UNL     1       1.723   0.227   0.216  1.00  0.00     0.020 C 
BRANCH  29  30
HETATM   30  C17 UNL     1       2.797   1.233   0.456  1.00  0.00     0.002 C 
BRANCH  30  31
HETATM   31  C18 UNL     1       3.308   1.232   1.874  1.00  0.00     0.002 C 
BRANCH  31  32
HETATM   32  C19 UNL     1       3.893  -0.080   2.294  1.00  0.00     0.020 C 
BRANCH  32  33
HETATM   33  C20 UNL     1       5.051  -0.468   1.430  1.00  0.00     0.138 C 
BRANCH  33  34
HETATM   34  N7  UNL     1       6.090   0.534   1.523  1.00  0.00    -0.227 N 
HETATM   35  C21 UNL     1       7.281   0.373   0.781  1.00  0.00     0.668 C 
HETATM   36  N8  UNL     1       8.206  -0.382   1.256  1.00  0.00    -0.235 N 
HETATM   37  N9  UNL     1       7.407   1.052  -0.461  1.00  0.00    -0.219 N 
ATOM     38  H82 UNL     1       8.116  -0.869   2.147  1.00  0.00     0.174 HD
ATOM     39  H81 UNL     1       9.066  -0.498   0.720  1.00  0.00     0.174 HD
ATOM     40  H9  UNL     1       6.729   1.758  -0.748  1.00  0.00     0.178 HD
ATOM     41  H7  UNL     1       5.963   1.351   2.120  1.00  0.00     0.177 HD
BRANCH  37  42
HETATM   42  C22 UNL     1       8.534   0.705  -1.307  1.00  0.00     0.036 C 
HETATM   43  C23 UNL     1       8.485  -0.756  -1.674  1.00  0.00     0.038 C 
HETATM   44  C24 UNL     1       9.834   1.038  -0.568  1.00  0.00     0.038 C 
HETATM   45  C25 UNL     1       8.545   1.515  -2.580  1.00  0.00     0.038 C 
ENDBRANCH  37  42
ENDBRANCH  33  34
ENDBRANCH  32  33
ENDBRANCH  31  32
ENDBRANCH  30  31
ENDBRANCH  29  30
ENDBRANCH  28  29
ENDBRANCH   4  28
TORSDOF 11
