REMARK  12 active torsions:
REMARK  status: ('A' for Active; 'I' for Inactive)
REMARK    1  A    between atoms: C2_2  and  C4_4 
REMARK    2  A    between atoms: C4_4  and  C5_5 
REMARK    3  A    between atoms: C7_10  and  C8_11 
REMARK    4  A    between atoms: C8_11  and  C9_12 
REMARK    5  A    between atoms: C9_12  and  C10_13 
REMARK    6  A    between atoms: C10_13  and  C11_14 
REMARK    7  A    between atoms: C11_14  and  C12_15 
REMARK    8  A    between atoms: C12_15  and  C13_16 
REMARK    9  A    between atoms: C13_16  and  O2_17 
REMARK   10  A    between atoms: C18_29  and  C19_30 
REMARK   11  A    between atoms: C19_30  and  C21_32 
REMARK   12  A    between atoms: C21_32  and  C22_33 
ROOT
HETATM    1  C5  UNL     1       0.305  -2.449   0.565  1.00  0.00     0.177 C 
HETATM    2  N1  UNL     1       1.779  -2.389   0.573  1.00  0.00    -0.346 N 
ATOM      3  H1  UNL     1       2.279  -3.154   1.026  1.00  0.00     0.163 HD
HETATM    4  C6  UNL     1       2.543  -1.364   0.008  1.00  0.00     0.241 C 
HETATM    5  O1  UNL     1       3.467  -1.718  -0.799  1.00  0.00    -0.271 OA
HETATM    6  C7  UNL     1       2.416   0.095   0.229  1.00  0.00     0.177 C 
HETATM    7  N2  UNL     1       2.132   0.421   1.615  1.00  0.00    -0.343 N 
ATOM      8  H2  UNL     1       2.513  -0.233   2.298  1.00  0.00     0.163 HD
HETATM    9  C14 UNL     1       1.417   1.493   2.158  1.00  0.00     0.264 C 
HETATM   10  O3  UNL     1       2.094   2.262   2.943  1.00  0.00    -0.266 OA
HETATM   11  C15 UNL     1      -0.010   1.853   1.948  1.00  0.00     0.076 C 
HETATM   12  C16 UNL     1      -0.304   2.573   0.698  1.00  0.00     0.074 C 
HETATM   13  N3  UNL     1      -0.901   0.802   2.357  1.00  0.00    -0.324 N 
ATOM     14  H3  UNL     1      -0.625   0.392   3.249  1.00  0.00     0.169 HD
HETATM   15  C17 UNL     1      -2.033   0.210   1.847  1.00  0.00     0.245 C 
HETATM   16  O4  UNL     1      -3.060   0.306   2.617  1.00  0.00    -0.271 OA
HETATM   17  C18 UNL     1      -2.316  -0.514   0.606  1.00  0.00     0.181 C 
HETATM   18  N5  UNL     1      -1.263  -0.597  -0.354  1.00  0.00    -0.346 N 
ATOM     19  H5  UNL     1      -1.228   0.154  -1.044  1.00  0.00     0.163 HD
HETATM   20  C30 UNL     1      -0.266  -1.586  -0.468  1.00  0.00     0.241 C 
HETATM   21  O5  UNL     1       0.214  -1.760  -1.637  1.00  0.00    -0.271 OA
ENDROOT
BRANCH  17  22
HETATM   22  C19 UNL     1      -3.617  -0.140  -0.079  1.00  0.00     0.018 C 
HETATM   23  C20 UNL     1      -4.846  -0.395   0.734  1.00  0.00     0.012 C 
BRANCH  22  24
HETATM   24  C21 UNL     1      -3.628   1.182  -0.744  1.00  0.00     0.047 C 
BRANCH  24  25
HETATM   25  C22 UNL     1      -4.863   1.581  -1.438  1.00  0.00    -0.030 A 
HETATM   26  C23 UNL     1      -5.081   1.329  -2.811  1.00  0.00     0.096 A 
HETATM   27  N4  UNL     1      -6.302   1.761  -3.158  1.00  0.00    -0.365 N 
HETATM   28  C24 UNL     1      -6.927   2.295  -2.096  1.00  0.00     0.043 A 
ATOM     29  H4  UNL     1      -6.699   1.694  -4.095  1.00  0.00     0.165 HD
HETATM   30  C25 UNL     1      -8.134   2.885  -1.855  1.00  0.00     0.033 A 
HETATM   31  C29 UNL     1      -6.032   2.178  -1.048  1.00  0.00     0.001 A 
HETATM   32  C26 UNL     1      -8.506   3.373  -0.618  1.00  0.00     0.044 A 
HETATM   33  C27 UNL     1      -7.616   3.264   0.445  1.00  0.00     0.117 A 
HETATM   34  F1  UNL     1      -7.905   3.717   1.686  1.00  0.00    -0.206 F 
HETATM   35  C28 UNL     1      -6.417   2.673   0.191  1.00  0.00     0.056 A 
ENDBRANCH  24  25
ENDBRANCH  22  24
ENDBRANCH  17  22
BRANCH   1  36
HETATM   36  C4  UNL     1      -0.223  -3.794   0.732  1.00  0.00     0.038 C 
BRANCH  36  37
HETATM   37  C2  UNL     1       0.041  -4.907  -0.165  1.00  0.00    -0.020 C 
HETATM   38  C1  UNL     1      -0.363  -4.812  -1.591  1.00  0.00     0.009 C 
HETATM   39  C3  UNL     1       1.457  -5.453  -0.135  1.00  0.00     0.009 C 
ENDBRANCH  36  37
ENDBRANCH   1  36
BRANCH   6  40
HETATM   40  C8  UNL     1       3.817   0.696  -0.056  1.00  0.00     0.035 C 
BRANCH  40  41
HETATM   41  C9  UNL     1       4.843   0.152   0.857  1.00  0.00     0.002 C 
BRANCH  41  42
HETATM   42  C10 UNL     1       6.204   0.797   0.551  1.00  0.00     0.000 C 
BRANCH  42  43
HETATM   43  C11 UNL     1       6.621   0.494  -0.850  1.00  0.00     0.002 C 
BRANCH  43  44
HETATM   44  C12 UNL     1       7.955   1.019  -1.217  1.00  0.00     0.026 C 
BRANCH  44  45
HETATM   45  C13 UNL     1       8.127   2.498  -1.149  1.00  0.00     0.164 C 
BRANCH  45  46
HETATM   46  O2  UNL     1       7.968   3.072   0.082  1.00  0.00    -0.401 OA
ATOM     47  H2  UNL     1       8.078   4.015   0.125  1.00  0.00     0.209 HD
ENDBRANCH  45  46
ENDBRANCH  44  45
ENDBRANCH  43  44
ENDBRANCH  42  43
ENDBRANCH  41  42
ENDBRANCH  40  41
ENDBRANCH   6  40
TORSDOF 12
