REMARK  13 active torsions:
REMARK  status: ('A' for Active; 'I' for Inactive)
REMARK    1  A    between atoms: C2_2  and  C3_3 
REMARK    2  A    between atoms: C3_3  and  C4_4 
REMARK    3  A    between atoms: C4_4  and  C5_5 
REMARK    4  A    between atoms: C5_5  and  C6_6 
REMARK    5  A    between atoms: C6_6  and  N1_7 
REMARK    6  A    between atoms: C9_10  and  N2_11 
REMARK    7  A    between atoms: N2_11  and  C10_13 
REMARK    8  A    between atoms: C10_13  and  C11_14 
REMARK    9  A    between atoms: C11_14  and  N3_15 
REMARK   10  A    between atoms: N3_15  and  C12_17 
REMARK       I    between atoms: N5_21  and  C14_23 
REMARK       I    between atoms: C14_23  and  N7_27 
REMARK   11  A    between atoms: N9_34  and  C18_36 
REMARK   12  A    between atoms: C18_36  and  C19_37 
REMARK   13  A    between atoms: C19_37  and  N10_38 
ROOT
HETATM    1  C12 UNL     1      -0.916  -2.156  -0.037  1.00  0.00     0.129 A 
HETATM    2  N4  UNL     1      -1.657  -3.192  -0.493  1.00  0.00    -0.175 N 
ATOM      3  H4  UNL     1      -1.174  -4.032  -0.811  1.00  0.00     0.186 HD
HETATM    4  C13 UNL     1      -2.997  -3.166  -0.546  1.00  0.00     0.699 A 
HETATM    5  N5  UNL     1      -3.717  -4.157  -0.999  1.00  0.00    -0.023 N 
ATOM      6  H5  UNL     1      -4.735  -4.097  -1.021  1.00  0.00     0.203 HD
HETATM    7  C14 UNL     1      -3.051  -5.311  -1.457  1.00  0.00     0.685 C 
HETATM    8  N6  UNL     1      -2.516  -5.253  -2.629  1.00  0.00    -0.234 N 
ATOM      9  H61 UNL     1      -2.034  -6.088  -2.961  1.00  0.00     0.174 HD
ATOM     10  H62 UNL     1      -2.581  -4.396  -3.178  1.00  0.00     0.174 HD
HETATM   11  N7  UNL     1      -2.962  -6.490  -0.701  1.00  0.00    -0.230 N 
ATOM     12  H7  UNL     1      -2.424  -7.265  -1.089  1.00  0.00     0.177 HD
HETATM   13  C15 UNL     1      -3.580  -6.680   0.587  1.00  0.00     0.165 C 
HETATM   14  N8  UNL     1      -3.614  -2.033  -0.114  1.00  0.00    -0.186 N 
ATOM     15  H8  UNL     1      -4.633  -1.989  -0.144  1.00  0.00     0.184 HD
HETATM   16  C16 UNL     1      -2.938  -0.970   0.350  1.00  0.00     0.107 A 
HETATM   17  C17 UNL     1      -3.569   0.205   0.784  1.00  0.00     0.131 A 
HETATM   18  N9  UNL     1      -4.834   0.201   0.718  1.00  0.00    -0.373 N 
ATOM     19  H9  UNL     1      -5.250  -0.657   0.356  1.00  0.00     0.161 HD
HETATM   20  N11 UNL     1      -2.830   1.242   1.230  1.00  0.00    -0.331 N 
ATOM     21  H11 UNL     1      -3.317   2.083   1.540  1.00  0.00     0.168 HD
HETATM   22  C25 UNL     1      -1.487   1.229   1.289  1.00  0.00     0.105 A 
HETATM   23 CL1  UNL     1      -0.595   2.624   1.881  1.00  0.00    -0.064 Cl
HETATM   24  C26 UNL     1      -0.848   0.089   0.867  1.00  0.00     0.060 A 
HETATM   25  C27 UNL     1      -1.564  -0.997   0.403  1.00  0.00     0.042 A 
ENDROOT
BRANCH   1  26
HETATM   26  N3  UNL     1       0.347  -2.119   0.012  1.00  0.00    -0.374 N 
ATOM     27  H3  UNL     1       0.738  -1.255   0.388  1.00  0.00     0.161 HD
BRANCH  26  28
HETATM   28  C11 UNL     1       1.310  -3.096  -0.376  1.00  0.00     0.141 C 
BRANCH  28  29
HETATM   29  C10 UNL     1       2.015  -2.665  -1.665  1.00  0.00     0.139 C 
BRANCH  29  30
HETATM   30  N2  UNL     1       2.672  -1.402  -1.475  1.00  0.00    -0.388 N 
ATOM     31  H2  UNL     1       2.320  -0.591  -1.984  1.00  0.00     0.159 HD
BRANCH  30  32
HETATM   32  C9  UNL     1       3.787  -1.226  -0.614  1.00  0.00     0.030 A 
HETATM   33  C8  UNL     1       4.175   0.058  -0.240  1.00  0.00     0.046 A 
HETATM   34  C7  UNL     1       5.273   0.267   0.564  1.00  0.00     0.092 A 
HETATM   35  N1  UNL     1       5.994  -0.768   1.003  1.00  0.00    -0.366 N 
HETATM   36  C29 UNL     1       5.628  -2.025   0.647  1.00  0.00     0.092 A 
HETATM   37  C28 UNL     1       4.529  -2.282  -0.160  1.00  0.00     0.046 A 
BRANCH  35  38
HETATM   38  C6  UNL     1       7.163  -0.549   1.850  1.00  0.00     0.128 C 
BRANCH  38  39
HETATM   39  C5  UNL     1       8.432  -0.353   1.019  1.00  0.00     0.020 C 
BRANCH  39  40
HETATM   40  C4  UNL     1       8.320   0.865   0.136  1.00  0.00     0.002 C 
BRANCH  40  41
HETATM   41  C3  UNL     1       9.581   1.092  -0.702  1.00  0.00    -0.000 C 
BRANCH  41  42
HETATM   42  C2  UNL     1       9.282   2.361  -1.514  1.00  0.00    -0.005 C 
HETATM   43  C1  UNL     1       9.023   3.507  -0.531  1.00  0.00     0.005 C 
ENDBRANCH  41  42
ENDBRANCH  40  41
ENDBRANCH  39  40
ENDBRANCH  38  39
ENDBRANCH  35  38
ENDBRANCH  30  32
ENDBRANCH  29  30
ENDBRANCH  28  29
ENDBRANCH  26  28
ENDBRANCH   1  26
BRANCH  18  44
HETATM   44  C18 UNL     1      -5.758   1.222   1.076  1.00  0.00     0.151 C 
BRANCH  44  45
HETATM   45  C19 UNL     1      -6.360   1.873  -0.178  1.00  0.00     0.292 C 
BRANCH  45  46
HETATM   46  N10 UNL     1      -7.292   2.907   0.243  1.00  0.00     0.090 N 
HETATM   47  C20 UNL     1      -7.906   3.529  -0.916  1.00  0.00     0.272 C 
HETATM   48  C21 UNL     1      -9.017   4.431  -0.452  1.00  0.00     0.030 C 
HETATM   49  C22 UNL     1      -8.549   5.376   0.641  1.00  0.00     0.003 C 
HETATM   50  C23 UNL     1      -7.046   5.295   0.805  1.00  0.00     0.030 C 
HETATM   51  C24 UNL     1      -6.639   3.886   1.091  1.00  0.00     0.272 C 
ENDBRANCH  45  46
ENDBRANCH  44  45
ENDBRANCH  18  44
TORSDOF 13
