REMARK  5 active torsions:
REMARK  status: ('A' for Active; 'I' for Inactive)
REMARK    1  A    between atoms: N1_1  and  C1_5 
REMARK    2  A    between atoms: C1_5  and  N2_6 
REMARK    3  A    between atoms: C1_5  and  C2_10 
REMARK    4  A    between atoms: C3_11  and  N3_12 
REMARK    5  A    between atoms: C4_14  and  C5_15 
ROOT
HETATM    1  C2  UNL     1      -1.405  -0.175  -0.195  1.00  0.00     0.111 A 
HETATM    2  C3  UNL     1      -0.199  -0.849   0.014  1.00  0.00     0.124 A 
HETATM    3  N4  UNL     1      -0.267  -2.158   0.245  1.00  0.00    -0.294 N 
ATOM      4  H4  UNL     1       0.595  -2.681   0.401  1.00  0.00     0.172 HD
HETATM    5  C7  UNL     1      -1.441  -2.808   0.278  1.00  0.00     0.328 A 
HETATM    6  O2  UNL     1      -1.395  -4.059   0.508  1.00  0.00    -0.247 OA
HETATM    7  N5  UNL     1      -2.623  -2.180   0.080  1.00  0.00    -0.275 N 
ATOM      8  H5  UNL     1      -3.503  -2.695   0.110  1.00  0.00     0.173 HD
HETATM    9  C8  UNL     1      -2.604  -0.856  -0.158  1.00  0.00     0.263 A 
HETATM   10  O3  UNL     1      -3.711  -0.278  -0.343  1.00  0.00    -0.267 OA
ENDROOT
BRANCH   1  11
HETATM   11  C1  UNL     1      -1.444   1.281  -0.461  1.00  0.00     0.420 C 
BRANCH  11  12
HETATM   12  N1  UNL     1      -2.508   1.856   0.362  1.00  0.00    -0.046 N 
ATOM     13  H13 UNL     1      -2.313   1.807   1.362  1.00  0.00     0.277 HD
ATOM     14  H12 UNL     1      -2.566   2.872   0.291  1.00  0.00     0.277 HD
ATOM     15  H11 UNL     1      -3.374   1.386   0.098  1.00  0.00     0.277 HD
ENDBRANCH  11  12
BRANCH  11  16
HETATM   16  N2  UNL     1      -0.222   1.945  -0.089  1.00  0.00    -0.046 N 
ATOM     17  H23 UNL     1      -0.280   2.961  -0.160  1.00  0.00     0.277 HD
ATOM     18  H22 UNL     1      -0.027   1.896   0.911  1.00  0.00     0.277 HD
ATOM     19  H21 UNL     1       0.520   1.544  -0.663  1.00  0.00     0.277 HD
ENDBRANCH  11  16
ENDBRANCH   1  11
BRANCH   2  20
HETATM   20  N3  UNL     1       1.002  -0.131  -0.030  1.00  0.00    -0.353 N 
HETATM   21  C4  UNL     1       2.132  -0.668  -0.302  1.00  0.00     0.096 C 
ATOM     22  H3  UNL     1       0.975   0.870   0.164  1.00  0.00     0.166 HD
BRANCH  21  23
HETATM   23  C5  UNL     1       3.391   0.081  -0.348  1.00  0.00     0.183 A 
HETATM   24  C6  UNL     1       3.608   1.337   0.329  1.00  0.00     0.206 A 
HETATM   25  O1  UNL     1       3.929   0.193   1.046  1.00  0.00    -0.376 OA
ENDBRANCH  21  23
ENDBRANCH   2  20
TORSDOF 5
