REMARK  3 active torsions:
REMARK  status: ('A' for Active; 'I' for Inactive)
REMARK    1  A    between atoms: N1_1  and  C1_4 
REMARK    2  A    between atoms: N4_13  and  C4_14 
REMARK    3  A    between atoms: C4_14  and  C5_15 
ROOT
HETATM    1  C1  UNL     1       2.376  -0.271  -0.235  1.00  0.00     0.695 A 
HETATM    2  N2  UNL     1       3.331   0.104   0.648  1.00  0.00    -0.150 N 
ATOM      3  H2  UNL     1       4.160  -0.482   0.743  1.00  0.00     0.188 HD
HETATM    4  C2  UNL     1       3.242   1.204   1.402  1.00  0.00     0.329 A 
HETATM    5  O1  UNL     1       4.150   1.541   2.226  1.00  0.00    -0.261 OA
HETATM    6  C3  UNL     1       2.116   1.983   1.261  1.00  0.00     0.329 A 
HETATM    7  O2  UNL     1       1.935   3.041   1.926  1.00  0.00    -0.261 OA
HETATM    8  N3  UNL     1       1.175   1.605   0.386  1.00  0.00    -0.245 N 
ATOM      9  H3  UNL     1       0.342   2.185   0.285  1.00  0.00     0.191 HD
HETATM   10  N4  UNL     1       1.281   0.494  -0.366  1.00  0.00    -0.119 N 
ENDROOT
BRANCH  10  11
HETATM   11  C4  UNL     1       0.202   0.180  -1.298  1.00  0.00     0.194 C 
BRANCH  11  12
HETATM   12  C5  UNL     1      -0.779  -0.705  -0.576  1.00  0.00     0.122 C 
HETATM   13  C6  UNL     1      -1.947  -1.098  -1.446  1.00  0.00     0.149 C 
HETATM   14  N5  UNL     1      -2.944  -1.334  -0.430  1.00  0.00    -0.363 N 
HETATM   15  C7  UNL     1      -2.621  -0.440   0.621  1.00  0.00     0.184 C 
ATOM     16  H5  UNL     1      -3.715  -2.001  -0.461  1.00  0.00     0.162 HD
HETATM   17  N6  UNL     1      -3.562  -0.016   1.621  1.00  0.00    -0.064 NA
HETATM   18  N7  UNL     1      -1.394  -0.076   0.547  1.00  0.00    -0.357 N 
ATOM     19  H7  UNL     1      -0.930   0.564   1.191  1.00  0.00     0.162 HD
ENDBRANCH  11  12
ENDBRANCH  10  11
BRANCH   1  20
HETATM   20  N1  UNL     1       2.533  -1.353  -0.923  1.00  0.00    -0.233 N 
ATOM     21  H12 UNL     1       3.365  -1.934  -0.823  1.00  0.00     0.174 HD
ATOM     22  H11 UNL     1       1.813  -1.636  -1.588  1.00  0.00     0.174 HD
ENDBRANCH   1  20
TORSDOF 3
