REMARK  4 active torsions:
REMARK  status: ('A' for Active; 'I' for Inactive)
REMARK    1  A    between atoms: O1_2  and  C2_3 
REMARK    2  A    between atoms: C2_3  and  N1_4 
REMARK    3  A    between atoms: C3_7  and  N3_8 
REMARK    4  A    between atoms: N3_8  and  N4_10 
ROOT
HETATM    1  N1  UNL     1       0.504   0.304   0.385  1.00  0.00    -0.250 N 
HETATM    2  N2  UNL     1      -0.204   1.415   0.288  1.00  0.00    -0.278 N 
ATOM      3  H2  UNL     1       0.184   2.353   0.188  1.00  0.00     0.189 HD
HETATM    4  C3  UNL     1      -1.495   1.123   0.340  1.00  0.00     0.154 A 
HETATM    5  C4  UNL     1      -1.611  -0.242   0.478  1.00  0.00     0.124 A 
HETATM    6  C5  UNL     1      -2.642  -1.151   0.587  1.00  0.00     0.267 A 
HETATM    7  O2  UNL     1      -3.811  -0.708   0.564  1.00  0.00    -0.267 OA
HETATM    8  N5  UNL     1      -2.358  -2.468   0.712  1.00  0.00    -0.275 N 
ATOM      9  H5  UNL     1      -3.128  -3.133   0.791  1.00  0.00     0.173 HD
HETATM   10  C6  UNL     1      -1.096  -2.930   0.735  1.00  0.00     0.328 A 
HETATM   11  O3  UNL     1      -0.875  -4.149   0.852  1.00  0.00    -0.247 OA
HETATM   12  N6  UNL     1      -0.072  -2.068   0.631  1.00  0.00    -0.292 N 
ATOM     13  H6  UNL     1       0.890  -2.406   0.648  1.00  0.00     0.172 HD
HETATM   14  C7  UNL     1      -0.328  -0.758   0.505  1.00  0.00     0.148 A 
ENDROOT
BRANCH   4  15
HETATM   15  N3  UNL     1      -2.517   1.909   0.281  1.00  0.00    -0.290 N 
ATOM     16  H3  UNL     1      -3.461   1.526   0.337  1.00  0.00     0.188 HD
BRANCH  15  17
HETATM   17  N4  UNL     1      -2.326   3.290   0.140  1.00  0.00    -0.344 N 
ATOM     18  H42 UNL     1      -1.376   3.657   0.086  1.00  0.00     0.176 HD
ATOM     19  H41 UNL     1      -3.134   3.911   0.093  1.00  0.00     0.176 HD
ENDBRANCH  15  17
ENDBRANCH   4  15
BRANCH   1  20
HETATM   20  C2  UNL     1       1.950   0.292   0.359  1.00  0.00     0.317 C 
BRANCH  20  21
HETATM   21  O1  UNL     1       2.455   0.164  -0.930  1.00  0.00    -0.375 OA
HETATM   22  C1  UNL     1       3.858   0.167  -0.801  1.00  0.00     0.203 C 
ENDBRANCH  20  21
ENDBRANCH   1  20
TORSDOF 4
