REMARK  3 active torsions:
REMARK  status: ('A' for Active; 'I' for Inactive)
REMARK    1  A    between atoms: N3_4  and  N4_6 
REMARK    2  A    between atoms: C2_8  and  C3_9 
REMARK    3  A    between atoms: N6_17  and  N7_18 
ROOT
HETATM    1  C3  UNL     1      -0.862  -0.548  -0.108  1.00  0.00     0.083 A 
HETATM    2  C4  UNL     1      -0.433   0.130  -1.224  1.00  0.00     0.107 A 
HETATM    3  C5  UNL     1      -1.329   0.601  -2.201  1.00  0.00     0.251 A 
HETATM    4  O1  UNL     1      -0.868   1.213  -3.197  1.00  0.00    -0.268 OA
HETATM    5  N5  UNL     1      -2.639   0.370  -2.016  1.00  0.00    -0.274 N 
ATOM      6  H5  UNL     1      -3.319   0.696  -2.703  1.00  0.00     0.173 HD
HETATM    7  C6  UNL     1      -3.048  -0.293  -0.921  1.00  0.00     0.348 A 
HETATM    8  O2  UNL     1      -4.275  -0.508  -0.750  1.00  0.00    -0.245 OA
HETATM    9  N6  UNL     1      -2.212  -0.748   0.017  1.00  0.00    -0.210 N 
ENDROOT
BRANCH   1  10
HETATM   10  C2  UNL     1       0.018  -1.050   0.921  1.00  0.00     0.139 C 
HETATM   11  N4  UNL     1       1.250  -0.980   1.005  1.00  0.00    -0.308 N 
ATOM     12  H4  UNL     1       1.594  -1.431   1.853  1.00  0.00     0.186 HD
BRANCH  11  13
HETATM   13  N3  UNL     1       2.266  -0.462   0.267  1.00  0.00    -0.276 N 
HETATM   14  C1  UNL     1       2.980   0.529   0.700  1.00  0.00     0.215 C 
HETATM   15  N1  UNL     1       4.036   1.015  -0.146  1.00  0.00    -0.065 NA
HETATM   16  N2  UNL     1       2.705   1.093   1.966  1.00  0.00    -0.065 NA
ATOM     17  H3  UNL     1       2.472  -0.862  -0.649  1.00  0.00     0.189 HD
ENDBRANCH  11  13
ENDBRANCH   1  10
BRANCH   9  18
HETATM   18  N7  UNL     1      -2.687  -1.433   1.138  1.00  0.00    -0.334 N 
ATOM     19  H72 UNL     1      -2.049  -1.780   1.854  1.00  0.00     0.177 HD
ATOM     20  H71 UNL     1      -3.692  -1.582   1.231  1.00  0.00     0.177 HD
ENDBRANCH   9  18
TORSDOF 3
