REMARK  3 active torsions:
REMARK  status: ('A' for Active; 'I' for Inactive)
REMARK    1  A    between atoms: N1_2  and  C2_5 
REMARK    2  A    between atoms: C2_5  and  C3_6 
REMARK    3  A    between atoms: C5_8  and  C6_9 
ROOT
HETATM    1  C3  UNL     1      -0.169   0.616   0.041  1.00  0.00     0.023 A 
HETATM    2  C4  UNL     1       0.198   1.247  -1.225  1.00  0.00     0.020 A 
HETATM    3  C5  UNL     1       0.657  -0.133  -1.014  1.00  0.00     0.061 A 
ENDROOT
BRANCH   3   4
HETATM    4  C6  UNL     1       1.996  -0.481  -0.546  1.00  0.00     0.101 A 
HETATM    5  N2  UNL     1       2.590  -1.665  -0.778  1.00  0.00    -0.340 N 
HETATM    6  C7  UNL     1       3.804  -1.716  -0.241  1.00  0.00     0.198 A 
ATOM      7  H2  UNL     1       2.162  -2.429  -1.301  1.00  0.00     0.168 HD
HETATM    8  N3  UNL     1       3.980  -0.516   0.352  1.00  0.00    -0.295 N 
HETATM    9  N4  UNL     1       2.895   0.218   0.166  1.00  0.00    -0.288 N 
ATOM     10  H3  UNL     1       4.814  -0.223   0.861  1.00  0.00     0.187 HD
ATOM     11  H4  UNL     1       2.762   1.169   0.510  1.00  0.00     0.188 HD
ENDBRANCH   3   4
BRANCH   1  12
HETATM   12  C2  UNL     1      -1.507   0.040   0.327  1.00  0.00     0.237 C 
BRANCH  12  13
HETATM   13  N1  UNL     1      -2.582   1.010   0.236  1.00  0.00    -0.079 N 
HETATM   14  C1  UNL     1      -3.816   0.271   0.547  1.00  0.00     0.267 C 
ATOM     15  H12 UNL     1      -2.614   1.501  -0.658  1.00  0.00     0.276 HD
ATOM     16  H11 UNL     1      -2.440   1.833   0.822  1.00  0.00     0.276 HD
ENDBRANCH  12  13
ENDBRANCH   1  12
TORSDOF 3
