REMARK  5 active torsions:
REMARK  status: ('A' for Active; 'I' for Inactive)
REMARK    1  A    between atoms: N1_2  and  N2_3 
REMARK    2  A    between atoms: N1_2  and  C2_6 
REMARK    3  A    between atoms: N3_7  and  N4_9 
REMARK    4  A    between atoms: N4_9  and  C3_11 
REMARK    5  A    between atoms: C3_11  and  C4_12 
ROOT
HETATM    1  C2  UNL     1      -1.792   0.018  -0.339  1.00  0.00     0.215 C 
HETATM    2  N3  UNL     1      -0.755   0.263   0.376  1.00  0.00    -0.299 N 
ATOM      3  H3  UNL     1      -0.860   0.344   1.387  1.00  0.00     0.187 HD
ENDROOT
BRANCH   2   4
HETATM    4  N4  UNL     1       0.513   0.422  -0.188  1.00  0.00    -0.335 N 
ATOM      5  H4  UNL     1       0.610   0.354  -1.201  1.00  0.00     0.180 HD
BRANCH   4   6
HETATM    6  C3  UNL     1       1.690   0.679   0.604  1.00  0.00     0.144 C 
BRANCH   6   7
HETATM    7  C4  UNL     1       2.892   0.801  -0.268  1.00  0.00     0.005 A 
HETATM    8  C5  UNL     1       3.344  -0.304  -1.146  1.00  0.00     0.007 A 
HETATM    9  C6  UNL     1       4.065  -0.040   0.120  1.00  0.00     0.007 A 
ENDBRANCH   6   7
ENDBRANCH   4   6
ENDBRANCH   2   4
BRANCH   1  10
HETATM   10  N1  UNL     1      -3.072  -0.142   0.231  1.00  0.00    -0.297 N 
HETATM   11  C1  UNL     1      -3.700  -1.450   0.259  1.00  0.00     0.178 C 
BRANCH  10  12
HETATM   12  N2  UNL     1      -3.737   0.943   0.769  1.00  0.00    -0.342 N 
ATOM     13  H22 UNL     1      -4.663   0.827   1.181  1.00  0.00     0.177 HD
ATOM     14  H21 UNL     1      -3.296   1.862   0.749  1.00  0.00     0.177 HD
ENDBRANCH  10  12
ENDBRANCH   1  10
TORSDOF 5
