REMARK  13 active torsions:
REMARK  status: ('A' for Active; 'I' for Inactive)
REMARK    1  A    between atoms: O1_2  and  C2_3 
REMARK    2  A    between atoms: C3_4  and  O2_5 
REMARK    3  A    between atoms: C4_7  and  O3_8 
REMARK    4  A    between atoms: C5_10  and  O4_11 
REMARK    5  A    between atoms: N1_14  and  C7_15 
REMARK    6  A    between atoms: C7_15  and  C8_16 
REMARK    7  A    between atoms: C8_16  and  C9_17 
REMARK    8  A    between atoms: C9_17  and  N2_18 
REMARK    9  A    between atoms: N2_18  and  C10_21 
REMARK   10  A    between atoms: C15_27  and  C16_28 
REMARK   11  A    between atoms: C16_28  and  N3_29 
REMARK   12  A    between atoms: N3_29  and  C17_31 
REMARK   13  A    between atoms: C17_31  and  C18_32 
ROOT
HETATM    1  N2  UNL     1       0.423  -1.169  -0.507  1.00  0.00    -0.070 N 
ATOM      2  H21 UNL     1       1.009  -1.968  -0.751  1.00  0.00     0.277 HD
ATOM      3  H22 UNL     1       0.329  -0.736  -1.426  1.00  0.00     0.277 HD
ENDROOT
BRANCH   1   4
HETATM    4  C9  UNL     1       1.108  -0.305   0.381  1.00  0.00     0.234 C 
BRANCH   4   5
HETATM    5  C8  UNL     1       2.504   0.105  -0.132  1.00  0.00     0.058 C 
BRANCH   5   6
HETATM    6  C7  UNL     1       3.093   1.094   0.841  1.00  0.00     0.277 C 
BRANCH   6   7
HETATM    7  N1  UNL     1       4.398   1.565   0.555  1.00  0.00     0.122 N 
HETATM    8  C2  UNL     1       5.441   0.585   0.762  1.00  0.00     0.390 C 
HETATM    9  C3  UNL     1       6.244   0.426  -0.496  1.00  0.00     0.208 C 
HETATM   10  C4  UNL     1       6.890   1.778  -0.815  1.00  0.00     0.181 C 
HETATM   11  C5  UNL     1       5.880   2.910  -0.737  1.00  0.00     0.177 C 
HETATM   12  C6  UNL     1       4.520   2.247  -0.710  1.00  0.00     0.310 C 
BRANCH   8  13
HETATM   13  O1  UNL     1       5.024  -0.578   1.348  1.00  0.00    -0.360 OA
HETATM   14  C1  UNL     1       5.557  -0.735   2.622  1.00  0.00     0.204 C 
ENDBRANCH   8  13
BRANCH   9  15
HETATM   15  O2  UNL     1       7.303  -0.489  -0.256  1.00  0.00    -0.388 OA
ATOM     16  H2  UNL     1       7.811  -0.590  -1.052  1.00  0.00     0.210 HD
ENDBRANCH   9  15
BRANCH  10  17
HETATM   17  O3  UNL     1       7.451   1.751  -2.102  1.00  0.00    -0.390 OA
ATOM     18  H3  UNL     1       7.852   2.589  -2.300  1.00  0.00     0.210 HD
ENDBRANCH  10  17
BRANCH  11  19
HETATM   19  O4  UNL     1       5.992   3.755  -1.846  1.00  0.00    -0.391 OA
ATOM     20  H4  UNL     1       5.360   4.463  -1.797  1.00  0.00     0.210 HD
ENDBRANCH  11  19
ENDBRANCH   6   7
ENDBRANCH   5   6
ENDBRANCH   4   5
ENDBRANCH   1   4
BRANCH   1  21
HETATM   21  C10 UNL     1      -0.855  -1.611  -0.027  1.00  0.00     0.197 C 
HETATM   22  C11 UNL     1      -0.686  -2.507   1.159  1.00  0.00     0.036 C 
HETATM   23  C12 UNL     1       0.064  -3.741   0.724  1.00  0.00     0.028 C 
HETATM   24  C13 UNL     1      -0.597  -4.558  -0.321  1.00  0.00     0.167 C 
HETATM   25  O5  UNL     1      -1.942  -4.532  -0.246  1.00  0.00    -0.390 OA
HETATM   26  C14 UNL     1      -2.598  -3.357  -0.591  1.00  0.00     0.179 C 
HETATM   27  C15 UNL     1      -1.739  -2.264  -1.035  1.00  0.00     0.078 C 
BRANCH  27  28
HETATM   28  C16 UNL     1      -2.475  -1.233  -1.868  1.00  0.00     0.069 C 
BRANCH  28  29
HETATM   29  N3  UNL     1      -3.276  -0.313  -1.196  1.00  0.00    -0.379 N 
ATOM     30  H3  UNL     1      -2.939   0.646  -1.113  1.00  0.00     0.164 HD
BRANCH  29  31
HETATM   31  C17 UNL     1      -4.515  -0.626  -0.629  1.00  0.00     0.091 C 
BRANCH  31  32
HETATM   32  C18 UNL     1      -4.927   0.541   0.260  1.00  0.00     0.159 C 
HETATM   33  C19 UNL     1      -4.886   1.878  -0.415  1.00  0.00     0.037 C 
HETATM   34  C20 UNL     1      -5.090   2.907   0.706  1.00  0.00     0.003 C 
HETATM   35  C21 UNL     1      -6.532   3.016   1.067  1.00  0.00     0.002 C 
HETATM   36  C22 UNL     1      -7.428   2.266   0.096  1.00  0.00     0.026 C 
HETATM   37  C23 UNL     1      -7.163   0.801   0.052  1.00  0.00     0.168 C 
HETATM   38  O6  UNL     1      -6.148   0.359   0.873  1.00  0.00    -0.381 OA
ENDBRANCH  31  32
ENDBRANCH  29  31
ENDBRANCH  28  29
ENDBRANCH  27  28
ENDBRANCH   1  21
TORSDOF 13
