REMARK  14 active torsions:
REMARK  status: ('A' for Active; 'I' for Inactive)
REMARK    1  A    between atoms: C4_5  and  C5_6 
REMARK    2  A    between atoms: C5_6  and  O2_7 
REMARK    3  A    between atoms: C7_10  and  C8_11 
REMARK    4  A    between atoms: C8_11  and  C9_12 
REMARK    5  A    between atoms: C9_12  and  C10_13 
REMARK    6  A    between atoms: C10_13  and  O3_14 
REMARK    7  A    between atoms: O3_14  and  C11_15 
REMARK    8  A    between atoms: C12_17  and  C13_18 
REMARK    9  A    between atoms: C13_18  and  O5_19 
REMARK   10  A    between atoms: C14_21  and  O6_22 
REMARK   11  A    between atoms: O6_22  and  C15_23 
REMARK   12  A    between atoms: C21_29  and  O7_30 
REMARK   13  A    between atoms: C22_32  and  O8_33 
REMARK   14  A    between atoms: C23_35  and  O9_36 
ROOT
HETATM    1  C11 UNL     1      -0.712  -1.105  -0.127  1.00  0.00     0.291 C 
HETATM    2  O4  UNL     1      -1.097   0.075  -0.670  1.00  0.00    -0.348 OA
HETATM    3  C12 UNL     1      -2.330   0.087  -1.304  1.00  0.00     0.179 C 
HETATM    4  C14 UNL     1      -3.361  -0.217  -0.243  1.00  0.00     0.184 C 
HETATM    5  C21 UNL     1      -3.151  -1.697   0.042  1.00  0.00     0.183 C 
HETATM    6  C22 UNL     1      -1.776  -1.904   0.552  1.00  0.00     0.204 C 
ENDROOT
BRANCH   1   7
HETATM    7  O3  UNL     1       0.267  -0.827   0.840  1.00  0.00    -0.359 OA
BRANCH   7   8
HETATM    8  C10 UNL     1       1.499  -1.386   0.498  1.00  0.00     0.171 C 
BRANCH   8   9
HETATM    9  C9  UNL     1       2.465  -1.022   1.606  1.00  0.00     0.027 C 
BRANCH   9  10
HETATM   10  C8  UNL     1       3.841  -1.562   1.371  1.00  0.00     0.009 C 
BRANCH  10  11
HETATM   11  C7  UNL     1       4.433  -1.028   0.079  1.00  0.00     0.016 C 
HETATM   12  C6  UNL     1       4.491   0.470   0.203  1.00  0.00     0.021 C 
HETATM   13  C4  UNL     1       5.322   1.134  -0.845  1.00  0.00     0.080 C 
HETATM   14  C3  UNL     1       6.607   0.396  -1.054  1.00  0.00     0.139 C 
HETATM   15  C2  UNL     1       6.917  -0.666  -0.033  1.00  0.00     0.081 C 
HETATM   16  O1  UNL     1       7.320   0.656  -1.983  1.00  0.00    -0.297 OA
HETATM   17  C1  UNL     1       8.197  -1.380  -0.406  1.00  0.00     0.020 C 
HETATM   18  C23 UNL     1       5.797  -1.656  -0.072  1.00  0.00     0.133 C 
BRANCH  13  19
HETATM   19  C5  UNL     1       5.724   2.508  -0.293  1.00  0.00     0.176 C 
BRANCH  19  20
HETATM   20  O2  UNL     1       4.602   3.271  -0.065  1.00  0.00    -0.400 OA
ATOM     21  H2  UNL     1       4.851   4.122   0.277  1.00  0.00     0.209 HD
ENDBRANCH  19  20
ENDBRANCH  13  19
BRANCH  18  22
HETATM   22  O9  UNL     1       5.872  -2.329  -1.298  1.00  0.00    -0.394 OA
ATOM     23  H9  UNL     1       5.160  -2.958  -1.323  1.00  0.00     0.210 HD
ENDBRANCH  18  22
ENDBRANCH  10  11
ENDBRANCH   9  10
ENDBRANCH   8   9
ENDBRANCH   7   8
ENDBRANCH   1   7
BRANCH   6  24
HETATM   24  O8  UNL     1      -1.791  -1.729   1.941  1.00  0.00    -0.388 OA
ATOM     25  H8  UNL     1      -2.468  -2.237   2.373  1.00  0.00     0.210 HD
ENDBRANCH   6  24
BRANCH   3  26
HETATM   26  C13 UNL     1      -2.529   1.429  -1.918  1.00  0.00     0.198 C 
BRANCH  26  27
HETATM   27  O5  UNL     1      -1.539   1.692  -2.836  1.00  0.00    -0.398 OA
ATOM     28  H5  UNL     1      -1.666   2.548  -3.228  1.00  0.00     0.209 HD
ENDBRANCH  26  27
ENDBRANCH   3  26
BRANCH   5  29
HETATM   29  O7  UNL     1      -4.081  -2.242   0.887  1.00  0.00    -0.390 OA
ATOM     30  H7  UNL     1      -3.950  -3.166   1.065  1.00  0.00     0.210 HD
ENDBRANCH   5  29
BRANCH   4  31
HETATM   31  O6  UNL     1      -4.654   0.071  -0.578  1.00  0.00    -0.375 OA
BRANCH  31  32
HETATM   32  C15 UNL     1      -5.299   0.984   0.219  1.00  0.00     0.122 C 
HETATM   33  C16 UNL     1      -6.387   0.192   0.972  1.00  0.00     0.032 C 
HETATM   34  C17 UNL     1      -7.554   1.100   1.308  1.00  0.00     0.002 C 
HETATM   35  C18 UNL     1      -8.266   1.404   0.003  1.00  0.00     0.000 C 
HETATM   36  C19 UNL     1      -7.281   1.716  -1.100  1.00  0.00     0.002 C 
HETATM   37  C20 UNL     1      -5.936   2.133  -0.512  1.00  0.00     0.032 C 
ENDBRANCH  31  32
ENDBRANCH   4  31
TORSDOF 14
