REMARK  14 active torsions:
REMARK  status: ('A' for Active; 'I' for Inactive)
REMARK    1  A    between atoms: C2_2  and  C3_3 
REMARK    2  A    between atoms: C3_3  and  C4_4 
REMARK    3  A    between atoms: C4_4  and  C5_5 
REMARK    4  A    between atoms: C5_5  and  C6_6 
REMARK    5  A    between atoms: C6_6  and  C7_7 
REMARK    6  A    between atoms: C7_7  and  C8_8 
REMARK    7  A    between atoms: C8_8  and  C9_9 
REMARK    8  A    between atoms: C10_10  and  O1_11 
REMARK    9  A    between atoms: C11_13  and  O2_14 
REMARK   10  A    between atoms: O2_14  and  C12_15 
REMARK   11  A    between atoms: C15_19  and  O4_20 
REMARK   12  A    between atoms: C16_22  and  O5_23 
REMARK   13  A    between atoms: C19_28  and  O7_29 
REMARK   14  A    between atoms: C22_35  and  O8_36 
ROOT
HETATM    1  C9  UNL     1      -0.490  -1.713   0.428  1.00  0.00     0.050 C 
HETATM    2  C10 UNL     1      -1.230  -0.588   0.455  1.00  0.00     0.121 C 
HETATM    3  C11 UNL     1      -2.543  -0.296   1.122  1.00  0.00     0.323 C 
HETATM    4  O6  UNL     1      -2.958  -1.386   1.824  1.00  0.00    -0.346 OA
HETATM    5  C17 UNL     1      -2.134  -1.834   2.829  1.00  0.00     0.169 C 
HETATM    6  C18 UNL     1      -1.198  -0.842   3.413  1.00  0.00     0.044 C 
HETATM    7  C19 UNL     1      -1.380  -3.082   2.426  1.00  0.00     0.246 C 
HETATM    8  N1  UNL     1      -0.842  -2.933   1.063  1.00  0.00    -0.362 N 
ATOM      9  H1  UNL     1      -0.710  -3.788   0.524  1.00  0.00     0.162 HD
ENDROOT
BRANCH   1  10
HETATM   10  C8  UNL     1       0.773  -1.689  -0.321  1.00  0.00     0.007 C 
HETATM   11  C20 UNL     1       0.473  -1.173  -1.710  1.00  0.00     0.018 C 
HETATM   12  C21 UNL     1       1.153  -2.112  -2.690  1.00  0.00     0.033 C 
HETATM   13  C22 UNL     1       1.191  -3.432  -1.945  1.00  0.00     0.119 C 
HETATM   14  C23 UNL     1       1.367  -3.066  -0.495  1.00  0.00     0.047 C 
BRANCH  10  15
HETATM   15  C7  UNL     1       1.793  -0.754   0.302  1.00  0.00     0.016 C 
BRANCH  15  16
HETATM   16  C6  UNL     1       3.102  -0.666  -0.439  1.00  0.00     0.001 C 
BRANCH  16  17
HETATM   17  C5  UNL     1       3.994   0.333   0.330  1.00  0.00     0.000 C 
BRANCH  17  18
HETATM   18  C4  UNL     1       5.338   0.453  -0.390  1.00  0.00     0.000 C 
BRANCH  18  19
HETATM   19  C3  UNL     1       6.244   1.414   0.319  1.00  0.00    -0.000 C 
BRANCH  19  20
HETATM   20  C2  UNL     1       5.670   2.793   0.405  1.00  0.00    -0.005 C 
HETATM   21  C1  UNL     1       5.415   3.358  -0.969  1.00  0.00     0.005 C 
ENDBRANCH  19  20
ENDBRANCH  18  19
ENDBRANCH  17  18
ENDBRANCH  16  17
ENDBRANCH  15  16
ENDBRANCH  10  15
BRANCH  13  22
HETATM   22  O8  UNL     1       0.082  -4.228  -2.194  1.00  0.00    -0.396 OA
ATOM     23  H8  UNL     1       0.106  -5.055  -1.727  1.00  0.00     0.210 HD
ENDBRANCH  13  22
ENDBRANCH   1  10
BRANCH   2  24
HETATM   24  O1  UNL     1      -0.755   0.521  -0.226  1.00  0.00    -0.358 OA
ATOM     25  H1  UNL     1      -1.277   1.315  -0.207  1.00  0.00     0.217 HD
ENDBRANCH   2  24
BRANCH   3  26
HETATM   26  O2  UNL     1      -3.468  -0.044   0.117  1.00  0.00    -0.322 OA
BRANCH  26  27
HETATM   27  C12 UNL     1      -3.955   1.214   0.071  1.00  0.00     0.295 C 
HETATM   28  O3  UNL     1      -5.326   1.335   0.262  1.00  0.00    -0.351 OA
HETATM   29  C13 UNL     1      -5.474   2.722   0.022  1.00  0.00     0.152 C 
HETATM   30  C14 UNL     1      -6.878   3.175   0.121  1.00  0.00     0.042 C 
HETATM   31  C15 UNL     1      -4.902   2.806  -1.379  1.00  0.00     0.180 C 
HETATM   32  C16 UNL     1      -3.633   1.972  -1.200  1.00  0.00     0.204 C 
BRANCH  31  33
HETATM   33  O4  UNL     1      -5.789   2.146  -2.223  1.00  0.00    -0.390 OA
ATOM     34  H4  UNL     1      -5.430   2.199  -3.101  1.00  0.00     0.210 HD
ENDBRANCH  31  33
BRANCH  32  35
HETATM   35  O5  UNL     1      -3.424   1.111  -2.259  1.00  0.00    -0.388 OA
ATOM     36  H5  UNL     1      -3.222   1.586  -3.056  1.00  0.00     0.210 HD
ENDBRANCH  32  35
ENDBRANCH  26  27
ENDBRANCH   3  26
BRANCH   7  37
HETATM   37  O7  UNL     1      -0.335  -3.330   3.293  1.00  0.00    -0.374 OA
ATOM     38  H7  UNL     1       0.139  -4.114   3.040  1.00  0.00     0.212 HD
ENDBRANCH   7  37
TORSDOF 14
