REMARK  16 active torsions:
REMARK  status: ('A' for Active; 'I' for Inactive)
REMARK    1  A    between atoms: C2_2  and  C3_3 
REMARK    2  A    between atoms: C3_3  and  C4_4 
REMARK    3  A    between atoms: C4_4  and  C5_5 
REMARK    4  A    between atoms: C5_5  and  C6_6 
REMARK    5  A    between atoms: C6_6  and  C7_7 
REMARK    6  A    between atoms: C8_9  and  C9_10 
REMARK    7  A    between atoms: C10_11  and  C11_12 
REMARK    8  A    between atoms: C11_12  and  O2_13 
REMARK    9  A    between atoms: O2_13  and  C12_14 
REMARK   10  A    between atoms: C13_16  and  C14_17 
REMARK   11  A    between atoms: C14_17  and  O4_18 
REMARK   12  A    between atoms: C15_20  and  O5_21 
REMARK   13  A    between atoms: C16_23  and  O6_24 
REMARK   14  A    between atoms: C17_26  and  N1_27 
REMARK   15  A    between atoms: C22_32  and  O7_33 
REMARK   16  A    between atoms: C23_35  and  O8_36 
ROOT
HETATM    1  O2  UNL     1      -2.933  -1.474   1.630  1.00  0.00    -0.347 OA
ENDROOT
BRANCH   1   2
HETATM    2  C11 UNL     1      -1.624  -1.839   1.914  1.00  0.00     0.264 C 
BRANCH   2   3
HETATM    3  C10 UNL     1      -0.618  -0.968   1.357  1.00  0.00    -0.078 C 
HETATM    4  C9  UNL     1       0.196  -0.238   0.888  1.00  0.00    -0.070 C 
BRANCH   4   5
HETATM    5  C8  UNL     1       1.180   0.676   0.299  1.00  0.00     0.232 C 
HETATM    6  O1  UNL     1       2.272   0.864   1.097  1.00  0.00    -0.363 OA
HETATM    7  C7  UNL     1       3.414   0.418   0.428  1.00  0.00     0.154 C 
HETATM    8  C23 UNL     1       3.110   0.624  -1.021  1.00  0.00     0.179 C 
HETATM    9  C22 UNL     1       1.620   0.261  -1.063  1.00  0.00     0.190 C 
BRANCH   7  10
HETATM   10  C6  UNL     1       4.572   1.207   0.923  1.00  0.00     0.035 C 
BRANCH  10  11
HETATM   11  C5  UNL     1       5.910   0.838   0.275  1.00  0.00     0.002 C 
BRANCH  11  12
HETATM   12  C4  UNL     1       6.263  -0.585   0.528  1.00  0.00     0.000 C 
BRANCH  12  13
HETATM   13  C3  UNL     1       7.520  -1.030  -0.109  1.00  0.00    -0.000 C 
BRANCH  13  14
HETATM   14  C2  UNL     1       8.795  -0.385   0.275  1.00  0.00    -0.005 C 
HETATM   15  C1  UNL     1       8.967   1.051  -0.043  1.00  0.00     0.005 C 
ENDBRANCH  13  14
ENDBRANCH  12  13
ENDBRANCH  11  12
ENDBRANCH  10  11
ENDBRANCH   7  10
BRANCH   8  16
HETATM   16  O8  UNL     1       3.750  -0.236  -1.878  1.00  0.00    -0.390 OA
ATOM     17  H8  UNL     1       3.557  -0.105  -2.799  1.00  0.00     0.210 HD
ENDBRANCH   8  16
BRANCH   9  18
HETATM   18  O7  UNL     1       1.007   0.982  -2.084  1.00  0.00    -0.389 OA
ATOM     19  H7  UNL     1       1.287   0.717  -2.952  1.00  0.00     0.210 HD
ENDBRANCH   9  18
ENDBRANCH   4   5
ENDBRANCH   2   3
ENDBRANCH   1   2
BRANCH   1  20
HETATM   20  C12 UNL     1      -3.122  -1.465   0.276  1.00  0.00     0.297 C 
HETATM   21  O3  UNL     1      -3.960  -2.493  -0.059  1.00  0.00    -0.349 OA
HETATM   22  C13 UNL     1      -5.250  -2.208  -0.372  1.00  0.00     0.179 C 
HETATM   23  C15 UNL     1      -5.488  -1.007  -1.224  1.00  0.00     0.180 C 
HETATM   24  C16 UNL     1      -4.143  -0.397  -1.647  1.00  0.00     0.187 C 
HETATM   25  C17 UNL     1      -3.441  -0.128  -0.306  1.00  0.00     0.308 C 
BRANCH  22  26
HETATM   26  C14 UNL     1      -6.176  -2.256   0.849  1.00  0.00     0.198 C 
BRANCH  26  27
HETATM   27  O4  UNL     1      -7.484  -1.955   0.478  1.00  0.00    -0.398 OA
ATOM     28  H4  UNL     1      -8.058  -1.985   1.235  1.00  0.00     0.209 HD
ENDBRANCH  26  27
ENDBRANCH  22  26
BRANCH  23  29
HETATM   29  O5  UNL     1      -6.154  -1.293  -2.422  1.00  0.00    -0.390 OA
ATOM     30  H5  UNL     1      -6.306  -0.528  -2.965  1.00  0.00     0.210 HD
ENDBRANCH  23  29
BRANCH  24  31
HETATM   31  O6  UNL     1      -3.396  -1.330  -2.359  1.00  0.00    -0.391 OA
ATOM     32  H6  UNL     1      -2.564  -0.953  -2.621  1.00  0.00     0.210 HD
ENDBRANCH  24  31
BRANCH  25  33
HETATM   33  N1  UNL     1      -4.307   0.711   0.436  1.00  0.00     0.100 N 
HETATM   34  C18 UNL     1      -4.440   1.964  -0.285  1.00  0.00     0.273 C 
HETATM   35  C19 UNL     1      -4.808   3.024   0.699  1.00  0.00     0.032 C 
HETATM   36  C20 UNL     1      -4.556   2.421   2.052  1.00  0.00     0.032 C 
HETATM   37  C21 UNL     1      -3.914   1.056   1.761  1.00  0.00     0.273 C 
ENDBRANCH  25  33
ENDBRANCH   1  20
TORSDOF 16
