REMARK  8 active torsions:
REMARK  status: ('A' for Active; 'I' for Inactive)
REMARK    1  A    between atoms: C5_5  and  C6_6 
REMARK    2  A    between atoms: C10_10  and  N1_11 
REMARK    3  A    between atoms: N1_11  and  S1_13 
REMARK    4  A    between atoms: S1_13  and  C11_16 
REMARK    5  A    between atoms: C11_16  and  C12_17 
REMARK    6  A    between atoms: C12_17  and  N2_18 
REMARK       I    between atoms: N2_18  and  C13_20 
REMARK       I    between atoms: C13_20  and  N3_22 
REMARK    7  A    between atoms: N3_22  and  C14_23 
REMARK    8  A    between atoms: N3_22  and  C17_26 
ROOT
HETATM    1  S1  UNL     1      -0.456  -2.829  -1.536  1.00  0.00     0.228 S 
HETATM    2  O1  UNL     1      -0.936  -4.122  -0.871  1.00  0.00    -0.206 OA
HETATM    3  O2  UNL     1       0.189  -3.176  -2.875  1.00  0.00    -0.206 OA
ENDROOT
BRANCH   1   4
HETATM    4  N1  UNL     1      -1.646  -1.686  -1.650  1.00  0.00    -0.314 N 
ATOM      5  H1  UNL     1      -1.879  -1.286  -2.559  1.00  0.00     0.172 HD
BRANCH   4   6
HETATM    6  C10 UNL     1      -2.361  -1.248  -0.464  1.00  0.00     0.101 C 
HETATM    7  C5  UNL     1      -2.323   0.214  -0.243  1.00  0.00     0.017 C 
HETATM    8  C4  UNL     1      -3.329   0.998  -1.046  1.00  0.00     0.008 C 
HETATM    9  C3  UNL     1      -4.432   0.168  -1.620  1.00  0.00     0.005 C 
HETATM   10  C2  UNL     1      -4.867  -0.958  -0.755  1.00  0.00    -0.013 C 
HETATM   11  C1  UNL     1      -5.925  -1.736  -1.557  1.00  0.00     0.010 C 
HETATM   12  C20 UNL     1      -3.750  -1.878  -0.446  1.00  0.00     0.009 C 
HETATM   13  C21 UNL     1      -4.026  -2.535   0.888  1.00  0.00     0.012 C 
BRANCH   7  14
HETATM   14  C6  UNL     1      -2.116   0.742   1.135  1.00  0.00    -0.046 C 
HETATM   15  C7  UNL     1      -1.598   2.206   1.068  1.00  0.00     0.015 C 
HETATM   16  C8  UNL     1      -3.349   0.850   1.996  1.00  0.00     0.015 C 
HETATM   17  C9  UNL     1      -1.084   0.046   1.953  1.00  0.00     0.015 C 
ENDBRANCH   7  14
ENDBRANCH   4   6
ENDBRANCH   1   4
BRANCH   1  18
HETATM   18  C11 UNL     1       0.878  -2.271  -0.518  1.00  0.00     0.182 C 
BRANCH  18  19
HETATM   19  C12 UNL     1       1.556  -1.020  -1.051  1.00  0.00     0.141 C 
BRANCH  19  20
HETATM   20  N2  UNL     1       2.609  -0.654  -0.158  1.00  0.00    -0.342 N 
HETATM   21  C13 UNL     1       3.396   0.493  -0.443  1.00  0.00     0.319 C 
HETATM   22  O3  UNL     1       3.147   1.182  -1.503  1.00  0.00    -0.247 OA
HETATM   23  N3  UNL     1       4.460   0.923   0.392  1.00  0.00    -0.326 N 
ATOM     24  H2  UNL     1       2.794  -1.211   0.676  1.00  0.00     0.164 HD
BRANCH  23  25
HETATM   25  C14 UNL     1       5.186   2.134  -0.039  1.00  0.00     0.081 C 
HETATM   26  C15 UNL     1       4.205   3.249  -0.219  1.00  0.00     0.032 C 
HETATM   27  C16 UNL     1       5.845   1.849  -1.369  1.00  0.00     0.032 C 
ENDBRANCH  23  25
BRANCH  23  28
HETATM   28  C17 UNL     1       4.851   0.246   1.609  1.00  0.00     0.089 A 
HETATM   29  C18 UNL     1       6.312   0.225   1.981  1.00  0.00     0.027 A 
HETATM   30  C19 UNL     1       5.343   1.057   2.752  1.00  0.00     0.027 A 
ENDBRANCH  23  28
ENDBRANCH  19  20
ENDBRANCH  18  19
ENDBRANCH   1  18
TORSDOF 8
