REMARK  8 active torsions:
REMARK  status: ('A' for Active; 'I' for Inactive)
REMARK    1  A    between atoms: C6_6  and  S1_7 
REMARK    2  A    between atoms: S1_7  and  N1_10 
REMARK    3  A    between atoms: N1_10  and  C7_12 
REMARK    4  A    between atoms: C7_12  and  C8_13 
REMARK    5  A    between atoms: C8_13  and  C9_14 
REMARK    6  A    between atoms: C9_14  and  C10_15 
REMARK    7  A    between atoms: C10_15  and  C11_16 
REMARK    8  A    between atoms: C11_16  and  N2_17 
ROOT
HETATM    1  C7  UNL     1       1.795   1.658   1.014  1.00  0.00     0.132 C 
ENDROOT
BRANCH   1   2
HETATM    2  N1  UNL     1       2.586   2.667   0.352  1.00  0.00    -0.315 N 
ATOM      3  H1  UNL     1       2.262   3.304  -0.376  1.00  0.00     0.172 HD
BRANCH   2   4
HETATM    4  S1  UNL     1       4.177   2.603   1.012  1.00  0.00     0.259 S 
HETATM    5  O1  UNL     1       5.008   3.788   0.608  1.00  0.00    -0.201 OA
HETATM    6  O2  UNL     1       3.997   2.744   2.521  1.00  0.00    -0.201 OA
BRANCH   4   7
HETATM    7  C6  UNL     1       4.973   1.087   0.759  1.00  0.00     0.086 A 
HETATM    8  C4  UNL     1       5.189   0.642  -0.523  1.00  0.00    -0.038 A 
HETATM    9  C3  UNL     1       5.827  -0.578  -0.758  1.00  0.00     0.015 A 
HETATM   10  C5  UNL     1       4.739   1.471  -1.665  1.00  0.00     0.050 C 
HETATM   11  C2  UNL     1       6.249  -1.355   0.293  1.00  0.00    -0.056 A 
HETATM   12  C1  UNL     1       6.921  -2.641   0.008  1.00  0.00     0.049 C 
HETATM   13  C20 UNL     1       6.048  -0.938   1.578  1.00  0.00    -0.055 A 
HETATM   14  C19 UNL     1       5.417   0.269   1.789  1.00  0.00     0.033 A 
HETATM   15  C21 UNL     1       6.481  -1.733   2.761  1.00  0.00     0.049 C 
ENDBRANCH   4   7
ENDBRANCH   2   4
ENDBRANCH   1   2
BRANCH   1  16
HETATM   16  C8  UNL     1       0.365   1.614   0.517  1.00  0.00     0.020 C 
BRANCH  16  17
HETATM   17  C9  UNL     1      -0.325   0.523   1.300  1.00  0.00     0.003 C 
BRANCH  17  18
HETATM   18  C10 UNL     1      -1.770   0.349   0.928  1.00  0.00     0.020 C 
BRANCH  18  19
HETATM   19  C11 UNL     1      -1.934  -0.011  -0.533  1.00  0.00     0.125 C 
BRANCH  19  20
HETATM   20  N2  UNL     1      -3.347  -0.180  -0.863  1.00  0.00    -0.358 N 
HETATM   21  C12 UNL     1      -4.081  -1.310  -0.302  1.00  0.00     0.136 C 
HETATM   22  C13 UNL     1      -5.548  -1.095  -0.434  1.00  0.00    -0.011 C 
HETATM   23  C14 UNL     1      -6.334  -1.798   0.670  1.00  0.00     0.018 C 
HETATM   24  C15 UNL     1      -6.037  -1.625  -1.779  1.00  0.00     0.018 C 
HETATM   25  C16 UNL     1      -5.895   0.363  -0.348  1.00  0.00     0.089 C 
HETATM   26  C17 UNL     1      -7.369   0.558  -0.232  1.00  0.00     0.033 C 
HETATM   27  N3  UNL     1      -5.360   0.977  -1.571  1.00  0.00    -0.362 N 
HETATM   28  C18 UNL     1      -3.938   0.781  -1.725  1.00  0.00     0.170 C 
ATOM     29  H3  UNL     1      -5.934   1.489  -2.242  1.00  0.00     0.162 HD
HETATM   30  S2  UNL     1      -3.091   1.625  -2.824  1.00  0.00    -0.041 SA
ENDBRANCH  19  20
ENDBRANCH  18  19
ENDBRANCH  17  18
ENDBRANCH  16  17
ENDBRANCH   1  16
TORSDOF 8
