REMARK  12 active torsions:
REMARK  status: ('A' for Active; 'I' for Inactive)
REMARK       I    between atoms: C2_2  and  N1_4 
REMARK    1  A    between atoms: N1_4  and  C3_5 
REMARK    2  A    between atoms: C3_5  and  C5_7 
REMARK    3  A    between atoms: C3_5  and  C22_31 
REMARK    4  A    between atoms: C5_7  and  O2_8 
REMARK    5  A    between atoms: C5_7  and  N2_10 
REMARK    6  A    between atoms: N2_10  and  C6_11 
REMARK    7  A    between atoms: N2_10  and  C19_28 
REMARK    8  A    between atoms: C6_11  and  C7_12 
REMARK    9  A    between atoms: C7_12  and  O3_13 
REMARK   10  A    between atoms: N3_15  and  C8_17 
REMARK   11  A    between atoms: C8_17  and  C9_18 
REMARK   12  A    between atoms: C12_21  and  C13_22 
ROOT
HETATM    1  C6  UNL     1       1.107  -1.448   0.628  1.00  0.00     0.208 C 
ENDROOT
BRANCH   1   2
HETATM    2  N2  UNL     1       1.809  -0.992  -0.507  1.00  0.00    -0.351 N 
BRANCH   2   3
HETATM    3  C5  UNL     1       2.965  -0.262  -0.623  1.00  0.00     0.157 C 
BRANCH   3   4
HETATM    4  C3  UNL     1       4.145   0.047   0.278  1.00  0.00     0.160 C 
HETATM    5  C4  UNL     1       4.521  -1.333   0.898  1.00  0.00     0.064 C 
BRANCH   4   6
HETATM    6  N1  UNL     1       5.215   0.420  -0.639  1.00  0.00    -0.395 NA
HETATM    7  C2  UNL     1       6.148   0.777  -1.448  1.00  0.00     0.283 C 
HETATM    8  C1  UNL     1       6.946  -0.763  -1.776  1.00  0.00     0.134 C 
HETATM    9  O1  UNL     1       6.845   1.421  -2.144  1.00  0.00    -0.258 OA
ENDBRANCH   4   6
BRANCH   4  10
HETATM   10  C22 UNL     1       3.921   0.985   1.374  1.00  0.00     0.027 C 
HETATM   11  C23 UNL     1       3.461   2.393   0.973  1.00  0.00     0.014 C 
HETATM   12  C24 UNL     1       5.391   1.334   1.885  1.00  0.00     0.014 C 
ENDBRANCH   4  10
ENDBRANCH   3   4
BRANCH   3  13
HETATM   13  O2  UNL     1       3.128   0.291  -1.803  1.00  0.00    -0.347 OA
ATOM     14  H2  UNL     1       2.389   0.097  -2.367  1.00  0.00     0.219 HD
ENDBRANCH   3  13
ENDBRANCH   2   3
BRANCH   2  15
HETATM   15  C19 UNL     1       1.430  -1.661  -1.846  1.00  0.00     0.078 C 
HETATM   16  C20 UNL     1       0.230  -1.094  -2.456  1.00  0.00     0.032 C 
HETATM   17  C21 UNL     1       1.580  -3.113  -1.665  1.00  0.00     0.032 C 
ENDBRANCH   2  15
ENDBRANCH   1   2
BRANCH   1  18
HETATM   18  C7  UNL     1       0.061  -0.548   1.226  1.00  0.00     0.130 C 
HETATM   19  N3  UNL     1      -0.398   0.548   1.021  1.00  0.00    -0.369 N 
ATOM     20  H3  UNL     1       0.063   0.831   0.156  1.00  0.00     0.161 HD
BRANCH  18  21
HETATM   21  O3  UNL     1      -0.446  -1.306   2.313  1.00  0.00    -0.348 OA
ATOM     22  H3  UNL     1      -1.107  -0.737   2.691  1.00  0.00     0.219 HD
ENDBRANCH  18  21
BRANCH  19  23
HETATM   23  C8  UNL     1      -1.256   1.703   1.330  1.00  0.00     0.160 C 
BRANCH  23  24
HETATM   24  C9  UNL     1      -2.654   1.326   0.958  1.00  0.00    -0.041 A 
HETATM   25  C10 UNL     1      -3.515   0.902   1.952  1.00  0.00     0.009 A 
HETATM   26  C11 UNL     1      -4.802   0.509   1.568  1.00  0.00     0.008 A 
HETATM   27  C12 UNL     1      -5.273   0.517   0.285  1.00  0.00    -0.051 A 
HETATM   28  C17 UNL     1      -4.366   0.962  -0.685  1.00  0.00     0.008 A 
HETATM   29  C18 UNL     1      -3.100   1.344  -0.318  1.00  0.00     0.009 A 
BRANCH  27  30
HETATM   30  C13 UNL     1      -6.639   0.108   0.008  1.00  0.00    -0.024 C 
HETATM   31  C14 UNL     1      -7.584   1.188   0.562  1.00  0.00     0.019 C 
HETATM   32  C15 UNL     1      -7.023  -1.161   0.716  1.00  0.00     0.019 C 
HETATM   33  C16 UNL     1      -6.969  -0.080  -1.455  1.00  0.00     0.019 C 
ENDBRANCH  27  30
ENDBRANCH  23  24
ENDBRANCH  19  23
ENDBRANCH   1  18
TORSDOF 12
