REMARK  8 active torsions:
REMARK  status: ('A' for Active; 'I' for Inactive)
REMARK    1  A    between atoms: C5_5  and  C6_6 
REMARK    2  A    between atoms: C11_13  and  S1_14 
REMARK    3  A    between atoms: S1_14  and  N2_17 
REMARK    4  A    between atoms: N2_17  and  C12_19 
REMARK    5  A    between atoms: C12_19  and  C13_20 
REMARK    6  A    between atoms: C12_19  and  C18_25 
REMARK    7  A    between atoms: C13_20  and  C14_21 
REMARK    8  A    between atoms: C14_21  and  C15_22 
REMARK       I    between atoms: C18_25  and  N3_27 
ROOT
HETATM    1  S1  UNL     1       0.755  -0.304  -0.577  1.00  0.00     0.262 S 
HETATM    2  O1  UNL     1       1.111   0.345  -1.936  1.00  0.00    -0.200 OA
HETATM    3  O2  UNL     1       0.832   0.871   0.410  1.00  0.00    -0.200 OA
ENDROOT
BRANCH   1   4
HETATM    4  C11 UNL     1       1.974  -1.484  -0.221  1.00  0.00     0.114 A 
HETATM    5  C6  UNL     1       3.347  -1.163  -0.262  1.00  0.00     0.022 A 
HETATM    6  C7  UNL     1       4.010  -2.356  -0.083  1.00  0.00     0.018 A 
HETATM    7  C8  UNL     1       5.487  -2.463  -0.113  1.00  0.00     0.069 C 
HETATM    8  N1  UNL     1       3.111  -3.340   0.066  1.00  0.00    -0.361 N 
HETATM    9  C9  UNL     1       1.858  -2.839  -0.014  1.00  0.00     0.030 A 
ATOM     10  H1  UNL     1       3.339  -4.323   0.217  1.00  0.00     0.165 HD
HETATM   11  C10 UNL     1       0.602  -3.636   0.134  1.00  0.00     0.070 C 
BRANCH   5  12
HETATM   12  C5  UNL     1       3.929   0.155  -0.387  1.00  0.00    -0.022 A 
HETATM   13  C4  UNL     1       4.131   0.829  -1.565  1.00  0.00     0.013 A 
HETATM   14  C3  UNL     1       4.734   2.087  -1.489  1.00  0.00     0.007 A 
HETATM   15  C2  UNL     1       5.110   2.633  -0.282  1.00  0.00    -0.062 A 
HETATM   16  C1  UNL     1       5.760   3.988  -0.215  1.00  0.00     0.048 C 
HETATM   17  C22 UNL     1       4.902   1.946   0.923  1.00  0.00     0.007 A 
HETATM   18  C21 UNL     1       4.318   0.725   0.844  1.00  0.00     0.013 A 
ENDBRANCH   5  12
ENDBRANCH   1   4
BRANCH   1  19
HETATM   19  N2  UNL     1      -0.823  -0.830  -0.649  1.00  0.00    -0.301 N 
ATOM     20  H2  UNL     1      -1.097  -1.600  -1.259  1.00  0.00     0.173 HD
BRANCH  19  21
HETATM   21  C12 UNL     1      -1.782  -0.159   0.179  1.00  0.00     0.185 C 
BRANCH  21  22
HETATM   22  C13 UNL     1      -2.775   0.668  -0.511  1.00  0.00     0.036 C 
BRANCH  22  23
HETATM   23  C14 UNL     1      -3.584   1.559   0.417  1.00  0.00     0.006 C 
BRANCH  23  24
HETATM   24  C15 UNL     1      -4.626   2.337  -0.298  1.00  0.00    -0.023 C 
HETATM   25  C16 UNL     1      -5.300   3.304   0.669  1.00  0.00     0.009 C 
HETATM   26  C17 UNL     1      -4.300   2.956  -1.607  1.00  0.00     0.009 C 
ENDBRANCH  23  24
ENDBRANCH  22  23
ENDBRANCH  21  22
BRANCH  21  27
HETATM   27  C18 UNL     1      -2.333  -1.169   1.102  1.00  0.00     0.242 C 
HETATM   28  O3  UNL     1      -1.813  -1.348   2.246  1.00  0.00    -0.271 OA
HETATM   29  N3  UNL     1      -3.453  -2.033   0.815  1.00  0.00    -0.359 N 
HETATM   30  C19 UNL     1      -4.076  -2.247  -0.440  1.00  0.00     0.152 C 
HETATM   31  C20 UNL     1      -4.017  -2.749   1.959  1.00  0.00     0.152 C 
ENDBRANCH  21  27
ENDBRANCH  19  21
ENDBRANCH   1  19
TORSDOF 8
