REMARK  11 active torsions:
REMARK  status: ('A' for Active; 'I' for Inactive)
REMARK    1  A    between atoms: C2_2  and  C3_3 
REMARK    2  A    between atoms: C3_3  and  C4_4 
REMARK    3  A    between atoms: C4_4  and  O1_5 
REMARK    4  A    between atoms: N1_7  and  C5_9 
REMARK    5  A    between atoms: C9_15  and  N3_16 
REMARK    6  A    between atoms: N3_16  and  C10_17 
REMARK    7  A    between atoms: C10_17  and  C11_18 
REMARK    8  A    between atoms: C14_21  and  C15_22 
REMARK       I    between atoms: C15_22  and  N4_24 
REMARK    9  A    between atoms: N4_24  and  C17_26 
REMARK   10  A    between atoms: C17_26  and  C18_27 
REMARK   11  A    between atoms: C17_26  and  C20_29 
ROOT
HETATM    1  N3  UNL     1       1.792   0.355  -0.986  1.00  0.00    -0.399 NA
ENDROOT
BRANCH   1   2
HETATM    2  C9  UNL     1       2.839  -0.086  -0.594  1.00  0.00     0.194 A 
HETATM    3  C8  UNL     1       3.132  -1.463  -0.681  1.00  0.00     0.089 A 
HETATM    4  C6  UNL     1       4.283  -2.019  -0.209  1.00  0.00     0.027 A 
HETATM    5  N2  UNL     1       5.195  -1.176   0.370  1.00  0.00    -0.195 N 
HETATM    6  C7  UNL     1       4.558  -3.493  -0.318  1.00  0.00     0.069 C 
HETATM    7  C5  UNL     1       4.924   0.120   0.441  1.00  0.00     0.686 A 
ATOM      8  H2  UNL     1       6.072  -1.541   0.742  1.00  0.00     0.184 HD
HETATM    9  N5  UNL     1       3.787   0.676  -0.009  1.00  0.00    -0.164 N 
ATOM     10  H5  UNL     1       3.639   1.680   0.092  1.00  0.00     0.187 HD
BRANCH   7  11
HETATM   11  N1  UNL     1       5.785   0.922   0.984  1.00  0.00    -0.174 N 
HETATM   12  C4  UNL     1       6.996   0.681   1.537  1.00  0.00     0.131 C 
ATOM     13  H1  UNL     1       5.501   1.902   0.997  1.00  0.00     0.186 HD
BRANCH  12  14
HETATM   14  C3  UNL     1       8.170   0.156   0.855  1.00  0.00     0.084 C 
BRANCH  14  15
HETATM   15  C2  UNL     1       8.937   1.365   0.287  1.00  0.00     0.003 C 
HETATM   16  C1  UNL     1      10.282   0.945  -0.256  1.00  0.00     0.005 C 
ENDBRANCH  14  15
ENDBRANCH  12  14
BRANCH  12  17
HETATM   17  O1  UNL     1       7.178   0.941   2.816  1.00  0.00    -0.349 OA
ATOM     18  H1  UNL     1       6.412   1.284   3.261  1.00  0.00     0.219 HD
ENDBRANCH  12  17
ENDBRANCH   7  11
ENDBRANCH   1   2
BRANCH   1  19
HETATM   19  C10 UNL     1       0.680   0.896  -1.392  1.00  0.00     0.196 C 
BRANCH  19  20
HETATM   20  C11 UNL     1      -0.524   0.681  -0.520  1.00  0.00    -0.001 A 
HETATM   21  C12 UNL     1      -0.918   1.591   0.384  1.00  0.00     0.015 A 
HETATM   22  C13 UNL     1      -2.245   1.567   0.930  1.00  0.00     0.018 A 
HETATM   23  C14 UNL     1      -3.113   0.595   0.514  1.00  0.00     0.032 A 
HETATM   24  C22 UNL     1      -2.661  -0.342  -0.414  1.00  0.00     0.024 A 
HETATM   25  C23 UNL     1      -1.398  -0.301  -0.920  1.00  0.00    -0.048 A 
HETATM   26  C24 UNL     1      -0.841  -1.439  -1.762  1.00  0.00     0.049 C 
BRANCH  23  27
HETATM   27  C15 UNL     1      -4.478   0.556   1.040  1.00  0.00     0.253 C 
HETATM   28  O2  UNL     1      -4.667   0.737   2.261  1.00  0.00    -0.267 OA
HETATM   29  N4  UNL     1      -5.544   0.328   0.115  1.00  0.00    -0.348 N 
HETATM   30  C16 UNL     1      -5.278   0.185  -1.345  1.00  0.00     0.153 C 
BRANCH  29  31
HETATM   31  C17 UNL     1      -6.934   0.233   0.512  1.00  0.00     0.086 C 
BRANCH  31  32
HETATM   32  C18 UNL     1      -7.289  -1.090   1.169  1.00  0.00     0.021 C 
HETATM   33  C19 UNL     1      -6.904  -2.160   0.129  1.00  0.00     0.007 C 
ENDBRANCH  31  32
BRANCH  31  34
HETATM   34  C20 UNL     1      -7.388   1.451   1.252  1.00  0.00     0.021 C 
HETATM   35  C21 UNL     1      -7.144   2.627   0.337  1.00  0.00     0.007 C 
ENDBRANCH  31  34
ENDBRANCH  29  31
ENDBRANCH  23  27
ENDBRANCH  19  20
ENDBRANCH   1  19
TORSDOF 11
