REMARK  12 active torsions:
REMARK  status: ('A' for Active; 'I' for Inactive)
REMARK    1  A    between atoms: C5_5  and  O1_6 
REMARK    2  A    between atoms: C7_8  and  C8_9 
REMARK    3  A    between atoms: C8_9  and  C9_10 
REMARK    4  A    between atoms: C10_11  and  C12_13 
REMARK    5  A    between atoms: C13_14  and  C14_15 
REMARK    6  A    between atoms: C18_19  and  O2_21 
REMARK    7  A    between atoms: C20_23  and  C21_24 
REMARK       I    between atoms: C21_24  and  N1_26 
REMARK    8  A    between atoms: N1_26  and  C22_28 
REMARK    9  A    between atoms: C22_28  and  C23_29 
REMARK   10  A    between atoms: C22_28  and  C26_36 
REMARK   11  A    between atoms: C23_29  and  C24_30 
REMARK       I    between atoms: C24_30  and  N2_32 
REMARK   12  A    between atoms: N2_32  and  O5_34 
ROOT
HETATM    1  C14 UNL     1      -0.745   0.873   0.867  1.00  0.00     0.014 C 
HETATM    2  C15 UNL     1       0.481   1.296   0.647  1.00  0.00    -0.021 C 
HETATM    3  C16 UNL     1       0.829   2.245  -0.413  1.00  0.00     0.049 C 
HETATM    4  C17 UNL     1       1.952   3.152   0.077  1.00  0.00     0.044 C 
HETATM    5  C18 UNL     1       3.260   2.383   0.168  1.00  0.00     0.076 C 
HETATM    6  C19 UNL     1       3.500   1.549  -1.049  1.00  0.00     0.047 C 
HETATM    7  C20 UNL     1       3.279   1.690   1.476  1.00  0.00     0.178 C 
HETATM    8  S1  UNL     1       1.817   0.673   1.686  1.00  0.00    -0.117 SA
ENDROOT
BRANCH   1   9
HETATM    9  C13 UNL     1      -1.904   1.270   0.108  1.00  0.00     0.002 C 
HETATM   10  C12 UNL     1      -3.091   0.822   0.384  1.00  0.00     0.006 C 
BRANCH  10  11
HETATM   11  C10 UNL     1      -4.254   1.213  -0.384  1.00  0.00    -0.066 C 
HETATM   12  C9  UNL     1      -5.489   0.830  -0.149  1.00  0.00    -0.019 C 
HETATM   13  C11 UNL     1      -3.969   2.108  -1.574  1.00  0.00     0.048 C 
BRANCH  12  14
HETATM   14  C8  UNL     1      -5.898  -0.009   0.940  1.00  0.00     0.039 C 
BRANCH  14  15
HETATM   15  C7  UNL     1      -6.667  -1.233   0.711  1.00  0.00     0.046 C 
HETATM   16  C2  UNL     1      -6.127  -2.316  -0.090  1.00  0.00    -0.082 C 
HETATM   17  C1  UNL     1      -5.004  -2.493  -0.699  1.00  0.00     0.015 C 
HETATM   18  C3  UNL     1      -7.245  -3.335  -0.063  1.00  0.00     0.036 C 
HETATM   19  C4  UNL     1      -8.468  -2.458  -0.208  1.00  0.00     0.037 C 
HETATM   20  C5  UNL     1      -7.996  -1.011   0.000  1.00  0.00     0.129 C 
BRANCH  20  21
HETATM   21  O1  UNL     1      -8.861  -0.269   0.753  1.00  0.00    -0.390 OA
HETATM   22  C6  UNL     1      -9.395   0.823   0.078  1.00  0.00     0.202 C 
ENDBRANCH  20  21
ENDBRANCH  14  15
ENDBRANCH  12  14
ENDBRANCH  10  11
ENDBRANCH   1   9
BRANCH   7  23
HETATM   23  C21 UNL     1       4.498   0.885   1.751  1.00  0.00     0.235 C 
HETATM   24  O3  UNL     1       5.278   1.241   2.695  1.00  0.00    -0.272 OA
HETATM   25  N1  UNL     1       4.792  -0.242   0.994  1.00  0.00    -0.345 N 
ATOM     26  H1  UNL     1       4.178  -0.544   0.238  1.00  0.00     0.163 HD
BRANCH  25  27
HETATM   27  C22 UNL     1       6.042  -0.999   1.326  1.00  0.00     0.194 C 
BRANCH  27  28
HETATM   28  C23 UNL     1       6.878  -0.871   0.085  1.00  0.00     0.141 C 
BRANCH  28  29
HETATM   29  C24 UNL     1       8.206  -1.471   0.121  1.00  0.00     0.243 C 
HETATM   30  O4  UNL     1       8.691  -1.956   1.156  1.00  0.00    -0.271 OA
HETATM   31  N2  UNL     1       8.966  -1.495  -1.077  1.00  0.00    -0.235 N 
ATOM     32  H2  UNL     1       8.588  -1.103  -1.939  1.00  0.00     0.197 HD
BRANCH  31  33
HETATM   33  O5  UNL     1      10.194  -2.044  -1.055  1.00  0.00    -0.283 OA
HETATM   34  C25 UNL     1      10.956  -1.706  -2.177  1.00  0.00     0.237 C 
ENDBRANCH  31  33
ENDBRANCH  28  29
ENDBRANCH  27  28
BRANCH  27  35
HETATM   35  C26 UNL     1       5.640  -2.373   1.670  1.00  0.00     0.197 C 
HETATM   36  O6  UNL     1       4.433  -2.701   1.583  1.00  0.00    -0.646 OA
HETATM   37  O7  UNL     1       6.531  -3.312   2.084  1.00  0.00    -0.646 OA
ENDBRANCH  27  35
ENDBRANCH  25  27
ENDBRANCH   7  23
BRANCH   5  38
HETATM   38  O2  UNL     1       4.283   3.366   0.220  1.00  0.00    -0.389 OA
ATOM     39  H2  UNL     1       5.100   2.885   0.277  1.00  0.00     0.210 HD
ENDBRANCH   5  38
TORSDOF 12
