REMARK  11 active torsions:
REMARK  status: ('A' for Active; 'I' for Inactive)
REMARK    1  A    between atoms: C2_2  and  C25_37 
REMARK    2  A    between atoms: C3_3  and  C4_4 
REMARK    3  A    between atoms: C4_4  and  C6_6 
REMARK    4  A    between atoms: C6_6  and  C7_7 
REMARK    5  A    between atoms: C8_8  and  C9_9 
REMARK    6  A    between atoms: C9_9  and  O1_10 
REMARK    7  A    between atoms: O1_10  and  C10_11 
REMARK    8  A    between atoms: C12_13  and  C13_14 
REMARK    9  A    between atoms: C20_25  and  O6_26 
REMARK   10  A    between atoms: C21_29  and  O8_30 
REMARK   11  A    between atoms: C22_32  and  C24_34 
ROOT
HETATM    1  C9  UNL     1      -0.141  -1.806   1.210  1.00  0.00     0.126 A 
HETATM    2  C21 UNL     1      -0.369  -3.234   1.697  1.00  0.00     0.180 A 
HETATM    3  C22 UNL     1       0.251  -2.227   2.653  1.00  0.00     0.111 A 
HETATM    4  C23 UNL     1      -0.614  -1.655   3.785  1.00  0.00     0.033 C 
ENDROOT
BRANCH   1   5
HETATM    5  C8  UNL     1       1.005  -1.638   0.287  1.00  0.00     0.011 C 
HETATM    6  C7  UNL     1       1.953  -0.553   0.284  1.00  0.00    -0.027 C 
BRANCH   6   7
HETATM    7  C6  UNL     1       1.578   0.856   0.071  1.00  0.00     0.035 C 
BRANCH   7   8
HETATM    8  C4  UNL     1       2.819   1.776   0.094  1.00  0.00     0.008 C 
HETATM    9  C5  UNL     1       2.366   3.201   0.073  1.00  0.00     0.014 C 
BRANCH   8  10
HETATM   10  C3  UNL     1       3.779   1.420  -0.945  1.00  0.00    -0.020 C 
HETATM   11  C2  UNL     1       5.017   1.056  -0.644  1.00  0.00    -0.084 C 
HETATM   12  C1  UNL     1       5.493   0.992   0.764  1.00  0.00     0.043 C 
BRANCH  11  13
HETATM   13  C25 UNL     1       6.007   0.688  -1.716  1.00  0.00     0.005 C 
HETATM   14  C26 UNL     1       5.390   0.887  -3.094  1.00  0.00     0.014 C 
HETATM   15  C27 UNL     1       6.498  -0.726  -1.549  1.00  0.00     0.014 C 
ENDBRANCH  11  13
ENDBRANCH   8  10
ENDBRANCH   7   8
ENDBRANCH   6   7
ENDBRANCH   1   5
BRANCH   1  16
HETATM   16  O1  UNL     1      -1.228  -0.983   1.311  1.00  0.00    -0.361 OA
BRANCH  16  17
HETATM   17  C10 UNL     1      -2.017  -0.640   0.304  1.00  0.00     0.191 C 
HETATM   18  C11 UNL     1      -2.164   0.864   0.313  1.00  0.00     0.087 C 
HETATM   19  C12 UNL     1      -3.366   1.060   1.222  1.00  0.00     0.157 C 
HETATM   20  C14 UNL     1      -4.412   1.777   0.391  1.00  0.00     0.084 C 
HETATM   21  O7  UNL     1      -3.854  -0.192   1.519  1.00  0.00    -0.328 OA
HETATM   22  C15 UNL     1      -4.938   0.858  -0.648  1.00  0.00     0.163 C 
HETATM   23  O4  UNL     1      -4.729   1.455  -1.911  1.00  0.00    -0.348 OA
HETATM   24  C19 UNL     1      -4.247  -0.438  -0.785  1.00  0.00     0.219 C 
HETATM   25  C16 UNL     1      -4.406   0.393  -2.754  1.00  0.00     0.158 C 
HETATM   26  C17 UNL     1      -5.659  -0.406  -3.039  1.00  0.00     0.078 C 
HETATM   27  C18 UNL     1      -3.782   0.844  -4.027  1.00  0.00     0.078 C 
HETATM   28  O5  UNL     1      -3.505  -0.339  -1.941  1.00  0.00    -0.343 OA
HETATM   29  C20 UNL     1      -3.514  -0.960   0.415  1.00  0.00     0.219 C 
BRANCH  19  30
HETATM   30  C13 UNL     1      -3.055   1.841   2.423  1.00  0.00     0.209 C 
HETATM   31  O2  UNL     1      -2.605   2.991   2.302  1.00  0.00    -0.646 OA
HETATM   32  O3  UNL     1      -3.271   1.272   3.674  1.00  0.00    -0.646 OA
ENDBRANCH  19  30
BRANCH  29  33
HETATM   33  O6  UNL     1      -3.826  -2.262   0.616  1.00  0.00    -0.361 OA
ATOM     34  H6  UNL     1      -4.753  -2.460   0.685  1.00  0.00     0.213 HD
ENDBRANCH  29  33
ENDBRANCH  16  17
ENDBRANCH   1  16
BRANCH   2  35
HETATM   35  O8  UNL     1      -1.523  -3.739   2.182  1.00  0.00    -0.391 OA
ATOM     36  H8  UNL     1      -1.665  -4.628   2.485  1.00  0.00     0.210 HD
ENDBRANCH   2  35
BRANCH   3  37
HETATM   37  C24 UNL     1       1.570  -2.578   3.072  1.00  0.00     0.187 C 
HETATM   38  O9  UNL     1       2.422  -3.138   2.351  1.00  0.00    -0.647 OA
HETATM   39  O10 UNL     1       2.019  -2.306   4.381  1.00  0.00    -0.647 OA
ENDBRANCH   3  37
TORSDOF 11
