REMARK  17 active torsions:
REMARK  status: ('A' for Active; 'I' for Inactive)
REMARK    1  A    between atoms: C2_2  and  O1_3 
REMARK    2  A    between atoms: O1_3  and  C3_4 
REMARK    3  A    between atoms: C3_4  and  O2_5 
REMARK    4  A    between atoms: C3_4  and  C4_7 
REMARK    5  A    between atoms: C4_7  and  C5_8 
REMARK    6  A    between atoms: C5_8  and  C6_9 
REMARK    7  A    between atoms: C6_9  and  C8_11 
REMARK    8  A    between atoms: C8_11  and  C9_12 
REMARK    9  A    between atoms: C9_12  and  O3_13 
REMARK   10  A    between atoms: C9_12  and  C10_15 
REMARK   11  A    between atoms: C13_18  and  C14_19 
REMARK   12  A    between atoms: C19_24  and  C20_25 
REMARK   13  A    between atoms: C20_25  and  C21_26 
REMARK   14  A    between atoms: C21_26  and  O4_27 
REMARK   15  A    between atoms: C24_31  and  O5_32 
REMARK   16  A    between atoms: O5_32  and  C25_33 
REMARK   17  A    between atoms: C26_36  and  O7_38 
ROOT
HETATM    1  C14 UNL     1       0.394   0.447  -0.843  1.00  0.00     0.065 C 
HETATM    2  C15 UNL     1       0.037   1.499   0.174  1.00  0.00     0.046 C 
HETATM    3  C16 UNL     1       1.429  -0.552  -0.391  1.00  0.00     0.076 C 
HETATM    4  C17 UNL     1       2.332   0.457  -0.896  1.00  0.00     0.069 A 
HETATM    5  C18 UNL     1       3.337   1.237  -0.179  1.00  0.00     0.046 A 
HETATM    6  C19 UNL     1       3.728   0.364  -1.304  1.00  0.00     0.026 A 
HETATM    7  O8  UNL     1       1.365   1.043  -1.703  1.00  0.00    -0.369 OA
ENDROOT
BRANCH   1   8
HETATM    8  C13 UNL     1      -0.686  -0.095  -1.707  1.00  0.00     0.020 C 
HETATM    9  C12 UNL     1      -1.312   0.991  -2.578  1.00  0.00     0.008 C 
HETATM   10  C11 UNL     1      -2.759   1.042  -2.223  1.00  0.00     0.007 C 
HETATM   11  C10 UNL     1      -2.898   0.251  -0.944  1.00  0.00     0.015 C 
HETATM   12  C29 UNL     1      -1.831  -0.766  -1.016  1.00  0.00     0.014 C 
BRANCH  11  13
HETATM   13  C9  UNL     1      -4.312  -0.381  -1.006  1.00  0.00     0.122 C 
BRANCH  13  14
HETATM   14  C8  UNL     1      -5.292   0.727  -1.081  1.00  0.00     0.040 C 
BRANCH  14  15
HETATM   15  C6  UNL     1      -6.761   0.346  -1.059  1.00  0.00     0.006 C 
HETATM   16  C7  UNL     1      -7.132  -0.702  -0.103  1.00  0.00     0.014 C 
BRANCH  15  17
HETATM   17  C5  UNL     1      -7.531   1.583  -1.121  1.00  0.00    -0.018 C 
BRANCH  17  18
HETATM   18  C4  UNL     1      -8.359   2.251  -0.438  1.00  0.00     0.060 C 
BRANCH  18  19
HETATM   19  C3  UNL     1      -8.971   2.071   0.830  1.00  0.00     0.177 C 
BRANCH  19  20
HETATM   20  O1  UNL     1      -8.798   1.064   1.729  1.00  0.00    -0.331 OA
BRANCH  20  21
HETATM   21  C2  UNL     1      -9.445   0.971   2.980  1.00  0.00     0.173 C 
HETATM   22  C1  UNL     1     -10.931   0.926   2.912  1.00  0.00     0.034 C 
ENDBRANCH  20  21
ENDBRANCH  19  20
BRANCH  19  23
HETATM   23  O2  UNL     1      -9.828   2.969   1.243  1.00  0.00    -0.341 OA
ATOM     24  H2  UNL     1      -9.949   3.672   0.615  1.00  0.00     0.220 HD
ENDBRANCH  19  23
ENDBRANCH  18  19
ENDBRANCH  17  18
ENDBRANCH  15  17
ENDBRANCH  14  15
ENDBRANCH  13  14
BRANCH  13  25
HETATM   25  O3  UNL     1      -4.491  -1.090   0.186  1.00  0.00    -0.395 OA
ATOM     26  H3  UNL     1      -3.862  -1.801   0.234  1.00  0.00     0.210 HD
ENDBRANCH  13  25
ENDBRANCH  11  13
ENDBRANCH   1   8
BRANCH   6  27
HETATM   27  C20 UNL     1       4.658  -0.749  -1.231  1.00  0.00     0.050 C 
BRANCH  27  28
HETATM   28  C21 UNL     1       5.050  -1.379   0.062  1.00  0.00     0.079 C 
HETATM   29  C22 UNL     1       5.813  -2.577  -0.323  1.00  0.00     0.009 C 
HETATM   30  C23 UNL     1       7.118  -2.655  -0.323  1.00  0.00     0.007 C 
HETATM   31  C24 UNL     1       7.899  -1.437   0.102  1.00  0.00     0.190 C 
HETATM   32  C26 UNL     1       7.202  -0.993   1.371  1.00  0.00     0.087 C 
HETATM   33  C27 UNL     1       7.933   0.123   2.057  1.00  0.00     0.049 C 
HETATM   34  C28 UNL     1       5.831  -0.524   0.971  1.00  0.00     0.082 C 
BRANCH  28  35
HETATM   35  O4  UNL     1       3.922  -1.914   0.746  1.00  0.00    -0.386 OA
ATOM     36  H4  UNL     1       4.172  -2.315   1.570  1.00  0.00     0.211 HD
ENDBRANCH  28  35
BRANCH  31  37
HETATM   37  O5  UNL     1       9.244  -1.791   0.372  1.00  0.00    -0.294 OA
BRANCH  37  38
HETATM   38  C25 UNL     1      10.346  -1.195  -0.195  1.00  0.00     0.373 C 
HETATM   39  N1  UNL     1      11.678  -1.573   0.088  1.00  0.00    -0.032 NA
HETATM   40  O6  UNL     1      10.173  -0.246  -1.025  1.00  0.00    -0.242 OA
ENDBRANCH  37  38
ENDBRANCH  31  37
BRANCH  32  41
HETATM   41  O7  UNL     1       7.128  -2.069   2.278  1.00  0.00    -0.387 OA
ATOM     42  H7  UNL     1       6.691  -1.790   3.074  1.00  0.00     0.210 HD
ENDBRANCH  32  41
ENDBRANCH  27  28
ENDBRANCH   6  27
TORSDOF 17
