REMARK  14 active torsions:
REMARK  status: ('A' for Active; 'I' for Inactive)
REMARK    1  A    between atoms: O1_2  and  C2_3 
REMARK    2  A    between atoms: C2_3  and  C4_5 
REMARK    3  A    between atoms: C2_3  and  C12_17 
REMARK    4  A    between atoms: C4_5  and  C5_6 
REMARK    5  A    between atoms: C5_6  and  C6_7 
REMARK    6  A    between atoms: C6_7  and  C7_8 
REMARK    7  A    between atoms: C7_8  and  C8_9 
REMARK    8  A    between atoms: C8_9  and  C9_10 
REMARK    9  A    between atoms: C9_10  and  C10_12 
REMARK   10  A    between atoms: C10_12  and  C11_14 
REMARK   11  A    between atoms: C11_14  and  O4_15 
REMARK   12  A    between atoms: C17_22  and  O5_23 
REMARK   13  A    between atoms: C21_28  and  O6_29 
REMARK   14  A    between atoms: C23_32  and  O7_33 
ROOT
HETATM    1  C12 UNL     1       0.678  -1.245  -0.916  1.00  0.00     0.028 C 
HETATM    2  C13 UNL     1       0.891  -1.488   0.588  1.00  0.00     0.009 C 
HETATM    3  C14 UNL     1      -0.393  -1.016   1.184  1.00  0.00     0.006 C 
HETATM    4  C15 UNL     1      -1.367  -1.456   0.057  1.00  0.00     0.001 C 
HETATM    5  C16 UNL     1      -2.696  -1.074   0.527  1.00  0.00     0.024 C 
HETATM    6  C17 UNL     1      -3.879  -1.875   0.088  1.00  0.00     0.127 C 
HETATM    7  C18 UNL     1      -4.933  -1.663   1.214  1.00  0.00     0.067 C 
HETATM    8  C19 UNL     1      -5.316  -0.216   0.938  1.00  0.00    -0.068 C 
HETATM    9  C20 UNL     1      -6.534   0.006   0.572  1.00  0.00     0.008 C 
HETATM   10  C21 UNL     1      -7.075   1.349   0.263  1.00  0.00     0.143 C 
HETATM   11  C22 UNL     1      -5.906   2.135  -0.299  1.00  0.00     0.068 C 
HETATM   12  C23 UNL     1      -4.765   2.149   0.732  1.00  0.00     0.133 C 
HETATM   13  C24 UNL     1      -4.272   0.808   1.107  1.00  0.00     0.009 C 
HETATM   14  C25 UNL     1      -4.154   0.869   2.671  1.00  0.00     0.023 C 
HETATM   15  C26 UNL     1      -2.938   0.418   0.600  1.00  0.00     0.007 C 
HETATM   16  C27 UNL     1      -2.474   1.007  -0.682  1.00  0.00     0.007 C 
HETATM   17  C28 UNL     1      -1.065   0.648  -1.067  1.00  0.00     0.010 C 
HETATM   18  C29 UNL     1      -0.714  -0.768  -1.105  1.00  0.00    -0.034 C 
HETATM   19  C30 UNL     1      -1.204  -1.339  -2.442  1.00  0.00     0.016 C 
ENDROOT
BRANCH   1  20
HETATM   20  C2  UNL     1       1.879  -0.652  -1.475  1.00  0.00     0.061 C 
HETATM   21  C3  UNL     1       1.795  -0.813  -3.063  1.00  0.00     0.046 C 
BRANCH  20  22
HETATM   22  O1  UNL     1       2.977  -1.459  -1.249  1.00  0.00    -0.385 OA
HETATM   23  C1  UNL     1       2.979  -2.746  -1.590  1.00  0.00     0.202 C 
ENDBRANCH  20  22
BRANCH  20  24
HETATM   24  C4  UNL     1       2.294   0.736  -1.359  1.00  0.00     0.038 C 
BRANCH  24  25
HETATM   25  C5  UNL     1       2.892   1.287  -0.114  1.00  0.00     0.003 C 
BRANCH  25  26
HETATM   26  C6  UNL     1       4.221   0.684   0.306  1.00  0.00     0.001 C 
BRANCH  26  27
HETATM   27  C7  UNL     1       4.757   1.315   1.546  1.00  0.00     0.008 C 
BRANCH  27  28
HETATM   28  C8  UNL     1       6.061   0.696   1.930  1.00  0.00     0.087 C 
BRANCH  28  29
HETATM   29  C9  UNL     1       7.144   0.890   0.943  1.00  0.00     0.197 C 
HETATM   30  O2  UNL     1       7.072   1.597  -0.090  1.00  0.00    -0.289 OA
BRANCH  29  31
HETATM   31  C10 UNL     1       8.439   0.216   1.146  1.00  0.00     0.217 C 
HETATM   32  O3  UNL     1       8.596  -0.508   2.147  1.00  0.00    -0.287 OA
BRANCH  31  33
HETATM   33  C11 UNL     1       9.548   0.370   0.207  1.00  0.00     0.251 C 
BRANCH  33  34
HETATM   34  O4  UNL     1      10.662  -0.353   0.598  1.00  0.00    -0.393 OA
ATOM     35  H4  UNL     1      11.383  -0.253  -0.012  1.00  0.00     0.210 HD
ENDBRANCH  33  34
ENDBRANCH  31  33
ENDBRANCH  29  31
ENDBRANCH  28  29
ENDBRANCH  27  28
ENDBRANCH  26  27
ENDBRANCH  25  26
ENDBRANCH  24  25
ENDBRANCH  20  24
ENDBRANCH   1  20
BRANCH   6  36
HETATM   36  O5  UNL     1      -4.562  -1.400  -1.020  1.00  0.00    -0.395 OA
ATOM     37  H5  UNL     1      -5.314  -1.909  -1.299  1.00  0.00     0.210 HD
ENDBRANCH   6  36
BRANCH  12  38
HETATM   38  O7  UNL     1      -5.362   2.828   1.834  1.00  0.00    -0.394 OA
ATOM     39  H7  UNL     1      -4.657   2.837   2.471  1.00  0.00     0.210 HD
ENDBRANCH  12  38
BRANCH  10  40
HETATM   40  O6  UNL     1      -7.673   1.965   1.327  1.00  0.00    -0.392 OA
ATOM     41  H6  UNL     1      -8.020   2.827   1.129  1.00  0.00     0.210 HD
ENDBRANCH  10  40
TORSDOF 14
