REMARK  12 active torsions:
REMARK  status: ('A' for Active; 'I' for Inactive)
REMARK    1  A    between atoms: C2_2  and  C3_3 
REMARK    2  A    between atoms: C3_3  and  N1_4 
REMARK    3  A    between atoms: N1_4  and  C4_7 
REMARK    4  A    between atoms: C4_7  and  C5_8 
REMARK    5  A    between atoms: C5_8  and  C7_10 
REMARK    6  A    between atoms: C8_11  and  O1_12 
REMARK    7  A    between atoms: C14_19  and  C15_20 
REMARK    8  A    between atoms: C15_20  and  C16_21 
REMARK    9  A    between atoms: C16_21  and  C17_22 
REMARK   10  A    between atoms: C19_24  and  O2_25 
REMARK   11  A    between atoms: O2_25  and  S1_26 
REMARK   12  A    between atoms: C24_35  and  O7_36 
ROOT
HETATM    1  C7  UNL     1      -3.509  -0.865   0.002  1.00  0.00     0.028 C 
HETATM    2  C8  UNL     1      -3.524   0.299   0.941  1.00  0.00     0.123 C 
HETATM    3  C9  UNL     1      -2.095   0.317   1.566  1.00  0.00     0.037 C 
HETATM    4  C10 UNL     1      -1.346  -0.217   0.368  1.00  0.00    -0.003 C 
HETATM    5  C11 UNL     1       0.101  -0.320   0.528  1.00  0.00     0.015 C 
HETATM    6  C12 UNL     1       0.755   0.173  -0.737  1.00  0.00    -0.033 A 
HETATM    7  C13 UNL     1       0.484   1.664  -0.977  1.00  0.00     0.016 C 
HETATM    8  C14 UNL     1       1.836  -0.454  -1.450  1.00  0.00     0.001 A 
HETATM    9  C23 UNL     1       0.425  -0.766  -1.823  1.00  0.00     0.028 A 
HETATM   10  C24 UNL     1      -0.211  -2.060  -1.445  1.00  0.00     0.124 C 
HETATM   11  C25 UNL     1      -1.691  -1.990  -1.237  1.00  0.00     0.042 C 
HETATM   12  C26 UNL     1      -2.131  -1.491   0.113  1.00  0.00    -0.032 C 
HETATM   13  C27 UNL     1      -2.006  -2.472   1.217  1.00  0.00     0.016 C 
ENDROOT
BRANCH   8  14
HETATM   14  C15 UNL     1       2.778  -1.465  -0.908  1.00  0.00     0.008 C 
BRANCH  14  15
HETATM   15  C16 UNL     1       3.602  -1.037   0.258  1.00  0.00     0.032 C 
BRANCH  15  16
HETATM   16  C17 UNL     1       4.489   0.131   0.036  1.00  0.00     0.124 C 
HETATM   17  C18 UNL     1       5.229   0.377   1.354  1.00  0.00     0.065 C 
HETATM   18  C19 UNL     1       6.461   1.227   1.142  1.00  0.00     0.150 C 
HETATM   19  C20 UNL     1       6.208   2.106  -0.062  1.00  0.00     0.065 C 
HETATM   20  C21 UNL     1       5.886   1.290  -1.291  1.00  0.00     0.120 C 
HETATM   21  C22 UNL     1       6.989   1.263  -2.298  1.00  0.00     0.039 C 
HETATM   22  O6  UNL     1       5.447  -0.006  -0.932  1.00  0.00    -0.381 OA
BRANCH  18  23
HETATM   23  O2  UNL     1       7.592   0.462   0.955  1.00  0.00    -0.251 OA
BRANCH  23  24
HETATM   24  S1  UNL     1       8.694   0.798   2.154  1.00  0.00     0.251 S 
HETATM   25  O3  UNL     1       8.082   1.342   3.389  1.00  0.00    -0.572 OA
HETATM   26  O4  UNL     1       9.416  -0.481   2.481  1.00  0.00    -0.572 OA
HETATM   27  O5  UNL     1       9.788   1.934   1.562  1.00  0.00    -0.572 OA
ENDBRANCH  23  24
ENDBRANCH  18  23
ENDBRANCH  15  16
ENDBRANCH  14  15
ENDBRANCH   8  14
BRANCH  10  28
HETATM   28  O7  UNL     1      -0.013  -2.911  -2.568  1.00  0.00    -0.395 OA
ATOM     29  H7  UNL     1      -0.418  -3.736  -2.327  1.00  0.00     0.210 HD
ENDBRANCH  10  28
BRANCH   2  30
HETATM   30  O1  UNL     1      -3.608   1.541   0.306  1.00  0.00    -0.395 OA
ATOM     31  H1  UNL     1      -3.618   2.280   0.902  1.00  0.00     0.210 HD
ENDBRANCH   2  30
BRANCH   1  32
HETATM   32  C5  UNL     1      -4.668  -1.702   0.107  1.00  0.00     0.014 C 
HETATM   33  C6  UNL     1      -4.692  -2.964  -0.729  1.00  0.00     0.012 C 
BRANCH  32  34
HETATM   34  C4  UNL     1      -5.936  -0.985  -0.232  1.00  0.00     0.237 C 
BRANCH  34  35
HETATM   35  N1  UNL     1      -6.232   0.238   0.409  1.00  0.00    -0.075 N 
ATOM     36  H12 UNL     1      -5.479   0.924   0.361  1.00  0.00     0.277 HD
ATOM     37  H11 UNL     1      -6.266   0.175   1.426  1.00  0.00     0.277 HD
BRANCH  35  38
HETATM   38  C3  UNL     1      -7.501   0.693  -0.209  1.00  0.00     0.231 C 
BRANCH  38  39
HETATM   39  C2  UNL     1      -7.936   1.998   0.387  1.00  0.00     0.023 C 
HETATM   40  C1  UNL     1      -6.923   3.090   0.188  1.00  0.00     0.007 C 
ENDBRANCH  38  39
ENDBRANCH  35  38
ENDBRANCH  34  35
ENDBRANCH  32  34
ENDBRANCH   1  32
TORSDOF 12
