REMARK  11 active torsions:
REMARK  status: ('A' for Active; 'I' for Inactive)
REMARK    1  A    between atoms: C2_2  and  C4_4 
REMARK    2  A    between atoms: C4_4  and  C5_5 
REMARK       I    between atoms: C5_5  and  N1_7 
REMARK    3  A    between atoms: N1_7  and  C6_9 
REMARK    4  A    between atoms: C6_9  and  C7_10 
REMARK    5  A    between atoms: C6_9  and  C18_29 
REMARK    6  A    between atoms: C7_10  and  C8_11 
REMARK    7  A    between atoms: C7_10  and  N2_13 
REMARK       I    between atoms: N2_13  and  C9_15 
REMARK    8  A    between atoms: C9_15  and  C10_17 
REMARK    9  A    between atoms: C12_20  and  C13_21 
REMARK   10  A    between atoms: C18_29  and  O4_30 
REMARK   11  A    between atoms: C18_29  and  C19_32 
ROOT
HETATM    1  C6  UNL     1      -1.201  -0.644   1.588  1.00  0.00     0.137 C 
ENDROOT
BRANCH   1   2
HETATM    2  N1  UNL     1      -2.082   0.474   1.582  1.00  0.00    -0.352 N 
HETATM    3  C5  UNL     1      -2.257   1.456   0.600  1.00  0.00     0.218 C 
HETATM    4  O1  UNL     1      -1.617   1.466  -0.475  1.00  0.00    -0.274 OA
ATOM      5  H1  UNL     1      -2.669   0.574   2.410  1.00  0.00     0.163 HD
BRANCH   3   6
HETATM    6  C4  UNL     1      -3.235   2.570   0.779  1.00  0.00     0.106 C 
BRANCH   6   7
HETATM    7  C2  UNL     1      -3.258   3.505  -0.392  1.00  0.00    -0.014 C 
HETATM    8  C1  UNL     1      -3.637   2.783  -1.651  1.00  0.00     0.010 C 
HETATM    9  C3  UNL     1      -4.296   4.566  -0.122  1.00  0.00     0.010 C 
ENDBRANCH   6   7
ENDBRANCH   3   6
ENDBRANCH   1   2
BRANCH   1  10
HETATM   10  C7  UNL     1       0.119  -0.322   2.205  1.00  0.00     0.120 C 
BRANCH  10  11
HETATM   11  C8  UNL     1       0.039   0.121   3.658  1.00  0.00     0.113 C 
HETATM   12  S1  UNL     1      -0.898   1.604   3.948  1.00  0.00    -0.096 SA
ENDBRANCH  10  11
BRANCH  10  13
HETATM   13  N2  UNL     1       0.952   0.603   1.472  1.00  0.00    -0.348 N 
HETATM   14  C9  UNL     1       2.267   0.278   1.045  1.00  0.00     0.269 C 
HETATM   15  O2  UNL     1       2.711  -0.858   1.329  1.00  0.00    -0.266 OA
ATOM     16  H2  UNL     1       0.581   1.527   1.252  1.00  0.00     0.163 HD
BRANCH  14  17
HETATM   17  C10 UNL     1       3.066   1.283   0.283  1.00  0.00     0.107 A 
HETATM   18  C11 UNL     1       2.563   2.516  -0.045  1.00  0.00     0.086 A 
HETATM   19  S2  UNL     1       3.868   3.217  -0.886  1.00  0.00    -0.086 SA
HETATM   20  C12 UNL     1       4.965   1.915  -0.773  1.00  0.00     0.055 A 
HETATM   21  N3  UNL     1       4.282   1.013  -0.100  1.00  0.00    -0.349 N 
ATOM     22  H3  UNL     1       4.701   0.110   0.120  1.00  0.00     0.166 HD
BRANCH  20  23
HETATM   23  C13 UNL     1       6.372   1.828  -1.323  1.00  0.00     0.047 C 
HETATM   24  C14 UNL     1       6.466   0.472  -1.981  1.00  0.00     0.037 C 
HETATM   25  C15 UNL     1       7.863   0.001  -2.222  1.00  0.00     0.168 C 
HETATM   26  O3  UNL     1       8.717   0.327  -1.193  1.00  0.00    -0.391 OA
HETATM   27  C16 UNL     1       8.060   0.579   0.013  1.00  0.00     0.168 C 
HETATM   28  C17 UNL     1       7.277   1.866  -0.104  1.00  0.00     0.037 C 
ENDBRANCH  20  23
ENDBRANCH  14  17
ENDBRANCH  10  13
ENDBRANCH   1  10
BRANCH   1  29
HETATM   29  C18 UNL     1      -1.162  -1.367   0.293  1.00  0.00     0.151 C 
BRANCH  29  30
HETATM   30  O4  UNL     1      -0.131  -2.380   0.513  1.00  0.00    -0.393 OA
ATOM     31  H4  UNL     1      -0.106  -2.843  -0.316  1.00  0.00     0.210 HD
ENDBRANCH  29  30
BRANCH  29  32
HETATM   32  C19 UNL     1      -2.311  -2.203  -0.119  1.00  0.00    -0.008 C 
HETATM   33  C20 UNL     1      -2.585  -3.333   0.901  1.00  0.00     0.017 C 
HETATM   34  C21 UNL     1      -3.969  -3.767   0.419  1.00  0.00    -0.013 C 
HETATM   35  C22 UNL     1      -3.764  -4.491  -0.884  1.00  0.00     0.009 C 
HETATM   36  C26 UNL     1      -4.633  -2.416   0.265  1.00  0.00     0.010 C 
HETATM   37  C23 UNL     1      -3.055  -3.591  -1.869  1.00  0.00    -0.013 C 
HETATM   38  C24 UNL     1      -3.856  -2.316  -1.998  1.00  0.00     0.010 C 
HETATM   39  C27 UNL     1      -1.763  -3.035  -1.323  1.00  0.00     0.017 C 
HETATM   40  C25 UNL     1      -3.565  -1.701  -0.600  1.00  0.00    -0.003 C 
ENDBRANCH  29  32
ENDBRANCH   1  29
TORSDOF 11
