REMARK  6 active torsions:
REMARK  status: ('A' for Active; 'I' for Inactive)
REMARK    1  A    between atoms: C2_2  and  C3_3 
REMARK    2  A    between atoms: C8_8  and  O1_9 
REMARK    3  A    between atoms: O1_9  and  C9_10 
REMARK    4  A    between atoms: C9_10  and  O2_11 
REMARK    5  A    between atoms: C9_10  and  C10_13 
REMARK    6  A    between atoms: C9_10  and  C16_21 
ROOT
HETATM    1  C9  UNL     1       0.463   0.927  -0.871  1.00  0.00     0.237 C 
ENDROOT
BRANCH   1   2
HETATM    2  O1  UNL     1       1.351  -0.107  -0.945  1.00  0.00    -0.341 OA
BRANCH   2   3
HETATM    3  C8  UNL     1       2.680   0.183  -0.683  1.00  0.00     0.127 C 
HETATM    4  C7  UNL     1       3.558  -0.111  -1.891  1.00  0.00     0.032 C 
HETATM    5  C6  UNL     1       5.018   0.095  -1.663  1.00  0.00     0.004 C 
HETATM    6  C5  UNL     1       5.241   0.405  -0.199  1.00  0.00     0.013 C 
HETATM    7  C3  UNL     1       4.643  -0.729   0.594  1.00  0.00    -0.025 C 
HETATM    8  C4  UNL     1       5.034  -0.660   2.058  1.00  0.00     0.019 C 
HETATM    9  C29 UNL     1       3.144  -0.739   0.406  1.00  0.00     0.045 C 
BRANCH   7  10
HETATM   10  C2  UNL     1       5.199  -2.002   0.061  1.00  0.00    -0.028 C 
HETATM   11  C1  UNL     1       6.242  -2.606   0.610  1.00  0.00     0.007 C 
ENDBRANCH   7  10
ENDBRANCH   2   3
ENDBRANCH   1   2
BRANCH   1  12
HETATM   12  O2  UNL     1       0.849   1.896  -1.802  1.00  0.00    -0.357 OA
ATOM     13  H2  UNL     1       0.231   2.616  -1.750  1.00  0.00     0.214 HD
ENDBRANCH   1  12
BRANCH   1  14
HETATM   14  C10 UNL     1       0.458   1.630   0.451  1.00  0.00     0.013 A 
HETATM   15  C11 UNL     1       0.893   2.956   0.562  1.00  0.00     0.016 A 
HETATM   16  C12 UNL     1       0.885   3.628   1.763  1.00  0.00     0.046 A 
HETATM   17  C13 UNL     1       0.428   2.937   2.864  1.00  0.00     0.154 A 
HETATM   18  F1  UNL     1       0.413   3.578   4.050  1.00  0.00    -0.203 F 
HETATM   19  C14 UNL     1      -0.009   1.618   2.772  1.00  0.00     0.155 A 
HETATM   20  F2  UNL     1      -0.459   0.956   3.887  1.00  0.00    -0.203 F 
HETATM   21  C15 UNL     1       0.005   0.958   1.564  1.00  0.00     0.058 A 
ENDBRANCH   1  14
BRANCH   1  22
HETATM   22  C16 UNL     1      -0.882   0.389  -1.186  1.00  0.00     0.083 A 
HETATM   23  N1  UNL     1      -1.928   0.550  -0.367  1.00  0.00    -0.357 N 
HETATM   24  C17 UNL     1      -3.174   0.103  -0.577  1.00  0.00     0.020 A 
ATOM     25  H1  UNL     1      -1.761   1.062   0.500  1.00  0.00     0.166 HD
HETATM   26  C18 UNL     1      -3.429  -0.587  -1.735  1.00  0.00    -0.034 A 
HETATM   27  C28 UNL     1      -4.454   0.173   0.177  1.00  0.00     0.040 C 
HETATM   28  C19 UNL     1      -2.399  -0.792  -2.629  1.00  0.00     0.018 A 
HETATM   29  C22 UNL     1      -4.879  -1.004  -1.771  1.00  0.00     0.046 C 
HETATM   30  C20 UNL     1      -1.113  -0.296  -2.346  1.00  0.00    -0.033 A 
HETATM   31  C21 UNL     1      -0.014  -0.513  -3.299  1.00  0.00     0.050 C 
HETATM   32  C23 UNL     1      -5.117  -1.116  -0.256  1.00  0.00    -0.000 C 
HETATM   33  C24 UNL     1      -6.561  -1.065   0.110  1.00  0.00     0.005 C 
HETATM   34  C25 UNL     1      -6.645  -0.555   1.547  1.00  0.00     0.000 C 
HETATM   35  C26 UNL     1      -5.320  -0.701   2.269  1.00  0.00     0.001 C 
HETATM   36  C27 UNL     1      -4.273   0.244   1.663  1.00  0.00     0.011 C 
ENDBRANCH   1  22
TORSDOF 6
