REMARK  7 active torsions:
REMARK  status: ('A' for Active; 'I' for Inactive)
REMARK    1  A    between atoms: C3_4  and  C4_5 
REMARK    2  A    between atoms: C4_5  and  O2_7 
REMARK    3  A    between atoms: O2_7  and  C5_8 
REMARK    4  A    between atoms: C14_17  and  C15_18 
REMARK    5  A    between atoms: C15_18  and  C16_19 
REMARK    6  A    between atoms: C16_19  and  C17_20 
REMARK    7  A    between atoms: C25_29  and  O3_31 
ROOT
HETATM    1  C5  UNL     1      -3.007  -1.757  -0.003  1.00  0.00     0.166 C 
HETATM    2  C6  UNL     1      -3.497  -1.800   1.393  1.00  0.00     0.036 C 
HETATM    3  C7  UNL     1      -2.826  -0.895   2.370  1.00  0.00     0.008 C 
HETATM    4  C8  UNL     1      -1.392  -0.800   2.010  1.00  0.00    -0.003 C 
HETATM    5  C9  UNL     1      -0.643  -0.153   3.126  1.00  0.00     0.006 C 
HETATM    6  C10 UNL     1       0.815  -0.541   2.819  1.00  0.00     0.006 C 
HETATM    7  C11 UNL     1       1.140   0.332   1.651  1.00  0.00    -0.005 C 
HETATM    8  C12 UNL     1       2.600   0.240   1.384  1.00  0.00    -0.001 C 
HETATM    9  C13 UNL     1       3.112  -0.869   0.543  1.00  0.00     0.011 C 
HETATM   10  C14 UNL     1       3.339   0.109  -0.609  1.00  0.00    -0.006 C 
HETATM   11  C18 UNL     1       2.974   1.212   0.306  1.00  0.00    -0.036 C 
HETATM   12  C19 UNL     1       4.136   2.081   0.800  1.00  0.00     0.016 C 
HETATM   13  C20 UNL     1       1.835   2.089  -0.037  1.00  0.00     0.010 C 
HETATM   14  C21 UNL     1       0.553   1.379  -0.416  1.00  0.00     0.007 C 
HETATM   15  C22 UNL     1       0.296   0.147   0.432  1.00  0.00     0.001 C 
HETATM   16  C23 UNL     1      -1.127  -0.190   0.650  1.00  0.00    -0.003 C 
HETATM   17  C24 UNL     1      -2.025   1.016   0.412  1.00  0.00     0.019 C 
HETATM   18  C25 UNL     1      -1.647  -1.281  -0.290  1.00  0.00     0.089 C 
HETATM   19  C26 UNL     1      -1.568  -0.939  -1.740  1.00  0.00     0.049 C 
ENDROOT
BRANCH   1  20
HETATM   20  O2  UNL     1      -3.997  -1.089  -0.778  1.00  0.00    -0.310 OA
BRANCH  20  21
HETATM   21  C4  UNL     1      -4.783  -1.668  -1.734  1.00  0.00     0.284 C 
HETATM   22  O1  UNL     1      -4.591  -2.917  -1.925  1.00  0.00    -0.260 OA
BRANCH  21  23
HETATM   23  C3  UNL     1      -5.793  -1.021  -2.536  1.00  0.00     0.101 C 
HETATM   24  C2  UNL     1      -6.117   0.252  -2.465  1.00  0.00     0.013 C 
HETATM   25  C1  UNL     1      -5.417   1.131  -1.501  1.00  0.00     0.062 C 
HETATM   26 CL1  UNL     1      -7.367   0.872  -3.513  1.00  0.00    -0.089 Cl
ENDBRANCH  21  23
ENDBRANCH  20  21
ENDBRANCH   1  20
BRANCH  18  27
HETATM   27  O3  UNL     1      -0.717  -2.339  -0.100  1.00  0.00    -0.387 OA
ATOM     28  H3  UNL     1       0.162  -2.031  -0.286  1.00  0.00     0.210 HD
ENDBRANCH  18  27
BRANCH  10  29
HETATM   29  C15 UNL     1       4.746   0.003  -1.087  1.00  0.00     0.006 C 
BRANCH  29  30
HETATM   30  C16 UNL     1       5.060   0.938  -2.230  1.00  0.00     0.015 C 
BRANCH  30  31
HETATM   31  C17 UNL     1       6.510   0.785  -2.674  1.00  0.00     0.114 C 
HETATM   32 CL2  UNL     1       6.852  -0.858  -3.217  1.00  0.00    -0.130 Cl
ENDBRANCH  30  31
ENDBRANCH  29  30
ENDBRANCH  10  29
TORSDOF 7
