REMARK  8 active torsions:
REMARK  status: ('A' for Active; 'I' for Inactive)
REMARK    1  A    between atoms: C2_2  and  N1_3 
REMARK    2  A    between atoms: C2_2  and  C5_10 
REMARK    3  A    between atoms: C5_10  and  N4_13 
REMARK       I    between atoms: N4_13  and  C8_15 
REMARK       I    between atoms: C8_15  and  N5_17 
REMARK    4  A    between atoms: N5_17  and  C9_19 
REMARK    5  A    between atoms: C9_19  and  O2_20 
REMARK    6  A    between atoms: C9_19  and  N6_22 
REMARK    7  A    between atoms: N6_22  and  C10_24 
REMARK    8  A    between atoms: C12_27  and  N7_28 
ROOT
HETATM    1  N4  UNL     1      -0.979  -0.495  -0.312  1.00  0.00    -0.332 N 
ATOM      2  H4  UNL     1      -1.338   0.392  -0.666  1.00  0.00     0.165 HD
HETATM    3  C8  UNL     1       0.248  -0.941  -0.819  1.00  0.00     0.320 C 
HETATM    4  O1  UNL     1       0.685  -2.055  -0.366  1.00  0.00    -0.247 OA
HETATM    5  N5  UNL     1       0.996  -0.221  -1.787  1.00  0.00    -0.300 N 
ATOM      6  H5  UNL     1       0.606   0.662  -2.117  1.00  0.00     0.168 HD
ENDROOT
BRANCH   1   7
HETATM    7  C5  UNL     1      -1.770  -1.183   0.663  1.00  0.00     0.049 C 
HETATM    8  C6  UNL     1      -0.945  -1.301   1.929  1.00  0.00     0.040 C 
HETATM    9  C7  UNL     1      -2.106  -2.598   0.237  1.00  0.00     0.040 C 
BRANCH   7  10
HETATM   10  C2  UNL     1      -3.036  -0.451   1.008  1.00  0.00     0.132 C 
HETATM   11  C1  UNL     1      -3.943  -0.273  -0.188  1.00  0.00     0.037 C 
BRANCH  10  12
HETATM   12  N1  UNL     1      -2.720   0.870   1.514  1.00  0.00    -0.280 N 
HETATM   13  C3  UNL     1      -2.832   2.037   0.844  1.00  0.00     0.201 A 
HETATM   14  N2  UNL     1      -2.435   2.992   1.695  1.00  0.00    -0.346 N 
HETATM   15  C4  UNL     1      -2.086   2.443   2.858  1.00  0.00     0.198 A 
ATOM     16  H2  UNL     1      -2.404   3.990   1.485  1.00  0.00     0.167 HD
HETATM   17  N3  UNL     1      -2.266   1.131   2.739  1.00  0.00    -0.293 N 
ATOM     18  H3  UNL     1      -2.086   0.438   3.466  1.00  0.00     0.188 HD
ENDBRANCH  10  12
ENDBRANCH   7  10
ENDBRANCH   1   7
BRANCH   5  19
HETATM   19  C9  UNL     1       2.254  -0.632  -2.339  1.00  0.00     0.331 C 
BRANCH  19  20
HETATM   20  O2  UNL     1       2.069  -1.291  -3.577  1.00  0.00    -0.359 OA
ATOM     21  H2  UNL     1       2.902  -1.563  -3.943  1.00  0.00     0.214 HD
ENDBRANCH  19  20
BRANCH  19  22
HETATM   22  N6  UNL     1       3.235   0.369  -2.517  1.00  0.00    -0.333 N 
ATOM     23  H6  UNL     1       3.481   0.654  -3.465  1.00  0.00     0.165 HD
BRANCH  22  24
HETATM   24  C10 UNL     1       3.904   1.005  -1.402  1.00  0.00     0.112 A 
HETATM   25  C11 UNL     1       4.848   1.976  -1.653  1.00  0.00     0.101 A 
HETATM   26  S1  UNL     1       5.357   2.399  -0.082  1.00  0.00    -0.062 SA
HETATM   27  C12 UNL     1       4.357   1.335   0.799  1.00  0.00     0.143 A 
HETATM   28  N8  UNL     1       3.677   0.701  -0.158  1.00  0.00    -0.323 N 
ATOM     29  H8  UNL     1       2.989  -0.012   0.083  1.00  0.00     0.169 HD
BRANCH  27  30
HETATM   30  N7  UNL     1       4.277   1.176   2.105  1.00  0.00    -0.380 N 
ATOM     31  H72 UNL     1       4.797   1.661   2.837  1.00  0.00     0.158 HD
ATOM     32  H71 UNL     1       3.679   0.540   2.632  1.00  0.00     0.158 HD
ENDBRANCH  27  30
ENDBRANCH  22  24
ENDBRANCH  19  22
ENDBRANCH   5  19
TORSDOF 8
