REMARK  12 active torsions:
REMARK  status: ('A' for Active; 'I' for Inactive)
REMARK    1  A    between atoms: C2_2  and  C3_3 
REMARK    2  A    between atoms: C3_3  and  C4_4 
REMARK    3  A    between atoms: C4_4  and  C5_5 
REMARK    4  A    between atoms: C5_5  and  C6_6 
REMARK    5  A    between atoms: C7_7  and  O1_8 
REMARK    6  A    between atoms: C8_10  and  O2_11 
REMARK    7  A    between atoms: C9_13  and  O3_14 
REMARK    8  A    between atoms: C10_16  and  N1_17 
REMARK    9  A    between atoms: C12_19  and  C13_20 
REMARK   10  A    between atoms: C14_21  and  C15_22 
REMARK   11  A    between atoms: C15_22  and  O4_23 
REMARK   12  A    between atoms: N2_25  and  O5_27 
ROOT
HETATM    1  C6  UNL     1      -1.096  -0.265  -1.289  1.00  0.00     0.044 C 
HETATM    2  C7  UNL     1      -1.570  -1.170  -2.361  1.00  0.00     0.155 C 
HETATM    3  C8  UNL     1      -1.295  -2.586  -1.926  1.00  0.00     0.178 C 
HETATM    4  C9  UNL     1      -0.310  -2.508  -0.790  1.00  0.00     0.174 C 
HETATM    5  C10 UNL     1      -0.140  -1.053  -0.421  1.00  0.00     0.147 C 
ENDROOT
BRANCH   5   6
HETATM    6  N1  UNL     1       1.231  -0.637  -0.634  1.00  0.00    -0.279 N 
HETATM    7  C11 UNL     1       2.070   0.033   0.157  1.00  0.00     0.143 A 
HETATM    8  C12 UNL     1       3.267   0.181  -0.506  1.00  0.00     0.066 A 
HETATM    9  N3  UNL     1       3.114  -0.411  -1.690  1.00  0.00    -0.285 N 
HETATM   10  N4  UNL     1       1.888  -0.896  -1.750  1.00  0.00    -0.240 N 
ATOM     11  H3  UNL     1       3.821  -0.478  -2.422  1.00  0.00     0.188 HD
ATOM     12  H4  UNL     1       1.502  -1.401  -2.548  1.00  0.00     0.208 HD
BRANCH   8  13
HETATM   13  C13 UNL     1       4.481   0.853  -0.023  1.00  0.00     0.037 C 
HETATM   14  C14 UNL     1       4.542   1.408   1.156  1.00  0.00     0.060 C 
BRANCH  14  15
HETATM   15  C15 UNL     1       5.621   2.101   1.798  1.00  0.00     0.159 C 
HETATM   16  N2  UNL     1       6.770   2.314   1.320  1.00  0.00    -0.248 N 
ATOM     17  H2  UNL     1       7.434   2.824   1.903  1.00  0.00     0.196 HD
BRANCH  15  18
HETATM   18  O4  UNL     1       5.444   2.629   3.114  1.00  0.00    -0.345 OA
ATOM     19  H4  UNL     1       6.159   3.088   3.539  1.00  0.00     0.219 HD
ENDBRANCH  15  18
BRANCH  16  20
HETATM   20  O5  UNL     1       7.186   1.924   0.110  1.00  0.00    -0.288 OA
ATOM     21  H5  UNL     1       8.051   2.084  -0.250  1.00  0.00     0.244 HD
ENDBRANCH  16  20
ENDBRANCH  14  15
ENDBRANCH   8  13
ENDBRANCH   5   6
BRANCH   1  22
HETATM   22  C5  UNL     1      -2.198   0.388  -0.462  1.00  0.00     0.009 C 
BRANCH  22  23
HETATM   23  C4  UNL     1      -3.052  -0.577   0.240  1.00  0.00     0.001 C 
BRANCH  23  24
HETATM   24  C3  UNL     1      -4.174   0.034   0.996  1.00  0.00    -0.000 C 
BRANCH  24  25
HETATM   25  C2  UNL     1      -3.897   0.977   2.096  1.00  0.00    -0.005 C 
HETATM   26  C1  UNL     1      -3.222   2.269   1.779  1.00  0.00     0.005 C 
ENDBRANCH  24  25
ENDBRANCH  23  24
ENDBRANCH  22  23
ENDBRANCH   1  22
BRANCH   4  27
HETATM   27  O3  UNL     1      -0.664  -3.307   0.282  1.00  0.00    -0.391 OA
ATOM     28  H3  UNL     1      -0.042  -3.258   0.999  1.00  0.00     0.210 HD
ENDBRANCH   4  27
BRANCH   2  29
HETATM   29  O1  UNL     1      -2.877  -1.047  -2.746  1.00  0.00    -0.392 OA
ATOM     30  H1  UNL     1      -3.181  -1.628  -3.434  1.00  0.00     0.210 HD
ENDBRANCH   2  29
BRANCH   3  31
HETATM   31  O2  UNL     1      -0.747  -3.364  -2.972  1.00  0.00    -0.390 OA
ATOM     32  H2  UNL     1      -0.574  -4.257  -2.698  1.00  0.00     0.210 HD
ENDBRANCH   3  31
TORSDOF 12
