REMARK  11 active torsions:
REMARK  status: ('A' for Active; 'I' for Inactive)
REMARK    1  A    between atoms: C1_4  and  N2_5 
REMARK    2  A    between atoms: C1_4  and  O3_20 
REMARK    3  A    between atoms: N2_5  and  N3_7 
REMARK    4  A    between atoms: N4_9  and  C2_11 
REMARK    5  A    between atoms: C5_14  and  N5_15 
REMARK    6  A    between atoms: O3_20  and  C8_21 
REMARK    7  A    between atoms: C8_21  and  C9_22 
REMARK    8  A    between atoms: C9_22  and  C10_26 
REMARK    9  A    between atoms: C10_26  and  O4_27 
REMARK   10  A    between atoms: C10_26  and  C11_29 
REMARK       I    between atoms: C11_29  and  N7_31 
REMARK   11  A    between atoms: N7_31  and  N8_33 
ROOT
HETATM    1  N1  UNL     1      -0.492  -1.257   1.073  1.00  0.00    -0.364 N 
ATOM      2  H11 UNL     1      -1.339  -0.873   1.492  1.00  0.00     0.159 HD
ATOM      3  H12 UNL     1       0.291  -1.439   1.701  1.00  0.00     0.159 HD
HETATM    4  C1  UNL     1      -0.406  -1.504  -0.199  1.00  0.00     0.233 C 
ENDROOT
BRANCH   4   5
HETATM    5  N2  UNL     1       0.776  -2.040  -0.784  1.00  0.00    -0.251 N 
ATOM      6  H2  UNL     1       0.732  -2.731  -1.533  1.00  0.00     0.192 HD
BRANCH   5   7
HETATM    7  N3  UNL     1       2.000  -1.579  -0.289  1.00  0.00    -0.239 N 
HETATM    8  N4  UNL     1       2.217  -0.330  -0.369  1.00  0.00    -0.286 N 
ATOM      9  H4  UNL     1       1.526   0.301  -0.776  1.00  0.00     0.188 HD
ATOM     10  H3  UNL     1       2.686  -2.215   0.117  1.00  0.00     0.208 HD
BRANCH   8  11
HETATM   11  C2  UNL     1       3.458   0.159   0.129  1.00  0.00     0.049 A 
HETATM   12  C3  UNL     1       3.455   0.833   1.350  1.00  0.00     0.033 A 
HETATM   13  C4  UNL     1       4.645   1.300   1.825  1.00  0.00     0.038 A 
HETATM   14  C5  UNL     1       5.837   1.134   1.155  1.00  0.00     0.103 A 
HETATM   15  C6  UNL     1       5.821   0.466  -0.049  1.00  0.00     0.038 A 
HETATM   16  C7  UNL     1       4.640  -0.021  -0.564  1.00  0.00     0.033 A 
BRANCH  14  17
HETATM   17  N5  UNL     1       7.028   1.644   1.706  1.00  0.00    -0.116 N 
HETATM   18  O1  UNL     1       8.101   1.480   1.078  1.00  0.00    -0.532 OA
HETATM   19  O2  UNL     1       7.009   2.304   2.908  1.00  0.00    -0.532 OA
ENDBRANCH  14  17
ENDBRANCH   8  11
ENDBRANCH   5   7
ENDBRANCH   4   5
BRANCH   4  20
HETATM   20  O3  UNL     1      -1.471  -1.257  -1.053  1.00  0.00    -0.316 OA
BRANCH  20  21
HETATM   21  C8  UNL     1      -2.425  -0.247  -0.676  1.00  0.00     0.234 C 
BRANCH  21  22
HETATM   22  C9  UNL     1      -3.440  -0.179  -1.736  1.00  0.00     0.043 C 
HETATM   23  N6  UNL     1      -3.412  -1.004  -2.702  1.00  0.00    -0.401 N 
ATOM     24  H62 UNL     1      -2.673  -1.707  -2.721  1.00  0.00     0.155 HD
ATOM     25  H61 UNL     1      -4.117  -0.957  -3.438  1.00  0.00     0.155 HD
BRANCH  22  26
HETATM   26  C10 UNL     1      -4.517   0.846  -1.708  1.00  0.00     0.258 C 
BRANCH  26  27
HETATM   27  O4  UNL     1      -5.357   0.651  -2.831  1.00  0.00    -0.380 OA
ATOM     28  H4  UNL     1      -6.045   1.306  -2.813  1.00  0.00     0.211 HD
ENDBRANCH  26  27
BRANCH  26  29
HETATM   29  C11 UNL     1      -5.299   0.684  -0.459  1.00  0.00     0.270 C 
HETATM   30  O5  UNL     1      -6.463   0.217  -0.533  1.00  0.00    -0.268 OA
HETATM   31  N7  UNL     1      -4.745   1.051   0.782  1.00  0.00    -0.274 N 
ATOM     32  H7  UNL     1      -3.799   1.433   0.810  1.00  0.00     0.189 HD
BRANCH  31  33
HETATM   33  N8  UNL     1      -5.464   0.905   1.993  1.00  0.00    -0.343 N 
ATOM     34  H82 UNL     1      -6.408   0.522   1.947  1.00  0.00     0.176 HD
ATOM     35  H81 UNL     1      -5.063   1.171   2.892  1.00  0.00     0.176 HD
ENDBRANCH  31  33
ENDBRANCH  26  29
ENDBRANCH  22  26
ENDBRANCH  21  22
ENDBRANCH  20  21
ENDBRANCH   4  20
TORSDOF 11
