REMARK  11 active torsions:
REMARK  status: ('A' for Active; 'I' for Inactive)
REMARK    1  A    between atoms: C3_3  and  C4_4 
REMARK    2  A    between atoms: C4_4  and  C5_5 
REMARK    3  A    between atoms: C5_5  and  O1_6 
REMARK    4  A    between atoms: N1_8  and  O2_10 
REMARK    5  A    between atoms: C7_13  and  S1_14 
REMARK    6  A    between atoms: S1_14  and  C8_15 
REMARK    7  A    between atoms: C8_15  and  C9_17 
REMARK    8  A    between atoms: C9_17  and  C10_18 
REMARK    9  A    between atoms: C10_18  and  O4_19 
REMARK   10  A    between atoms: N2_21  and  O5_23 
REMARK   11  A    between atoms: C11_25  and  O6_26 
ROOT
HETATM    1  C1  UNL     1      -2.322  -0.062   2.140  1.00  0.00     0.015 C 
HETATM    2  C2  UNL     1      -1.538   0.868   1.278  1.00  0.00     0.041 C 
HETATM    3  C3  UNL     1      -1.760   0.774  -0.184  1.00  0.00     0.044 C 
HETATM    4  C6  UNL     1      -0.456   0.313  -0.823  1.00  0.00     0.031 C 
HETATM    5  C7  UNL     1       0.588   0.831   0.152  1.00  0.00     0.105 C 
HETATM    6  C11 UNL     1      -0.052   0.676   1.519  1.00  0.00     0.162 C 
HETATM    7  C12 UNL     1       0.257  -0.690   1.981  1.00  0.00     0.099 C 
HETATM    8  N3  UNL     1       0.501  -1.765   2.345  1.00  0.00    -0.194 NA
ENDROOT
BRANCH   6   9
HETATM    9  O6  UNL     1       0.387   1.647   2.415  1.00  0.00    -0.374 OA
ATOM     10  H6  UNL     1       1.317   1.527   2.566  1.00  0.00     0.212 HD
ENDBRANCH   6   9
BRANCH   5  11
HETATM   11  S1  UNL     1       2.156  -0.020   0.026  1.00  0.00    -0.083 SA
BRANCH  11  12
HETATM   12  C8  UNL     1       2.924   0.313  -1.551  1.00  0.00     0.194 C 
HETATM   13  O3  UNL     1       2.402   1.031  -2.383  1.00  0.00    -0.285 OA
BRANCH  12  14
HETATM   14  C9  UNL     1       4.258  -0.323  -1.841  1.00  0.00     0.176 C 
BRANCH  14  15
HETATM   15  C10 UNL     1       4.700  -1.149  -0.709  1.00  0.00     0.143 C 
HETATM   16  N2  UNL     1       5.799  -0.878  -0.114  1.00  0.00    -0.251 N 
ATOM     17  H2  UNL     1       6.100  -1.455   0.671  1.00  0.00     0.196 HD
BRANCH  15  18
HETATM   18  O4  UNL     1       3.933  -2.214  -0.287  1.00  0.00    -0.348 OA
ATOM     19  H4  UNL     1       4.219  -2.748   0.445  1.00  0.00     0.219 HD
ENDBRANCH  15  18
BRANCH  16  20
HETATM   20  O5  UNL     1       6.586   0.185  -0.518  1.00  0.00    -0.288 OA
ATOM     21  H5  UNL     1       7.402   0.386  -0.076  1.00  0.00     0.244 HD
ENDBRANCH  16  20
ENDBRANCH  14  15
ENDBRANCH  12  14
ENDBRANCH  11  12
ENDBRANCH   5  11
BRANCH   3  22
HETATM   22  C4  UNL     1      -2.928   0.019  -0.644  1.00  0.00     0.037 C 
HETATM   23  N1  UNL     1      -2.768  -1.054  -1.332  1.00  0.00    -0.275 N 
ATOM     24  H1  UNL     1      -1.808  -1.337  -1.531  1.00  0.00     0.193 HD
BRANCH  22  25
HETATM   25  C5  UNL     1      -4.289   0.490  -0.318  1.00  0.00     0.219 C 
BRANCH  25  26
HETATM   26  O1  UNL     1      -5.263  -0.371  -0.841  1.00  0.00    -0.395 OA
ATOM     27  H1  UNL     1      -6.139  -0.068  -0.631  1.00  0.00     0.209 HD
ENDBRANCH  25  26
ENDBRANCH  22  25
BRANCH  23  28
HETATM   28  O2  UNL     1      -3.757  -1.847  -1.819  1.00  0.00    -0.290 OA
ATOM     29  H2  UNL     1      -3.639  -2.640  -2.328  1.00  0.00     0.244 HD
ENDBRANCH  23  28
ENDBRANCH   3  22
TORSDOF 11
