REMARK  21 active torsions:
REMARK  status: ('A' for Active; 'I' for Inactive)
REMARK    1  A    between atoms: C2_2  and  C3_3 
REMARK    2  A    between atoms: C3_3  and  C4_4 
REMARK    3  A    between atoms: C4_4  and  C5_5 
REMARK    4  A    between atoms: C5_5  and  C6_6 
REMARK    5  A    between atoms: C6_6  and  C7_7 
REMARK    6  A    between atoms: C7_7  and  C8_8 
REMARK    7  A    between atoms: C8_8  and  C9_9 
REMARK    8  A    between atoms: C10_10  and  C11_11 
REMARK    9  A    between atoms: C11_11  and  C12_12 
REMARK   10  A    between atoms: C12_12  and  C13_13 
REMARK   11  A    between atoms: C13_13  and  C14_14 
REMARK   12  A    between atoms: C14_14  and  C15_15 
REMARK   13  A    between atoms: C16_16  and  C17_17 
REMARK   14  A    between atoms: C17_17  and  C18_18 
REMARK   15  A    between atoms: C19_19  and  C20_20 
REMARK   16  A    between atoms: C20_20  and  C21_21 
REMARK   17  A    between atoms: C21_21  and  O1_22 
REMARK   18  A    between atoms: C21_21  and  C26_27 
REMARK   19  A    between atoms: O1_22  and  C22_23 
REMARK   20  A    between atoms: C22_23  and  C23_24 
REMARK   21  A    between atoms: C23_24  and  C24_25 
ROOT
HETATM    1  C15 UNL     1      -0.602   1.952  -0.272  1.00  0.00    -0.030 C 
HETATM    2  C16 UNL     1      -1.732   1.790  -1.072  1.00  0.00    -0.027 C 
ENDROOT
BRANCH   2   3
HETATM    3  C17 UNL     1      -2.605   0.723  -0.541  1.00  0.00     0.053 C 
BRANCH   3   4
HETATM    4  C18 UNL     1      -3.010  -0.375  -1.452  1.00  0.00    -0.027 C 
HETATM    5  C19 UNL     1      -4.329  -0.710  -1.489  1.00  0.00    -0.024 C 
BRANCH   5   6
HETATM    6  C20 UNL     1      -5.393  -0.120  -0.738  1.00  0.00     0.092 C 
BRANCH   6   7
HETATM    7  C21 UNL     1      -6.533   0.476  -1.611  1.00  0.00     0.060 C 
BRANCH   7   8
HETATM    8  O1  UNL     1      -7.163  -0.377  -2.280  1.00  0.00    -0.354 OA
BRANCH   8   9
HETATM    9  C22 UNL     1      -7.612  -1.141  -3.146  1.00  0.00     0.175 C 
BRANCH   9  10
HETATM   10  C23 UNL     1      -8.859  -1.889  -2.619  1.00  0.00     0.026 C 
BRANCH  10  11
HETATM   11  C24 UNL     1      -8.591  -2.628  -1.369  1.00  0.00    -0.002 C 
HETATM   12  C25 UNL     1      -7.586  -3.719  -1.545  1.00  0.00     0.005 C 
ENDBRANCH  10  11
ENDBRANCH   9  10
ENDBRANCH   8   9
ENDBRANCH   7   8
BRANCH   7  13
HETATM   13  C26 UNL     1      -7.184   1.561  -0.841  1.00  0.00    -0.007 A 
HETATM   14  C27 UNL     1      -8.193   1.224   0.111  1.00  0.00     0.014 A 
HETATM   15  C28 UNL     1      -8.773   2.295   0.797  1.00  0.00     0.001 A 
HETATM   16  C29 UNL     1      -8.429   3.604   0.597  1.00  0.00     0.000 A 
HETATM   17  C30 UNL     1      -7.444   3.925  -0.339  1.00  0.00     0.001 A 
HETATM   18  C31 UNL     1      -6.882   2.858  -1.003  1.00  0.00     0.014 A 
ENDBRANCH   7  13
ENDBRANCH   6   7
ENDBRANCH   5   6
ENDBRANCH   3   4
ENDBRANCH   2   3
BRANCH   1  19
HETATM   19  C14 UNL     1      -0.435   1.113   0.872  1.00  0.00     0.027 C 
BRANCH  19  20
HETATM   20  C13 UNL     1       0.982   0.674   1.131  1.00  0.00     0.004 C 
BRANCH  20  21
HETATM   21  C12 UNL     1       1.996   0.953   0.319  1.00  0.00     0.004 C 
BRANCH  21  22
HETATM   22  C11 UNL     1       3.304   0.397   0.897  1.00  0.00     0.027 C 
BRANCH  22  23
HETATM   23  C10 UNL     1       4.156   1.566   0.995  1.00  0.00    -0.030 C 
HETATM   24  C9  UNL     1       5.277   2.100   0.851  1.00  0.00    -0.020 C 
BRANCH  24  25
HETATM   25  C8  UNL     1       6.509   1.277   0.348  1.00  0.00     0.106 C 
BRANCH  25  26
HETATM   26  C7  UNL     1       7.612   1.306   1.326  1.00  0.00    -0.179 C 
BRANCH  26  27
HETATM   27  C6  UNL     1       8.483   1.330   2.100  1.00  0.00     0.080 C 
BRANCH  27  28
HETATM   28  C5  UNL     1       9.731   0.463   1.326  1.00  0.00     0.011 C 
BRANCH  28  29
HETATM   29  C4  UNL     1       9.819  -0.768   2.169  1.00  0.00     0.001 C 
BRANCH  29  30
HETATM   30  C3  UNL     1      10.821  -1.710   1.464  1.00  0.00    -0.000 C 
BRANCH  30  31
HETATM   31  C2  UNL     1      11.069  -2.970   2.229  1.00  0.00    -0.005 C 
HETATM   32  C1  UNL     1      11.987  -3.834   1.372  1.00  0.00     0.005 C 
ENDBRANCH  30  31
ENDBRANCH  29  30
ENDBRANCH  28  29
ENDBRANCH  27  28
ENDBRANCH  26  27
ENDBRANCH  25  26
ENDBRANCH  24  25
ENDBRANCH  22  23
ENDBRANCH  21  22
ENDBRANCH  20  21
ENDBRANCH  19  20
ENDBRANCH   1  19
TORSDOF 21
