REMARK  19 active torsions:
REMARK  status: ('A' for Active; 'I' for Inactive)
REMARK    1  A    between atoms: C2_2  and  C3_3 
REMARK    2  A    between atoms: C3_3  and  C4_4 
REMARK    3  A    between atoms: C4_4  and  C5_5 
REMARK    4  A    between atoms: C5_5  and  C6_6 
REMARK    5  A    between atoms: C6_6  and  C7_7 
REMARK    6  A    between atoms: C7_7  and  C8_8 
REMARK    7  A    between atoms: C9_9  and  C10_10 
REMARK    8  A    between atoms: C10_10  and  C11_11 
REMARK    9  A    between atoms: C12_12  and  C13_13 
REMARK   10  A    between atoms: C13_13  and  C14_14 
REMARK   11  A    between atoms: C15_15  and  C16_16 
REMARK   12  A    between atoms: C16_16  and  C17_17 
REMARK   13  A    between atoms: C17_17  and  C18_18 
REMARK   14  A    between atoms: C19_19  and  C20_20 
REMARK   15  A    between atoms: C20_20  and  C21_21 
REMARK   16  A    between atoms: C22_22  and  C23_23 
REMARK   17  A    between atoms: C23_23  and  C24_24 
REMARK   18  A    between atoms: C25_25  and  C26_26 
REMARK   19  A    between atoms: C29_29  and  O1_30 
ROOT
HETATM    1  C17 UNL     1       1.530  -0.754  -4.049  1.00  0.00     0.030 C 
ENDROOT
BRANCH   1   2
HETATM    2  C16 UNL     1       0.009  -0.807  -3.808  1.00  0.00     0.030 C 
BRANCH   2   3
HETATM    3  C15 UNL     1      -0.238   0.067  -2.645  1.00  0.00    -0.030 C 
HETATM    4  C14 UNL     1      -0.763  -0.328  -1.521  1.00  0.00    -0.027 C 
BRANCH   4   5
HETATM    5  C13 UNL     1      -1.181  -1.700  -1.251  1.00  0.00     0.053 C 
BRANCH   5   6
HETATM    6  C12 UNL     1      -2.666  -1.653  -0.949  1.00  0.00    -0.027 C 
HETATM    7  C11 UNL     1      -3.095  -2.075   0.219  1.00  0.00    -0.027 C 
BRANCH   7   8
HETATM    8  C10 UNL     1      -4.551  -2.034   0.526  1.00  0.00     0.053 C 
BRANCH   8   9
HETATM    9  C9  UNL     1      -5.284  -1.489  -0.629  1.00  0.00    -0.027 C 
HETATM   10  C8  UNL     1      -6.010  -0.410  -0.583  1.00  0.00    -0.030 C 
BRANCH  10  11
HETATM   11  C7  UNL     1      -6.205   0.414   0.607  1.00  0.00     0.027 C 
BRANCH  11  12
HETATM   12  C6  UNL     1      -7.710   0.425   0.919  1.00  0.00     0.004 C 
BRANCH  12  13
HETATM   13  C5  UNL     1      -7.957   1.285   2.172  1.00  0.00     0.001 C 
BRANCH  13  14
HETATM   14  C4  UNL     1      -9.410   1.318   2.511  1.00  0.00     0.004 C 
BRANCH  14  15
HETATM   15  C3  UNL     1     -10.314   1.877   1.475  1.00  0.00     0.026 C 
BRANCH  15  16
HETATM   16  C2  UNL     1     -10.156   3.291   1.130  1.00  0.00    -0.037 C 
HETATM   17  C1  UNL     1      -9.430   4.116   1.835  1.00  0.00     0.007 C 
ENDBRANCH  15  16
ENDBRANCH  14  15
ENDBRANCH  13  14
ENDBRANCH  12  13
ENDBRANCH  11  12
ENDBRANCH  10  11
ENDBRANCH   8   9
ENDBRANCH   7   8
ENDBRANCH   5   6
ENDBRANCH   4   5
ENDBRANCH   2   3
ENDBRANCH   1   2
BRANCH   1  18
HETATM   18  C18 UNL     1       2.178  -1.261  -2.790  1.00  0.00    -0.030 C 
HETATM   19  C19 UNL     1       2.948  -2.318  -2.792  1.00  0.00    -0.027 C 
BRANCH  19  20
HETATM   20  C20 UNL     1       3.573  -2.785  -1.511  1.00  0.00     0.053 C 
BRANCH  20  21
HETATM   21  C21 UNL     1       3.215  -1.937  -0.379  1.00  0.00    -0.027 C 
HETATM   22  C22 UNL     1       4.034  -1.275   0.363  1.00  0.00    -0.027 C 
BRANCH  22  23
HETATM   23  C23 UNL     1       5.525  -1.305   0.133  1.00  0.00     0.054 C 
BRANCH  23  24
HETATM   24  C24 UNL     1       6.215  -1.826   1.303  1.00  0.00    -0.022 C 
HETATM   25  C25 UNL     1       7.245  -1.469   1.949  1.00  0.00     0.007 C 
BRANCH  25  26
HETATM   26  C26 UNL     1       8.134  -0.357   1.703  1.00  0.00    -0.036 A 
HETATM   27  C27 UNL     1       8.264   0.362   0.549  1.00  0.00     0.014 A 
HETATM   28  C28 UNL     1       9.100   1.481   0.422  1.00  0.00     0.037 A 
HETATM   29  C29 UNL     1       9.854   1.924   1.477  1.00  0.00     0.068 A 
HETATM   30  C31 UNL     1       9.742   1.215   2.648  1.00  0.00     0.037 A 
HETATM   31  C32 UNL     1       8.926   0.125   2.772  1.00  0.00     0.014 A 
BRANCH  29  32
HETATM   32  O1  UNL     1      10.691   3.028   1.383  1.00  0.00    -0.356 OA
HETATM   33  C30 UNL     1      10.770   3.717   0.166  1.00  0.00     0.210 C 
ENDBRANCH  29  32
ENDBRANCH  25  26
ENDBRANCH  23  24
ENDBRANCH  22  23
ENDBRANCH  20  21
ENDBRANCH  19  20
ENDBRANCH   1  18
TORSDOF 19
