REMARK  21 active torsions:
REMARK  status: ('A' for Active; 'I' for Inactive)
REMARK    1  A    between atoms: C2_2  and  C3_3 
REMARK    2  A    between atoms: C3_3  and  C4_4 
REMARK    3  A    between atoms: C4_4  and  C5_5 
REMARK    4  A    between atoms: C5_5  and  C6_6 
REMARK    5  A    between atoms: C7_7  and  C8_8 
REMARK    6  A    between atoms: C8_8  and  C9_9 
REMARK    7  A    between atoms: C10_10  and  C11_11 
REMARK    8  A    between atoms: C11_11  and  C12_12 
REMARK    9  A    between atoms: C13_13  and  C14_14 
REMARK   10  A    between atoms: C14_14  and  C15_15 
REMARK   11  A    between atoms: C16_16  and  C17_17 
REMARK   12  A    between atoms: C17_17  and  C18_18 
REMARK   13  A    between atoms: C19_19  and  C20_20 
REMARK   14  A    between atoms: C20_20  and  C21_21 
REMARK   15  A    between atoms: C22_22  and  C23_23 
REMARK   16  A    between atoms: C23_23  and  C24_24 
REMARK   17  A    between atoms: C26_26  and  C27_27 
REMARK   18  A    between atoms: C27_27  and  C28_28 
REMARK   19  A    between atoms: C28_28  and  C29_29 
REMARK   20  A    between atoms: C29_29  and  C30_30 
REMARK   21  A    between atoms: C30_30  and  O2_32 
ROOT
HETATM    1  C17 UNL     1       0.616  -1.160   1.567  1.00  0.00     0.053 C 
ENDROOT
BRANCH   1   2
HETATM    2  C16 UNL     1      -0.795  -0.858   1.187  1.00  0.00    -0.027 C 
HETATM    3  C15 UNL     1      -1.763  -1.579   1.684  1.00  0.00    -0.027 C 
BRANCH   3   4
HETATM    4  C14 UNL     1      -3.181  -1.248   1.281  1.00  0.00     0.053 C 
BRANCH   4   5
HETATM    5  C13 UNL     1      -3.767  -2.418   0.623  1.00  0.00    -0.027 C 
HETATM    6  C12 UNL     1      -4.215  -2.413  -0.600  1.00  0.00    -0.027 C 
BRANCH   6   7
HETATM    7  C11 UNL     1      -4.216  -1.265  -1.522  1.00  0.00     0.053 C 
BRANCH   7   8
HETATM    8  C10 UNL     1      -5.623  -0.932  -1.932  1.00  0.00    -0.027 C 
HETATM    9  C9  UNL     1      -6.647  -1.621  -1.485  1.00  0.00    -0.027 C 
BRANCH   9  10
HETATM   10  C8  UNL     1      -8.060  -1.307  -1.881  1.00  0.00     0.053 C 
BRANCH  10  11
HETATM   11  C7  UNL     1      -8.018  -0.150  -2.805  1.00  0.00    -0.027 C 
HETATM   12  C6  UNL     1      -8.610   1.000  -2.581  1.00  0.00    -0.030 C 
BRANCH  12  13
HETATM   13  C5  UNL     1      -9.414   1.368  -1.401  1.00  0.00     0.027 C 
BRANCH  13  14
HETATM   14  C4  UNL     1     -10.803   1.715  -1.919  1.00  0.00     0.007 C 
BRANCH  14  15
HETATM   15  C3  UNL     1     -11.659   2.095  -0.744  1.00  0.00     0.026 C 
BRANCH  15  16
HETATM   16  C2  UNL     1     -11.695   0.899   0.175  1.00  0.00    -0.037 C 
HETATM   17  C1  UNL     1     -11.247   1.021   1.406  1.00  0.00     0.007 C 
ENDBRANCH  15  16
ENDBRANCH  14  15
ENDBRANCH  13  14
ENDBRANCH  12  13
ENDBRANCH  10  11
ENDBRANCH   9  10
ENDBRANCH   7   8
ENDBRANCH   6   7
ENDBRANCH   4   5
ENDBRANCH   3   4
ENDBRANCH   1   2
BRANCH   1  18
HETATM   18  C18 UNL     1       1.333  -1.491   0.315  1.00  0.00    -0.027 C 
HETATM   19  C19 UNL     1       2.359  -0.847  -0.148  1.00  0.00    -0.027 C 
BRANCH  19  20
HETATM   20  C20 UNL     1       2.982   0.312   0.482  1.00  0.00     0.053 C 
BRANCH  20  21
HETATM   21  C21 UNL     1       4.425   0.008   0.815  1.00  0.00    -0.027 C 
HETATM   22  C22 UNL     1       4.868   0.056   2.037  1.00  0.00    -0.026 C 
BRANCH  22  23
HETATM   23  C23 UNL     1       6.246  -0.226   2.438  1.00  0.00     0.060 C 
BRANCH  23  24
HETATM   24  C24 UNL     1       7.085  -0.627   1.302  1.00  0.00    -0.084 C 
HETATM   25  C25 UNL     1       6.808  -1.928   0.569  1.00  0.00     0.043 C 
HETATM   26  C26 UNL     1       8.115   0.048   0.889  1.00  0.00    -0.024 C 
BRANCH  26  27
HETATM   27  C27 UNL     1       8.669   1.316   1.427  1.00  0.00     0.028 C 
BRANCH  27  28
HETATM   28  C28 UNL     1      10.074   1.154   1.922  1.00  0.00     0.013 C 
BRANCH  28  29
HETATM   29  C29 UNL     1      11.005   0.699   0.864  1.00  0.00     0.111 C 
BRANCH  29  30
HETATM   30  C30 UNL     1      11.133   1.660  -0.232  1.00  0.00     0.258 C 
HETATM   31  O1  UNL     1      10.612   2.798  -0.304  1.00  0.00    -0.265 OA
BRANCH  30  32
HETATM   32  O2  UNL     1      11.925   1.270  -1.324  1.00  0.00    -0.326 OA
HETATM   33  C31 UNL     1      12.136   2.096  -2.447  1.00  0.00     0.213 C 
ENDBRANCH  30  32
ENDBRANCH  29  30
ENDBRANCH  28  29
ENDBRANCH  27  28
ENDBRANCH  26  27
ENDBRANCH  23  24
ENDBRANCH  22  23
ENDBRANCH  20  21
ENDBRANCH  19  20
ENDBRANCH   1  18
TORSDOF 21
