REMARK  19 active torsions:
REMARK  status: ('A' for Active; 'I' for Inactive)
REMARK    1  A    between atoms: C2_2  and  C3_3 
REMARK    2  A    between atoms: C3_3  and  C4_4 
REMARK    3  A    between atoms: C4_4  and  C5_5 
REMARK    4  A    between atoms: C5_5  and  C6_6 
REMARK    5  A    between atoms: C6_6  and  C7_7 
REMARK    6  A    between atoms: C8_8  and  C9_9 
REMARK    7  A    between atoms: C9_9  and  C10_10 
REMARK    8  A    between atoms: C11_11  and  C12_12 
REMARK    9  A    between atoms: C12_12  and  C13_13 
REMARK   10  A    between atoms: C14_14  and  C15_15 
REMARK   11  A    between atoms: C15_15  and  C16_16 
REMARK   12  A    between atoms: C17_17  and  C18_18 
REMARK   13  A    between atoms: C18_18  and  C19_19 
REMARK   14  A    between atoms: C20_20  and  C21_21 
REMARK   15  A    between atoms: C21_21  and  C22_22 
REMARK   16  A    between atoms: C23_23  and  C24_24 
REMARK   17  A    between atoms: C24_24  and  C25_25 
REMARK   18  A    between atoms: C26_26  and  C27_27 
REMARK   19  A    between atoms: C27_27  and  C28_28 
ROOT
HETATM    1  C16 UNL     1       0.168  -3.227   3.049  1.00  0.00    -0.027 C 
HETATM    2  C17 UNL     1       1.338  -3.617   3.489  1.00  0.00    -0.027 C 
ENDROOT
BRANCH   2   3
HETATM    3  C18 UNL     1       2.255  -4.571   2.877  1.00  0.00     0.053 C 
BRANCH   3   4
HETATM    4  C19 UNL     1       3.586  -4.118   2.463  1.00  0.00    -0.027 C 
HETATM    5  C20 UNL     1       4.213  -2.996   2.470  1.00  0.00    -0.027 C 
BRANCH   5   6
HETATM    6  C21 UNL     1       3.806  -1.669   2.920  1.00  0.00     0.053 C 
BRANCH   6   7
HETATM    7  C22 UNL     1       3.860  -0.665   1.793  1.00  0.00    -0.027 C 
HETATM    8  C23 UNL     1       4.243  -1.072   0.611  1.00  0.00    -0.027 C 
BRANCH   8   9
HETATM    9  C24 UNL     1       4.293  -0.069  -0.497  1.00  0.00     0.053 C 
BRANCH   9  10
HETATM   10  C25 UNL     1       5.688  -0.011  -0.979  1.00  0.00    -0.027 C 
HETATM   11  C26 UNL     1       6.457   1.059  -0.970  1.00  0.00    -0.025 C 
BRANCH  11  12
HETATM   12  C27 UNL     1       6.100   2.404  -0.484  1.00  0.00     0.078 C 
BRANCH  12  13
HETATM   13  C28 UNL     1       6.206   3.438  -1.555  1.00  0.00    -0.015 C 
HETATM   14  N1  UNL     1       5.245   4.157  -1.968  1.00  0.00    -0.396 N 
HETATM   15  C29 UNL     1       5.645   5.061  -3.003  1.00  0.00     0.119 C 
ATOM     16  H1  UNL     1       4.294   4.097  -1.603  1.00  0.00     0.159 HD
HETATM   17  C30 UNL     1       6.916   4.436  -3.517  1.00  0.00     0.025 C 
HETATM   18  C31 UNL     1       7.462   3.759  -2.279  1.00  0.00     0.054 C 
ENDBRANCH  12  13
ENDBRANCH  11  12
ENDBRANCH   9  10
ENDBRANCH   8   9
ENDBRANCH   6   7
ENDBRANCH   5   6
ENDBRANCH   3   4
ENDBRANCH   2   3
BRANCH   1  19
HETATM   19  C15 UNL     1      -0.502  -3.678   1.803  1.00  0.00     0.053 C 
BRANCH  19  20
HETATM   20  C14 UNL     1      -1.792  -4.306   2.174  1.00  0.00    -0.027 C 
HETATM   21  C13 UNL     1      -2.952  -3.897   1.781  1.00  0.00    -0.027 C 
BRANCH  21  22
HETATM   22  C12 UNL     1      -3.294  -2.753   0.901  1.00  0.00     0.053 C 
BRANCH  22  23
HETATM   23  C11 UNL     1      -4.154  -1.793   1.621  1.00  0.00    -0.027 C 
HETATM   24  C10 UNL     1      -5.359  -1.412   1.331  1.00  0.00    -0.027 C 
BRANCH  24  25
HETATM   25  C9  UNL     1      -6.101  -1.921   0.153  1.00  0.00     0.053 C 
BRANCH  25  26
HETATM   26  C8  UNL     1      -6.417  -0.715  -0.690  1.00  0.00    -0.027 C 
HETATM   27  C7  UNL     1      -5.964  -0.665  -1.913  1.00  0.00    -0.030 C 
BRANCH  27  28
HETATM   28  C6  UNL     1      -6.184   0.443  -2.856  1.00  0.00     0.027 C 
BRANCH  28  29
HETATM   29  C5  UNL     1      -6.888   1.624  -2.286  1.00  0.00     0.004 C 
BRANCH  29  30
HETATM   30  C4  UNL     1      -6.101   2.382  -1.285  1.00  0.00     0.000 C 
BRANCH  30  31
HETATM   31  C3  UNL     1      -4.845   2.942  -1.986  1.00  0.00    -0.000 C 
BRANCH  31  32
HETATM   32  C2  UNL     1      -4.063   3.741  -0.937  1.00  0.00    -0.005 C 
HETATM   33  C1  UNL     1      -3.664   2.840   0.189  1.00  0.00     0.005 C 
ENDBRANCH  31  32
ENDBRANCH  30  31
ENDBRANCH  29  30
ENDBRANCH  28  29
ENDBRANCH  27  28
ENDBRANCH  25  26
ENDBRANCH  24  25
ENDBRANCH  22  23
ENDBRANCH  21  22
ENDBRANCH  19  20
ENDBRANCH   1  19
TORSDOF 19
