REMARK  6 active torsions:
REMARK  status: ('A' for Active; 'I' for Inactive)
REMARK    1  A    between atoms: N1_1  and  C1_4 
REMARK    2  A    between atoms: C3_8  and  C4_9 
REMARK    3  A    between atoms: C4_9  and  N3_10 
REMARK       I    between atoms: N3_10  and  C5_12 
REMARK    4  A    between atoms: C5_12  and  C6_14 
REMARK    5  A    between atoms: C13_21  and  N4_22 
REMARK       I    between atoms: N4_22  and  C14_24 
REMARK       I    between atoms: C14_24  and  N5_26 
REMARK    6  A    between atoms: N5_26  and  C15_28 
ROOT
HETATM    1  C1  UNL     1       0.686  -2.255   1.821  1.00  0.00     0.126 A 
HETATM    2  N2  UNL     1       2.044  -2.241   1.823  1.00  0.00    -0.350 N 
ATOM      3  H2  UNL     1       2.539  -2.928   2.391  1.00  0.00     0.166 HD
HETATM    4  C2  UNL     1       2.766  -1.354   1.103  1.00  0.00     0.098 A 
HETATM    5  C3  UNL     1       2.166  -0.410   0.326  1.00  0.00    -0.023 A 
HETATM    6  C12 UNL     1       0.775  -0.411   0.313  1.00  0.00     0.043 A 
HETATM    7  C13 UNL     1       0.006  -1.312   1.042  1.00  0.00     0.080 A 
ENDROOT
BRANCH   7   8
HETATM    8  N4  UNL     1      -1.386  -1.314   1.029  1.00  0.00    -0.305 N 
HETATM    9  C14 UNL     1      -2.231  -0.477   0.302  1.00  0.00     0.321 C 
HETATM   10  O2  UNL     1      -1.827   0.420  -0.463  1.00  0.00    -0.247 OA
HETATM   11  N5  UNL     1      -3.690  -0.629   0.415  1.00  0.00    -0.338 N 
ATOM     12  H5  UNL     1      -4.082  -1.345   1.026  1.00  0.00     0.164 HD
ATOM     13  H4  UNL     1      -1.841  -2.009   1.621  1.00  0.00     0.171 HD
BRANCH  11  14
HETATM   14  C15 UNL     1      -4.555   0.224  -0.329  1.00  0.00     0.094 C 
HETATM   15  C16 UNL     1      -5.476   1.044   0.525  1.00  0.00     0.009 C 
HETATM   16  C17 UNL     1      -6.604   0.270   1.130  1.00  0.00     0.011 C 
HETATM   17  C21 UNL     1      -6.113   2.101  -0.387  1.00  0.00     0.011 C 
HETATM   18  C18 UNL     1      -7.423  -0.359   0.043  1.00  0.00    -0.013 C 
HETATM   19  C19 UNL     1      -7.982   0.634  -0.943  1.00  0.00     0.009 C 
HETATM   20  C24 UNL     1      -6.505  -1.293  -0.731  1.00  0.00     0.011 C 
HETATM   21  C20 UNL     1      -6.841   1.446  -1.529  1.00  0.00    -0.013 C 
HETATM   22  C22 UNL     1      -5.960   0.498  -2.304  1.00  0.00     0.011 C 
HETATM   23  C23 UNL     1      -5.384  -0.528  -1.351  1.00  0.00     0.009 C 
ENDBRANCH  11  14
ENDBRANCH   7   8
BRANCH   1  24
HETATM   24  N1  UNL     1       0.046  -3.097   2.504  1.00  0.00    -0.384 N 
ATOM     25  H12 UNL     1       0.542  -3.784   3.072  1.00  0.00     0.157 HD
ATOM     26  H11 UNL     1      -0.974  -3.108   2.502  1.00  0.00     0.157 HD
ENDBRANCH   1  24
BRANCH   5  27
HETATM   27  C4  UNL     1       2.913   0.567  -0.465  1.00  0.00     0.162 C 
BRANCH  27  28
HETATM   28  N3  UNL     1       4.344   0.443  -0.364  1.00  0.00    -0.356 N 
HETATM   29  C5  UNL     1       5.116   0.875   0.743  1.00  0.00     0.222 C 
HETATM   30  O1  UNL     1       4.560   1.411   1.748  1.00  0.00    -0.273 OA
ATOM     31  H3  UNL     1       4.838   0.013  -1.146  1.00  0.00     0.162 HD
BRANCH  29  32
HETATM   32  C6  UNL     1       6.587   0.688   0.702  1.00  0.00     0.078 C 
HETATM   33  C7  UNL     1       7.221   1.516  -0.399  1.00  0.00     0.014 C 
HETATM   34  C8  UNL     1       8.724   1.416  -0.299  1.00  0.00     0.001 C 
HETATM   35  C9  UNL     1       9.109  -0.036  -0.244  1.00  0.00     0.000 C 
HETATM   36  C10 UNL     1       7.944  -0.932  -0.578  1.00  0.00     0.001 C 
HETATM   37  C11 UNL     1       6.853  -0.796   0.467  1.00  0.00     0.014 C 
ENDBRANCH  29  32
ENDBRANCH  27  28
ENDBRANCH   5  27
TORSDOF 6
