REMARK  10 active torsions:
REMARK  status: ('A' for Active; 'I' for Inactive)
REMARK    1  A    between atoms: C2_2  and  C3_3 
REMARK    2  A    between atoms: C3_3  and  N1_4 
REMARK    3  A    between atoms: N1_4  and  C4_6 
REMARK    4  A    between atoms: C4_6  and  C5_7 
REMARK    5  A    between atoms: C4_6  and  C18_28 
REMARK    6  A    between atoms: C5_7  and  N2_8 
REMARK    7  A    between atoms: C5_7  and  S1_25 
REMARK    8  A    between atoms: N2_8  and  C6_9 
REMARK    9  A    between atoms: S1_25  and  C16_26 
REMARK   10  A    between atoms: C18_28  and  N6_29 
ROOT
HETATM    1  C5  UNL     1      -0.762  -1.028   0.581  1.00  0.00     0.150 C 
ENDROOT
BRANCH   1   2
HETATM    2  C4  UNL     1      -1.982  -0.247   0.141  1.00  0.00     0.188 C 
BRANCH   2   3
HETATM    3  N1  UNL     1      -1.975   0.235  -1.136  1.00  0.00    -0.389 N 
ATOM      4  H1  UNL     1      -1.977   1.247  -1.261  1.00  0.00     0.159 HD
BRANCH   3   5
HETATM    5  C3  UNL     1      -1.966  -0.551  -2.267  1.00  0.00     0.056 C 
BRANCH   5   6
HETATM    6  C2  UNL     1      -3.197  -1.282  -2.714  1.00  0.00     0.039 C 
HETATM    7  C1  UNL     1      -3.781  -2.298  -1.810  1.00  0.00     0.010 C 
ENDBRANCH   5   6
ENDBRANCH   3   5
ENDBRANCH   2   3
BRANCH   2   8
HETATM    8  C18 UNL     1      -2.437   0.764   1.210  1.00  0.00     0.150 C 
HETATM    9  C19 UNL     1      -1.664   2.003   1.276  1.00  0.00     0.041 C 
HETATM   10  C20 UNL     1      -2.281   3.280   0.852  1.00  0.00     0.002 C 
HETATM   11  C21 UNL     1      -3.760   3.370   0.993  1.00  0.00     0.000 C 
HETATM   12  C22 UNL     1      -4.375   2.152   0.337  1.00  0.00     0.002 C 
HETATM   13  C23 UNL     1      -3.936   0.944   1.064  1.00  0.00     0.041 C 
BRANCH   8  14
HETATM   14  N6  UNL     1      -2.303   0.044   2.472  1.00  0.00    -0.068 N 
ATOM     15  H63 UNL     1      -2.803  -0.845   2.500  1.00  0.00     0.275 HD
ATOM     16  H62 UNL     1      -1.374  -0.344   2.634  1.00  0.00     0.275 HD
ATOM     17  H61 UNL     1      -2.604   0.714   3.180  1.00  0.00     0.275 HD
ENDBRANCH   8  14
ENDBRANCH   2   8
ENDBRANCH   1   2
BRANCH   1  18
HETATM   18  N2  UNL     1       0.495  -0.692   0.355  1.00  0.00    -0.366 NA
BRANCH  18  19
HETATM   19  C6  UNL     1       1.586  -0.189   0.333  1.00  0.00     0.262 A 
HETATM   20  N3  UNL     1       2.032   0.890   1.043  1.00  0.00    -0.300 N 
HETATM   21  C7  UNL     1       3.303   1.122   0.731  1.00  0.00     0.137 A 
ATOM     22  H3  UNL     1       1.478   1.431   1.707  1.00  0.00     0.171 HD
HETATM   23  N4  UNL     1       4.385   1.930   0.970  1.00  0.00    -0.340 N 
HETATM   24  C15 UNL     1       3.717   0.200  -0.188  1.00  0.00     0.093 A 
HETATM   25  C8  UNL     1       5.423   1.516   0.222  1.00  0.00     0.046 A 
ATOM     26  H4  UNL     1       4.400   2.721   1.614  1.00  0.00     0.167 HD
HETATM   27  C9  UNL     1       6.727   1.958   0.074  1.00  0.00     0.031 A 
HETATM   28  C14 UNL     1       5.050   0.423  -0.528  1.00  0.00     0.022 A 
HETATM   29  C10 UNL     1       7.591   1.322  -0.786  1.00  0.00     0.009 A 
HETATM   30  C11 UNL     1       7.230   0.227  -1.544  1.00  0.00    -0.061 A 
HETATM   31  C12 UNL     1       8.193  -0.427  -2.455  1.00  0.00     0.048 C 
HETATM   32  C13 UNL     1       5.921  -0.224  -1.401  1.00  0.00     0.023 A 
HETATM   33  N5  UNL     1       2.672  -0.580  -0.416  1.00  0.00    -0.312 N 
ATOM     34  H5  UNL     1       2.672  -1.369  -1.063  1.00  0.00     0.170 HD
ENDBRANCH  18  19
ENDBRANCH   1  18
BRANCH   1  35
HETATM   35  S1  UNL     1      -1.024  -2.446   1.439  1.00  0.00    -0.100 SA
BRANCH  35  36
HETATM   36  C16 UNL     1      -2.693  -3.022   1.827  1.00  0.00     0.077 C 
HETATM   37  C17 UNL     1      -2.853  -4.504   1.496  1.00  0.00     0.016 C 
ENDBRANCH  35  36
ENDBRANCH   1  35
TORSDOF 10
