REMARK  7 active torsions:
REMARK  status: ('A' for Active; 'I' for Inactive)
REMARK    1  A    between atoms: C7_7  and  C8_8 
REMARK    2  A    between atoms: C8_8  and  C9_9 
REMARK    3  A    between atoms: C20_20  and  N1_21 
REMARK    4  A    between atoms: N1_21  and  C21_23 
REMARK    5  A    between atoms: C21_23  and  C23_25 
REMARK    6  A    between atoms: C23_25  and  N2_26 
REMARK    7  A    between atoms: C23_25  and  C24_30 
ROOT
HETATM    1  C1  UNL     1      -3.886   5.552   0.052  1.00  0.00     0.068 C 
HETATM    2  C2  UNL     1      -3.154   4.282  -0.121  1.00  0.00     0.008 A 
HETATM    3  C3  UNL     1      -1.815   4.067  -0.411  1.00  0.00     0.040 A 
HETATM    4  C4  UNL     1      -1.596   2.691  -0.476  1.00  0.00     0.017 A 
HETATM    5  C5  UNL     1      -0.436   1.953  -0.733  1.00  0.00    -0.034 A 
HETATM    6  C6  UNL     1       0.833   2.682  -0.977  1.00  0.00     0.050 C 
HETATM    7  C7  UNL     1      -0.533   0.593  -0.730  1.00  0.00     0.015 A 
HETATM    8  C20 UNL     1      -1.803   0.059  -0.467  1.00  0.00     0.114 A 
HETATM    9  N3  UNL     1      -2.888   0.792  -0.225  1.00  0.00    -0.327 N 
ATOM     10  H3  UNL     1      -3.779   0.332  -0.041  1.00  0.00     0.169 HD
HETATM   11  C25 UNL     1      -2.817   2.126  -0.222  1.00  0.00     0.118 A 
HETATM   12  N4  UNL     1      -3.738   3.070  -0.012  1.00  0.00    -0.346 N 
ATOM     13  H4  UNL     1      -4.722   2.902   0.197  1.00  0.00     0.167 HD
ENDROOT
BRANCH   7  14
HETATM   14  C8  UNL     1       0.542  -0.321  -1.052  1.00  0.00     0.028 C 
BRANCH  14  15
HETATM   15  C9  UNL     1       1.782  -0.333  -0.308  1.00  0.00    -0.022 A 
HETATM   16  C10 UNL     1       1.913  -0.525   1.044  1.00  0.00    -0.045 A 
HETATM   17  C11 UNL     1       0.710  -0.687   1.919  1.00  0.00     0.049 C 
HETATM   18  C12 UNL     1       3.179  -0.578   1.629  1.00  0.00    -0.049 A 
HETATM   19  C13 UNL     1       3.242  -0.755   3.104  1.00  0.00     0.049 C 
HETATM   20  C14 UNL     1       4.352  -0.446   0.921  1.00  0.00    -0.049 A 
HETATM   21  C15 UNL     1       5.689  -0.544   1.592  1.00  0.00     0.049 C 
HETATM   22  C16 UNL     1       4.219  -0.252  -0.441  1.00  0.00    -0.049 A 
HETATM   23  C17 UNL     1       5.444  -0.061  -1.273  1.00  0.00     0.049 C 
HETATM   24  C18 UNL     1       2.978  -0.200  -1.034  1.00  0.00    -0.045 A 
HETATM   25  C19 UNL     1       2.968  -0.081  -2.521  1.00  0.00     0.049 C 
ENDBRANCH  14  15
ENDBRANCH   7  14
BRANCH   8  26
HETATM   26  N1  UNL     1      -1.961  -1.210  -0.504  1.00  0.00    -0.369 N 
ATOM     27  H1  UNL     1      -1.129  -1.756  -0.728  1.00  0.00     0.161 HD
BRANCH  26  28
HETATM   28  C21 UNL     1      -3.148  -1.954  -0.272  1.00  0.00     0.120 C 
HETATM   29  C22 UNL     1      -3.558  -2.011   1.175  1.00  0.00     0.035 C 
BRANCH  28  30
HETATM   30  C23 UNL     1      -2.868  -3.375  -0.787  1.00  0.00     0.305 C 
BRANCH  30  31
HETATM   31  N2  UNL     1      -1.739  -3.948  -0.060  1.00  0.00    -0.063 N 
ATOM     32  H23 UNL     1      -0.912  -3.353  -0.105  1.00  0.00     0.275 HD
ATOM     33  H22 UNL     1      -1.881  -3.926   0.950  1.00  0.00     0.275 HD
ATOM     34  H21 UNL     1      -1.553  -4.891  -0.402  1.00  0.00     0.275 HD
ENDBRANCH  30  31
BRANCH  30  35
HETATM   35  C24 UNL     1      -4.067  -4.211  -0.630  1.00  0.00     0.206 C 
HETATM   36  O1  UNL     1      -3.998  -5.248   0.070  1.00  0.00    -0.646 OA
HETATM   37  O2  UNL     1      -5.238  -3.831  -1.259  1.00  0.00    -0.646 OA
ENDBRANCH  30  35
ENDBRANCH  28  30
ENDBRANCH  26  28
ENDBRANCH   8  26
TORSDOF 7
