REMARK  7 active torsions:
REMARK  status: ('A' for Active; 'I' for Inactive)
REMARK    1  A    between atoms: C11_11  and  O1_12 
REMARK    2  A    between atoms: C12_14  and  O2_15 
REMARK    3  A    between atoms: C16_20  and  C17_21 
REMARK    4  A    between atoms: C17_21  and  C18_22 
REMARK    5  A    between atoms: C18_22  and  C19_23 
REMARK    6  A    between atoms: C19_23  and  N1_24 
REMARK       I    between atoms: N1_24  and  C20_26 
REMARK       I    between atoms: C20_26  and  N3_30 
REMARK    7  A    between atoms: N3_30  and  C21_32 
ROOT
HETATM    1  C1  UNL     1      -0.121  -2.729  -2.020  1.00  0.00     0.015 C 
HETATM    2  C2  UNL     1      -0.283  -1.814  -1.076  1.00  0.00    -0.081 C 
HETATM    3  C3  UNL     1      -0.523  -2.316   0.318  1.00  0.00     0.034 C 
HETATM    4  C4  UNL     1      -1.460  -1.300   0.993  1.00  0.00     0.009 C 
HETATM    5  C5  UNL     1      -2.355  -0.753  -0.071  1.00  0.00    -0.004 C 
HETATM    6  C6  UNL     1      -1.567   0.269  -0.881  1.00  0.00     0.002 C 
HETATM    7  C7  UNL     1      -2.338   0.763  -2.076  1.00  0.00     0.007 C 
HETATM    8  C8  UNL     1      -3.831   0.718  -1.857  1.00  0.00     0.012 C 
HETATM    9  C9  UNL     1      -4.130   0.994  -0.390  1.00  0.00    -0.012 C 
HETATM   10  C10 UNL     1      -3.594   2.298   0.078  1.00  0.00     0.018 C 
HETATM   11  C11 UNL     1      -5.653   1.037  -0.202  1.00  0.00     0.155 C 
HETATM   12  C12 UNL     1      -6.063   0.660   1.179  1.00  0.00     0.147 C 
HETATM   13  C13 UNL     1      -4.982   0.793   2.209  1.00  0.00     0.035 C 
HETATM   14  C14 UNL     1      -3.700   0.126   1.866  1.00  0.00     0.008 C 
HETATM   15  C15 UNL     1      -3.649  -0.200   0.389  1.00  0.00     0.001 C 
HETATM   16  C16 UNL     1      -0.291  -0.402  -1.412  1.00  0.00     0.040 C 
ENDROOT
BRANCH  16  17
HETATM   17  C17 UNL     1       0.888   0.370  -0.975  1.00  0.00    -0.020 C 
BRANCH  17  18
HETATM   18  C18 UNL     1       2.241   0.106  -1.439  1.00  0.00    -0.010 C 
BRANCH  18  19
HETATM   19  C19 UNL     1       2.967  -1.149  -1.165  1.00  0.00     0.165 C 
BRANCH  19  20
HETATM   20  N1  UNL     1       3.182  -1.461   0.233  1.00  0.00    -0.223 N 
HETATM   21  C20 UNL     1       4.042  -0.708   1.072  1.00  0.00     0.668 C 
HETATM   22  N2  UNL     1       3.579   0.207   1.839  1.00  0.00    -0.235 N 
HETATM   23  N3  UNL     1       5.453  -0.932   1.108  1.00  0.00    -0.219 N 
ATOM     24  H22 UNL     1       2.572   0.367   1.813  1.00  0.00     0.174 HD
ATOM     25  H21 UNL     1       4.198   0.749   2.443  1.00  0.00     0.174 HD
ATOM     26  H3  UNL     1       5.800  -1.713   1.665  1.00  0.00     0.178 HD
ATOM     27  H1  UNL     1       2.691  -2.261   0.633  1.00  0.00     0.178 HD
BRANCH  23  28
HETATM   28  C21 UNL     1       6.408  -0.129   0.411  1.00  0.00     0.122 C 
HETATM   29  C22 UNL     1       7.779  -0.623   0.650  1.00  0.00    -0.005 C 
HETATM   30  C23 UNL     1       8.613   0.364   0.880  1.00  0.00    -0.029 C 
HETATM   31  C24 UNL     1       7.931   1.663   0.830  1.00  0.00     0.029 C 
HETATM   32  C25 UNL     1       6.474   1.301   0.902  1.00  0.00     0.033 C 
ENDBRANCH  23  28
ENDBRANCH  19  20
ENDBRANCH  18  19
ENDBRANCH  17  18
ENDBRANCH  16  17
BRANCH  11  33
HETATM   33  O1  UNL     1      -6.237   0.212  -1.172  1.00  0.00    -0.392 OA
ATOM     34  H1  UNL     1      -7.179   0.239  -1.056  1.00  0.00     0.210 HD
ENDBRANCH  11  33
BRANCH  12  35
HETATM   35  O2  UNL     1      -6.668  -0.605   1.213  1.00  0.00    -0.393 OA
ATOM     36  H2  UNL     1      -6.930  -0.846   2.094  1.00  0.00     0.210 HD
ENDBRANCH  12  35
TORSDOF 7
