REMARK  9 active torsions:
REMARK  status: ('A' for Active; 'I' for Inactive)
REMARK    1  A    between atoms: C3_4  and  N2_5 
REMARK    2  A    between atoms: N2_5  and  C4_7 
REMARK    3  A    between atoms: C6_13  and  O1_14 
REMARK    4  A    between atoms: C8_17  and  C9_18 
REMARK    5  A    between atoms: C10_21  and  N5_22 
REMARK    6  A    between atoms: N5_22  and  N6_24 
REMARK       I    between atoms: N6_24  and  C11_26 
REMARK    7  A    between atoms: C11_26  and  C12_28 
REMARK    8  A    between atoms: C12_28  and  O5_29 
REMARK    9  A    between atoms: C12_28  and  N7_31 
ROOT
HETATM    1  N1  UNL     1       0.196   0.118   2.600  1.00  0.00    -0.100 NA
HETATM    2  C1  UNL     1       1.055   0.061   1.461  1.00  0.00     0.077 A 
HETATM    3  C2  UNL     1       2.371  -0.326   1.565  1.00  0.00     0.058 A 
HETATM    4  C3  UNL     1       3.212  -0.384   0.449  1.00  0.00     0.032 A 
HETATM    5  C7  UNL     1       2.656  -0.034  -0.759  1.00  0.00     0.050 A 
HETATM    6  C8  UNL     1       1.333   0.352  -0.847  1.00  0.00     0.072 A 
HETATM    7  C10 UNL     1       0.502   0.413   0.242  1.00  0.00     0.089 A 
ENDROOT
BRANCH   7   8
HETATM    8  N5  UNL     1      -0.843   0.832   0.122  1.00  0.00    -0.295 N 
ATOM      9  H5  UNL     1      -1.017   1.830   0.002  1.00  0.00     0.187 HD
BRANCH   8  10
HETATM   10  N6  UNL     1      -1.927   0.002   0.155  1.00  0.00    -0.262 N 
HETATM   11  C11 UNL     1      -3.264   0.560   0.142  1.00  0.00     0.312 C 
HETATM   12  O4  UNL     1      -3.399   1.807   0.091  1.00  0.00    -0.262 OA
ATOM     13  H6  UNL     1      -1.796  -1.009   0.189  1.00  0.00     0.190 HD
BRANCH  11  14
HETATM   14  C12 UNL     1      -4.421  -0.298   0.186  1.00  0.00     0.236 C 
BRANCH  14  15
HETATM   15  O5  UNL     1      -4.129  -1.565   0.243  1.00  0.00    -0.341 OA
ATOM     16  H5  UNL     1      -4.892  -2.131   0.272  1.00  0.00     0.219 HD
ENDBRANCH  14  15
BRANCH  14  17
HETATM   17  N7  UNL     1      -5.781   0.034   0.178  1.00  0.00    -0.184 N 
HETATM   18  N8  UNL     1      -6.225   1.264   0.118  1.00  0.00    -0.239 N 
HETATM   19  C13 UNL     1      -7.570   1.510   0.124  1.00  0.00     0.342 A 
ATOM     20  H8  UNL     1      -5.566   2.041   0.067  1.00  0.00     0.192 HD
HETATM   21  O6  UNL     1      -7.937   2.722   0.063  1.00  0.00    -0.245 OA
HETATM   22  N9  UNL     1      -8.473   0.519   0.190  1.00  0.00    -0.270 N 
HETATM   23  C14 UNL     1      -8.046  -0.752   0.253  1.00  0.00     0.319 A 
ATOM     24  H9  UNL     1      -9.471   0.729   0.192  1.00  0.00     0.174 HD
HETATM   25  O7  UNL     1      -8.890  -1.697   0.317  1.00  0.00    -0.262 OA
HETATM   26  C15 UNL     1      -6.696  -1.001   0.248  1.00  0.00     0.337 A 
HETATM   27  O8  UNL     1      -6.311  -2.200   0.308  1.00  0.00    -0.260 OA
ENDBRANCH  14  17
ENDBRANCH  11  14
ENDBRANCH   8  10
ENDBRANCH   7   8
BRANCH   6  28
HETATM   28  C9  UNL     1       0.784   0.704  -2.152  1.00  0.00     0.211 C 
HETATM   29  O2  UNL     1       1.472   0.686  -3.218  1.00  0.00    -0.644 OA
HETATM   30  O3  UNL     1      -0.543   1.083  -2.291  1.00  0.00    -0.644 OA
ENDBRANCH   6  28
BRANCH   4  31
HETATM   31  N2  UNL     1       4.552  -0.790   0.606  1.00  0.00    -0.365 N 
ATOM     32  H2  UNL     1       4.865  -1.137   1.513  1.00  0.00     0.162 HD
BRANCH  31  33
HETATM   33  C4  UNL     1       5.485  -0.727  -0.479  1.00  0.00     0.231 C 
HETATM   34  N3  UNL     1       5.667   0.625  -0.973  1.00  0.00    -0.361 N 
HETATM   35  C5  UNL     1       6.910   0.876  -1.182  1.00  0.00     0.175 C 
ATOM     36  H3  UNL     1       4.909   1.288  -1.133  1.00  0.00     0.162 HD
HETATM   37  N4  UNL     1       7.703  -0.262  -0.858  1.00  0.00    -0.357 N 
HETATM   38  C6  UNL     1       6.886  -1.076  -0.009  1.00  0.00     0.261 C 
ATOM     39  H4  UNL     1       8.655  -0.457  -1.167  1.00  0.00     0.162 HD
BRANCH  38  40
HETATM   40  O1  UNL     1       7.119  -2.441  -0.153  1.00  0.00    -0.373 OA
ATOM     41  H1  UNL     1       7.996  -2.659   0.141  1.00  0.00     0.212 HD
ENDBRANCH  38  40
ENDBRANCH  31  33
ENDBRANCH   4  31
TORSDOF 9
