REMARK  13 active torsions:
REMARK  status: ('A' for Active; 'I' for Inactive)
REMARK    1  A    between atoms: C2_2  and  O2_4 
REMARK    2  A    between atoms: O2_4  and  C3_5 
REMARK    3  A    between atoms: C3_5  and  C4_6 
REMARK       I    between atoms: C4_6  and  N1_8 
REMARK    4  A    between atoms: N1_8  and  N2_10 
REMARK    5  A    between atoms: C6_16  and  N4_17 
REMARK    6  A    between atoms: N4_17  and  O4_19 
REMARK    7  A    between atoms: C7_23  and  O5_24 
REMARK    8  A    between atoms: C9_27  and  O6_28 
REMARK    9  A    between atoms: O6_28  and  C10_29 
REMARK   10  A    between atoms: C11_31  and  O8_32 
REMARK   11  A    between atoms: C11_31  and  C12_34 
REMARK   12  A    between atoms: C13_37  and  C14_38 
REMARK   13  A    between atoms: C14_38  and  O11_40 
ROOT
HETATM    1  C3  UNL     1      -1.292   0.002   0.311  1.00  0.00     0.250 C 
HETATM    2  C5  UNL     1      -0.537  -0.615   1.394  1.00  0.00     0.289 C 
HETATM    3  N3  UNL     1      -0.553   0.369   2.503  1.00  0.00    -0.194 N 
ATOM      4  H3  UNL     1      -0.753   0.087   3.463  1.00  0.00     0.180 HD
HETATM    5  C6  UNL     1      -0.274   1.737   2.166  1.00  0.00     0.698 C 
HETATM    6  N5  UNL     1      -0.302   2.113   0.947  1.00  0.00    -0.184 N 
ATOM      7  H5  UNL     1      -0.099   3.093   0.750  1.00  0.00     0.181 HD
HETATM    8  C7  UNL     1      -0.598   1.260  -0.165  1.00  0.00     0.223 C 
HETATM    9  C8  UNL     1       0.688   1.005  -0.843  1.00  0.00     0.049 C 
HETATM   10  C9  UNL     1       0.927   1.864  -1.822  1.00  0.00     0.156 C 
HETATM   11  C11 UNL     1       1.795   0.032  -0.692  1.00  0.00     0.205 C 
HETATM   12  C13 UNL     1       1.330  -1.169   0.040  1.00  0.00     0.202 C 
HETATM   13  O12 UNL     1       0.767  -0.919   1.209  1.00  0.00    -0.351 OA
ENDROOT
BRANCH   1  14
HETATM   14  O2  UNL     1      -1.529  -0.806  -0.841  1.00  0.00    -0.290 OA
BRANCH  14  15
HETATM   15  C2  UNL     1      -2.255  -1.978  -0.828  1.00  0.00     0.256 C 
HETATM   16  C1  UNL     1      -2.475  -2.777  -2.048  1.00  0.00     0.126 C 
HETATM   17  O1  UNL     1      -2.746  -2.386   0.241  1.00  0.00    -0.266 OA
ENDBRANCH  14  15
ENDBRANCH   1  14
BRANCH   1  18
HETATM   18  C4  UNL     1      -2.632   0.416   0.761  1.00  0.00     0.281 C 
HETATM   19  O3  UNL     1      -2.946   0.821   1.916  1.00  0.00    -0.268 OA
HETATM   20  N1  UNL     1      -3.774   0.400  -0.132  1.00  0.00    -0.274 N 
ATOM     21  H1  UNL     1      -3.625   0.096  -1.094  1.00  0.00     0.189 HD
BRANCH  20  22
HETATM   22  N2  UNL     1      -5.049   0.770   0.240  1.00  0.00    -0.343 N 
ATOM     23  H22 UNL     1      -5.179   1.071   1.206  1.00  0.00     0.176 HD
ATOM     24  H21 UNL     1      -5.852   0.759  -0.388  1.00  0.00     0.176 HD
ENDBRANCH  20  22
ENDBRANCH   1  18
BRANCH   8  25
HETATM   25  O5  UNL     1      -1.424   1.964  -1.042  1.00  0.00    -0.363 OA
ATOM     26  H5  UNL     1      -0.988   2.754  -1.341  1.00  0.00     0.213 HD
ENDBRANCH   8  25
BRANCH   5  27
HETATM   27  N4  UNL     1       0.033   2.673   3.175  1.00  0.00    -0.099 N 
ATOM     28  H4  UNL     1       0.694   3.418   2.955  1.00  0.00     0.213 HD
BRANCH  27  29
HETATM   29  O4  UNL     1      -0.502   2.638   4.425  1.00  0.00    -0.276 OA
ATOM     30  H4  UNL     1      -0.295   3.269   5.105  1.00  0.00     0.245 HD
ENDBRANCH  27  29
ENDBRANCH   5  27
BRANCH  12  31
HETATM   31  C14 UNL     1       2.534  -2.120   0.296  1.00  0.00     0.147 C 
HETATM   32  C15 UNL     1       2.033  -3.474   0.751  1.00  0.00     0.042 C 
BRANCH  31  33
HETATM   33  O11 UNL     1       3.463  -1.567   1.139  1.00  0.00    -0.393 OA
ATOM     34  H11 UNL     1       4.198  -2.148   1.295  1.00  0.00     0.210 HD
ENDBRANCH  31  33
ENDBRANCH  12  31
BRANCH  10  35
HETATM   35  O6  UNL     1       2.085   1.826  -2.614  1.00  0.00    -0.298 OA
BRANCH  35  36
HETATM   36  C10 UNL     1       2.223   2.769  -3.600  1.00  0.00     0.402 C 
HETATM   37  O7  UNL     1       1.320   3.632  -3.768  1.00  0.00    -0.276 OA
ENDBRANCH  35  36
ENDBRANCH  10  35
BRANCH  11  38
HETATM   38  O8  UNL     1       2.075  -0.423  -2.014  1.00  0.00    -0.372 OA
ATOM     39  H8  UNL     1       2.785  -1.047  -1.917  1.00  0.00     0.211 HD
ENDBRANCH  11  38
BRANCH  11  40
HETATM   40  C12 UNL     1       3.001   0.670  -0.129  1.00  0.00     0.216 C 
HETATM   41  O9  UNL     1       4.040   0.661  -0.858  1.00  0.00    -0.645 OA
HETATM   42  O10 UNL     1       3.139   1.275   1.085  1.00  0.00    -0.645 OA
ENDBRANCH  11  40
TORSDOF 13
