REMARK  14 active torsions:
REMARK  status: ('A' for Active; 'I' for Inactive)
REMARK    1  A    between atoms: C2_2  and  O1_3 
REMARK    2  A    between atoms: C2_2  and  O2_5 
REMARK    3  A    between atoms: C2_2  and  C3_7 
REMARK       I    between atoms: C3_7  and  N1_9 
REMARK    4  A    between atoms: N1_9  and  C4_11 
REMARK    5  A    between atoms: C5_12  and  N2_13 
REMARK    6  A    between atoms: N2_13  and  C6_15 
REMARK    7  A    between atoms: C6_15  and  C7_20 
REMARK    8  A    between atoms: N3_16  and  O4_18 
REMARK    9  A    between atoms: C8_26  and  N6_27 
REMARK   10  A    between atoms: C10_31  and  N7_32 
REMARK   11  A    between atoms: C11_36  and  N8_37 
REMARK   12  A    between atoms: N8_37  and  C12_39 
REMARK   13  A    between atoms: C13_45  and  C14_46 
REMARK   14  A    between atoms: C14_46  and  O7_47 
ROOT
HETATM    1  C4  UNL     1       0.138   0.306  -0.841  1.00  0.00     0.132 C 
HETATM    2  C5  UNL     1      -1.201  -0.379  -0.695  1.00  0.00     0.110 C 
HETATM    3  C9  UNL     1      -0.870  -1.733  -1.235  1.00  0.00     0.062 C 
HETATM    4  C10 UNL     1       0.415  -2.093  -0.588  1.00  0.00     0.210 C 
HETATM    5  C11 UNL     1       1.140  -0.765  -0.421  1.00  0.00     0.138 C 
ENDROOT
BRANCH   2   6
HETATM    6  N2  UNL     1      -1.666  -0.362   0.648  1.00  0.00    -0.366 N 
ATOM      7  H2  UNL     1      -1.073   0.046   1.370  1.00  0.00     0.161 HD
BRANCH   6   8
HETATM    8  C6  UNL     1      -2.948  -0.903   1.022  1.00  0.00     0.154 C 
HETATM    9  N3  UNL     1      -3.057  -1.694   2.021  1.00  0.00    -0.251 N 
ATOM     10  H3  UNL     1      -2.220  -1.938   2.550  1.00  0.00     0.196 HD
BRANCH   9  11
HETATM   11  O4  UNL     1      -4.244  -2.217   2.400  1.00  0.00    -0.288 OA
ATOM     12  H4  UNL     1      -4.325  -2.805   3.142  1.00  0.00     0.244 HD
ENDBRANCH   9  11
BRANCH   8  13
HETATM   13  C7  UNL     1      -4.146  -0.588   0.267  1.00  0.00     0.147 A 
HETATM   14  N4  UNL     1      -4.616   0.673   0.050  1.00  0.00    -0.234 N 
HETATM   15  O5  UNL     1      -5.698   0.601  -0.681  1.00  0.00    -0.155 OA
ATOM     16  H4  UNL     1      -4.193   1.532   0.401  1.00  0.00     0.197 HD
HETATM   17  N5  UNL     1      -5.968  -0.626  -0.957  1.00  0.00    -0.224 N 
HETATM   18  C8  UNL     1      -5.024  -1.423  -0.388  1.00  0.00     0.154 A 
ATOM     19  H5  UNL     1      -6.761  -0.949  -1.512  1.00  0.00     0.198 HD
BRANCH  18  20
HETATM   20  N6  UNL     1      -4.993  -2.705  -0.504  1.00  0.00    -0.382 N 
ATOM     21  H62 UNL     1      -4.285  -3.303  -0.077  1.00  0.00     0.157 HD
ATOM     22  H61 UNL     1      -5.643  -3.323  -0.989  1.00  0.00     0.157 HD
ENDBRANCH  18  20
ENDBRANCH   8  13
ENDBRANCH   6   8
ENDBRANCH   2   6
BRANCH   1  23
HETATM   23  N1  UNL     1       0.272   1.537  -0.150  1.00  0.00    -0.348 N 
HETATM   24  C3  UNL     1       0.583   2.724  -0.858  1.00  0.00     0.280 C 
HETATM   25  O3  UNL     1       0.734   2.642  -2.103  1.00  0.00    -0.267 OA
ATOM     26  H1  UNL     1       0.144   1.568   0.861  1.00  0.00     0.163 HD
BRANCH  24  27
HETATM   27  C2  UNL     1       0.735   4.042  -0.183  1.00  0.00     0.239 C 
HETATM   28  C1  UNL     1       1.829   4.046   0.847  1.00  0.00     0.090 C 
BRANCH  27  29
HETATM   29  O1  UNL     1       1.040   5.013  -1.130  1.00  0.00    -0.358 OA
ATOM     30  H1  UNL     1       0.348   5.010  -1.781  1.00  0.00     0.213 HD
ENDBRANCH  27  29
BRANCH  27  31
HETATM   31  O2  UNL     1      -0.490   4.445   0.393  1.00  0.00    -0.358 OA
ATOM     32  H2  UNL     1      -1.182   4.442  -0.258  1.00  0.00     0.213 HD
ENDBRANCH  27  31
ENDBRANCH  24  27
ENDBRANCH   1  23
BRANCH   5  33
HETATM   33  N8  UNL     1       2.304  -0.766  -1.190  1.00  0.00    -0.364 N 
ATOM     34  H8  UNL     1       2.107  -0.643  -2.183  1.00  0.00     0.161 HD
BRANCH  33  35
HETATM   35  C12 UNL     1       3.545  -0.882  -0.961  1.00  0.00     0.150 A 
HETATM   36  N9  UNL     1       4.477  -0.842  -1.964  1.00  0.00    -0.224 N 
HETATM   37  O6  UNL     1       5.625  -0.987  -1.432  1.00  0.00    -0.155 OA
ATOM     38  H9  UNL     1       4.286  -0.718  -2.958  1.00  0.00     0.198 HD
HETATM   39  N10 UNL     1       5.563  -1.122  -0.155  1.00  0.00    -0.240 N 
HETATM   40  C13 UNL     1       4.256  -1.062   0.196  1.00  0.00     0.103 A 
ATOM     41  H10 UNL     1       6.353  -1.251   0.478  1.00  0.00     0.196 HD
BRANCH  40  42
HETATM   42  C14 UNL     1       3.739  -1.159   1.570  1.00  0.00     0.227 C 
BRANCH  42  43
HETATM   43  O7  UNL     1       4.812  -1.357   2.454  1.00  0.00    -0.395 OA
ATOM     44  H7  UNL     1       4.478  -1.420   3.341  1.00  0.00     0.209 HD
ENDBRANCH  42  43
ENDBRANCH  40  42
ENDBRANCH  33  35
ENDBRANCH   5  33
BRANCH   4  45
HETATM   45  N7  UNL     1       0.226  -2.693   0.699  1.00  0.00    -0.073 N 
ATOM     46  H73 UNL     1      -0.337  -2.096   1.305  1.00  0.00     0.274 HD
ATOM     47  H72 UNL     1      -0.396  -3.499   0.642  1.00  0.00     0.274 HD
ATOM     48  H71 UNL     1       1.110  -2.941   1.144  1.00  0.00     0.274 HD
ENDBRANCH   4  45
TORSDOF 14
