REMARK  4 active torsions:
REMARK  status: ('A' for Active; 'I' for Inactive)
REMARK    1  A    between atoms: N1_1  and  C1_5 
REMARK    2  A    between atoms: C6_10  and  C7_11 
REMARK    3  A    between atoms: C7_11  and  O1_12 
REMARK    4  A    between atoms: C8_14  and  O2_15 
ROOT
HETATM    1  C1  UNL     1      -1.364  -0.821   0.620  1.00  0.00     0.188 C 
HETATM    2  C2  UNL     1      -1.952   0.417  -0.057  1.00  0.00     0.040 C 
HETATM    3  C3  UNL     1      -0.812   0.949  -0.861  1.00  0.00     0.017 C 
HETATM    4  C4  UNL     1      -0.160  -0.365  -1.308  1.00  0.00     0.014 C 
HETATM    5  C5  UNL     1       0.080  -0.897   0.114  1.00  0.00     0.025 C 
HETATM    6  C6  UNL     1       0.808   0.225   0.758  1.00  0.00     0.044 C 
HETATM    7  C8  UNL     1       0.247   1.449   0.103  1.00  0.00     0.128 C 
ENDROOT
BRANCH   1   8
HETATM    8  N1  UNL     1      -2.037  -2.023   0.246  1.00  0.00    -0.075 N 
ATOM      9  H13 UNL     1      -3.039  -1.951   0.421  1.00  0.00     0.274 HD
ATOM     10  H12 UNL     1      -2.054  -2.133  -0.768  1.00  0.00     0.274 HD
ATOM     11  H11 UNL     1      -1.645  -2.849   0.698  1.00  0.00     0.274 HD
ENDBRANCH   1   8
BRANCH   6  12
HETATM   12  C7  UNL     1       2.297   0.115   0.691  1.00  0.00     0.171 C 
BRANCH  12  13
HETATM   13  O1  UNL     1       2.818   0.074  -0.579  1.00  0.00    -0.400 OA
ATOM     14  H1  UNL     1       3.764   0.004  -0.622  1.00  0.00     0.209 HD
ENDBRANCH  12  13
ENDBRANCH   6  12
BRANCH   7  15
HETATM   15  O2  UNL     1       1.200   2.235  -0.498  1.00  0.00    -0.395 OA
ATOM     16  H2  UNL     1       1.863   2.548   0.106  1.00  0.00     0.210 HD
ENDBRANCH   7  15
TORSDOF 4
