REMARK  2 active torsions:
REMARK  status: ('A' for Active; 'I' for Inactive)
REMARK    1  A    between atoms: N1_2  and  C2_5 
REMARK    2  A    between atoms: N3_12  and  N4_13 
ROOT
HETATM    1  C2  UNL     1      -1.290  -0.112   0.634  1.00  0.00     0.350 C 
HETATM    2  C3  UNL     1      -0.229   0.815   0.661  1.00  0.00    -0.119 C 
HETATM    3  C4  UNL     1       0.983   1.546   0.637  1.00  0.00     0.177 C 
HETATM    4  N2  UNL     1       2.103   0.580   0.419  1.00  0.00    -0.286 NA
HETATM    5  C5  UNL     1       2.753   0.873  -0.810  1.00  0.00     0.116 C 
HETATM    6  C6  UNL     1       1.736  -0.786   0.633  1.00  0.00     0.073 C 
HETATM    7  C7  UNL     1       0.650  -1.472  -0.011  1.00  0.00     0.097 C 
HETATM    8  N3  UNL     1      -0.707  -1.487   0.520  1.00  0.00    -0.172 NA
ENDROOT
BRANCH   1   9
HETATM    9  N1  UNL     1      -2.291   0.047  -0.442  1.00  0.00    -0.051 N 
HETATM   10  C1  UNL     1      -2.985   1.274  -0.363  1.00  0.00     0.270 C 
ATOM     11  H12 UNL     1      -2.940  -0.740  -0.458  1.00  0.00     0.279 HD
ATOM     12  H11 UNL     1      -1.864  -0.073  -1.360  1.00  0.00     0.279 HD
ENDBRANCH   1   9
BRANCH   8  13
HETATM   13  N4  UNL     1      -1.494  -2.293  -0.266  1.00  0.00    -0.357 NA
ATOM     14  H42 UNL     1      -2.444  -2.303   0.106  1.00  0.00     0.171 HD
ATOM     15  H41 UNL     1      -1.097  -3.229  -0.344  1.00  0.00     0.171 HD
ENDBRANCH   8  13
TORSDOF 2
