REMARK  6 active torsions:
REMARK  status: ('A' for Active; 'I' for Inactive)
REMARK    1  A    between atoms: N1_1  and  C1_5 
REMARK    2  A    between atoms: C1_5  and  C2_6 
REMARK    3  A    between atoms: C3_7  and  C4_8 
REMARK    4  A    between atoms: C4_8  and  O1_9 
REMARK    5  A    between atoms: C4_8  and  C5_11 
REMARK    6  A    between atoms: C5_11  and  O2_12 
ROOT
HETATM    1  C1  UNL     1      -1.489  -0.272  -0.593  1.00  0.00     0.194 A 
HETATM    2  C6  UNL     1      -2.620  -0.424   0.339  1.00  0.00     0.042 A 
HETATM    3  C7  UNL     1      -3.873   0.400  -0.066  1.00  0.00     0.017 A 
HETATM    4  C8  UNL     1      -2.482   0.900  -0.322  1.00  0.00     0.042 A 
ENDROOT
BRANCH   1   5
HETATM    5  N1  UNL     1      -1.582  -0.721  -1.973  1.00  0.00    -0.059 N 
ATOM      6  H13 UNL     1      -1.035  -0.095  -2.564  1.00  0.00     0.276 HD
ATOM      7  H12 UNL     1      -1.061  -1.592  -2.076  1.00  0.00     0.276 HD
ATOM      8  H11 UNL     1      -2.509  -0.838  -2.381  1.00  0.00     0.276 HD
ENDBRANCH   1   5
BRANCH   1   9
HETATM    9  C2  UNL     1      -0.150  -0.103  -0.004  1.00  0.00    -0.064 C 
HETATM   10  C3  UNL     1       0.953   0.050   0.464  1.00  0.00    -0.070 C 
BRANCH  10  11
HETATM   11  C4  UNL     1       2.302   0.261   1.028  1.00  0.00     0.220 C 
BRANCH  11  12
HETATM   12  O1  UNL     1       2.868   1.440   0.496  1.00  0.00    -0.381 OA
ATOM     13  H1  UNL     1       3.735   1.576   0.859  1.00  0.00     0.211 HD
ENDBRANCH  11  12
BRANCH  11  14
HETATM   14  C5  UNL     1       3.164  -0.881   0.497  1.00  0.00     0.208 C 
BRANCH  14  15
HETATM   15  O2  UNL     1       4.494  -0.709   0.930  1.00  0.00    -0.397 OA
ATOM     16  H2  UNL     1       5.031  -1.420   0.599  1.00  0.00     0.209 HD
ENDBRANCH  14  15
ENDBRANCH  11  14
ENDBRANCH  10  11
ENDBRANCH   1   9
TORSDOF 6
