REMARK  4 active torsions:
REMARK  status: ('A' for Active; 'I' for Inactive)
REMARK    1  A    between atoms: C4_5  and  O1_6 
REMARK    2  A    between atoms: C5_8  and  O2_9 
REMARK    3  A    between atoms: C6_11  and  C7_12 
REMARK    4  A    between atoms: C7_12  and  N2_13 
ROOT
HETATM    1  C1  UNL     1       1.095   1.690   0.085  1.00  0.00     0.143 C 
HETATM    2  N1  UNL     1       0.531   0.686  -0.752  1.00  0.00    -0.408 N 
HETATM    3  C2  UNL     1      -0.670   1.053  -1.415  1.00  0.00     0.119 C 
HETATM    4  C3  UNL     1      -1.928   0.728  -0.689  1.00  0.00     0.053 C 
HETATM    5  C4  UNL     1      -1.881  -0.488   0.158  1.00  0.00     0.150 C 
HETATM    6  C5  UNL     1      -0.556  -0.691   0.865  1.00  0.00     0.170 C 
HETATM    7  C6  UNL     1       0.515  -0.634  -0.184  1.00  0.00     0.135 C 
ENDROOT
BRANCH   7   8
HETATM    8  C7  UNL     1       1.833  -0.999   0.401  1.00  0.00     0.257 C 
BRANCH   8   9
HETATM    9  N2  UNL     1       2.915  -0.995  -0.535  1.00  0.00    -0.077 N 
ATOM     10  H23 UNL     1       2.700  -1.596  -1.331  1.00  0.00     0.274 HD
ATOM     11  H22 UNL     1       2.973  -0.093  -1.008  1.00  0.00     0.274 HD
ATOM     12  H21 UNL     1       3.819  -1.245  -0.134  1.00  0.00     0.274 HD
ENDBRANCH   8   9
ENDBRANCH   7   8
BRANCH   6  13
HETATM   13  O2  UNL     1      -0.570  -1.957   1.441  1.00  0.00    -0.391 OA
ATOM     14  H2  UNL     1       0.261  -2.084   1.884  1.00  0.00     0.210 HD
ENDBRANCH   6  13
BRANCH   5  15
HETATM   15  O1  UNL     1      -2.888  -0.426   1.121  1.00  0.00    -0.393 OA
ATOM     16  H1  UNL     1      -2.858  -1.205   1.664  1.00  0.00     0.210 HD
ENDBRANCH   5  15
TORSDOF 4
