REMARK  4 active torsions:
REMARK  status: ('A' for Active; 'I' for Inactive)
REMARK    1  A    between atoms: C3_3  and  O1_4 
REMARK    2  A    between atoms: C5_7  and  C6_8 
REMARK    3  A    between atoms: C6_8  and  N1_9 
REMARK    4  A    between atoms: C8_14  and  O2_15 
ROOT
HETATM    1  C1  UNL     1      -2.101   0.459   1.686  1.00  0.00     0.021 C 
HETATM    2  C2  UNL     1      -1.217   0.120   0.511  1.00  0.00     0.015 A 
HETATM    3  C3  UNL     1      -0.815   1.272  -0.357  1.00  0.00     0.129 C 
HETATM    4  C4  UNL     1       0.527   0.929  -0.961  1.00  0.00     0.039 C 
HETATM    5  C5  UNL     1       1.061  -0.242  -0.207  1.00  0.00     0.021 C 
HETATM    6  C7  UNL     1      -0.022  -0.728   0.705  1.00  0.00     0.034 A 
HETATM    7  C8  UNL     1      -1.244  -1.264   0.019  1.00  0.00     0.134 A 
ENDROOT
BRANCH   5   8
HETATM    8  C6  UNL     1       2.354   0.040   0.518  1.00  0.00     0.234 C 
BRANCH   8   9
HETATM    9  N1  UNL     1       2.740  -1.181   1.195  1.00  0.00    -0.079 N 
ATOM     10  H13 UNL     1       2.010  -1.547   1.807  1.00  0.00     0.274 HD
ATOM     11  H12 UNL     1       2.800  -1.984   0.568  1.00  0.00     0.274 HD
ATOM     12  H11 UNL     1       3.614  -0.990   1.685  1.00  0.00     0.274 HD
ENDBRANCH   8   9
ENDBRANCH   5   8
BRANCH   3  13
HETATM   13  O1  UNL     1      -1.741   1.611  -1.309  1.00  0.00    -0.395 OA
ATOM     14  H1  UNL     1      -1.486   2.342  -1.860  1.00  0.00     0.210 HD
ENDBRANCH   3  13
BRANCH   7  15
HETATM   15  O2  UNL     1      -1.192  -1.569  -1.337  1.00  0.00    -0.394 OA
ATOM     16  H2  UNL     1      -1.209  -2.464  -1.655  1.00  0.00     0.210 HD
ENDBRANCH   7  15
TORSDOF 4
