REMARK  11 active torsions:
REMARK  status: ('A' for Active; 'I' for Inactive)
REMARK       I    between atoms: C2_2  and  N1_4 
REMARK    1  A    between atoms: N1_4  and  C3_6 
REMARK    2  A    between atoms: C3_6  and  O2_7 
REMARK    3  A    between atoms: C3_6  and  N2_9 
REMARK    4  A    between atoms: C4_10  and  C5_11 
REMARK    5  A    between atoms: C5_11  and  N3_12 
REMARK    6  A    between atoms: C5_11  and  C7_22 
REMARK    7  A    between atoms: N3_12  and  C6_14 
REMARK    8  A    between atoms: C7_22  and  C8_24 
REMARK    9  A    between atoms: C8_24  and  O4_25 
REMARK   10  A    between atoms: C8_24  and  O5_27 
REMARK   11  A    between atoms: C9_33  and  N10_34 
ROOT
HETATM    1  N2  UNL     1       1.046  -0.069   1.293  1.00  0.00    -0.094 N 
HETATM    2  C4  UNL     1      -0.262   0.295   1.314  1.00  0.00     0.155 A 
HETATM    3  N8  UNL     1      -0.426   1.093   2.378  1.00  0.00    -0.272 N 
ATOM      4  H8  UNL     1      -1.307   1.526   2.657  1.00  0.00     0.189 HD
HETATM    5  N9  UNL     1       0.690   1.231   2.993  1.00  0.00    -0.130 N 
ATOM      6  H9  UNL     1       0.831   1.790   3.834  1.00  0.00     0.205 HD
HETATM    7  C9  UNL     1       1.663   0.517   2.353  1.00  0.00     0.701 A 
ENDROOT
BRANCH   2   8
HETATM    8  C5  UNL     1      -1.376   0.005   0.374  1.00  0.00     0.244 C 
BRANCH   8   9
HETATM    9  N3  UNL     1      -1.132   0.417  -0.971  1.00  0.00    -0.205 N 
ATOM     10  H3  UNL     1      -0.460   1.172  -1.107  1.00  0.00     0.179 HD
BRANCH   9  11
HETATM   11  C6  UNL     1      -1.680  -0.074  -2.030  1.00  0.00     0.707 A 
HETATM   12  N4  UNL     1      -1.488   0.277  -3.314  1.00  0.00    -0.118 N 
HETATM   13  N5  UNL     1      -2.234  -0.491  -4.069  1.00  0.00    -0.212 N 
ATOM     14  H4  UNL     1      -0.867   1.016  -3.644  1.00  0.00     0.207 HD
HETATM   15  N6  UNL     1      -2.925  -1.350  -3.330  1.00  0.00     0.009 NA
ATOM     16  H5  UNL     1      -2.278  -0.436  -5.087  1.00  0.00     0.206 HD
HETATM   17  N7  UNL     1      -2.576  -1.084  -2.083  1.00  0.00    -0.114 N 
ATOM     18  H7  UNL     1      -2.937  -1.577  -1.266  1.00  0.00     0.203 HD
ENDBRANCH   9  11
ENDBRANCH   8   9
BRANCH   8  19
HETATM   19  C7  UNL     1      -2.609   0.686   0.872  1.00  0.00     0.211 C 
HETATM   20  O3  UNL     1      -3.019   0.307   1.973  1.00  0.00    -0.290 OA
BRANCH  19  21
HETATM   21  C8  UNL     1      -3.302   1.745   0.112  1.00  0.00     0.328 C 
BRANCH  21  22
HETATM   22  O4  UNL     1      -4.404   2.197   0.840  1.00  0.00    -0.365 OA
ATOM     23  H4  UNL     1      -4.850   2.878   0.351  1.00  0.00     0.213 HD
ENDBRANCH  21  22
BRANCH  21  24
HETATM   24  O5  UNL     1      -2.414   2.845   0.063  1.00  0.00    -0.365 OA
ATOM     25  H5  UNL     1      -2.860   3.526  -0.426  1.00  0.00     0.213 HD
ENDBRANCH  21  24
ENDBRANCH  19  21
ENDBRANCH   8  19
ENDBRANCH   2   8
BRANCH   1  26
HETATM   26  C3  UNL     1       1.572  -1.024   0.432  1.00  0.00     0.247 C 
BRANCH  26  27
HETATM   27  N1  UNL     1       2.811  -1.385  -0.076  1.00  0.00    -0.292 N 
HETATM   28  C2  UNL     1       4.071  -0.843  -0.177  1.00  0.00     0.220 C 
HETATM   29  C1  UNL     1       5.161  -1.653  -0.880  1.00  0.00     0.117 C 
HETATM   30  O1  UNL     1       4.459   0.241   0.234  1.00  0.00    -0.274 OA
ATOM     31  H1  UNL     1       2.779  -2.316  -0.492  1.00  0.00     0.172 HD
ENDBRANCH  26  27
BRANCH  26  32
HETATM   32  O2  UNL     1       0.608  -1.830  -0.054  1.00  0.00    -0.331 OA
ATOM     33  H2  UNL     1      -0.241  -1.583   0.294  1.00  0.00     0.221 HD
ENDBRANCH  26  32
ENDBRANCH   1  26
BRANCH   7  34
HETATM   34  N10 UNL     1       2.861   0.439   2.805  1.00  0.00    -0.233 N 
ATOM     35 2H10 UNL     1       3.588  -0.094   2.327  1.00  0.00     0.174 HD
ATOM     36 1H10 UNL     1       3.324   0.879   3.600  1.00  0.00     0.174 HD
ENDBRANCH   7  34
TORSDOF 11
