REMARK  9 active torsions:
REMARK  status: ('A' for Active; 'I' for Inactive)
REMARK    1  A    between atoms: N1_1  and  C1_4 
REMARK    2  A    between atoms: C3_11  and  N4_12 
REMARK       I    between atoms: N4_12  and  C4_14 
REMARK    3  A    between atoms: C4_14  and  C5_16 
REMARK    4  A    between atoms: C5_16  and  C6_17 
REMARK    5  A    between atoms: C5_16  and  N8_30 
REMARK    6  A    between atoms: C6_17  and  N5_18 
REMARK    7  A    between atoms: C8_20  and  C9_21 
REMARK    8  A    between atoms: C9_21  and  O3_22 
REMARK    9  A    between atoms: C9_21  and  O4_24 
ROOT
HETATM    1  C5  UNL     1       0.236   0.386  -0.562  1.00  0.00     0.242 C 
ENDROOT
BRANCH   1   2
HETATM    2  C4  UNL     1      -0.974   1.197  -0.898  1.00  0.00     0.264 C 
HETATM    3  N4  UNL     1      -1.989   0.553  -1.656  1.00  0.00    -0.157 N 
ATOM      4  H4  UNL     1      -1.794   0.287  -2.621  1.00  0.00     0.187 HD
HETATM    5  O2  UNL     1      -1.095   2.405  -0.527  1.00  0.00    -0.270 OA
BRANCH   3   6
HETATM    6  C3  UNL     1      -3.141   0.298  -1.161  1.00  0.00     0.703 A 
HETATM    7  N3  UNL     1      -4.048  -0.315  -1.942  1.00  0.00    -0.140 N 
HETATM    8  C2  UNL     1      -5.267  -0.593  -1.442  1.00  0.00     0.352 A 
ATOM      9  H3  UNL     1      -3.815  -0.567  -2.903  1.00  0.00     0.189 HD
HETATM   10  N2  UNL     1      -5.578  -0.264  -0.175  1.00  0.00    -0.141 N 
HETATM   11  O1  UNL     1      -6.111  -1.163  -2.171  1.00  0.00    -0.246 OA
HETATM   12  C1  UNL     1      -4.689   0.342   0.607  1.00  0.00     0.694 A 
ATOM     13  H2  UNL     1      -6.505  -0.482   0.190  1.00  0.00     0.189 HD
HETATM   14  N12 UNL     1      -3.452   0.626   0.105  1.00  0.00    -0.022 N 
ATOM     15  H12 UNL     1      -2.760   1.090   0.694  1.00  0.00     0.203 HD
BRANCH  12  16
HETATM   16  N1  UNL     1      -4.950   0.677   1.837  1.00  0.00    -0.234 N 
ATOM     17  H12 UNL     1      -5.874   0.465   2.212  1.00  0.00     0.174 HD
ATOM     18  H11 UNL     1      -4.268   1.142   2.437  1.00  0.00     0.174 HD
ENDBRANCH  12  16
ENDBRANCH   3   6
ENDBRANCH   1   2
BRANCH   1  19
HETATM   19  C6  UNL     1       1.161   1.256   0.226  1.00  0.00     0.188 C 
BRANCH  19  20
HETATM   20  N5  UNL     1       2.377   0.544   0.601  1.00  0.00    -0.284 N 
HETATM   21  C7  UNL     1       3.518   0.479  -0.110  1.00  0.00     0.143 A 
HETATM   22  C8  UNL     1       4.449  -0.286   0.564  1.00  0.00     0.098 A 
HETATM   23  N6  UNL     1       3.822  -0.671   1.696  1.00  0.00    -0.284 N 
HETATM   24  N7  UNL     1       2.596  -0.165   1.692  1.00  0.00    -0.240 N 
ATOM     25  H6  UNL     1       4.224  -1.253   2.431  1.00  0.00     0.188 HD
ATOM     26  H7  UNL     1       1.912  -0.306   2.435  1.00  0.00     0.208 HD
BRANCH  22  27
HETATM   27  C9  UNL     1       5.833  -0.607   0.129  1.00  0.00     0.308 C 
BRANCH  27  28
HETATM   28  O3  UNL     1       6.752  -0.461   1.147  1.00  0.00    -0.366 OA
ATOM     29  H3  UNL     1       7.637  -0.666   0.869  1.00  0.00     0.213 HD
ENDBRANCH  27  28
BRANCH  27  30
HETATM   30  O4  UNL     1       5.929  -1.902  -0.369  1.00  0.00    -0.366 OA
ATOM     31  H4  UNL     1       6.814  -2.107  -0.647  1.00  0.00     0.213 HD
ENDBRANCH  27  30
ENDBRANCH  22  27
ENDBRANCH  19  20
ENDBRANCH   1  19
BRANCH   1  32
HETATM   32  N8  UNL     1      -0.173  -0.725   0.266  1.00  0.00    -0.187 N 
HETATM   33  N9  UNL     1      -0.442  -1.991  -0.019  1.00  0.00    -0.208 N 
HETATM   34  N10 UNL     1      -0.705  -2.239   1.242  1.00  0.00    -0.211 N 
ATOM     35  H9  UNL     1      -0.444  -2.548  -0.874  1.00  0.00     0.211 HD
HETATM   36  N11 UNL     1      -0.436  -0.976   1.525  1.00  0.00    -0.208 N 
ATOM     37  H10 UNL     1      -0.994  -3.058   1.777  1.00  0.00     0.211 HD
ATOM     38  H11 UNL     1      -0.434  -0.420   2.380  1.00  0.00     0.211 HD
ENDBRANCH   1  32
TORSDOF 9
