REMARK  9 active torsions:
REMARK  status: ('A' for Active; 'I' for Inactive)
REMARK       I    between atoms: N1_2  and  C2_3 
REMARK    1  A    between atoms: N1_2  and  C6_13 
REMARK    2  A    between atoms: C2_3  and  O2_5 
REMARK    3  A    between atoms: O2_5  and  C3_6 
REMARK    4  A    between atoms: C3_6  and  C4_7 
REMARK    5  A    between atoms: C4_7  and  O3_8 
REMARK    6  A    between atoms: C4_7  and  C5_10 
REMARK    7  A    between atoms: C5_10  and  O4_11 
REMARK       I    between atoms: N4_18  and  C8_19 
REMARK       I    between atoms: C8_19  and  N5_21 
REMARK    8  A    between atoms: N5_21  and  N6_23 
REMARK    9  A    between atoms: N6_23  and  N7_24 
ROOT
HETATM    1  C6  UNL     1      -0.264  -0.123  -0.526  1.00  0.00     0.150 C 
HETATM    2  C7  UNL     1      -1.206  -0.783  -1.186  1.00  0.00     0.164 C 
HETATM    3  N2  UNL     1      -0.815  -1.581  -2.277  1.00  0.00    -0.079 NA
HETATM    4  N3  UNL     1      -2.631  -0.835  -0.981  1.00  0.00    -0.271 N 
ATOM      5  H3  UNL     1      -3.081  -1.690  -1.307  1.00  0.00     0.189 HD
HETATM    6  N4  UNL     1      -3.502   0.112  -0.399  1.00  0.00    -0.150 N 
HETATM    7  C8  UNL     1      -4.857  -0.209  -0.337  1.00  0.00     0.362 C 
HETATM    8  O5  UNL     1      -5.224  -1.324  -0.870  1.00  0.00    -0.243 OA
HETATM    9  N5  UNL     1      -5.856   0.548   0.244  1.00  0.00    -0.234 N 
ATOM     10  H5  UNL     1      -5.603   1.434   0.682  1.00  0.00     0.189 HD
HETATM   11  C9  UNL     1      -3.056   1.367   0.098  1.00  0.00     0.352 C 
HETATM   12  O6  UNL     1      -3.816   2.346  -0.050  1.00  0.00    -0.244 OA
HETATM   13  N8  UNL     1      -1.810   1.586   0.749  1.00  0.00    -0.272 N 
ATOM     14  H8  UNL     1      -1.772   2.352   1.422  1.00  0.00     0.174 HD
HETATM   15  C10 UNL     1      -0.593   0.833   0.553  1.00  0.00     0.280 C 
HETATM   16  O7  UNL     1       0.237   1.065   1.430  1.00  0.00    -0.265 OA
ENDROOT
BRANCH   1  17
HETATM   17  N1  UNL     1       1.079  -0.195  -0.895  1.00  0.00    -0.290 N 
HETATM   18  C1  UNL     1       1.357  -0.280  -2.365  1.00  0.00     0.162 C 
HETATM   19  C2  UNL     1       2.215   0.045  -0.103  1.00  0.00     0.367 C 
HETATM   20  O1  UNL     1       2.228  -0.016   1.127  1.00  0.00    -0.238 OA
BRANCH  19  21
HETATM   21  O2  UNL     1       3.443   0.384  -0.706  1.00  0.00    -0.301 OA
BRANCH  21  22
HETATM   22  C3  UNL     1       4.557   0.604   0.098  1.00  0.00     0.214 C 
BRANCH  22  23
HETATM   23  C4  UNL     1       5.009  -0.625   0.802  1.00  0.00     0.166 C 
BRANCH  23  24
HETATM   24  O3  UNL     1       5.355  -1.599  -0.137  1.00  0.00    -0.391 OA
ATOM     25  H3  UNL     1       5.644  -2.384   0.313  1.00  0.00     0.210 HD
ENDBRANCH  23  24
BRANCH  23  26
HETATM   26  C5  UNL     1       6.283  -0.363   1.625  1.00  0.00     0.198 C 
BRANCH  26  27
HETATM   27  O4  UNL     1       7.321   0.097   0.834  1.00  0.00    -0.398 OA
ATOM     28  H4  UNL     1       8.107   0.259   1.342  1.00  0.00     0.209 HD
ENDBRANCH  26  27
ENDBRANCH  23  26
ENDBRANCH  22  23
ENDBRANCH  21  22
ENDBRANCH  19  21
ENDBRANCH   1  17
BRANCH   9  29
HETATM   29  N6  UNL     1      -7.213   0.152   0.260  1.00  0.00    -0.026 NA
BRANCH  29  30
HETATM   30  N7  UNL     1      -7.783   0.366   1.517  1.00  0.00    -0.329 N 
ATOM     31  H72 UNL     1      -7.274   0.757   2.309  1.00  0.00     0.174 HD
ATOM     32  H71 UNL     1      -8.762   0.080   1.529  1.00  0.00     0.174 HD
ENDBRANCH  29  30
ENDBRANCH   9  29
TORSDOF 9
