REMARK  7 active torsions:
REMARK  status: ('A' for Active; 'I' for Inactive)
REMARK    1  A    between atoms: C2_5  and  N3_6 
REMARK    2  A    between atoms: C2_5  and  N4_10 
REMARK       I    between atoms: N4_10  and  C3_12 
REMARK    3  A    between atoms: C3_12  and  C4_14 
REMARK    4  A    between atoms: C4_14  and  N5_15 
REMARK       I    between atoms: N5_15  and  C5_17 
REMARK    5  A    between atoms: C5_17  and  C6_19 
REMARK    6  A    between atoms: C9_26  and  C10_27 
REMARK    7  A    between atoms: C10_27  and  O3_28 
ROOT
HETATM    1  N1  UNL     1      -2.024   3.529  -0.588  1.00  0.00    -0.063 NA
HETATM    2  C1  UNL     1      -2.324   2.151  -0.414  1.00  0.00     0.193 C 
HETATM    3  N2  UNL     1      -1.753   1.313  -1.174  1.00  0.00    -0.313 N 
ATOM      4  H2  UNL     1      -1.127   1.770  -1.837  1.00  0.00     0.166 HD
HETATM    5  C2  UNL     1      -1.758  -0.099  -1.343  1.00  0.00     0.299 C 
HETATM    6  C9  UNL     1      -3.124  -0.722  -1.233  1.00  0.00     0.186 C 
HETATM    7  N8  UNL     1      -3.804  -0.433  -0.016  1.00  0.00    -0.352 N 
ATOM      8  H8  UNL     1      -4.334  -1.227   0.344  1.00  0.00     0.162 HD
HETATM    9  C11 UNL     1      -3.904   0.728   0.809  1.00  0.00     0.191 C 
HETATM   10  N9  UNL     1      -4.764   0.709   1.927  1.00  0.00    -0.063 NA
HETATM   11  N10 UNL     1      -3.264   1.824   0.625  1.00  0.00    -0.305 N 
ATOM     12  H10 UNL     1      -3.445   2.562   1.306  1.00  0.00     0.171 HD
ENDROOT
BRANCH   5  13
HETATM   13  N3  UNL     1      -1.230  -0.502  -2.656  1.00  0.00    -0.031 N 
ATOM     14  H33 UNL     1      -1.731  -0.038  -3.414  1.00  0.00     0.279 HD
ATOM     15  H32 UNL     1      -0.300  -0.114  -2.815  1.00  0.00     0.279 HD
ATOM     16  H31 UNL     1      -1.234  -1.515  -2.777  1.00  0.00     0.279 HD
ENDBRANCH   5  13
BRANCH   5  17
HETATM   17  N4  UNL     1      -0.885  -0.686  -0.355  1.00  0.00    -0.308 N 
HETATM   18  C3  UNL     1       0.454  -0.238  -0.286  1.00  0.00     0.238 C 
HETATM   19  O1  UNL     1       0.862   0.649  -1.072  1.00  0.00    -0.272 OA
ATOM     20  H4  UNL     1      -1.227  -1.408   0.279  1.00  0.00     0.166 HD
BRANCH  18  21
HETATM   21  C4  UNL     1       1.429  -0.787   0.704  1.00  0.00     0.225 C 
BRANCH  21  22
HETATM   22  N5  UNL     1       2.717  -0.154   0.552  1.00  0.00    -0.347 N 
HETATM   23  C5  UNL     1       3.773  -0.565   1.427  1.00  0.00     0.270 C 
HETATM   24  O2  UNL     1       3.598  -1.447   2.302  1.00  0.00    -0.266 OA
ATOM     25  H5  UNL     1       2.870   0.564  -0.157  1.00  0.00     0.163 HD
BRANCH  23  26
HETATM   26  C6  UNL     1       5.088   0.037   1.320  1.00  0.00     0.117 A 
HETATM   27  C7  UNL     1       6.199  -0.241   2.075  1.00  0.00     0.124 A 
HETATM   28  N6  UNL     1       7.225   0.526   1.671  1.00  0.00    -0.360 N 
HETATM   29  C8  UNL     1       6.783   1.295   0.663  1.00  0.00     0.180 A 
ATOM     30  H6  UNL     1       8.168   0.525   2.059  1.00  0.00     0.166 HD
HETATM   31  N7  UNL     1       5.498   1.002   0.451  1.00  0.00    -0.347 N 
ATOM     32  H7  UNL     1       4.909   1.438  -0.259  1.00  0.00     0.167 HD
ENDBRANCH  23  26
ENDBRANCH  21  22
ENDBRANCH  18  21
ENDBRANCH   5  17
BRANCH   6  33
HETATM   33  C10 UNL     1      -3.102  -2.202  -1.499  1.00  0.00     0.195 C 
BRANCH  33  34
HETATM   34  O3  UNL     1      -4.427  -2.637  -1.587  1.00  0.00    -0.399 OA
ATOM     35  H3  UNL     1      -4.413  -3.572  -1.755  1.00  0.00     0.209 HD
ENDBRANCH  33  34
ENDBRANCH   6  33
TORSDOF 7
