REMARK  11 active torsions:
REMARK  status: ('A' for Active; 'I' for Inactive)
REMARK    1  A    between atoms: N1_1  and  N2_4 
REMARK    2  A    between atoms: N2_4  and  N3_5 
REMARK       I    between atoms: N3_5  and  C1_7 
REMARK    3  A    between atoms: C1_7  and  O2_9 
REMARK    4  A    between atoms: O2_9  and  C2_10 
REMARK    5  A    between atoms: C4_12  and  N4_13 
REMARK    6  A    between atoms: C5_17  and  N5_18 
REMARK    7  A    between atoms: C7_23  and  N6_24 
REMARK    8  A    between atoms: N6_24  and  C8_26 
REMARK    9  A    between atoms: N8_32  and  C10_33 
REMARK   10  A    between atoms: C10_33  and  C11_34 
REMARK   11  A    between atoms: C11_34  and  O5_35 
ROOT
HETATM    1  C2  UNL     1      -1.195   0.585   0.020  1.00  0.00     0.159 C 
HETATM    2  C3  UNL     1      -2.212   1.660   0.260  1.00  0.00     0.069 C 
HETATM    3  C4  UNL     1      -1.476   2.980   0.324  1.00  0.00     0.216 C 
HETATM    4  C5  UNL     1      -1.014   3.247  -1.095  1.00  0.00     0.216 C 
HETATM    5  C6  UNL     1      -0.017   2.210  -1.476  1.00  0.00     0.063 C 
HETATM    6  C7  UNL     1      -0.346   0.796  -1.202  1.00  0.00     0.131 C 
ENDROOT
BRANCH   6   7
HETATM    7  N6  UNL     1       0.871   0.046  -1.119  1.00  0.00    -0.217 N 
ATOM      8  H6  UNL     1       0.978  -0.676  -1.831  1.00  0.00     0.178 HD
BRANCH   7   9
HETATM    9  C8  UNL     1       1.847   0.136  -0.295  1.00  0.00     0.705 A 
HETATM   10  N7  UNL     1       2.088   0.928   0.749  1.00  0.00    -0.086 N 
HETATM   11  O3  UNL     1       3.230   0.606   1.267  1.00  0.00    -0.165 OA
ATOM     12  H7  UNL     1       1.472   1.668   1.086  1.00  0.00     0.214 HD
HETATM   13  C9  UNL     1       3.746  -0.379   0.588  1.00  0.00     0.404 A 
HETATM   14  O4  UNL     1       4.862  -0.919   0.847  1.00  0.00    -0.235 OA
HETATM   15  N8  UNL     1       2.925  -0.714  -0.399  1.00  0.00    -0.121 N 
BRANCH  15  16
HETATM   16  C10 UNL     1       3.104  -1.763  -1.408  1.00  0.00     0.179 C 
BRANCH  16  17
HETATM   17  C11 UNL     1       2.459  -3.024  -0.810  1.00  0.00     0.185 C 
BRANCH  17  18
HETATM   18  O5  UNL     1       3.092  -3.359   0.384  1.00  0.00    -0.399 OA
ATOM     19  H5  UNL     1       2.693  -4.138   0.754  1.00  0.00     0.209 HD
ENDBRANCH  17  18
ENDBRANCH  16  17
ENDBRANCH  15  16
ENDBRANCH   7   9
ENDBRANCH   6   7
BRANCH   1  20
HETATM   20  O2  UNL     1      -1.797  -0.705   0.010  1.00  0.00    -0.295 OA
BRANCH  20  21
HETATM   21  C1  UNL     1      -1.509  -1.643   0.969  1.00  0.00     0.378 C 
HETATM   22  N3  UNL     1      -2.118  -2.955   0.962  1.00  0.00    -0.230 N 
ATOM     23  H3  UNL     1      -2.780  -3.179   0.219  1.00  0.00     0.189 HD
HETATM   24  O1  UNL     1      -0.688  -1.319   1.861  1.00  0.00    -0.237 OA
BRANCH  22  25
HETATM   25  N2  UNL     1      -1.847  -3.919   1.912  1.00  0.00    -0.025 NA
BRANCH  25  26
HETATM   26  N1  UNL     1      -2.864  -4.895   1.879  1.00  0.00    -0.329 N 
ATOM     27  H12 UNL     1      -3.665  -4.877   1.248  1.00  0.00     0.174 HD
ATOM     28  H11 UNL     1      -2.664  -5.607   2.581  1.00  0.00     0.174 HD
ENDBRANCH  25  26
ENDBRANCH  22  25
ENDBRANCH  20  21
ENDBRANCH   1  20
BRANCH   4  29
HETATM   29  N5  UNL     1      -0.321   4.537  -1.076  1.00  0.00    -0.073 N 
ATOM     30  H53 UNL     1      -0.886   5.292  -0.688  1.00  0.00     0.274 HD
ATOM     31  H52 UNL     1       0.435   4.578  -0.392  1.00  0.00     0.274 HD
ATOM     32  H51 UNL     1      -0.010   4.717  -2.031  1.00  0.00     0.274 HD
ENDBRANCH   4  29
BRANCH   3  33
HETATM   33  N4  UNL     1      -2.329   4.045   0.815  1.00  0.00    -0.073 N 
ATOM     34  H43 UNL     1      -3.184   4.122   0.263  1.00  0.00     0.274 HD
ATOM     35  H42 UNL     1      -2.742   3.805   1.716  1.00  0.00     0.274 HD
ATOM     36  H41 UNL     1      -1.833   4.935   0.858  1.00  0.00     0.274 HD
ENDBRANCH   3  33
TORSDOF 11
