REMARK  9 active torsions:
REMARK  status: ('A' for Active; 'I' for Inactive)
REMARK    1  A    between atoms: N1_1  and  C1_4 
REMARK    2  A    between atoms: N3_7  and  N4_8 
REMARK    3  A    between atoms: N7_17  and  C4_18 
REMARK    4  A    between atoms: C6_21  and  N8_22 
REMARK       I    between atoms: N8_22  and  C7_24 
REMARK    5  A    between atoms: C7_24  and  C8_26 
REMARK    6  A    between atoms: C8_26  and  C9_27 
REMARK    7  A    between atoms: C9_27  and  N9_28 
REMARK    8  A    between atoms: C10_32  and  O3_33 
REMARK    9  A    between atoms: C11_35  and  N10_36 
ROOT
HETATM    1  C4  UNL     1      -1.777  -0.954   0.435  1.00  0.00     0.280 C 
HETATM    2  O1  UNL     1      -1.043  -0.747  -0.697  1.00  0.00    -0.360 OA
HETATM    3  C5  UNL     1       0.016   0.123  -0.565  1.00  0.00     0.198 C 
HETATM    4  C6  UNL     1       1.015  -0.556   0.367  1.00  0.00     0.139 C 
HETATM    5  C10 UNL     1       0.388  -0.729   1.724  1.00  0.00     0.177 C 
HETATM    6  C11 UNL     1      -1.040  -1.137   1.703  1.00  0.00     0.264 C 
ENDROOT
BRANCH   1   7
HETATM    7  N7  UNL     1      -2.716   0.176   0.536  1.00  0.00    -0.225 N 
HETATM    8  C2  UNL     1      -3.591   0.555  -0.420  1.00  0.00     0.197 A 
HETATM    9  N3  UNL     1      -4.017   0.248  -1.658  1.00  0.00    -0.180 N 
HETATM   10  C3  UNL     1      -4.301   1.659   0.048  1.00  0.00     0.143 A 
HETATM   11  N2  UNL     1      -4.978   1.120  -1.995  1.00  0.00    -0.261 N 
HETATM   12  C1  UNL     1      -5.169   1.986  -0.977  1.00  0.00     0.148 A 
ATOM     13  H2  UNL     1      -5.485   1.128  -2.880  1.00  0.00     0.191 HD
HETATM   14  N5  UNL     1      -3.816   1.895   1.277  1.00  0.00    -0.279 N 
HETATM   15  N6  UNL     1      -2.875   1.003   1.548  1.00  0.00    -0.236 N 
ATOM     16  H5  UNL     1      -4.123   2.641   1.902  1.00  0.00     0.189 HD
ATOM     17  H6  UNL     1      -2.347   0.962   2.420  1.00  0.00     0.208 HD
BRANCH   9  18
HETATM   18  N4  UNL     1      -3.520  -0.806  -2.427  1.00  0.00    -0.322 N 
ATOM     19  H42 UNL     1      -3.843  -1.039  -3.366  1.00  0.00     0.179 HD
ATOM     20  H41 UNL     1      -2.789  -1.469  -2.171  1.00  0.00     0.179 HD
ENDBRANCH   9  18
BRANCH  12  21
HETATM   21  N1  UNL     1      -6.001   2.947  -0.945  1.00  0.00    -0.382 N 
ATOM     22  H12 UNL     1      -6.641   3.188  -1.701  1.00  0.00     0.157 HD
ATOM     23  H11 UNL     1      -6.145   3.601  -0.176  1.00  0.00     0.157 HD
ENDBRANCH  12  21
ENDBRANCH   1   7
BRANCH   6  24
HETATM   24  N10 UNL     1      -1.176  -2.535   2.133  1.00  0.00    -0.068 N 
ATOM     25 3H10 UNL     1      -2.151  -2.828   2.203  1.00  0.00     0.275 HD
ATOM     26 2H10 UNL     1      -0.881  -3.194   1.413  1.00  0.00     0.275 HD
ATOM     27 1H10 UNL     1      -0.667  -2.661   3.008  1.00  0.00     0.275 HD
ENDBRANCH   6  24
BRANCH   5  28
HETATM   28  O3  UNL     1       0.563   0.501   2.399  1.00  0.00    -0.391 OA
ATOM     29  H3  UNL     1       0.167   0.392   3.256  1.00  0.00     0.210 HD
ENDBRANCH   5  28
BRANCH   4  30
HETATM   30  N8  UNL     1       2.185   0.296   0.408  1.00  0.00    -0.352 N 
HETATM   31  C7  UNL     1       3.405  -0.241  -0.086  1.00  0.00     0.219 C 
HETATM   32  O2  UNL     1       3.492  -1.399  -0.543  1.00  0.00    -0.274 OA
ATOM     33  H8  UNL     1       2.136   1.246   0.777  1.00  0.00     0.163 HD
BRANCH  31  34
HETATM   34  C8  UNL     1       4.625   0.637  -0.046  1.00  0.00     0.130 C 
BRANCH  34  35
HETATM   35  C9  UNL     1       5.800  -0.120  -0.617  1.00  0.00     0.238 C 
BRANCH  35  36
HETATM   36  N9  UNL     1       6.978   0.696  -0.591  1.00  0.00    -0.079 N 
ATOM     37  H93 UNL     1       6.834   1.588  -1.065  1.00  0.00     0.274 HD
ATOM     38  H92 UNL     1       7.173   1.052   0.345  1.00  0.00     0.274 HD
ATOM     39  H91 UNL     1       7.772   0.185  -0.977  1.00  0.00     0.274 HD
ENDBRANCH  35  36
ENDBRANCH  34  35
ENDBRANCH  31  34
ENDBRANCH   4  30
TORSDOF 9
