REMARK  2 active torsions:
REMARK  status: ('A' for Active; 'I' for Inactive)
REMARK    1  A    between atoms: C2_2  and  N1_4 
REMARK       I    between atoms: N1_4  and  C4_6 
REMARK       I    between atoms: C4_6  and  N2_8 
REMARK    2  A    between atoms: N2_8  and  C5_10 
ROOT
HETATM    1  C5  UNL     1      -0.754  -0.326  -0.297  1.00  0.00     0.038 C 
HETATM    2  C6  UNL     1      -0.959   0.819  -1.261  1.00  0.00     0.036 C 
HETATM    3  C7  UNL     1      -2.429   1.131  -1.359  1.00  0.00    -0.009 C 
HETATM    4  C8  UNL     1      -3.061   1.455  -0.047  1.00  0.00     0.009 C 
HETATM    5  C9  UNL     1      -2.823   0.281   0.905  1.00  0.00    -0.009 C 
HETATM    6  C10 UNL     1      -3.544  -0.913   0.368  1.00  0.00     0.048 C 
HETATM    7  C11 UNL     1      -2.999  -1.213  -1.005  1.00  0.00     0.106 C 
HETATM    8  F1  UNL     1      -3.619  -2.329  -1.497  1.00  0.00    -0.243 F 
HETATM    9  C12 UNL     1      -3.156  -0.047  -1.957  1.00  0.00     0.048 C 
HETATM   10  C13 UNL     1      -1.540  -1.505  -0.875  1.00  0.00     0.074 C 
HETATM   11  C14 UNL     1      -1.341   0.095   1.040  1.00  0.00     0.036 C 
ENDROOT
BRANCH   1  12
HETATM   12  N2  UNL     1       0.625  -0.731  -0.185  1.00  0.00    -0.334 N 
HETATM   13  C4  UNL     1       1.677   0.098   0.250  1.00  0.00     0.317 C 
HETATM   14  N1  UNL     1       2.999  -0.388   0.325  1.00  0.00    -0.339 N 
HETATM   15  O1  UNL     1       1.426   1.278   0.571  1.00  0.00    -0.247 OA
ATOM     16  H1  UNL     1       3.192  -1.354   0.059  1.00  0.00     0.164 HD
ATOM     17  H2  UNL     1       0.856  -1.691  -0.440  1.00  0.00     0.165 HD
BRANCH  14  18
HETATM   18  C2  UNL     1       4.092   0.459   0.773  1.00  0.00     0.078 C 
HETATM   19  C1  UNL     1       5.135   0.608  -0.284  1.00  0.00     0.032 C 
HETATM   20  C3  UNL     1       4.692  -0.216   1.990  1.00  0.00     0.032 C 
ENDBRANCH  14  18
ENDBRANCH   1  12
TORSDOF 2
