REMARK  4 active torsions:
REMARK  status: ('A' for Active; 'I' for Inactive)
REMARK    1  A    between atoms: C2_2  and  N1_4 
REMARK    2  A    between atoms: N1_4  and  C4_6 
REMARK    3  A    between atoms: C4_6  and  N2_8 
REMARK    4  A    between atoms: N2_8  and  C5_10 
ROOT
HETATM    1  C5  UNL     1      -0.947  -1.159  -0.131  1.00  0.00     0.084 C 
HETATM    2  C6  UNL     1      -1.012  -0.514  -1.479  1.00  0.00     0.032 C 
HETATM    3  C7  UNL     1      -2.173   0.429  -1.626  1.00  0.00     0.022 C 
HETATM    4  C8  UNL     1      -3.470  -0.219  -1.116  1.00  0.00     0.008 C 
HETATM    5  C9  UNL     1      -3.608   0.180   0.331  1.00  0.00     0.008 C 
HETATM    6  C10 UNL     1      -2.279   0.827   0.641  1.00  0.00     0.022 C 
HETATM    7  C11 UNL     1      -1.313  -0.266   0.999  1.00  0.00     0.032 C 
HETATM    8  C12 UNL     1      -2.004   1.551  -0.627  1.00  0.00     0.178 C 
HETATM    9  F1  UNL     1      -0.881   2.272  -0.720  1.00  0.00    -0.249 F 
ENDROOT
BRANCH   1  10
HETATM   10  N2  UNL     1       0.235  -1.931   0.140  1.00  0.00    -0.363 N 
ATOM     11  H2  UNL     1       0.080  -2.930   0.274  1.00  0.00     0.162 HD
BRANCH  10  12
HETATM   12  C4  UNL     1       1.557  -1.518   0.246  1.00  0.00     0.168 C 
HETATM   13  S1  UNL     1       2.718  -2.659   0.558  1.00  0.00    -0.041 SA
BRANCH  12  14
HETATM   14  N1  UNL     1       2.003  -0.197   0.107  1.00  0.00    -0.363 N 
ATOM     15  H1  UNL     1       1.330   0.545  -0.084  1.00  0.00     0.162 HD
BRANCH  14  16
HETATM   16  C2  UNL     1       3.423   0.131   0.233  1.00  0.00     0.075 C 
HETATM   17  C1  UNL     1       3.630   1.608   0.029  1.00  0.00     0.032 C 
HETATM   18  C3  UNL     1       3.971  -0.278   1.584  1.00  0.00     0.032 C 
ENDBRANCH  14  16
ENDBRANCH  12  14
ENDBRANCH  10  12
ENDBRANCH   1  10
TORSDOF 4
