REMARK  2 active torsions:
REMARK  status: ('A' for Active; 'I' for Inactive)
REMARK    1  A    between atoms: C4_6  and  N1_7 
REMARK    2  A    between atoms: N1_7  and  C5_9 
ROOT
HETATM    1  C1  UNL     1       3.222   0.853  -0.258  1.00  0.00     0.077 C 
HETATM    2  C2  UNL     1       1.798   0.901   0.197  1.00  0.00     0.059 A 
HETATM    3  O1  UNL     1       1.223   1.857   0.888  1.00  0.00    -0.305 OA
HETATM    4  C3  UNL     1      -0.055   1.553   1.108  1.00  0.00     0.149 A 
HETATM    5 BR1  UNL     1      -1.349   2.588   2.058  1.00  0.00    -0.021 Br
HETATM    6  C4  UNL     1      -0.337   0.338   0.536  1.00  0.00     0.084 A 
HETATM    7  C6  UNL     1       0.832  -0.085  -0.045  1.00  0.00    -0.003 A 
HETATM    8  C7  UNL     1       1.061  -1.346  -0.797  1.00  0.00     0.053 C 
ENDROOT
BRANCH   6   9
HETATM    9  N1  UNL     1      -1.566  -0.357   0.529  1.00  0.00    -0.332 N 
ATOM     10  H1  UNL     1      -1.754  -1.007   1.292  1.00  0.00     0.168 HD
BRANCH   9  11
HETATM   11  C5  UNL     1      -2.548  -0.205  -0.471  1.00  0.00     0.185 C 
HETATM   12  N2  UNL     1      -3.749  -0.930  -0.414  1.00  0.00    -0.070 NA
HETATM   13  S1  UNL     1      -2.290   0.819  -1.700  1.00  0.00    -0.044 SA
ENDBRANCH   9  11
ENDBRANCH   6   9
TORSDOF 2
