REMARK  4 active torsions:
REMARK  status: ('A' for Active; 'I' for Inactive)
REMARK    1  A    between atoms: C2_2  and  N1_3 
REMARK    2  A    between atoms: N1_3  and  C3_5 
REMARK    3  A    between atoms: N3_9  and  C5_11 
REMARK    4  A    between atoms: C5_11  and  C6_12 
ROOT
HETATM    1  C3  UNL     1       3.093   0.282  -0.177  1.00  0.00     0.156 A 
HETATM    2  N2  UNL     1       2.073  -0.625  -0.073  1.00  0.00    -0.173 N 
ATOM      3  H2  UNL     1       2.144  -1.508  -0.578  1.00  0.00     0.186 HD
HETATM    4  C4  UNL     1       0.982  -0.388   0.673  1.00  0.00     0.694 A 
HETATM    5  N3  UNL     1       0.053  -1.254   0.747  1.00  0.00    -0.224 N 
ATOM      6  H3  UNL     1       0.189  -2.115   0.217  1.00  0.00     0.177 HD
HETATM    7  N4  UNL     1       0.869   0.767   1.345  1.00  0.00    -0.131 N 
ATOM      8  H4  UNL     1       0.040   0.946   1.911  1.00  0.00     0.205 HD
HETATM    9  N5  UNL     1       1.810   1.658   1.278  1.00  0.00    -0.276 N 
ATOM     10  H5  UNL     1       1.712   2.532   1.794  1.00  0.00     0.188 HD
HETATM   11  C12 UNL     1       2.930   1.443   0.527  1.00  0.00     0.140 A 
HETATM   12 BR1  UNL     1       4.224   2.851   0.530  1.00  0.00    -0.026 Br
ENDROOT
BRANCH   5  13
HETATM   13  C5  UNL     1      -1.160  -1.149   1.493  1.00  0.00     0.142 C 
BRANCH  13  14
HETATM   14  C6  UNL     1      -2.231  -0.337   0.752  1.00  0.00     0.004 C 
HETATM   15  C7  UNL     1      -2.520  -1.036  -0.555  1.00  0.00     0.006 C 
HETATM   16  C8  UNL     1      -3.483  -0.213  -1.375  1.00  0.00     0.000 C 
HETATM   17  C9  UNL     1      -4.410   0.603  -0.523  1.00  0.00     0.000 C 
HETATM   18  C10 UNL     1      -4.718  -0.025   0.803  1.00  0.00     0.000 C 
HETATM   19  C11 UNL     1      -3.494  -0.401   1.586  1.00  0.00     0.006 C 
ENDBRANCH  13  14
ENDBRANCH   5  13
BRANCH   1  20
HETATM   20  N1  UNL     1       4.053  -0.004  -0.874  1.00  0.00    -0.354 N 
ATOM     21  H1  UNL     1       3.900  -0.930  -1.274  1.00  0.00     0.166 HD
BRANCH  20  22
HETATM   22  C2  UNL     1       5.275   0.473  -1.319  1.00  0.00     0.058 C 
HETATM   23  C1  UNL     1       6.409   0.381  -0.314  1.00  0.00     0.054 C 
ENDBRANCH  20  22
ENDBRANCH   1  20
TORSDOF 4
