REMARK  5 active torsions:
REMARK  status: ('A' for Active; 'I' for Inactive)
REMARK    1  A    between atoms: C2_2  and  N1_3 
REMARK    2  A    between atoms: C2_2  and  O1_19 
REMARK    3  A    between atoms: N1_3  and  C3_5 
REMARK    4  A    between atoms: N3_11  and  C7_13 
REMARK    5  A    between atoms: O1_19  and  C11_20 
ROOT
HETATM    1  C3  UNL     1      -0.006   0.118   0.542  1.00  0.00     0.120 A 
HETATM    2  C4  UNL     1      -0.105   1.453   0.237  1.00  0.00     0.066 A 
HETATM    3  C5  UNL     1      -1.260   2.028  -0.236  1.00  0.00     0.110 A 
HETATM    4  N2  UNL     1      -2.346   1.213  -0.404  1.00  0.00    -0.202 N 
ATOM      5  H2  UNL     1      -3.219   1.608  -0.755  1.00  0.00     0.183 HD
HETATM    6  C6  UNL     1      -2.284  -0.090  -0.117  1.00  0.00     0.680 A 
HETATM    7  N3  UNL     1      -3.296  -0.838  -0.275  1.00  0.00    -0.218 N 
ATOM      8  H3  UNL     1      -3.151  -1.817  -0.030  1.00  0.00     0.178 HD
HETATM    9  N4  UNL     1      -1.106  -0.626   0.356  1.00  0.00    -0.177 N 
ATOM     10  H4  UNL     1      -1.069  -1.622   0.572  1.00  0.00     0.185 HD
ENDROOT
BRANCH   1  11
HETATM   11  N1  UNL     1       1.060  -0.432   0.983  1.00  0.00    -0.349 N 
ATOM     12  H1  UNL     1       1.002  -1.433   1.170  1.00  0.00     0.163 HD
BRANCH  11  13
HETATM   13  C2  UNL     1       2.319   0.181   1.245  1.00  0.00     0.224 C 
HETATM   14  C1  UNL     1       2.237   0.848   2.607  1.00  0.00     0.063 C 
BRANCH  13  15
HETATM   15  O1  UNL     1       3.412  -0.664   1.126  1.00  0.00    -0.326 OA
BRANCH  15  16
HETATM   16  C11 UNL     1       4.493  -0.633   0.325  1.00  0.00     0.071 A 
HETATM   17  C12 UNL     1       5.445  -1.627   0.425  1.00  0.00     0.040 A 
HETATM   18  C13 UNL     1       6.579  -1.619  -0.396  1.00  0.00     0.045 A 
HETATM   19  C14 UNL     1       6.764  -0.626  -1.312  1.00  0.00     0.116 A 
HETATM   20  F1  UNL     1       7.881  -0.632  -2.110  1.00  0.00    -0.206 F 
HETATM   21  C15 UNL     1       5.831   0.366  -1.424  1.00  0.00     0.045 A 
HETATM   22  C16 UNL     1       4.712   0.349  -0.607  1.00  0.00     0.040 A 
ENDBRANCH  15  16
ENDBRANCH  13  15
ENDBRANCH  11  13
ENDBRANCH   1  11
BRANCH   7  23
HETATM   23  C7  UNL     1      -4.588  -0.524  -0.737  1.00  0.00     0.036 C 
HETATM   24  C8  UNL     1      -4.636   0.018  -2.140  1.00  0.00     0.038 C 
HETATM   25  C9  UNL     1      -5.277   0.450   0.184  1.00  0.00     0.038 C 
HETATM   26  C10 UNL     1      -5.459  -1.806  -0.747  1.00  0.00     0.038 C 
ENDBRANCH   7  23
TORSDOF 5
