REMARK  5 active torsions:
REMARK  status: ('A' for Active; 'I' for Inactive)
REMARK    1  A    between atoms: N2_3  and  C2_5 
REMARK    2  A    between atoms: C2_5  and  N3_7 
REMARK    3  A    between atoms: N3_7  and  C3_9 
REMARK    4  A    between atoms: C3_9  and  C4_10 
REMARK    5  A    between atoms: N4_13  and  C7_14 
ROOT
HETATM    1  N1  UNL     1       8.147   0.111   1.379  1.00  0.00    -0.172 NA
HETATM    2  C1  UNL     1       7.028   0.153   1.108  1.00  0.00     0.184 C 
HETATM    3  N2  UNL     1       5.655   0.205   0.745  1.00  0.00    -0.270 N 
ATOM      4  H2  UNL     1       5.224   1.072   0.423  1.00  0.00     0.180 HD
ENDROOT
BRANCH   3   5
HETATM    5  C2  UNL     1       4.910  -0.993   0.848  1.00  0.00     0.180 C 
HETATM    6  S1  UNL     1       5.594  -2.379   1.366  1.00  0.00    -0.040 SA
BRANCH   5   7
HETATM    7  N3  UNL     1       3.534  -1.020   0.488  1.00  0.00    -0.366 N 
ATOM      8  H3  UNL     1       2.996  -1.882   0.572  1.00  0.00     0.161 HD
BRANCH   7   9
HETATM    9  C3  UNL     1       2.905   0.195  -0.000  1.00  0.00     0.128 C 
BRANCH   9  10
HETATM   10  C4  UNL     1       1.580  -0.081  -0.555  1.00  0.00     0.033 C 
HETATM   11  C5  UNL     1       0.878   1.187  -1.093  1.00  0.00     0.038 C 
HETATM   12  C6  UNL     1      -0.384   0.454  -1.591  1.00  0.00     0.273 C 
HETATM   13  N4  UNL     1      -0.682  -0.538  -0.540  1.00  0.00     0.095 N 
HETATM   14  C13 UNL     1       0.493  -0.576   0.324  1.00  0.00     0.279 C 
BRANCH  13  15
HETATM   15  C7  UNL     1      -1.883  -0.116   0.051  1.00  0.00     0.241 C 
HETATM   16  C8  UNL     1      -2.386  -0.826   1.255  1.00  0.00     0.037 C 
HETATM   17  C9  UNL     1      -3.512   0.025   1.806  1.00  0.00     0.002 C 
HETATM   18  C10 UNL     1      -4.491   0.535   0.840  1.00  0.00     0.002 C 
HETATM   19  C11 UNL     1      -4.059   0.678  -0.583  1.00  0.00     0.022 C 
HETATM   20  C12 UNL     1      -2.996  -0.291  -0.999  1.00  0.00     0.115 C 
HETATM   21 CL1  UNL     1      -3.647  -1.939  -0.993  1.00  0.00    -0.123 Cl
ENDBRANCH  13  15
ENDBRANCH   9  10
ENDBRANCH   7   9
ENDBRANCH   5   7
ENDBRANCH   3   5
TORSDOF 5
