REMARK  5 active torsions:
REMARK  status: ('A' for Active; 'I' for Inactive)
REMARK    1  A    between atoms: C6_6  and  O1_7 
REMARK    2  A    between atoms: C6_6  and  N1_9 
REMARK    3  A    between atoms: C13_16  and  C14_17 
REMARK    4  A    between atoms: C13_16  and  C15_20 
REMARK    5  A    between atoms: C14_17  and  O2_18 
ROOT
HETATM    1  C1  UNL     1      -2.218  -1.499   1.731  1.00  0.00     0.024 C 
HETATM    2  C2  UNL     1      -1.989  -0.888   0.338  1.00  0.00     0.027 C 
HETATM    3  C3  UNL     1      -2.108  -1.927  -0.694  1.00  0.00     0.017 C 
HETATM    4  C4  UNL     1      -0.735  -2.518  -0.922  1.00  0.00     0.006 C 
HETATM    5  C5  UNL     1       0.094  -1.411  -1.509  1.00  0.00     0.072 C 
HETATM    6  C6  UNL     1       0.325  -0.282  -0.498  1.00  0.00     0.264 C 
HETATM    7  C12 UNL     1      -0.859   0.086   0.242  1.00  0.00     0.086 C 
HETATM    8  C13 UNL     1      -1.872   1.086  -0.235  1.00  0.00     0.064 C 
HETATM    9  C16 UNL     1      -3.002   0.216   0.186  1.00  0.00     0.148 C 
HETATM   10  O3  UNL     1      -4.200   0.311   0.346  1.00  0.00    -0.296 OA
ENDROOT
BRANCH   6  11
HETATM   11  O1  UNL     1       0.831   0.784  -1.235  1.00  0.00    -0.362 OA
ATOM     12  H1  UNL     1       0.974   1.484  -0.608  1.00  0.00     0.212 HD
ENDBRANCH   6  11
BRANCH   6  13
HETATM   13  N1  UNL     1       1.488  -0.722   0.287  1.00  0.00     0.123 N 
HETATM   14  C7  UNL     1       2.640  -0.883  -0.568  1.00  0.00     0.276 C 
HETATM   15  C8  UNL     1       3.936  -0.386   0.025  1.00  0.00     0.030 C 
HETATM   16  C9  UNL     1       3.754   1.067   0.335  1.00  0.00     0.003 C 
HETATM   17  C10 UNL     1       2.639   1.211   1.304  1.00  0.00     0.030 C 
HETATM   18  C11 UNL     1       1.802  -0.044   1.464  1.00  0.00     0.276 C 
ENDBRANCH   6  13
BRANCH   8  19
HETATM   19  C14 UNL     1      -1.864   2.342   0.652  1.00  0.00     0.183 C 
BRANCH  19  20
HETATM   20  O2  UNL     1      -2.753   3.291   0.303  1.00  0.00    -0.400 OA
ATOM     21  H2  UNL     1      -2.748   4.067   0.851  1.00  0.00     0.209 HD
ENDBRANCH  19  20
ENDBRANCH   8  19
BRANCH   8  22
HETATM   22  C15 UNL     1      -1.951   1.428  -1.658  1.00  0.00     0.134 C 
HETATM   23 CL1  UNL     1      -3.286   2.594  -1.918  1.00  0.00    -0.129 Cl
ENDBRANCH   8  22
TORSDOF 5
