REMARK  4 active torsions:
REMARK  status: ('A' for Active; 'I' for Inactive)
REMARK    1  A    between atoms: N2_7  and  C5_9 
REMARK    2  A    between atoms: C5_9  and  C6_10 
REMARK    3  A    between atoms: C6_10  and  N3_13 
REMARK    4  A    between atoms: N3_13  and  C9_16 
ROOT
HETATM    1  C9  UNL     1      -4.074  -0.100   0.126  1.00  0.00     0.288 C 
HETATM    2  C10 UNL     1      -4.463   1.353   0.025  1.00  0.00     0.056 C 
HETATM    3  C11 UNL     1      -5.125  -0.758   0.947  1.00  0.00     0.092 C 
HETATM    4  N4  UNL     1      -5.954  -1.267   1.567  1.00  0.00    -0.195 NA
ENDROOT
BRANCH   1   5
HETATM    5  N3  UNL     1      -2.817  -0.365   0.720  1.00  0.00    -0.049 N 
ATOM      6  H32 UNL     1      -2.703  -1.366   0.879  1.00  0.00     0.279 HD
ATOM      7  H31 UNL     1      -2.803  -0.032   1.684  1.00  0.00     0.279 HD
BRANCH   5   8
HETATM    8  C6  UNL     1      -1.704   0.152   0.001  1.00  0.00     0.136 C 
HETATM    9  C7  UNL     1      -1.707  -0.086  -1.475  1.00  0.00     0.048 C 
HETATM   10  C8  UNL     1      -1.455   1.605   0.341  1.00  0.00     0.048 C 
BRANCH   8  11
HETATM   11  C5  UNL     1      -0.417  -0.573   0.506  1.00  0.00     0.159 C 
BRANCH  11  12
HETATM   12  N2  UNL     1       0.673   0.029  -0.158  1.00  0.00    -0.373 N 
HETATM   13  C4  UNL     1       1.908  -0.182  -0.194  1.00  0.00     0.118 A 
HETATM   14  N1  UNL     1       2.663   0.647  -0.984  1.00  0.00    -0.351 N 
HETATM   15  C12 UNL     1       2.497  -1.191   0.518  1.00  0.00     0.055 A 
HETATM   16  C3  UNL     1       3.984   0.507  -1.089  1.00  0.00     0.096 A 
ATOM     17  H1  UNL     1       2.200   1.391  -1.506  1.00  0.00     0.166 HD
HETATM   18  C2  UNL     1       4.599  -0.501  -0.380  1.00  0.00    -0.045 A 
HETATM   19  C1  UNL     1       6.070  -0.661  -0.491  1.00  0.00     0.049 C 
HETATM   20  C13 UNL     1       3.878  -1.353   0.422  1.00  0.00     0.031 A 
HETATM   21 BR1  UNL     1       1.568  -2.412   1.653  1.00  0.00    -0.047 Br
ATOM     22  H2  UNL     1       0.391   0.816  -0.742  1.00  0.00     0.161 HD
ENDBRANCH  11  12
ENDBRANCH   8  11
ENDBRANCH   5   8
ENDBRANCH   1   5
TORSDOF 4
