REMARK  5 active torsions:
REMARK  status: ('A' for Active; 'I' for Inactive)
REMARK    1  A    between atoms: C2_2  and  S1_5 
REMARK    2  A    between atoms: S1_5  and  N1_8 
REMARK    3  A    between atoms: N1_8  and  C4_10 
REMARK    4  A    between atoms: C4_10  and  O3_11 
REMARK    5  A    between atoms: C4_10  and  C5_13 
ROOT
HETATM    1  C4  UNL     1       0.558  -0.957  -0.795  1.00  0.00     0.236 C 
ENDROOT
BRANCH   1   2
HETATM    2  N1  UNL     1       1.602  -0.214  -1.360  1.00  0.00    -0.289 N 
ATOM      3  H1  UNL     1       1.465   0.486  -2.089  1.00  0.00     0.174 HD
BRANCH   2   4
HETATM    4  S1  UNL     1       3.122  -0.602  -0.702  1.00  0.00     0.266 S 
HETATM    5  O1  UNL     1       4.184   0.129  -1.485  1.00  0.00    -0.203 OA
HETATM    6  O2  UNL     1       3.300  -2.106  -0.888  1.00  0.00    -0.203 OA
BRANCH   4   7
HETATM    7  C2  UNL     1       3.296  -0.287   1.016  1.00  0.00     0.216 C 
HETATM    8  C1  UNL     1       4.731  -0.707   1.386  1.00  0.00     0.071 C 
HETATM    9  C3  UNL     1       3.234   1.194   1.238  1.00  0.00     0.071 C 
HETATM   10  F1  UNL     1       2.422  -0.966   1.820  1.00  0.00    -0.225 F 
ENDBRANCH   4   7
ENDBRANCH   2   4
ENDBRANCH   1   2
BRANCH   1  11
HETATM   11  O3  UNL     1       0.122  -1.881  -1.833  1.00  0.00    -0.375 OA
ATOM     12  H3  UNL     1      -0.586  -2.385  -1.450  1.00  0.00     0.212 HD
ENDBRANCH   1  11
BRANCH   1  13
HETATM   13  C5  UNL     1      -0.695  -0.263  -0.401  1.00  0.00     0.005 C 
HETATM   14  C6  UNL     1      -0.560   0.814   0.614  1.00  0.00     0.018 C 
HETATM   15  C7  UNL     1      -1.920   1.338   1.029  1.00  0.00    -0.013 C 
HETATM   16  C8  UNL     1      -2.733   0.227   1.672  1.00  0.00     0.009 C 
HETATM   17  C12 UNL     1      -2.733   1.867  -0.117  1.00  0.00     0.009 C 
HETATM   18  C9  UNL     1      -2.913  -0.849   0.646  1.00  0.00    -0.013 C 
HETATM   19  C10 UNL     1      -3.610  -0.349  -0.604  1.00  0.00     0.009 C 
HETATM   20  C14 UNL     1      -1.567  -1.356   0.243  1.00  0.00     0.018 C 
HETATM   21  C11 UNL     1      -2.789   0.794  -1.178  1.00  0.00    -0.013 C 
HETATM   22  C13 UNL     1      -1.435   0.321  -1.594  1.00  0.00     0.018 C 
ENDBRANCH   1  13
TORSDOF 5
