REMARK  6 active torsions:
REMARK  status: ('A' for Active; 'I' for Inactive)
REMARK    1  A    between atoms: S1_2  and  C2_4 
REMARK    2  A    between atoms: C2_4  and  C3_5 
REMARK    3  A    between atoms: C6_8  and  C7_9 
REMARK    4  A    between atoms: C12_19  and  N3_20 
REMARK    5  A    between atoms: N3_20  and  C13_22 
REMARK    6  A    between atoms: C13_22  and  C14_23 
ROOT
HETATM    1  C7  UNL     1      -0.430  -0.946  -0.463  1.00  0.00     0.046 A 
HETATM    2  C8  UNL     1      -0.162  -1.976  -1.339  1.00  0.00     0.062 A 
HETATM    3  C9  UNL     1       1.086  -2.383  -1.680  1.00  0.00     0.069 A 
HETATM    4  N1  UNL     1       1.599  -3.341  -2.501  1.00  0.00    -0.306 N 
ATOM      5  H1  UNL     1       1.035  -3.985  -3.056  1.00  0.00     0.171 HD
HETATM    6  C10 UNL     1       2.941  -3.329  -2.487  1.00  0.00     0.325 A 
HETATM    7  O2  UNL     1       3.750  -4.056  -3.110  1.00  0.00    -0.247 OA
HETATM    8  N2  UNL     1       3.280  -2.329  -1.626  1.00  0.00    -0.303 N 
ATOM      9  H2  UNL     1       4.234  -2.059  -1.386  1.00  0.00     0.171 HD
HETATM   10  C11 UNL     1       2.165  -1.752  -1.140  1.00  0.00     0.108 A 
HETATM   11  C12 UNL     1       1.931  -0.687  -0.232  1.00  0.00     0.135 A 
HETATM   12  N5  UNL     1       0.644  -0.347   0.056  1.00  0.00    -0.340 N 
ATOM     13  H5  UNL     1       0.490   0.418   0.713  1.00  0.00     0.167 HD
ENDROOT
BRANCH   1  14
HETATM   14  C6  UNL     1      -1.791  -0.504  -0.164  1.00  0.00    -0.006 A 
HETATM   15  C5  UNL     1      -2.056   0.657   0.580  1.00  0.00     0.014 A 
HETATM   16  C4  UNL     1      -3.381   1.058   0.819  1.00  0.00     0.012 A 
HETATM   17  C3  UNL     1      -4.458   0.354   0.357  1.00  0.00    -0.008 A 
HETATM   18  C20 UNL     1      -4.170  -0.805  -0.382  1.00  0.00     0.124 A 
HETATM   19  C19 UNL     1      -2.886  -1.207  -0.624  1.00  0.00     0.056 A 
HETATM   20  F1  UNL     1      -5.266  -1.508  -0.836  1.00  0.00    -0.205 F 
BRANCH  17  21
HETATM   21  C2  UNL     1      -5.848   0.636   0.782  1.00  0.00     0.149 C 
BRANCH  21  22
HETATM   22  S1  UNL     1      -6.645   1.743  -0.342  1.00  0.00     0.015 S 
HETATM   23  C1  UNL     1      -8.330   2.120   0.178  1.00  0.00     0.127 C 
HETATM   24  O1  UNL     1      -5.791   3.123  -0.641  1.00  0.00    -0.258 OA
ENDBRANCH  21  22
ENDBRANCH  17  21
ENDBRANCH   1  14
BRANCH  11  25
HETATM   25  N3  UNL     1       2.932  -0.135   0.231  1.00  0.00    -0.350 N 
ATOM     26  H3  UNL     1       3.757  -0.594  -0.156  1.00  0.00     0.166 HD
BRANCH  25  27
HETATM   27  C13 UNL     1       3.355   0.869   1.075  1.00  0.00     0.101 C 
BRANCH  27  28
HETATM   28  C14 UNL     1       4.861   0.969   1.039  1.00  0.00    -0.018 A 
HETATM   29  C15 UNL     1       5.672  -0.101   0.860  1.00  0.00     0.030 A 
HETATM   30  C16 UNL     1       7.039   0.065   0.820  1.00  0.00     0.088 A 
HETATM   31  N4  UNL     1       7.531   1.287   0.955  1.00  0.00    -0.375 N 
HETATM   32  C17 UNL     1       6.772   2.377   1.132  1.00  0.00     0.088 A 
ATOM     33  H4  UNL     1       8.544   1.405   0.922  1.00  0.00     0.164 HD
HETATM   34  C18 UNL     1       5.400   2.252   1.182  1.00  0.00     0.030 A 
ENDBRANCH  27  28
ENDBRANCH  25  27
ENDBRANCH  11  25
TORSDOF 6
