REMARK  6 active torsions:
REMARK  status: ('A' for Active; 'I' for Inactive)
REMARK    1  A    between atoms: S1_2  and  N1_4 
REMARK    2  A    between atoms: S1_2  and  C6_13 
REMARK    3  A    between atoms: N1_4  and  C1_6 
REMARK    4  A    between atoms: C9_16  and  N3_17 
REMARK    5  A    between atoms: N3_17  and  S2_19 
REMARK    6  A    between atoms: S2_19  and  C10_22 
ROOT
HETATM    1  C6  UNL     1       0.722  -0.283   0.014  1.00  0.00     0.080 A 
HETATM    2  C7  UNL     1      -0.023  -1.429  -0.159  1.00  0.00     0.027 A 
HETATM    3  C8  UNL     1      -1.230  -1.618   0.480  1.00  0.00     0.031 A 
HETATM    4  C9  UNL     1      -1.767  -0.655   1.340  1.00  0.00     0.042 A 
HETATM    5  C16 UNL     1      -1.010   0.484   1.502  1.00  0.00     0.031 A 
HETATM    6  C17 UNL     1       0.205   0.674   0.859  1.00  0.00     0.027 A 
ENDROOT
BRANCH   1   7
HETATM    7  S1  UNL     1       2.254  -0.022  -0.785  1.00  0.00     0.263 S 
HETATM    8  O1  UNL     1       2.499   1.448  -1.028  1.00  0.00    -0.200 OA
HETATM    9  O2  UNL     1       2.269  -0.689  -2.147  1.00  0.00    -0.200 OA
BRANCH   7  10
HETATM   10  N1  UNL     1       3.566  -0.610   0.166  1.00  0.00    -0.281 N 
ATOM     11  H1  UNL     1       3.351  -1.034   1.068  1.00  0.00     0.179 HD
BRANCH  10  12
HETATM   12  C1  UNL     1       4.785  -0.547  -0.189  1.00  0.00     0.045 A 
HETATM   13  C2  UNL     1       5.219  -0.002  -1.378  1.00  0.00     0.047 A 
HETATM   14  C3  UNL     1       6.577   0.030  -1.696  1.00  0.00     0.090 A 
HETATM   15  N2  UNL     1       7.511  -0.463  -0.866  1.00  0.00    -0.375 N 
HETATM   16  C4  UNL     1       7.101  -0.997   0.295  1.00  0.00     0.090 A 
ATOM     17  H2  UNL     1       8.501  -0.432  -1.110  1.00  0.00     0.164 HD
HETATM   18  C5  UNL     1       5.772  -1.054   0.660  1.00  0.00     0.047 A 
ENDBRANCH  10  12
ENDBRANCH   7  10
ENDBRANCH   1   7
BRANCH   4  19
HETATM   19  N3  UNL     1      -3.017  -0.878   1.984  1.00  0.00    -0.281 N 
ATOM     20  H3  UNL     1      -3.202  -1.778   2.426  1.00  0.00     0.179 HD
BRANCH  19  21
HETATM   21  S2  UNL     1      -4.218   0.349   2.026  1.00  0.00     0.263 S 
HETATM   22  O3  UNL     1      -5.457  -0.194   2.699  1.00  0.00    -0.200 OA
HETATM   23  O4  UNL     1      -3.758   1.614   2.683  1.00  0.00    -0.200 OA
BRANCH  21  24
HETATM   24  C10 UNL     1      -4.655   0.700   0.362  1.00  0.00     0.080 A 
HETATM   25  C11 UNL     1      -3.986   1.680  -0.340  1.00  0.00     0.028 A 
HETATM   26  C12 UNL     1      -4.362   1.921  -1.643  1.00  0.00     0.044 A 
HETATM   27  C13 UNL     1      -5.375   1.208  -2.236  1.00  0.00     0.116 A 
HETATM   28  F1  UNL     1      -5.761   1.432  -3.524  1.00  0.00    -0.206 F 
HETATM   29  C14 UNL     1      -6.048   0.226  -1.541  1.00  0.00     0.044 A 
HETATM   30  C15 UNL     1      -5.671  -0.019  -0.226  1.00  0.00     0.028 A 
ENDBRANCH  21  24
ENDBRANCH  19  21
ENDBRANCH   4  19
TORSDOF 6
