REMARK  4 active torsions:
REMARK  status: ('A' for Active; 'I' for Inactive)
REMARK    1  A    between atoms: N1_2  and  C2_3 
REMARK    2  A    between atoms: N1_2  and  S1_16 
REMARK    3  A    between atoms: C4_10  and  N4_11 
REMARK    4  A    between atoms: S1_16  and  N6_17 
ROOT
HETATM    1  C2  UNL     1       0.301  -0.093  -0.200  1.00  0.00     0.713 A 
HETATM    2  N2  UNL     1       0.664  -1.287  -0.700  1.00  0.00    -0.139 N 
ATOM      3  H2  UNL     1      -0.059  -1.902  -1.074  1.00  0.00     0.189 HD
HETATM    4  C3  UNL     1       1.942  -1.702  -0.726  1.00  0.00     0.352 A 
HETATM    5  O1  UNL     1       2.262  -2.842  -1.207  1.00  0.00    -0.246 OA
HETATM    6  N3  UNL     1       2.877  -0.877  -0.230  1.00  0.00    -0.141 N 
ATOM      7  H3  UNL     1       3.854  -1.170  -0.241  1.00  0.00     0.189 HD
HETATM    8  C4  UNL     1       2.558   0.336   0.285  1.00  0.00     0.694 A 
HETATM    9  N5  UNL     1       1.262   0.710   0.290  1.00  0.00    -0.021 N 
ATOM     10  H5  UNL     1       1.006   1.620   0.673  1.00  0.00     0.203 HD
ENDROOT
BRANCH   1  11
HETATM   11  N1  UNL     1      -1.040   0.372  -0.159  1.00  0.00    -0.095 N 
HETATM   12  C1  UNL     1      -1.570   1.136  -1.296  1.00  0.00     0.191 C 
BRANCH  11  13
HETATM   13  S1  UNL     1      -2.097   0.093   1.155  1.00  0.00     0.332 S 
HETATM   14  O2  UNL     1      -1.351  -0.022   2.462  1.00  0.00    -0.182 OA
HETATM   15  O3  UNL     1      -3.128   1.176   1.216  1.00  0.00    -0.182 OA
BRANCH  13  16
HETATM   16  N6  UNL     1      -2.930  -1.400   0.847  1.00  0.00    -0.311 N 
ATOM     17  H62 UNL     1      -2.801  -1.992   0.026  1.00  0.00     0.170 HD
ATOM     18  H61 UNL     1      -3.561  -1.566   1.631  1.00  0.00     0.170 HD
ENDBRANCH  13  16
ENDBRANCH  11  13
ENDBRANCH   1  11
BRANCH   8  19
HETATM   19  N4  UNL     1       3.458   1.129   0.762  1.00  0.00    -0.234 N 
ATOM     20  H42 UNL     1       4.438   0.846   0.758  1.00  0.00     0.174 HD
ATOM     21  H41 UNL     1       3.218   2.042   1.149  1.00  0.00     0.174 HD
ENDBRANCH   8  19
TORSDOF 4
