REMARK  1 active torsions:
REMARK  status: ('A' for Active; 'I' for Inactive)
REMARK    1  A    between atoms: N1_2  and  C1_3 
ROOT
HETATM    1  C1  UNL     1       1.194   0.158  -0.091  1.00  0.00     0.292 C 
HETATM    2  C2  UNL     1       0.657  -1.240   0.157  1.00  0.00     0.051 C 
HETATM    3  C3  UNL     1      -0.469  -1.464  -0.815  1.00  0.00     0.003 C 
HETATM    4  C4  UNL     1      -1.392  -0.294  -0.945  1.00  0.00     0.002 C 
HETATM    5  C5  UNL     1      -1.662   0.428   0.329  1.00  0.00     0.027 C 
HETATM    6  C6  UNL     1      -0.649   1.508   0.639  1.00  0.00     0.234 C 
HETATM    7  N2  UNL     1       0.651   1.006   0.939  1.00  0.00    -0.056 N 
ATOM      8  H21 UNL     1       1.292   1.770   1.152  1.00  0.00     0.279 HD
ATOM      9  H22 UNL     1       0.653   0.526   1.839  1.00  0.00     0.279 HD
ENDROOT
BRANCH   1  10
HETATM   10  N1  UNL     1       2.645   0.091  -0.020  1.00  0.00    -0.110 NA
HETATM   11 CL1  UNL     1       3.357   1.649  -0.293  1.00  0.00    -0.002 Cl
ENDBRANCH   1  10
TORSDOF 1
