REMARK  1 active torsions:
REMARK  status: ('A' for Active; 'I' for Inactive)
REMARK    1  A    between atoms: C2_2  and  C3_3 
ROOT
HETATM    1  C3  UNL     1      -0.692  -0.252   0.005  1.00  0.00     0.209 C 
HETATM    2  C4  UNL     1      -0.012   1.024  -0.446  1.00  0.00     0.057 C 
HETATM    3  C5  UNL     1       1.356   1.073   0.226  1.00  0.00     0.086 C 
HETATM    4 CL1  UNL     1       2.214   2.538  -0.255  1.00  0.00    -0.125 Cl
HETATM    5  C6  UNL     1       2.129  -0.184  -0.159  1.00  0.00     0.047 C 
HETATM    6  C7  UNL     1       1.321  -1.358   0.334  1.00  0.00     0.234 C 
HETATM    7  N1  UNL     1       0.077  -1.376  -0.442  1.00  0.00    -0.068 N 
ATOM      8  H11 UNL     1       0.229  -1.388  -1.451  1.00  0.00     0.277 HD
ATOM      9  H12 UNL     1      -0.426  -2.261  -0.381  1.00  0.00     0.277 HD
ENDROOT
BRANCH   1  10
HETATM   10  C2  UNL     1      -2.109  -0.292  -0.462  1.00  0.00    -0.005 C 
HETATM   11  C1  UNL     1      -2.967   0.488   0.187  1.00  0.00     0.009 C 
ENDBRANCH   1  10
TORSDOF 1
