REMARK  1 active torsions:
REMARK  status: ('A' for Active; 'I' for Inactive)
REMARK    1  A    between atoms: C2_2  and  C4_5 
ROOT
HETATM    1  C4  UNL     1       0.373  -0.534  -0.348  1.00  0.00     0.040 C 
HETATM    2  C5  UNL     1       0.937  -0.587   1.028  1.00  0.00     0.138 C 
HETATM    3  N1  UNL     1       2.222   0.125   0.916  1.00  0.00    -0.148 NA
HETATM    4  N2  UNL     1       2.575   0.040  -0.442  1.00  0.00    -0.148 NA
HETATM    5  C6  UNL     1       1.287   0.428  -1.047  1.00  0.00     0.138 C 
ENDROOT
BRANCH   1   6
HETATM    6  C2  UNL     1      -1.071  -0.175  -0.432  1.00  0.00     0.036 C 
HETATM    7  C1  UNL     1      -1.382   1.185   0.151  1.00  0.00     0.033 C 
HETATM    8  C3  UNL     1      -1.972  -1.168   0.264  1.00  0.00     0.033 C 
HETATM    9 CL1  UNL     1      -1.561  -0.133  -2.143  1.00  0.00    -0.119 Cl
ENDBRANCH   1   6
TORSDOF 1
