REMARK  1 active torsions:
REMARK  status: ('A' for Active; 'I' for Inactive)
REMARK    1  A    between atoms: C2_2  and  N1_4 
ROOT
HETATM    1  N1  UNL     1       0.176  -0.194   0.830  1.00  0.00     0.142 N 
HETATM    2  C4  UNL     1       1.263   0.785   0.784  1.00  0.00     0.406 C 
HETATM    3  N2  UNL     1       1.805   0.556  -0.541  1.00  0.00    -0.115 NA
HETATM    4  N3  UNL     1       1.375  -0.693  -0.968  1.00  0.00    -0.095 NA
HETATM    5  C5  UNL     1       0.882  -1.325   0.226  1.00  0.00     0.429 C 
HETATM    6 CL1  UNL     1       2.240  -1.698   1.320  1.00  0.00    -0.072 Cl
ENDROOT
BRANCH   1   7
HETATM    7  C2  UNL     1      -0.797   0.276  -0.130  1.00  0.00     0.220 C 
HETATM    8  C1  UNL     1      -1.613  -0.820  -0.743  1.00  0.00     0.042 C 
HETATM    9  C3  UNL     1      -1.703   1.290   0.509  1.00  0.00     0.042 C 
ENDBRANCH   1   7
TORSDOF 1
