REMARK  1 active torsions:
REMARK  status: ('A' for Active; 'I' for Inactive)
REMARK    1  A    between atoms: C7_7  and  N1_8 
ROOT
HETATM    1  N1  UNL     1       1.938  -0.180  -0.912  1.00  0.00    -0.324 N 
ATOM      2  H1  UNL     1       1.951   0.454  -1.711  1.00  0.00     0.172 HD
HETATM    3  C8  UNL     1       3.023  -1.029  -0.731  1.00  0.00     0.177 C 
HETATM    4  N2  UNL     1       3.915  -1.749  -0.574  1.00  0.00    -0.172 NA
ENDROOT
BRANCH   1   5
HETATM    5  C7  UNL     1       0.796  -0.144  -0.035  1.00  0.00     0.096 C 
HETATM    6  C2  UNL     1      -0.237   0.858  -0.447  1.00  0.00     0.005 C 
HETATM    7  C1  UNL     1       0.366   2.242  -0.513  1.00  0.00     0.012 C 
HETATM    8  C3  UNL     1      -1.232   0.894   0.723  1.00  0.00     0.006 C 
HETATM    9  C4  UNL     1      -1.906  -0.417   0.902  1.00  0.00     0.001 C 
HETATM   10  C5  UNL     1      -1.244  -1.584   0.293  1.00  0.00     0.002 C 
HETATM   11  C6  UNL     1       0.212  -1.520   0.073  1.00  0.00     0.026 C 
ENDBRANCH   1   5
TORSDOF 1
