REMARK  1 active torsions:
REMARK  status: ('A' for Active; 'I' for Inactive)
REMARK    1  A    between atoms: N1_2  and  C2_4 
ROOT
HETATM    1  C2  UNL     1       0.847   0.092   0.698  1.00  0.00     0.284 C 
HETATM    2  N2  UNL     1       0.289   1.357   0.243  1.00  0.00    -0.050 N 
ATOM      3  H21 UNL     1       0.639   1.646  -0.670  1.00  0.00     0.280 HD
ATOM      4  H22 UNL     1       0.630   2.160   0.771  1.00  0.00     0.280 HD
HETATM    5  C3  UNL     1      -1.148   1.216   0.284  1.00  0.00     0.188 C 
HETATM    6  C4  UNL     1      -1.557   0.562  -1.043  1.00  0.00     0.033 C 
HETATM    7  C5  UNL     1      -0.568  -0.571  -1.262  1.00  0.00     0.010 C 
HETATM    8  C6  UNL     1       0.034  -0.997   0.075  1.00  0.00     0.036 C 
HETATM    9  C7  UNL     1      -1.204  -1.180   0.973  1.00  0.00     0.010 C 
HETATM   10  C8  UNL     1      -1.602   0.246   1.363  1.00  0.00     0.033 C 
ENDROOT
BRANCH   1  11
HETATM   11  N1  UNL     1       2.240  -0.044   0.520  1.00  0.00    -0.400 N 
HETATM   12  C1  UNL     1       2.757  -0.009  -0.789  1.00  0.00     0.142 C 
ATOM     13  H1  UNL     1       2.859  -0.165   1.322  1.00  0.00     0.154 HD
ENDBRANCH   1  11
TORSDOF 1
