REMARK  1 active torsions:
REMARK  status: ('A' for Active; 'I' for Inactive)
REMARK    1  A    between atoms: C2_2  and  C4_4 
ROOT
HETATM    1  C4  UNL     1       0.107   0.176  -0.557  1.00  0.00     0.125 C 
HETATM    2  N1  UNL     1       0.661   1.495  -0.915  1.00  0.00    -0.123 NA
HETATM    3  N2  UNL     1       1.148   2.004   0.287  1.00  0.00    -0.039 NA
HETATM    4  N3  UNL     1       1.524   0.943   1.076  1.00  0.00    -0.119 NA
HETATM    5  C5  UNL     1       1.110  -0.283   0.411  1.00  0.00     0.060 C 
HETATM    6  C6  UNL     1       2.305  -0.828  -0.390  1.00  0.00     0.037 C 
HETATM    7  C7  UNL     1       0.760  -1.292   1.417  1.00  0.00     0.037 C 
ENDROOT
BRANCH   1   8
HETATM    8  C2  UNL     1      -1.311   0.309  -0.074  1.00  0.00     0.000 C 
HETATM    9  C1  UNL     1      -2.167   0.944  -1.189  1.00  0.00     0.011 C 
HETATM   10  C3  UNL     1      -1.918  -1.070   0.092  1.00  0.00     0.011 C 
ENDBRANCH   1   8
TORSDOF 1
