REMARK  9 active torsions:
REMARK  status: ('A' for Active; 'I' for Inactive)
REMARK    1  A    between atoms: O1_2  and  C2_3 
REMARK    2  A    between atoms: C4_6  and  C5_7 
REMARK    3  A    between atoms: C5_7  and  O3_8 
REMARK    4  A    between atoms: C5_7  and  O4_10 
REMARK       I    between atoms: N1_13  and  C7_14 
REMARK    5  A    between atoms: C7_14  and  C8_16 
REMARK    6  A    between atoms: C8_16  and  N2_17 
REMARK    7  A    between atoms: N7_29  and  O6_30 
REMARK    8  A    between atoms: C14_35  and  C15_36 
REMARK    9  A    between atoms: C15_36  and  O8_37 
ROOT
HETATM    1  C2  UNL     1       4.542   0.803   0.481  1.00  0.00     0.195 A 
HETATM    2  O2  UNL     1       4.104  -0.444   0.602  1.00  0.00    -0.286 OA
HETATM    3  C3  UNL     1       2.846  -0.534   0.256  1.00  0.00     0.107 A 
HETATM    4  C4  UNL     1       1.974  -1.599   0.180  1.00  0.00     0.047 A 
HETATM    5  C6  UNL     1       0.674  -1.401  -0.246  1.00  0.00     0.118 A 
HETATM    6  N1  UNL     1       0.228  -0.175  -0.604  1.00  0.00    -0.257 N 
HETATM    7  C7  UNL     1      -1.189   0.006  -0.873  1.00  0.00     0.250 C 
HETATM    8  O5  UNL     1      -1.501   1.190  -1.248  1.00  0.00    -0.271 OA
HETATM    9  C12 UNL     1       1.078   0.844  -0.533  1.00  0.00     0.268 A 
HETATM   10  O7  UNL     1       0.656   2.005  -0.890  1.00  0.00    -0.267 OA
HETATM   11  C13 UNL     1       2.407   0.737  -0.107  1.00  0.00     0.080 A 
HETATM   12  C14 UNL     1       3.471   1.566   0.034  1.00  0.00     0.042 A 
ENDROOT
BRANCH   7  13
HETATM   13  C8  UNL     1      -2.148  -1.069  -0.714  1.00  0.00     0.254 C 
BRANCH  13  14
HETATM   14  N2  UNL     1      -3.405  -0.636  -0.124  1.00  0.00    -0.263 N 
HETATM   15  N3  UNL     1      -3.548  -0.161   1.091  1.00  0.00    -0.280 N 
HETATM   16  C9  UNL     1      -4.813   0.270   1.329  1.00  0.00     0.148 A 
ATOM     17  H3  UNL     1      -2.795  -0.120   1.778  1.00  0.00     0.189 HD
HETATM   18  N4  UNL     1      -5.261   0.799   2.422  1.00  0.00    -0.382 N 
HETATM   19  C10 UNL     1      -5.536   0.038   0.168  1.00  0.00     0.170 A 
ATOM     20  H42 UNL     1      -4.729   0.970   3.276  1.00  0.00     0.157 HD
ATOM     21  H41 UNL     1      -6.212   1.123   2.601  1.00  0.00     0.157 HD
HETATM   22  C11 UNL     1      -4.622  -0.530  -0.707  1.00  0.00     0.171 A 
HETATM   23  N7  UNL     1      -6.793   0.073  -0.488  1.00  0.00    -0.140 N 
HETATM   24  N5  UNL     1      -5.316  -0.822  -1.911  1.00  0.00    -0.264 N 
HETATM   25  N6  UNL     1      -6.681  -0.845  -1.525  1.00  0.00     0.008 NA
ATOM     26  H5  UNL     1      -4.924  -0.979  -2.839  1.00  0.00     0.186 HD
BRANCH  23  27
HETATM   27  O6  UNL     1      -7.810   0.909  -0.162  1.00  0.00    -0.269 OA
ATOM     28  H6  UNL     1      -8.652   0.932  -0.601  1.00  0.00     0.246 HD
ENDBRANCH  23  27
ENDBRANCH  13  14
ENDBRANCH   7  13
BRANCH   4  29
HETATM   29  C5  UNL     1       2.475  -2.937   0.542  1.00  0.00     0.292 C 
BRANCH  29  30
HETATM   30  O3  UNL     1       1.494  -3.624   1.224  1.00  0.00    -0.367 OA
ATOM     31  H3  UNL     1       1.817  -4.486   1.457  1.00  0.00     0.213 HD
ENDBRANCH  29  30
BRANCH  29  32
HETATM   32  O4  UNL     1       2.941  -3.659  -0.523  1.00  0.00    -0.367 OA
ATOM     33  H4  UNL     1       3.264  -4.521  -0.290  1.00  0.00     0.213 HD
ENDBRANCH  29  32
ENDBRANCH   4  29
BRANCH  12  34
HETATM   34  C15 UNL     1       3.598   2.999  -0.319  1.00  0.00     0.208 C 
BRANCH  34  35
HETATM   35  O8  UNL     1       3.949   3.798   0.816  1.00  0.00    -0.396 OA
ATOM     36  H8  UNL     1       4.030   4.717   0.590  1.00  0.00     0.209 HD
ENDBRANCH  34  35
ENDBRANCH  12  34
BRANCH   1  37
HETATM   37  O1  UNL     1       5.825   1.216   0.744  1.00  0.00    -0.335 OA
HETATM   38  C1  UNL     1       6.778   1.313  -0.280  1.00  0.00     0.212 C 
ENDBRANCH   1  37
TORSDOF 9
