REMARK  8 active torsions:
REMARK  status: ('A' for Active; 'I' for Inactive)
REMARK    1  A    between atoms: N1_1  and  C1_4 
REMARK    2  A    between atoms: C2_7  and  N3_8 
REMARK    3  A    between atoms: N6_16  and  N7_17 
REMARK    4  A    between atoms: N7_17  and  C7_19 
REMARK    5  A    between atoms: C11_26  and  C12_27 
REMARK    6  A    between atoms: C12_27  and  O1_28 
REMARK    7  A    between atoms: C12_27  and  O2_30 
REMARK    8  A    between atoms: C13_32  and  C14_33 
ROOT
HETATM    1  C1  UNL     1       2.973   1.907   1.326  1.00  0.00     0.727 A 
HETATM    2  N2  UNL     1       3.737   0.887   0.909  1.00  0.00    -0.019 N 
ATOM      3  H2  UNL     1       4.722   0.869   1.175  1.00  0.00     0.203 HD
HETATM    4  C2  UNL     1       3.251  -0.114   0.152  1.00  0.00     0.725 A 
HETATM    5  N5  UNL     1       1.956  -0.035  -0.165  1.00  0.00    -0.016 N 
ATOM      6  H5  UNL     1       1.547  -0.773  -0.738  1.00  0.00     0.203 HD
HETATM    7  C6  UNL     1       1.156   0.995   0.248  1.00  0.00     0.756 A 
HETATM    8  N6  UNL     1      -0.188   1.271   0.045  1.00  0.00    -0.061 N 
HETATM    9  C13 UNL     1      -0.480   2.416   0.674  1.00  0.00     0.208 A 
HETATM   10  N14 UNL     1       0.700   2.817   1.253  1.00  0.00    -0.244 N 
ATOM     11  H14 UNL     1       0.814   3.663   1.811  1.00  0.00     0.190 HD
HETATM   12  N15 UNL     1       1.651   1.969   0.992  1.00  0.00     0.094 N 
ENDROOT
BRANCH   8  13
HETATM   13  N7  UNL     1      -0.958   0.480  -0.761  1.00  0.00    -0.276 N 
ATOM     14  H7  UNL     1      -0.363  -0.141  -1.309  1.00  0.00     0.188 HD
BRANCH  13  15
HETATM   15  C7  UNL     1      -2.273   0.255  -1.067  1.00  0.00     0.077 A 
HETATM   16  C8  UNL     1      -2.700   0.692  -2.341  1.00  0.00     0.119 A 
HETATM   17  N8  UNL     1      -3.907   0.463  -2.832  1.00  0.00    -0.371 N 
HETATM   18  C9  UNL     1      -4.814  -0.217  -2.124  1.00  0.00     0.114 A 
ATOM     19  H8  UNL     1      -4.148   0.809  -3.761  1.00  0.00     0.164 HD
HETATM   20  C10 UNL     1      -4.451  -0.664  -0.885  1.00  0.00     0.075 A 
HETATM   21  N9  UNL     1      -5.383  -1.391  -0.098  1.00  0.00    -0.100 NA
HETATM   22  C11 UNL     1      -3.173  -0.439  -0.330  1.00  0.00     0.051 A 
BRANCH  22  23
HETATM   23  C12 UNL     1      -2.854  -1.022   0.979  1.00  0.00     0.292 C 
BRANCH  23  24
HETATM   24  O1  UNL     1      -2.192  -0.240   1.874  1.00  0.00    -0.367 OA
ATOM     25  H1  UNL     1      -1.986  -0.617   2.721  1.00  0.00     0.213 HD
ENDBRANCH  23  24
BRANCH  23  26
HETATM   26  O2  UNL     1      -2.265  -2.295   0.842  1.00  0.00    -0.367 OA
ATOM     27  H2  UNL     1      -2.059  -2.672   1.689  1.00  0.00     0.213 HD
ENDBRANCH  23  26
ENDBRANCH  22  23
ENDBRANCH  13  15
ENDBRANCH   8  13
BRANCH   9  28
HETATM   28  C14 UNL     1      -1.719   3.192   0.787  1.00  0.00     0.186 A 
HETATM   29  N10 UNL     1      -1.731   4.358   1.486  1.00  0.00    -0.266 N 
HETATM   30  N11 UNL     1      -2.940   4.844   1.428  1.00  0.00    -0.226 N 
ATOM     31  H10 UNL     1      -0.937   4.778   1.969  1.00  0.00     0.190 HD
HETATM   32  N12 UNL     1      -3.728   4.058   0.725  1.00  0.00    -0.226 N 
ATOM     33  H11 UNL     1      -3.235   5.716   1.868  1.00  0.00     0.210 HD
HETATM   34  N13 UNL     1      -2.951   3.066   0.352  1.00  0.00    -0.266 N 
ATOM     35  H12 UNL     1      -4.718   4.189   0.517  1.00  0.00     0.210 HD
ATOM     36  H13 UNL     1      -3.271   2.281  -0.215  1.00  0.00     0.190 HD
ENDBRANCH   9  28
BRANCH   4  37
HETATM   37  N3  UNL     1       4.086  -1.193  -0.282  1.00  0.00    -0.127 N 
HETATM   38  C3  UNL     1       3.647  -2.310  -1.096  1.00  0.00     0.165 C 
HETATM   39  C4  UNL     1       4.663  -3.381  -0.892  1.00  0.00     0.040 C 
HETATM   40  C5  UNL     1       5.775  -2.718  -0.149  1.00  0.00     0.137 C 
HETATM   41  N4  UNL     1       5.443  -1.335   0.011  1.00  0.00    -0.124 NA
ENDBRANCH   4  37
BRANCH   1  42
HETATM   42  N1  UNL     1       3.393   2.886   2.053  1.00  0.00    -0.232 N 
ATOM     43  H12 UNL     1       4.381   2.840   2.303  1.00  0.00     0.174 HD
ATOM     44  H11 UNL     1       2.812   3.662   2.370  1.00  0.00     0.174 HD
ENDBRANCH   1  42
TORSDOF 8
