REMARK  7 active torsions:
REMARK  status: ('A' for Active; 'I' for Inactive)
REMARK    1  A    between atoms: N3_6  and  C3_7 
REMARK    2  A    between atoms: C3_7  and  C4_8 
REMARK    3  A    between atoms: C4_8  and  S1_9 
REMARK    4  A    between atoms: S1_9  and  C5_10 
REMARK       I    between atoms: N5_14  and  C7_16 
REMARK       I    between atoms: C7_16  and  N6_17 
REMARK       I    between atoms: C7_16  and  N7_21 
REMARK    5  A    between atoms: C10_30  and  C11_31 
REMARK    6  A    between atoms: C11_31  and  O1_32 
REMARK    7  A    between atoms: C11_31  and  O2_34 
ROOT
HETATM    1  C5  UNL     1      -0.819   0.482   1.293  1.00  0.00     0.151 A 
HETATM    2  N4  UNL     1      -1.918   1.055   1.539  1.00  0.00    -0.322 N 
ATOM      3  H4  UNL     1      -1.860   1.721   2.309  1.00  0.00     0.169 HD
HETATM    4  C6  UNL     1      -3.189   0.971   0.984  1.00  0.00     0.127 A 
HETATM    5  N5  UNL     1      -4.239   1.639   1.353  1.00  0.00    -0.326 N 
ATOM      6  H5  UNL     1      -5.102   1.459   0.839  1.00  0.00     0.164 HD
HETATM    7  C7  UNL     1      -4.306   2.595   2.401  1.00  0.00     0.481 C 
HETATM    8  N6  UNL     1      -4.846   3.840   1.833  1.00  0.00    -0.033 N 
ATOM      9  H61 UNL     1      -4.894   4.527   2.586  1.00  0.00     0.278 HD
ATOM     10  H62 UNL     1      -5.740   3.706   1.360  1.00  0.00     0.278 HD
ATOM     11  H63 UNL     1      -4.316   4.171   1.027  1.00  0.00     0.278 HD
HETATM   12  N7  UNL     1      -3.004   2.940   2.939  1.00  0.00    -0.033 N 
ATOM     13  H71 UNL     1      -3.052   3.627   3.692  1.00  0.00     0.278 HD
ATOM     14  H72 UNL     1      -2.376   3.255   2.199  1.00  0.00     0.278 HD
ATOM     15  H73 UNL     1      -2.502   2.105   3.240  1.00  0.00     0.278 HD
HETATM   16  C8  UNL     1      -3.403   0.055  -0.121  1.00  0.00     0.101 A 
HETATM   17  C9  UNL     1      -4.274  -0.420  -0.971  1.00  0.00     0.139 A 
HETATM   18  N8  UNL     1      -5.641   0.081  -0.906  1.00  0.00    -0.081 NA
HETATM   19  N9  UNL     1      -3.870  -1.378  -1.901  1.00  0.00    -0.337 N 
ATOM     20  H9  UNL     1      -4.552  -1.747  -2.564  1.00  0.00     0.167 HD
HETATM   21  C10 UNL     1      -2.681  -1.799  -1.942  1.00  0.00     0.117 A 
HETATM   22  S2  UNL     1      -1.918  -0.862  -0.614  1.00  0.00    -0.030 SA
HETATM   23  N10 UNL     1      -0.618  -0.520   0.242  1.00  0.00    -0.310 N 
ATOM     24  H10 UNL     1       0.284  -0.964   0.072  1.00  0.00     0.176 HD
ENDROOT
BRANCH   1  25
HETATM   25  S1  UNL     1       0.647   0.864   2.253  1.00  0.00    -0.092 SA
BRANCH  25  26
HETATM   26  C4  UNL     1       2.087  -0.038   1.679  1.00  0.00     0.102 C 
BRANCH  26  27
HETATM   27  C3  UNL     1       2.459   0.470   0.305  1.00  0.00     0.138 C 
BRANCH  27  28
HETATM   28  N3  UNL     1       3.638  -0.288  -0.125  1.00  0.00    -0.339 N 
HETATM   29  C2  UNL     1       3.466  -1.688  -0.404  1.00  0.00     0.251 A 
HETATM   30  N2  UNL     1       4.709  -2.297  -0.826  1.00  0.00    -0.348 N 
HETATM   31  C1  UNL     1       5.820  -1.663  -0.928  1.00  0.00     0.191 A 
ATOM     32  H2  UNL     1       4.702  -3.291  -1.056  1.00  0.00     0.163 HD
HETATM   33  N1  UNL     1       6.986  -2.378  -1.357  1.00  0.00    -0.063 NA
HETATM   34  N12 UNL     1       5.906  -0.279  -0.627  1.00  0.00    -0.305 N 
HETATM   35  C12 UNL     1       4.883   0.387  -0.245  1.00  0.00     0.194 A 
ATOM     36  H12 UNL     1       6.804   0.196  -0.717  1.00  0.00     0.171 HD
HETATM   37  N11 UNL     1       4.994   1.782   0.052  1.00  0.00    -0.063 NA
ENDBRANCH  27  28
ENDBRANCH  26  27
ENDBRANCH  25  26
ENDBRANCH   1  25
BRANCH  21  38
HETATM   38  C11 UNL     1      -1.868  -2.751  -2.718  1.00  0.00     0.313 C 
BRANCH  38  39
HETATM   39  O1  UNL     1      -1.344  -3.736  -1.881  1.00  0.00    -0.365 OA
ATOM     40  H1  UNL     1      -0.820  -4.350  -2.382  1.00  0.00     0.213 HD
ENDBRANCH  38  39
BRANCH  38  41
HETATM   41  O2  UNL     1      -0.781  -2.143  -3.343  1.00  0.00    -0.365 OA
ATOM     42  H2  UNL     1      -0.257  -2.757  -3.844  1.00  0.00     0.213 HD
ENDBRANCH  38  41
ENDBRANCH  21  38
TORSDOF 7
