REMARK  12 active torsions:
REMARK  status: ('A' for Active; 'I' for Inactive)
REMARK    1  A    between atoms: C2_2  and  N1_3 
REMARK    2  A    between atoms: C2_2  and  C13_44 
REMARK    3  A    between atoms: N1_3  and  N2_5 
REMARK    4  A    between atoms: N2_5  and  N3_7 
REMARK    5  A    between atoms: N3_7  and  N4_9 
REMARK       I    between atoms: N4_9  and  C3_11 
REMARK    6  A    between atoms: C3_11  and  C4_13 
REMARK    7  A    between atoms: C5_14  and  O2_15 
REMARK    8  A    between atoms: C6_17  and  O3_18 
REMARK    9  A    between atoms: C8_23  and  C9_24 
REMARK   10  A    between atoms: C10_27  and  C11_28 
REMARK   11  A    between atoms: C11_28  and  N7_29 
REMARK   12  A    between atoms: N9_35  and  N10_36 
ROOT
HETATM    1  C4  UNL     1       1.740   0.102  -0.932  1.00  0.00     0.139 A 
HETATM    2  C5  UNL     1       1.495   0.202  -2.264  1.00  0.00     0.124 A 
HETATM    3  C6  UNL     1       0.162   0.244  -2.711  1.00  0.00     0.146 A 
HETATM    4  C7  UNL     1      -0.914   0.189  -1.856  1.00  0.00     0.169 A 
HETATM    5  N5  UNL     1      -2.252   0.206  -2.017  1.00  0.00    -0.320 N 
ATOM      6  H5  UNL     1      -2.742   0.274  -2.909  1.00  0.00     0.169 HD
HETATM    7  C8  UNL     1      -2.835   0.118  -0.809  1.00  0.00     0.171 A 
HETATM    8  N11 UNL     1      -1.836   0.049   0.077  1.00  0.00    -0.271 N 
ATOM      9  H11 UNL     1      -1.962  -0.025   1.086  1.00  0.00     0.189 HD
HETATM   10  N12 UNL     1      -0.642   0.091  -0.543  1.00  0.00    -0.198 N 
HETATM   11  C12 UNL     1       0.611   0.049  -0.089  1.00  0.00     0.287 A 
HETATM   12  O4  UNL     1       0.792  -0.043   1.143  1.00  0.00    -0.265 OA
ENDROOT
BRANCH   1  13
HETATM   13  C3  UNL     1       3.057   0.034  -0.315  1.00  0.00     0.279 C 
HETATM   14  N4  UNL     1       4.265   0.059  -1.013  1.00  0.00    -0.250 N 
ATOM     15  H4  UNL     1       4.255   0.137  -2.030  1.00  0.00     0.192 HD
HETATM   16  O1  UNL     1       3.122  -0.058   0.964  1.00  0.00    -0.266 OA
BRANCH  14  17
HETATM   17  N3  UNL     1       5.460  -0.019  -0.359  1.00  0.00    -0.225 N 
ATOM     18  H3  UNL     1       6.109  -0.350  -1.073  1.00  0.00     0.210 HD
BRANCH  17  19
HETATM   19  N2  UNL     1       6.111   0.094   0.574  1.00  0.00    -0.228 N 
ATOM     20  H2  UNL     1       7.080  -0.164   0.388  1.00  0.00     0.210 HD
BRANCH  19  21
HETATM   21  N1  UNL     1       5.937   0.478   1.854  1.00  0.00    -0.283 N 
ATOM     22  H1  UNL     1       5.611   1.427   2.039  1.00  0.00     0.188 HD
BRANCH  21  23
HETATM   23  C2  UNL     1       6.163  -0.298   2.851  1.00  0.00     0.099 C 
HETATM   24  C1  UNL     1       5.957   0.169   4.255  1.00  0.00     0.077 C 
BRANCH  23  25
HETATM   25  C13 UNL     1       6.625  -1.643   2.630  1.00  0.00     0.223 C 
HETATM   26  O5  UNL     1       6.850  -2.415   3.608  1.00  0.00    -0.643 OA
HETATM   27  O6  UNL     1       6.836  -2.128   1.351  1.00  0.00    -0.643 OA
ENDBRANCH  23  25
ENDBRANCH  21  23
ENDBRANCH  19  21
ENDBRANCH  17  19
ENDBRANCH  14  17
ENDBRANCH   1  13
BRANCH   2  28
HETATM   28  O2  UNL     1       2.508   0.264  -3.205  1.00  0.00    -0.357 OA
ATOM     29  H2  UNL     1       2.337   0.334  -4.137  1.00  0.00     0.218 HD
ENDBRANCH   2  28
BRANCH   3  30
HETATM   30  O3  UNL     1      -0.058   0.345  -4.054  1.00  0.00    -0.355 OA
ATOM     31  H3  UNL     1      -0.958   0.373  -4.356  1.00  0.00     0.218 HD
ENDBRANCH   3  30
BRANCH   7  32
HETATM   32  C9  UNL     1      -4.282   0.092  -0.530  1.00  0.00     0.192 A 
HETATM   33  N6  UNL     1      -5.279   0.149  -1.429  1.00  0.00    -0.324 N 
HETATM   34  C10 UNL     1      -6.466   0.096  -0.806  1.00  0.00     0.125 A 
ATOM     35  H6  UNL     1      -5.152   0.222  -2.438  1.00  0.00     0.169 HD
HETATM   36  N8  UNL     1      -6.198   0.004   0.503  1.00  0.00    -0.265 N 
HETATM   37  N9  UNL     1      -4.866   0.001   0.678  1.00  0.00    -0.181 N 
ATOM     38  H8  UNL     1      -6.893  -0.054   1.247  1.00  0.00     0.190 HD
BRANCH  34  39
HETATM   39  C11 UNL     1      -7.845   0.120  -1.400  1.00  0.00     0.307 C 
BRANCH  39  40
HETATM   40  N7  UNL     1      -8.230   1.503  -1.525  1.00  0.00    -0.073 N 
ATOM     41  H73 UNL     1      -8.164   2.017  -0.647  1.00  0.00     0.274 HD
ATOM     42  H72 UNL     1      -7.557   2.059  -2.053  1.00  0.00     0.274 HD
ATOM     43  H71 UNL     1      -9.167   1.519  -1.928  1.00  0.00     0.274 HD
ENDBRANCH  39  40
ENDBRANCH  34  39
BRANCH  37  44
HETATM   44  N10 UNL     1      -4.160  -0.082   1.875  1.00  0.00    -0.322 N 
ATOM     45 2H10 UNL     1      -3.149  -0.084   2.008  1.00  0.00     0.179 HD
ATOM     46 1H10 UNL     1      -4.603  -0.151   2.791  1.00  0.00     0.179 HD
ENDBRANCH  37  44
ENDBRANCH   7  32
TORSDOF 12
