REMARK  10 active torsions:
REMARK  status: ('A' for Active; 'I' for Inactive)
REMARK    1  A    between atoms: N1_1  and  C1_4 
REMARK    2  A    between atoms: C2_7  and  O1_8 
REMARK    3  A    between atoms: C3_10  and  N3_11 
REMARK    4  A    between atoms: N6_17  and  N7_18 
REMARK    5  A    between atoms: N7_18  and  C6_19 
REMARK    6  A    between atoms: C6_19  and  C7_20 
REMARK    7  A    between atoms: N9_24  and  C9_25 
REMARK    8  A    between atoms: C9_25  and  C10_26 
REMARK    9  A    between atoms: C12_33  and  N12_34 
REMARK   10  A    between atoms: C13_39  and  N14_40 
ROOT
HETATM    1  N3  UNL     1      -2.985   1.317   0.533  1.00  0.00    -0.246 N 
HETATM    2  C4  UNL     1      -3.847   2.455   0.852  1.00  0.00     0.275 A 
HETATM    3  N4  UNL     1      -2.959   3.468   1.352  1.00  0.00    -0.344 N 
ATOM      4  H4  UNL     1      -3.247   4.395   1.665  1.00  0.00     0.164 HD
HETATM    5  C5  UNL     1      -1.739   3.031   1.347  1.00  0.00     0.224 A 
HETATM    6  N5  UNL     1      -0.605   3.768   1.775  1.00  0.00    -0.061 NA
HETATM    7  N6  UNL     1      -1.686   1.716   0.855  1.00  0.00    -0.165 N 
ENDROOT
BRANCH   7   8
HETATM    8  N7  UNL     1      -0.539   0.917   0.702  1.00  0.00    -0.109 NA
BRANCH   8   9
HETATM    9  C6  UNL     1       0.300   1.405  -0.373  1.00  0.00     0.196 C 
BRANCH   9  10
HETATM   10  C7  UNL     1       1.487   0.511  -0.458  1.00  0.00     0.059 A 
HETATM   11  C8  UNL     1       1.690  -0.507   0.449  1.00  0.00     0.134 A 
HETATM   12  N8  UNL     1       2.773  -1.304   0.348  1.00  0.00    -0.293 N 
HETATM   13  N9  UNL     1       3.684  -1.165  -0.598  1.00  0.00    -0.119 N 
ATOM     14  H8  UNL     1       2.894  -2.049   1.034  1.00  0.00     0.186 HD
HETATM   15  C12 UNL     1       3.483  -0.161  -1.492  1.00  0.00     0.693 A 
HETATM   16  N13 UNL     1       2.418   0.651  -1.424  1.00  0.00    -0.192 N 
ATOM     17  H13 UNL     1       2.310   1.391  -2.118  1.00  0.00     0.184 HD
BRANCH  13  18
HETATM   18  C9  UNL     1       4.847  -2.022  -0.705  1.00  0.00     0.227 C 
BRANCH  18  19
HETATM   19  C10 UNL     1       6.005  -1.449   0.090  1.00  0.00     0.054 A 
HETATM   20  C11 UNL     1       6.175  -1.784   1.413  1.00  0.00     0.097 A 
HETATM   21  S1  UNL     1       7.577  -0.893   1.808  1.00  0.00    -0.009 SA
HETATM   22  N10 UNL     1       7.845  -0.176   0.309  1.00  0.00    -0.270 N 
HETATM   23  N11 UNL     1       6.874  -0.634  -0.422  1.00  0.00    -0.297 N 
ATOM     24  H10 UNL     1       8.591   0.465   0.039  1.00  0.00     0.195 HD
ATOM     25  H11 UNL     1       6.795  -0.352  -1.399  1.00  0.00     0.187 HD
ENDBRANCH  18  19
ENDBRANCH  13  18
BRANCH  15  26
HETATM   26  N12 UNL     1       4.359  -0.017  -2.413  1.00  0.00    -0.233 N 
ATOM     27 2H12 UNL     1       5.169  -0.635  -2.465  1.00  0.00     0.174 HD
ATOM     28 1H12 UNL     1       4.208   0.736  -3.084  1.00  0.00     0.174 HD
ENDBRANCH  15  26
ENDBRANCH   9  10
ENDBRANCH   8   9
ENDBRANCH   7   8
BRANCH   1  29
HETATM   29  C3  UNL     1      -3.429   0.082   0.006  1.00  0.00     0.149 A 
HETATM   30  C2  UNL     1      -3.798  -0.960   0.834  1.00  0.00     0.188 A 
HETATM   31  N2  UNL     1      -4.222  -2.141   0.361  1.00  0.00    -0.168 N 
HETATM   32  C1  UNL     1      -4.291  -2.315  -0.968  1.00  0.00     0.679 A 
ATOM     33  H2  UNL     1      -4.487  -2.892   0.998  1.00  0.00     0.186 HD
HETATM   34  N15 UNL     1      -3.943  -1.332  -1.827  1.00  0.00    -0.175 N 
HETATM   35  C13 UNL     1      -3.515  -0.142  -1.353  1.00  0.00     0.147 A 
ATOM     36  H15 UNL     1      -4.003  -1.489  -2.833  1.00  0.00     0.186 HD
BRANCH  30  37
HETATM   37  O1  UNL     1      -3.717  -0.753   2.192  1.00  0.00    -0.344 OA
ATOM     38  H1  UNL     1      -3.417   0.084   2.527  1.00  0.00     0.219 HD
ENDBRANCH  30  37
BRANCH  32  39
HETATM   39  N1  UNL     1      -4.692  -3.428  -1.481  1.00  0.00    -0.234 N 
ATOM     40  H12 UNL     1      -4.955  -4.170  -0.832  1.00  0.00     0.174 HD
ATOM     41  H11 UNL     1      -4.744  -3.560  -2.491  1.00  0.00     0.174 HD
ENDBRANCH  32  39
BRANCH  35  42
HETATM   42  N14 UNL     1      -3.176   0.820  -2.159  1.00  0.00    -0.383 N 
ATOM     43 2H14 UNL     1      -2.853   1.719  -1.801  1.00  0.00     0.157 HD
ATOM     44 1H14 UNL     1      -3.240   0.654  -3.163  1.00  0.00     0.157 HD
ENDBRANCH  35  42
ENDBRANCH   1  29
TORSDOF 10
