REMARK  9 active torsions:
REMARK  status: ('A' for Active; 'I' for Inactive)
REMARK    1  A    between atoms: N3_4  and  C2_6 
REMARK    2  A    between atoms: C2_6  and  O1_7 
REMARK    3  A    between atoms: C2_6  and  C3_9 
REMARK    4  A    between atoms: C4_10  and  O2_11 
REMARK    5  A    between atoms: N5_15  and  N6_16 
REMARK       I    between atoms: N6_16  and  C5_18 
REMARK       I    between atoms: C5_18  and  N7_20 
REMARK    6  A    between atoms: N7_20  and  N8_22 
REMARK    7  A    between atoms: C6_24  and  C7_25 
REMARK    8  A    between atoms: N11_30  and  C8_31 
REMARK    9  A    between atoms: C12_42  and  O4_43 
ROOT
HETATM    1  N6  UNL     1       1.577  -1.230  -0.346  1.00  0.00    -0.227 N 
ATOM      2  H6  UNL     1       1.505  -1.215  -1.363  1.00  0.00     0.194 HD
HETATM    3  C5  UNL     1       0.739  -2.070   0.433  1.00  0.00     0.355 C 
HETATM    4  O3  UNL     1       0.810  -2.107   1.690  1.00  0.00    -0.244 OA
HETATM    5  N7  UNL     1      -0.201  -2.885  -0.256  1.00  0.00    -0.251 N 
ATOM      6  H7  UNL     1      -0.262  -2.857  -1.274  1.00  0.00     0.191 HD
ENDROOT
BRANCH   1   7
HETATM    7  N5  UNL     1       2.501  -0.427   0.319  1.00  0.00    -0.166 N 
HETATM    8  N4  UNL     1       2.691  -0.358   1.644  1.00  0.00    -0.256 N 
HETATM    9  C4  UNL     1       3.658   0.514   1.935  1.00  0.00     0.171 A 
ATOM     10  H4  UNL     1       2.169  -0.897   2.334  1.00  0.00     0.191 HD
HETATM   11  C3  UNL     1       4.096   1.016   0.733  1.00  0.00     0.096 A 
HETATM   12  C12 UNL     1       3.378   0.431  -0.260  1.00  0.00     0.194 A 
BRANCH   9  13
HETATM   13  O2  UNL     1       4.093   0.815   3.210  1.00  0.00    -0.344 OA
ATOM     14  H2  UNL     1       3.790   0.468   4.041  1.00  0.00     0.219 HD
ENDBRANCH   9  13
BRANCH  11  15
HETATM   15  C2  UNL     1       5.185   2.039   0.549  1.00  0.00     0.263 C 
BRANCH  15  16
HETATM   16  N3  UNL     1       6.050   1.614  -0.516  1.00  0.00    -0.337 N 
HETATM   17  C1  UNL     1       6.696   0.522  -0.420  1.00  0.00     0.199 C 
HETATM   18  N1  UNL     1       7.542   0.116  -1.474  1.00  0.00    -0.067 NA
HETATM   19  N2  UNL     1       6.572  -0.287   0.739  1.00  0.00    -0.067 NA
ATOM     20  H3  UNL     1       6.147   2.190  -1.352  1.00  0.00     0.164 HD
ENDBRANCH  15  16
BRANCH  15  21
HETATM   21  O1  UNL     1       5.872   2.183   1.741  1.00  0.00    -0.372 OA
ATOM     22  H1  UNL     1       5.300   2.464   2.445  1.00  0.00     0.212 HD
ENDBRANCH  15  21
ENDBRANCH  11  15
BRANCH  12  23
HETATM   23  O4  UNL     1       3.464   0.620  -1.625  1.00  0.00    -0.343 OA
ATOM     24  H4  UNL     1       2.962   0.211  -2.320  1.00  0.00     0.219 HD
ENDBRANCH  12  23
ENDBRANCH   1   7
BRANCH   5  25
HETATM   25  N8  UNL     1      -1.037  -3.722   0.479  1.00  0.00    -0.304 N 
HETATM   26  C6  UNL     1      -2.267  -3.426   0.655  1.00  0.00     0.158 C 
ATOM     27  H8  UNL     1      -0.663  -4.581   0.881  1.00  0.00     0.186 HD
BRANCH  26  28
HETATM   28  C7  UNL     1      -2.804  -2.199   0.080  1.00  0.00     0.154 A 
HETATM   29  N9  UNL     1      -2.186  -1.275  -0.644  1.00  0.00    -0.267 N 
HETATM   30  N10 UNL     1      -3.055  -0.333  -0.956  1.00  0.00    -0.218 N 
ATOM     31  H9  UNL     1      -1.203  -1.290  -0.914  1.00  0.00     0.190 HD
HETATM   32  N11 UNL     1      -4.238  -0.606  -0.457  1.00  0.00    -0.167 N 
ATOM     33  H10 UNL     1      -2.837   0.495  -1.510  1.00  0.00     0.210 HD
HETATM   34  N15 UNL     1      -4.094  -1.751   0.182  1.00  0.00    -0.259 N 
ATOM     35  H15 UNL     1      -4.839  -2.235   0.682  1.00  0.00     0.191 HD
BRANCH  32  36
HETATM   36  C8  UNL     1      -5.446   0.146  -0.560  1.00  0.00     0.130 A 
HETATM   37  N12 UNL     1      -6.602  -0.410  -0.579  1.00  0.00    -0.317 N 
HETATM   38  C9  UNL     1      -7.813   0.340  -0.683  1.00  0.00     0.193 A 
ATOM     39  H12 UNL     1      -6.658  -1.427  -0.517  1.00  0.00     0.170 HD
HETATM   40  N13 UNL     1      -9.083  -0.322  -0.699  1.00  0.00    -0.063 NA
HETATM   41  N14 UNL     1      -7.728   1.603  -0.758  1.00  0.00    -0.344 N 
HETATM   42  C10 UNL     1      -6.551   2.367  -0.751  1.00  0.00     0.071 A 
ATOM     43  H14 UNL     1      -8.606   2.117  -0.831  1.00  0.00     0.167 HD
HETATM   44  C11 UNL     1      -5.284   1.613  -0.643  1.00  0.00     0.124 A 
ENDBRANCH  32  36
ENDBRANCH  26  28
ENDBRANCH   5  25
TORSDOF 9
