REMARK  10 active torsions:
REMARK  status: ('A' for Active; 'I' for Inactive)
REMARK    1  A    between atoms: C2_2  and  C3_3 
REMARK    2  A    between atoms: C3_3  and  C5_5 
REMARK    3  A    between atoms: C6_6  and  C7_7 
REMARK    4  A    between atoms: C9_9  and  C10_10 
REMARK    5  A    between atoms: C10_10  and  C11_11 
REMARK    6  A    between atoms: C12_12  and  O1_14 
REMARK    7  A    between atoms: C16_18  and  C18_20 
REMARK    8  A    between atoms: C24_30  and  C26_32 
REMARK    9  A    between atoms: C26_32  and  O3_33 
REMARK   10  A    between atoms: O3_33  and  C27_34 
ROOT
HETATM    1  C11 UNL     1      -0.466   0.038   0.224  1.00  0.00     0.034 C 
HETATM    2  C12 UNL     1      -0.610  -1.429   0.465  1.00  0.00     0.059 C 
HETATM    3  C13 UNL     1       0.468  -1.916   1.460  1.00  0.00     0.046 C 
HETATM    4  C14 UNL     1      -1.917  -1.817   1.064  1.00  0.00     0.044 C 
HETATM    5  C15 UNL     1      -3.156  -1.183   0.539  1.00  0.00     0.011 C 
HETATM    6  C16 UNL     1      -4.074  -2.113  -0.204  1.00  0.00    -0.002 C 
HETATM    7  C17 UNL     1      -5.552  -1.723  -0.001  1.00  0.00     0.021 C 
HETATM    8  C19 UNL     1      -3.873  -2.256  -1.653  1.00  0.00     0.093 C 
HETATM    9  C20 UNL     1      -3.675  -0.931  -2.240  1.00  0.00     0.128 C 
HETATM   10  O2  UNL     1      -3.925  -0.794  -3.428  1.00  0.00    -0.298 OA
HETATM   11  C21 UNL     1      -3.198   0.274  -1.528  1.00  0.00     0.088 C 
HETATM   12  C22 UNL     1      -3.006   0.180  -0.070  1.00  0.00    -0.023 C 
HETATM   13  C23 UNL     1      -4.102   1.062   0.540  1.00  0.00     0.017 C 
HETATM   14  C24 UNL     1      -1.692   0.839   0.356  1.00  0.00    -0.007 C 
HETATM   15  C25 UNL     1      -1.897   1.105   1.865  1.00  0.00     0.019 C 
ENDROOT
BRANCH   1  16
HETATM   16  C10 UNL     1       0.390   0.339  -1.015  1.00  0.00     0.036 C 
BRANCH  16  17
HETATM   17  C9  UNL     1       1.750  -0.218  -0.857  1.00  0.00    -0.020 C 
HETATM   18  C7  UNL     1       2.882   0.457  -0.857  1.00  0.00    -0.066 C 
HETATM   19  C8  UNL     1       3.019   1.921  -1.015  1.00  0.00     0.048 C 
BRANCH  18  20
HETATM   20  C6  UNL     1       4.170  -0.258  -0.686  1.00  0.00     0.003 C 
HETATM   21  C5  UNL     1       5.330   0.310  -0.675  1.00  0.00    -0.018 C 
BRANCH  21  22
HETATM   22  C3  UNL     1       6.584  -0.461  -0.499  1.00  0.00     0.026 C 
HETATM   23  C4  UNL     1       6.330  -1.935  -0.343  1.00  0.00     0.018 C 
BRANCH  22  24
HETATM   24  C2  UNL     1       7.245   0.038   0.728  1.00  0.00    -0.029 C 
HETATM   25  C1  UNL     1       8.451   0.565   0.692  1.00  0.00     0.007 C 
ENDBRANCH  22  24
ENDBRANCH  21  22
ENDBRANCH  18  20
ENDBRANCH  16  17
ENDBRANCH   1  16
BRANCH   2  26
HETATM   26  O1  UNL     1      -0.389  -2.229  -0.651  1.00  0.00    -0.390 OA
ATOM     27  H1  UNL     1      -0.481  -3.162  -0.498  1.00  0.00     0.210 HD
ENDBRANCH   2  26
BRANCH  14  28
HETATM   28  C26 UNL     1      -1.611   2.213  -0.258  1.00  0.00     0.189 C 
BRANCH  28  29
HETATM   29  O3  UNL     1      -0.593   2.999   0.346  1.00  0.00    -0.321 OA
BRANCH  29  30
HETATM   30  C27 UNL     1      -0.306   4.284  -0.017  1.00  0.00     0.254 C 
HETATM   31  C28 UNL     1       0.759   5.111   0.613  1.00  0.00     0.126 C 
HETATM   32  O4  UNL     1      -1.006   4.790  -0.959  1.00  0.00    -0.266 OA
ENDBRANCH  29  30
ENDBRANCH  28  29
ENDBRANCH  14  28
BRANCH   6  33
HETATM   33  C18 UNL     1      -3.984  -3.471   0.419  1.00  0.00     0.062 C 
HETATM   34  N1  UNL     1      -4.421  -3.732   1.585  1.00  0.00    -0.410 N 
ATOM     35  H12 UNL     1      -4.850  -2.968   2.107  1.00  0.00     0.155 HD
ATOM     36  H11 UNL     1      -4.360  -4.657   2.010  1.00  0.00     0.155 HD
ENDBRANCH   6  33
TORSDOF 10
