REMARK  2 active torsions:
REMARK  status: ('A' for Active; 'I' for Inactive)
REMARK    1  A    between atoms: O1_1  and  C1_3 
REMARK    2  A    between atoms: C1_3  and  C2_4 
ROOT
HETATM    1  C2  UNL     1       1.729  -0.368   0.519  1.00  0.00     0.184 C 
HETATM    2  C3  UNL     1       0.904   0.214  -0.625  1.00  0.00     0.044 C 
HETATM    3  C4  UNL     1      -0.477  -0.321  -0.592  1.00  0.00     0.020 C 
HETATM    4  C5  UNL     1      -1.520   0.505  -1.258  1.00  0.00     0.007 C 
HETATM    5  C6  UNL     1      -2.794   0.052  -0.566  1.00  0.00     0.003 C 
HETATM    6  C7  UNL     1      -2.358  -0.698   0.686  1.00  0.00     0.035 C 
HETATM    7  C8  UNL     1      -0.954  -0.233   0.869  1.00  0.00     0.164 C 
HETATM    8  O2  UNL     1      -0.135  -1.077   1.579  1.00  0.00    -0.235 OA
HETATM    9  O3  UNL     1       1.038  -0.485   1.687  1.00  0.00    -0.233 OA
ENDROOT
BRANCH   1  10
HETATM   10  C1  UNL     1       2.867   0.627   0.754  1.00  0.00     0.199 C 
BRANCH  10  11
HETATM   11  O1  UNL     1       3.587   0.758  -0.437  1.00  0.00    -0.398 OA
ATOM     12  H1  UNL     1       4.294   1.376  -0.291  1.00  0.00     0.209 HD
ENDBRANCH  10  11
ENDBRANCH   1  10
TORSDOF 2
