REMARK  2 active torsions:
REMARK  status: ('A' for Active; 'I' for Inactive)
REMARK    1  A    between atoms: C2_2  and  C3_3 
REMARK    2  A    between atoms: C3_3  and  O1_4 
ROOT
HETATM    1  C3  UNL     1      -0.460  -0.194   0.531  1.00  0.00     0.101 C 
HETATM    2  C4  UNL     1       0.077   1.179   0.213  1.00  0.00     0.210 C 
HETATM    3  O2  UNL     1       0.928   1.187  -0.870  1.00  0.00    -0.383 OA
HETATM    4  C5  UNL     1       2.129   0.588  -0.469  1.00  0.00     0.214 C 
HETATM    5  C6  UNL     1       1.840  -0.837  -0.159  1.00  0.00     0.014 C 
HETATM    6  S1  UNL     1       2.874  -1.802  -0.377  1.00  0.00    -0.087 SA
HETATM    7  C7  UNL     1       0.542  -1.279   0.359  1.00  0.00     0.092 C 
ENDROOT
BRANCH   1   8
HETATM    8  C2  UNL     1      -1.659  -0.408  -0.335  1.00  0.00     0.003 C 
HETATM    9  C1  UNL     1      -2.800   0.181  -0.010  1.00  0.00     0.010 C 
ENDBRANCH   1   8
BRANCH   1  10
HETATM   10  O1  UNL     1      -0.951  -0.145   1.853  1.00  0.00    -0.383 OA
ATOM     11  H1  UNL     1      -0.189  -0.009   2.404  1.00  0.00     0.211 HD
ENDBRANCH   1  10
TORSDOF 2
