REMARK  1 active torsions:
REMARK  status: ('A' for Active; 'I' for Inactive)
REMARK    1  A    between atoms: C2_3  and  C3_4 
ROOT
HETATM    1  N1  UNL     1       4.826   0.604   1.125  1.00  0.00    -0.197 NA
HETATM    2  C1  UNL     1       4.045   0.048   0.485  1.00  0.00     0.063 C 
HETATM    3  C2  UNL     1       3.062  -0.654  -0.312  1.00  0.00     0.185 C 
ENDROOT
BRANCH   3   4
HETATM    4  C3  UNL     1       1.698   0.033  -0.215  1.00  0.00     0.334 C 
HETATM    5  N2  UNL     1       1.312   0.017   1.174  1.00  0.00    -0.045 N 
HETATM    6  C4  UNL     1      -0.092  -0.357   1.195  1.00  0.00     0.273 C 
ATOM      7  H22 UNL     1       1.901  -0.581   1.753  1.00  0.00     0.280 HD
ATOM      8  H21 UNL     1       1.507   0.892   1.661  1.00  0.00     0.280 HD
HETATM    9  C5  UNL     1      -0.441  -0.305  -0.275  1.00  0.00     0.087 C 
HETATM   10  C6  UNL     1      -0.839   1.089  -0.640  1.00  0.00     0.040 C 
HETATM   11  C9  UNL     1      -1.632  -1.131  -0.594  1.00  0.00     0.040 C 
HETATM   12  O1  UNL     1       0.733  -0.730  -0.870  1.00  0.00    -0.345 OA
HETATM   13  C7  UNL     1      -2.300   1.148  -0.303  1.00  0.00     0.003 C 
HETATM   14  C8  UNL     1      -2.771  -0.265  -0.073  1.00  0.00     0.003 C 
ENDBRANCH   3   4
TORSDOF 1
