REMARK  2 active torsions:
REMARK  status: ('A' for Active; 'I' for Inactive)
REMARK    1  A    between atoms: O1_1  and  C1_3 
REMARK    2  A    between atoms: C1_3  and  C2_4 
ROOT
HETATM    1  C2  UNL     1      -1.362   0.276   0.241  1.00  0.00     0.146 C 
HETATM    2  C3  UNL     1      -1.223  -1.009  -0.529  1.00  0.00     0.037 C 
HETATM    3  C4  UNL     1       0.217  -1.387  -0.267  1.00  0.00     0.043 C 
HETATM    4  C5  UNL     1       0.762  -0.093   0.291  1.00  0.00     0.085 C 
HETATM    5  C6  UNL     1       1.108   0.887  -0.801  1.00  0.00     0.066 C 
HETATM    6  C7  UNL     1       2.623   0.775  -0.845  1.00  0.00     0.170 C 
HETATM    7  O2  UNL     1       2.952  -0.371  -0.121  1.00  0.00    -0.388 OA
HETATM    8  C8  UNL     1       2.083  -0.273   0.990  1.00  0.00     0.205 C 
HETATM    9  O3  UNL     1      -0.252   0.329   1.115  1.00  0.00    -0.370 OA
ENDROOT
BRANCH   1  10
HETATM   10  C1  UNL     1      -2.647   0.253   1.044  1.00  0.00     0.196 C 
BRANCH  10  11
HETATM   11  O1  UNL     1      -3.697   0.202   0.153  1.00  0.00    -0.398 OA
ATOM     12  H1  UNL     1      -4.503   0.188   0.656  1.00  0.00     0.209 HD
ENDBRANCH  10  11
ENDBRANCH   1  10
TORSDOF 2
