REMARK  9 active torsions:
REMARK  status: ('A' for Active; 'I' for Inactive)
REMARK    1  A    between atoms: O1_2  and  C2_3 
REMARK    2  A    between atoms: C3_4  and  O2_5 
REMARK    3  A    between atoms: C5_7  and  O3_8 
REMARK    4  A    between atoms: C8_11  and  O4_12 
REMARK    5  A    between atoms: C11_16  and  O5_17 
REMARK    6  A    between atoms: C13_20  and  O6_21 
REMARK    7  A    between atoms: C17_28  and  O8_29 
REMARK    8  A    between atoms: C20_32  and  O9_33 
REMARK    9  A    between atoms: O9_33  and  C21_34 
ROOT
HETATM    1  C2  UNL     1      -3.954   0.842   0.149  1.00  0.00     0.138 A 
HETATM    2  C3  UNL     1      -3.761  -0.247  -0.632  1.00  0.00     0.139 A 
HETATM    3  C5  UNL     1      -2.494  -0.780  -0.871  1.00  0.00     0.118 A 
HETATM    4  C7  UNL     1      -1.405  -0.157  -0.279  1.00  0.00     0.050 A 
HETATM    5  C8  UNL     1      -0.111  -0.656  -0.516  1.00  0.00     0.093 A 
HETATM    6  C9  UNL     1       0.984  -0.054   0.047  1.00  0.00     0.041 A 
HETATM    7  C10 UNL     1       0.793   1.065   0.851  1.00  0.00     0.085 A 
HETATM    8  C11 UNL     1      -0.457   1.572   1.095  1.00  0.00     0.107 A 
HETATM    9  C12 UNL     1      -1.548   0.970   0.538  1.00  0.00     0.051 A 
HETATM   10  C13 UNL     1      -2.828   1.457   0.743  1.00  0.00     0.116 A 
HETATM   11  N1  UNL     1       2.106   1.520   1.243  1.00  0.00    -0.310 N 
HETATM   12  C14 UNL     1       2.874   2.230   2.162  1.00  0.00     0.099 C 
HETATM   13  C15 UNL     1       4.162   2.052   1.964  1.00  0.00     0.073 C 
HETATM   14  C16 UNL     1       4.322   1.137   0.807  1.00  0.00     0.211 C 
HETATM   15  O7  UNL     1       5.485   0.644   0.541  1.00  0.00    -0.287 OA
HETATM   16  C17 UNL     1       3.034   0.996   0.191  1.00  0.00     0.238 C 
HETATM   17  C19 UNL     1       2.454  -0.369   0.053  1.00  0.00     0.043 C 
HETATM   18  C20 UNL     1       2.916  -1.561   0.052  1.00  0.00     0.160 C 
ENDROOT
BRANCH  16  19
HETATM   19  O8  UNL     1       2.845   1.752  -0.960  1.00  0.00    -0.354 OA
HETATM   20  C18 UNL     1       3.667   1.325  -1.977  1.00  0.00     0.206 C 
ENDBRANCH  16  19
BRANCH  18  21
HETATM   21  O9  UNL     1       4.251  -1.902   0.045  1.00  0.00    -0.275 OA
BRANCH  21  22
HETATM   22  C21 UNL     1       4.903  -2.330  -1.129  1.00  0.00     0.377 C 
HETATM   23  N2  UNL     1       6.281  -2.671  -1.129  1.00  0.00    -0.032 NA
HETATM   24  O10 UNL     1       4.244  -2.407  -2.184  1.00  0.00    -0.242 OA
ENDBRANCH  21  22
ENDBRANCH  18  21
BRANCH   5  25
HETATM   25  O4  UNL     1       0.039  -1.751  -1.329  1.00  0.00    -0.359 OA
ATOM     26  H4  UNL     1       0.913  -2.088  -1.489  1.00  0.00     0.217 HD
ENDBRANCH   5  25
BRANCH   8  27
HETATM   27  O5  UNL     1      -0.579   2.675   1.896  1.00  0.00    -0.357 OA
ATOM     28  H5  UNL     1      -1.445   3.026   2.065  1.00  0.00     0.217 HD
ENDBRANCH   8  27
BRANCH   3  29
HETATM   29  O3  UNL     1      -2.359  -1.897  -1.679  1.00  0.00    -0.352 OA
HETATM   30  C6  UNL     1      -2.466  -3.241  -1.238  1.00  0.00     0.210 C 
ENDBRANCH   3  29
BRANCH   2  31
HETATM   31  O2  UNL     1      -4.870  -0.854  -1.221  1.00  0.00    -0.351 OA
HETATM   32  C4  UNL     1      -5.630  -1.787  -0.496  1.00  0.00     0.210 C 
ENDBRANCH   2  31
BRANCH  10  33
HETATM   33  O6  UNL     1      -3.077   2.531   1.508  1.00  0.00    -0.357 OA
ATOM     34  H6  UNL     1      -2.320   2.944   1.907  1.00  0.00     0.217 HD
ENDBRANCH  10  33
BRANCH   1  35
HETATM   35  O1  UNL     1      -5.230   1.383   0.393  1.00  0.00    -0.351 OA
HETATM   36  C1  UNL     1      -5.652   2.380  -0.536  1.00  0.00     0.210 C 
ENDBRANCH   1  35
TORSDOF 9
