REMARK  8 active torsions:
REMARK  status: ('A' for Active; 'I' for Inactive)
REMARK    1  A    between atoms: C13_17  and  S1_18 
REMARK    2  A    between atoms: C15_23  and  C16_24 
REMARK    3  A    between atoms: C16_24  and  C17_25 
REMARK    4  A    between atoms: C17_25  and  O8_26 
REMARK    5  A    between atoms: C17_25  and  C18_28 
REMARK    6  A    between atoms: C18_28  and  C19_32 
REMARK    7  A    between atoms: C19_32  and  O9_33 
REMARK    8  A    between atoms: N2_35  and  O10_37 
ROOT
HETATM    1  C1  UNL     1       1.230   2.210  -3.207  1.00  0.00     0.043 C 
HETATM    2  C2  UNL     1       0.245   1.638  -2.220  1.00  0.00    -0.080 C 
HETATM    3  C3  UNL     1      -1.038   1.765  -2.305  1.00  0.00     0.009 C 
HETATM    4  C4  UNL     1      -1.674   1.073  -1.164  1.00  0.00     0.163 C 
HETATM    5  O1  UNL     1      -2.294   1.898  -0.299  1.00  0.00    -0.346 OA
HETATM    6  C5  UNL     1      -1.622   2.559   0.668  1.00  0.00     0.158 C 
HETATM    7  C6  UNL     1      -1.085   3.924   0.204  1.00  0.00     0.078 C 
HETATM    8  C7  UNL     1      -2.645   2.935   1.758  1.00  0.00     0.078 C 
HETATM    9  O2  UNL     1      -0.653   1.734   1.167  1.00  0.00    -0.347 OA
HETATM   10  C8  UNL     1      -0.770   0.382   0.911  1.00  0.00     0.164 C 
HETATM   11  C9  UNL     1      -1.871  -0.334   1.569  1.00  0.00     0.204 C 
HETATM   12  O3  UNL     1      -2.450  -1.375   0.857  1.00  0.00    -0.353 OA
HETATM   13  C10 UNL     1      -1.640  -2.484   0.808  1.00  0.00     0.158 C 
HETATM   14  C11 UNL     1      -2.517  -3.703   0.575  1.00  0.00     0.078 C 
HETATM   15  C12 UNL     1      -0.941  -2.769   2.153  1.00  0.00     0.078 C 
HETATM   16  O4  UNL     1      -0.667  -2.267  -0.070  1.00  0.00    -0.332 OA
HETATM   17  C13 UNL     1      -0.742  -1.275  -1.002  1.00  0.00     0.283 C 
HETATM   18  C14 UNL     1      -0.627   0.127  -0.602  1.00  0.00     0.068 C 
HETATM   19  C15 UNL     1       0.639   0.850  -0.985  1.00  0.00     0.034 C 
ENDROOT
BRANCH  19  20
HETATM   20  C16 UNL     1       1.846   0.127  -1.373  1.00  0.00     0.048 C 
BRANCH  20  21
HETATM   21  C17 UNL     1       2.565  -0.741  -0.414  1.00  0.00     0.172 C 
BRANCH  21  22
HETATM   22  O8  UNL     1       3.662  -1.269  -1.172  1.00  0.00    -0.389 OA
ATOM     23  H8  UNL     1       4.124  -1.826  -0.556  1.00  0.00     0.210 HD
ENDBRANCH  21  22
BRANCH  21  24
HETATM   24  C18 UNL     1       3.269   0.030   0.676  1.00  0.00     0.085 C 
HETATM   25  N1  UNL     1       3.265   1.313   0.740  1.00  0.00    -0.397 N 
ATOM     26  H12 UNL     1       2.749   1.806   0.011  1.00  0.00     0.156 HD
ATOM     27  H11 UNL     1       3.741   1.834   1.477  1.00  0.00     0.156 HD
BRANCH  24  28
HETATM   28  C19 UNL     1       4.006  -0.674   1.718  1.00  0.00     0.185 C 
HETATM   29  N2  UNL     1       4.618  -0.052   2.651  1.00  0.00    -0.246 N 
ATOM     30  H2  UNL     1       4.606   0.967   2.691  1.00  0.00     0.196 HD
BRANCH  28  31
HETATM   31  O9  UNL     1       4.026  -2.075   1.669  1.00  0.00    -0.343 OA
ATOM     32  H9  UNL     1       4.506  -2.534   2.348  1.00  0.00     0.219 HD
ENDBRANCH  28  31
BRANCH  29  33
HETATM   33  O10 UNL     1       5.292  -0.780   3.599  1.00  0.00    -0.288 OA
ATOM     34  H10 UNL     1       5.747  -0.317   4.293  1.00  0.00     0.244 HD
ENDBRANCH  29  33
ENDBRANCH  24  28
ENDBRANCH  21  24
ENDBRANCH  20  21
ENDBRANCH  19  20
BRANCH  17  35
HETATM   35  S1  UNL     1      -1.836  -1.711  -2.317  1.00  0.00     0.132 S 
HETATM   36  O5  UNL     1      -1.524  -0.985  -3.605  1.00  0.00    -0.593 OA
HETATM   37  O6  UNL     1      -1.500  -3.169  -2.659  1.00  0.00    -0.593 OA
HETATM   38  O7  UNL     1      -3.442  -1.675  -2.011  1.00  0.00    -0.593 OA
ENDBRANCH  17  35
TORSDOF 8
