REMARK  4 active torsions:
REMARK  status: ('A' for Active; 'I' for Inactive)
REMARK    1  A    between atoms: N1_1  and  C1_4 
REMARK    2  A    between atoms: C2_7  and  N3_8 
REMARK    3  A    between atoms: N3_8  and  C3_10 
REMARK    4  A    between atoms: N8_23  and  O3_24 
ROOT
HETATM    1  C1  UNL     1      -2.935  -0.031  -0.413  1.00  0.00     0.721 A 
HETATM    2  N2  UNL     1      -1.803   0.288  -1.070  1.00  0.00    -0.019 N 
ATOM      3  H2  UNL     1      -1.866   0.594  -2.041  1.00  0.00     0.203 HD
HETATM    4  C2  UNL     1      -0.595   0.216  -0.489  1.00  0.00     0.715 A 
HETATM    5  N7  UNL     1      -0.546  -0.190   0.789  1.00  0.00    -0.138 N 
ATOM      6  H7  UNL     1       0.357  -0.255   1.259  1.00  0.00     0.189 HD
HETATM    7  C5  UNL     1      -1.670  -0.514   1.465  1.00  0.00     0.380 A 
HETATM    8  O2  UNL     1      -1.597  -0.897   2.677  1.00  0.00    -0.243 OA
HETATM    9  N8  UNL     1      -2.879  -0.436   0.862  1.00  0.00     0.004 N 
ENDROOT
BRANCH   4  10
HETATM   10  N3  UNL     1       0.445   0.538  -1.181  1.00  0.00    -0.020 N 
ATOM     11  H3  UNL     1       0.321   0.837  -2.148  1.00  0.00     0.203 HD
BRANCH  10  12
HETATM   12  C3  UNL     1       1.759   0.489  -0.638  1.00  0.00     0.715 A 
HETATM   13  N4  UNL     1       2.556   1.525  -0.277  1.00  0.00    -0.127 N 
HETATM   14  N5  UNL     1       3.704   1.060   0.186  1.00  0.00    -0.237 N 
ATOM     15  H4  UNL     1       2.308   2.512  -0.351  1.00  0.00     0.205 HD
HETATM   16  C4  UNL     1       3.685  -0.284   0.138  1.00  0.00     0.353 A 
ATOM     17  H5  UNL     1       4.479   1.629   0.525  1.00  0.00     0.192 HD
HETATM   18  O1  UNL     1       4.617  -1.072   0.502  1.00  0.00    -0.245 OA
HETATM   19  N6  UNL     1       2.479  -0.617  -0.372  1.00  0.00    -0.138 N 
ATOM     20  H6  UNL     1       2.159  -1.572  -0.533  1.00  0.00     0.189 HD
ENDBRANCH  10  12
ENDBRANCH   4  10
BRANCH   1  21
HETATM   21  N1  UNL     1      -4.110   0.037  -0.975  1.00  0.00    -0.232 N 
ATOM     22  H12 UNL     1      -4.153   0.346  -1.946  1.00  0.00     0.174 HD
ATOM     23  H11 UNL     1      -4.967  -0.205  -0.478  1.00  0.00     0.174 HD
ENDBRANCH   1  21
BRANCH   9  24
HETATM   24  O3  UNL     1      -4.037  -0.766   1.546  1.00  0.00    -0.265 OA
ATOM     25  H3  UNL     1      -3.997  -1.053   2.451  1.00  0.00     0.246 HD
ENDBRANCH   9  24
TORSDOF 4
