REMARK  5 active torsions:
REMARK  status: ('A' for Active; 'I' for Inactive)
REMARK    1  A    between atoms: N1_1  and  C1_4 
REMARK    2  A    between atoms: N5_17  and  C6_18 
REMARK    3  A    between atoms: C6_18  and  O3_19 
REMARK    4  A    between atoms: O3_19  and  C7_20 
REMARK    5  A    between atoms: C7_20  and  O4_21 
ROOT
HETATM    1  C1  UNL     1      -2.825  -0.497   0.098  1.00  0.00     0.134 A 
HETATM    2  N2  UNL     1      -3.112   0.567  -0.679  1.00  0.00    -0.293 N 
ATOM      3  H2  UNL     1      -4.073   0.756  -0.963  1.00  0.00     0.172 HD
HETATM    4  C2  UNL     1      -2.121   1.367  -1.070  1.00  0.00     0.327 A 
HETATM    5  O1  UNL     1      -2.391   2.370  -1.803  1.00  0.00    -0.247 OA
HETATM    6  N3  UNL     1      -0.844   1.150  -0.716  1.00  0.00    -0.292 N 
ATOM      7  H3  UNL     1      -0.120   1.791  -1.041  1.00  0.00     0.172 HD
HETATM    8  C3  UNL     1      -0.497   0.096   0.065  1.00  0.00     0.148 A 
HETATM    9  C4  UNL     1      -1.518  -0.738   0.474  1.00  0.00     0.125 A 
HETATM   10  N4  UNL     1      -0.939  -1.701   1.228  1.00  0.00    -0.302 N 
ATOM     11  H4  UNL     1      -1.418  -2.478   1.684  1.00  0.00     0.171 HD
HETATM   12  C5  UNL     1       0.378  -1.450   1.268  1.00  0.00     0.330 A 
HETATM   13  O2  UNL     1       1.252  -2.127   1.874  1.00  0.00    -0.246 OA
HETATM   14  N5  UNL     1       0.665  -0.354   0.560  1.00  0.00    -0.261 N 
ENDROOT
BRANCH  14  15
HETATM   15  C6  UNL     1       1.932   0.283   0.326  1.00  0.00     0.307 C 
BRANCH  15  16
HETATM   16  O3  UNL     1       2.584  -0.190  -0.807  1.00  0.00    -0.348 OA
BRANCH  16  17
HETATM   17  C7  UNL     1       3.794   0.542  -0.875  1.00  0.00     0.336 C 
BRANCH  17  18
HETATM   18  O4  UNL     1       3.538   1.911  -0.982  1.00  0.00    -0.377 OA
ATOM     19  H4  UNL     1       4.350   2.402  -1.028  1.00  0.00     0.212 HD
ENDBRANCH  17  18
ENDBRANCH  16  17
ENDBRANCH  15  16
ENDBRANCH  14  15
BRANCH   1  20
HETATM   20  N1  UNL     1      -3.792  -1.257   0.465  1.00  0.00    -0.383 N 
ATOM     21  H12 UNL     1      -4.757  -1.079   0.187  1.00  0.00     0.157 HD
ATOM     22  H11 UNL     1      -3.575  -2.062   1.053  1.00  0.00     0.157 HD
ENDBRANCH   1  20
TORSDOF 5
