REMARK  7 active torsions:
REMARK  status: ('A' for Active; 'I' for Inactive)
REMARK    1  A    between atoms: C8_11  and  O1_12 
REMARK    2  A    between atoms: N2_14  and  C9_15 
REMARK    3  A    between atoms: C9_15  and  N3_16 
REMARK    4  A    between atoms: N4_19  and  C12_20 
REMARK    5  A    between atoms: C12_20  and  C13_21 
REMARK    6  A    between atoms: C14_22  and  O2_23 
REMARK    7  A    between atoms: C21_33  and  O3_34 
ROOT
HETATM    1  C1  UNL     1      -5.844  -2.233  -0.220  1.00  0.00     0.051 C 
HETATM    2  C2  UNL     1      -6.168  -0.781  -0.286  1.00  0.00    -0.027 A 
HETATM    3  C3  UNL     1      -7.481  -0.417  -0.462  1.00  0.00     0.041 A 
HETATM    4 CL1  UNL     1      -8.744  -1.587  -0.642  1.00  0.00    -0.084 Cl
HETATM    5  C4  UNL     1      -7.836   0.932  -0.448  1.00  0.00     0.026 A 
HETATM    6  C5  UNL     1      -6.937   1.871  -0.263  1.00  0.00     0.032 A 
HETATM    7  C6  UNL     1      -5.554   1.556  -0.057  1.00  0.00     0.044 A 
HETATM    8  N1  UNL     1      -4.518   2.300   0.202  1.00  0.00    -0.351 N 
ATOM      9  H1  UNL     1      -4.519   3.316   0.294  1.00  0.00     0.166 HD
HETATM   10  C7  UNL     1      -3.410   1.472   0.331  1.00  0.00     0.100 A 
HETATM   11  C8  UNL     1      -2.051   1.414   0.584  1.00  0.00     0.174 A 
HETATM   12  N2  UNL     1      -1.707   0.143   0.527  1.00  0.00    -0.278 N 
HETATM   13  C21 UNL     1      -2.784  -0.625   0.257  1.00  0.00     0.159 A 
HETATM   14  C22 UNL     1      -3.890   0.172   0.131  1.00  0.00     0.059 A 
HETATM   15  C23 UNL     1      -5.280   0.198  -0.108  1.00  0.00     0.015 A 
ENDROOT
BRANCH  12  16
HETATM   16  C9  UNL     1      -0.342  -0.364   0.709  1.00  0.00     0.406 C 
BRANCH  16  17
HETATM   17  N3  UNL     1       0.480  -0.358  -0.533  1.00  0.00     0.108 N 
HETATM   18  C10 UNL     1       1.113  -1.643  -0.635  1.00  0.00     0.289 C 
HETATM   19  C11 UNL     1       2.543  -1.757  -0.906  1.00  0.00     0.125 C 
HETATM   20  N4  UNL     1       3.412  -0.637  -0.866  1.00  0.00    -0.288 NA
HETATM   21  C19 UNL     1       2.541   0.491  -1.413  1.00  0.00     0.125 C 
HETATM   22  C20 UNL     1       1.485   0.732  -0.392  1.00  0.00     0.289 C 
BRANCH  20  23
HETATM   23  C12 UNL     1       3.974  -0.186   0.335  1.00  0.00     0.075 C 
BRANCH  23  24
HETATM   24  C13 UNL     1       5.466   0.015   0.498  1.00  0.00     0.031 A 
HETATM   25  C14 UNL     1       5.811   1.360   0.787  1.00  0.00     0.078 A 
HETATM   26  C15 UNL     1       7.110   1.570   1.285  1.00  0.00     0.039 A 
HETATM   27  C16 UNL     1       8.001   0.544   1.473  1.00  0.00     0.028 A 
HETATM   28  C17 UNL     1       7.628  -0.712   1.181  1.00  0.00     0.056 A 
HETATM   29 CL2  UNL     1       8.804  -1.989   1.511  1.00  0.00    -0.083 Cl
HETATM   30  C18 UNL     1       6.322  -1.009   0.680  1.00  0.00     0.069 A 
HETATM   31 CL3  UNL     1       5.984  -2.686   0.386  1.00  0.00    -0.082 Cl
BRANCH  25  32
HETATM   32  O2  UNL     1       5.061   2.449   0.633  1.00  0.00    -0.360 OA
ATOM     33  H2  UNL     1       5.292   3.350   0.827  1.00  0.00     0.217 HD
ENDBRANCH  25  32
ENDBRANCH  23  24
ENDBRANCH  20  23
ENDBRANCH  16  17
ENDBRANCH  12  16
BRANCH  11  34
HETATM   34  O1  UNL     1      -1.296   2.562   0.855  1.00  0.00    -0.344 OA
ATOM     35  H1  UNL     1      -0.363   2.522   1.029  1.00  0.00     0.219 HD
ENDBRANCH  11  34
BRANCH  13  36
HETATM   36  O3  UNL     1      -2.732  -1.997   0.118  1.00  0.00    -0.345 OA
ATOM     37  H3  UNL     1      -3.490  -2.537  -0.072  1.00  0.00     0.219 HD
ENDBRANCH  13  36
TORSDOF 7
