REMARK  8 active torsions:
REMARK  status: ('A' for Active; 'I' for Inactive)
REMARK    1  A    between atoms: C5_7  and  N2_8 
REMARK    2  A    between atoms: N2_8  and  C6_9 
REMARK    3  A    between atoms: C12_20  and  N4_21 
REMARK    4  A    between atoms: N4_21  and  C13_23 
REMARK    5  A    between atoms: C13_23  and  C14_24 
REMARK    6  A    between atoms: C16_26  and  O1_27 
REMARK    7  A    between atoms: C17_29  and  O2_30 
REMARK    8  A    between atoms: C18_32  and  C19_33 
ROOT
HETATM    1  C1  UNL     1       1.964  -4.623  -1.443  1.00  0.00     0.091 C 
HETATM    2  C2  UNL     1       2.767  -3.415  -1.128  1.00  0.00     0.100 A 
HETATM    3  N1  UNL     1       4.060  -3.185  -1.418  1.00  0.00    -0.352 N 
ATOM      4  H1  UNL     1       4.672  -3.836  -1.910  1.00  0.00     0.166 HD
HETATM    5  C3  UNL     1       4.432  -1.969  -0.964  1.00  0.00     0.126 A 
HETATM    6  C4  UNL     1       3.319  -1.422  -0.368  1.00  0.00     0.132 A 
HETATM    7  C5  UNL     1       3.183  -0.172   0.262  1.00  0.00     0.224 A 
HETATM    8  N3  UNL     1       1.931   0.072   0.766  1.00  0.00    -0.160 N 
ATOM      9  H3  UNL     1       1.761   0.960   1.237  1.00  0.00     0.187 HD
HETATM   10  C12 UNL     1       0.912  -0.811   0.667  1.00  0.00     0.699 A 
HETATM   11  N5  UNL     1       1.154  -1.977   0.043  1.00  0.00    -0.123 N 
ATOM     12  H5  UNL     1       0.390  -2.648  -0.036  1.00  0.00     0.206 HD
HETATM   13  N6  UNL     1       2.338  -2.307  -0.479  1.00  0.00    -0.224 N 
ENDROOT
BRANCH  10  14
HETATM   14  N4  UNL     1      -0.195  -0.487   1.157  1.00  0.00    -0.200 N 
ATOM     15  H4  UNL     1      -0.157   0.442   1.576  1.00  0.00     0.183 HD
BRANCH  14  16
HETATM   16  C13 UNL     1      -1.462  -1.048   1.286  1.00  0.00     0.117 C 
BRANCH  16  17
HETATM   17  C14 UNL     1      -2.518  -0.393   0.462  1.00  0.00    -0.017 A 
HETATM   18  C15 UNL     1      -2.284   0.123  -0.785  1.00  0.00     0.052 A 
HETATM   19  C16 UNL     1      -3.263   0.746  -1.544  1.00  0.00     0.100 A 
HETATM   20  C17 UNL     1      -4.531   0.856  -1.033  1.00  0.00     0.105 A 
HETATM   21  C18 UNL     1      -4.815   0.355   0.207  1.00  0.00    -0.018 A 
HETATM   22  C22 UNL     1      -3.821  -0.269   0.961  1.00  0.00     0.023 A 
BRANCH  19  23
HETATM   23  O1  UNL     1      -2.986   1.265  -2.823  1.00  0.00    -0.358 OA
ATOM     24  H1  UNL     1      -3.657   1.692  -3.343  1.00  0.00     0.217 HD
ENDBRANCH  19  23
BRANCH  20  25
HETATM   25  O2  UNL     1      -5.510   1.487  -1.812  1.00  0.00    -0.357 OA
ATOM     26  H2  UNL     1      -6.388   1.563  -1.458  1.00  0.00     0.217 HD
ENDBRANCH  20  25
BRANCH  21  27
HETATM   27  C19 UNL     1      -6.178   0.476   0.752  1.00  0.00     0.013 C 
HETATM   28  C20 UNL     1      -6.273   0.062   2.212  1.00  0.00     0.015 C 
HETATM   29  C21 UNL     1      -6.823   1.815   0.501  1.00  0.00     0.015 C 
ENDBRANCH  21  27
ENDBRANCH  16  17
ENDBRANCH  14  16
ENDBRANCH  10  14
BRANCH   7  30
HETATM   30  N2  UNL     1       4.094   0.587   0.338  1.00  0.00    -0.381 NA
BRANCH  30  31
HETATM   31  C6  UNL     1       5.103   1.409   0.413  1.00  0.00     0.153 A 
HETATM   32  C7  UNL     1       6.103   1.251   1.365  1.00  0.00     0.078 A 
HETATM   33 CL1  UNL     1       6.004  -0.117   2.498  1.00  0.00    -0.081 Cl
HETATM   34  C8  UNL     1       7.164   2.085   1.487  1.00  0.00     0.051 A 
HETATM   35  C9  UNL     1       7.276   3.147   0.635  1.00  0.00     0.037 A 
HETATM   36 CL2  UNL     1       8.642   4.257   0.751  1.00  0.00    -0.084 Cl
HETATM   37  C10 UNL     1       6.334   3.362  -0.323  1.00  0.00     0.051 A 
HETATM   38  C11 UNL     1       5.254   2.514  -0.448  1.00  0.00     0.078 A 
HETATM   39 CL3  UNL     1       4.084   2.850  -1.690  1.00  0.00    -0.081 Cl
ENDBRANCH  30  31
ENDBRANCH   7  30
TORSDOF 8
