REMARK  7 active torsions:
REMARK  status: ('A' for Active; 'I' for Inactive)
REMARK    1  A    between atoms: C2_2  and  C3_3 
REMARK    2  A    between atoms: C4_4  and  O1_5 
REMARK    3  A    between atoms: C5_7  and  O2_8 
REMARK    4  A    between atoms: N1_10  and  C6_11 
REMARK    5  A    between atoms: C12_19  and  O3_20 
REMARK    6  A    between atoms: N2_24  and  C15_25 
REMARK    7  A    between atoms: C15_25  and  C16_26 
ROOT
HETATM    1  C3  UNL     1      -0.902  -0.270   0.271  1.00  0.00     0.039 A 
HETATM    2  C4  UNL     1      -0.900   1.108   0.295  1.00  0.00     0.128 A 
HETATM    3  C5  UNL     1      -2.202   1.528   0.244  1.00  0.00     0.184 A 
HETATM    4  N1  UNL     1      -3.012   0.456   0.190  1.00  0.00    -0.270 N 
HETATM    5  C12 UNL     1      -2.225  -0.637   0.206  1.00  0.00     0.159 A 
ENDROOT
BRANCH   1   6
HETATM    6  C2  UNL     1       0.339  -1.117   0.309  1.00  0.00    -0.005 C 
HETATM    7  C1  UNL     1      -0.086  -2.598   0.270  1.00  0.00     0.021 C 
HETATM    8  C13 UNL     1       1.192  -0.912  -0.902  1.00  0.00     0.044 C 
HETATM    9  C14 UNL     1       2.482  -0.209  -0.707  1.00  0.00     0.275 C 
HETATM   10  N2  UNL     1       3.095  -0.333   0.575  1.00  0.00     0.108 N 
HETATM   11  C19 UNL     1       2.499  -1.364   1.412  1.00  0.00     0.295 C 
HETATM   12 BR1  UNL     1       3.403  -1.366   3.119  1.00  0.00    -0.058 Br
HETATM   13  C20 UNL     1       1.057  -0.963   1.620  1.00  0.00     0.062 C 
BRANCH  10  14
HETATM   14  C15 UNL     1       4.505  -0.625   0.503  1.00  0.00     0.332 C 
BRANCH  14  15
HETATM   15  C16 UNL     1       5.262   0.456  -0.184  1.00  0.00     0.054 A 
HETATM   16  C17 UNL     1       6.494   0.239  -0.776  1.00  0.00     0.115 A 
HETATM   17  N3  UNL     1       6.874   1.422  -1.284  1.00  0.00    -0.360 N 
HETATM   18  C18 UNL     1       5.943   2.356  -1.036  1.00  0.00     0.180 A 
ATOM     19  H3  UNL     1       7.746   1.587  -1.787  1.00  0.00     0.166 HD
HETATM   20  N4  UNL     1       4.955   1.746  -0.358  1.00  0.00    -0.353 N 
ATOM     21  H4  UNL     1       4.102   2.198  -0.027  1.00  0.00     0.166 HD
ENDBRANCH  14  15
ENDBRANCH  10  14
ENDBRANCH   1   6
BRANCH   2  22
HETATM   22  O1  UNL     1       0.188   1.967   0.358  1.00  0.00    -0.356 OA
ATOM     23  H1  UNL     1       0.189   2.917   0.375  1.00  0.00     0.218 HD
ENDBRANCH   2  22
BRANCH   5  24
HETATM   24  O3  UNL     1      -2.632  -1.978   0.165  1.00  0.00    -0.345 OA
ATOM     25  H3  UNL     1      -3.546  -2.232   0.120  1.00  0.00     0.219 HD
ENDBRANCH   5  24
BRANCH   3  26
HETATM   26  O2  UNL     1      -2.589   2.885   0.250  1.00  0.00    -0.344 OA
ATOM     27  H2  UNL     1      -3.492   3.176   0.215  1.00  0.00     0.219 HD
ENDBRANCH   3  26
BRANCH   4  28
HETATM   28  C6  UNL     1      -4.421   0.508   0.128  1.00  0.00     0.047 A 
HETATM   29  C7  UNL     1      -5.091   1.450   0.910  1.00  0.00     0.054 A 
HETATM   30  C8  UNL     1      -6.467   1.507   0.854  1.00  0.00     0.037 A 
HETATM   31 CL1  UNL     1      -7.343   2.665   1.811  1.00  0.00    -0.084 Cl
HETATM   32  C9  UNL     1      -7.167   0.645   0.039  1.00  0.00     0.048 A 
HETATM   33  C10 UNL     1      -6.483  -0.288  -0.734  1.00  0.00     0.037 A 
HETATM   34 CL2  UNL     1      -7.339  -1.398  -1.781  1.00  0.00    -0.084 Cl
HETATM   35  C11 UNL     1      -5.118  -0.352  -0.685  1.00  0.00     0.054 A 
ENDBRANCH   4  28
TORSDOF 7
