REMARK  6 active torsions:
REMARK  status: ('A' for Active; 'I' for Inactive)
REMARK    1  A    between atoms: C6_7  and  O2_8 
REMARK    2  A    between atoms: C6_7  and  C7_10 
REMARK    3  A    between atoms: C7_10  and  C8_11 
REMARK    4  A    between atoms: C8_11  and  N1_12 
REMARK       I    between atoms: N1_12  and  C9_14 
REMARK    5  A    between atoms: C9_14  and  C10_16 
REMARK    6  A    between atoms: C20_34  and  O4_35 
ROOT
HETATM    1  C10 UNL     1       3.139   0.356  -1.252  1.00  0.00     0.157 A 
HETATM    2  C11 UNL     1       3.973  -0.726  -0.764  1.00  0.00    -0.011 A 
HETATM    3  C12 UNL     1       3.545  -2.027  -0.973  1.00  0.00     0.036 A 
HETATM    4  C13 UNL     1       4.279  -3.119  -0.523  1.00  0.00     0.056 A 
HETATM    5 CL1  UNL     1       3.740  -4.748  -0.787  1.00  0.00    -0.083 Cl
HETATM    6  C14 UNL     1       5.455  -2.863   0.142  1.00  0.00     0.058 A 
HETATM    7 CL2  UNL     1       6.392  -4.244   0.717  1.00  0.00    -0.082 Cl
HETATM    8  C15 UNL     1       5.898  -1.592   0.360  1.00  0.00     0.055 A 
HETATM    9  C16 UNL     1       5.158  -0.496  -0.094  1.00  0.00     0.043 A 
HETATM   10  N2  UNL     1       5.640   0.793   0.111  1.00  0.00    -0.341 N 
ATOM     11  H2  UNL     1       6.519   0.926   0.610  1.00  0.00     0.167 HD
HETATM   12  C17 UNL     1       4.912   1.950  -0.374  1.00  0.00     0.121 A 
HETATM   13  N3  UNL     1       5.285   3.196  -0.257  1.00  0.00    -0.326 N 
ATOM     14  H3  UNL     1       6.152   3.426   0.228  1.00  0.00     0.169 HD
HETATM   15  C18 UNL     1       4.541   4.152  -0.765  1.00  0.00     0.147 A 
HETATM   16 CL3  UNL     1       4.889   5.891  -0.701  1.00  0.00    -0.056 Cl
HETATM   17  S1  UNL     1       3.241   3.294  -1.450  1.00  0.00    -0.059 SA
HETATM   18  C19 UNL     1       3.743   1.700  -1.031  1.00  0.00     0.047 A 
ENDROOT
BRANCH   1  19
HETATM   19  C9  UNL     1       1.796   0.317  -0.632  1.00  0.00     0.231 C 
HETATM   20  N1  UNL     1       0.712  -0.457  -1.045  1.00  0.00    -0.360 N 
ATOM     21  H1  UNL     1       0.843  -1.063  -1.855  1.00  0.00     0.162 HD
HETATM   22  O3  UNL     1       1.651   1.084   0.377  1.00  0.00    -0.272 OA
BRANCH  20  23
HETATM   23  C8  UNL     1      -0.580  -0.461  -0.407  1.00  0.00     0.125 C 
BRANCH  23  24
HETATM   24  C7  UNL     1      -1.206   0.879  -0.508  1.00  0.00     0.060 C 
BRANCH  24  25
HETATM   25  C6  UNL     1      -2.572   1.010   0.114  1.00  0.00     0.090 C 
HETATM   26  C5  UNL     1      -2.547   0.679   1.598  1.00  0.00     0.067 C 
HETATM   27  C4  UNL     1      -3.995   0.812   2.021  1.00  0.00     0.172 C 
HETATM   28  O1  UNL     1      -4.694  -0.261   1.542  1.00  0.00    -0.378 OA
HETATM   29  C2  UNL     1      -4.556  -0.545   0.220  1.00  0.00     0.082 C 
HETATM   30  C1  UNL     1      -4.075  -1.975   0.108  1.00  0.00     0.048 C 
HETATM   31  C3  UNL     1      -5.961  -0.510  -0.400  1.00  0.00     0.048 C 
HETATM   32  C20 UNL     1      -3.682   0.347  -0.584  1.00  0.00     0.186 C 
BRANCH  32  33
HETATM   33  O4  UNL     1      -3.178  -0.322  -1.712  1.00  0.00    -0.390 OA
ATOM     34  H4  UNL     1      -2.619   0.249  -2.226  1.00  0.00     0.210 HD
ENDBRANCH  32  33
BRANCH  25  35
HETATM   35  O2  UNL     1      -2.827   2.415   0.103  1.00  0.00    -0.387 OA
ATOM     36  H2  UNL     1      -2.843   2.622  -0.824  1.00  0.00     0.210 HD
ENDBRANCH  25  35
ENDBRANCH  24  25
ENDBRANCH  23  24
ENDBRANCH  20  23
ENDBRANCH   1  19
TORSDOF 6
