REMARK  6 active torsions:
REMARK  status: ('A' for Active; 'I' for Inactive)
REMARK    1  A    between atoms: O1_2  and  C2_3 
REMARK    2  A    between atoms: C6_8  and  C7_9 
REMARK    3  A    between atoms: N1_10  and  N2_12 
REMARK    4  A    between atoms: N2_12  and  C8_14 
REMARK    5  A    between atoms: C13_20  and  O2_21 
REMARK    6  A    between atoms: C16_27  and  O3_28 
ROOT
HETATM    1  C7  UNL     1      -0.765   0.060   1.374  1.00  0.00     0.122 C 
HETATM    2  N1  UNL     1      -0.178  -1.059   1.136  1.00  0.00    -0.310 N 
ATOM      3  H1  UNL     1      -0.747  -1.812   0.751  1.00  0.00     0.186 HD
ENDROOT
BRANCH   2   4
HETATM    4  N2  UNL     1       1.156  -1.326   1.358  1.00  0.00    -0.298 N 
ATOM      5  H2  UNL     1       1.422  -1.818   2.211  1.00  0.00     0.187 HD
BRANCH   4   6
HETATM    6  C8  UNL     1       2.172  -0.943   0.446  1.00  0.00     0.083 A 
HETATM    7  C9  UNL     1       1.767  -0.270  -0.712  1.00  0.00     0.060 A 
HETATM    8  C10 UNL     1       2.642   0.154  -1.670  1.00  0.00     0.063 A 
HETATM    9 CL1  UNL     1       2.091   1.002  -3.120  1.00  0.00    -0.082 Cl
HETATM   10  C11 UNL     1       3.980  -0.102  -1.469  1.00  0.00     0.059 A 
HETATM   11  C12 UNL     1       4.420  -0.757  -0.352  1.00  0.00     0.007 A 
HETATM   12  N3  UNL     1       5.123   0.209  -2.274  1.00  0.00    -0.388 N 
HETATM   13  C13 UNL     1       3.506  -1.174   0.601  1.00  0.00     0.102 A 
HETATM   14  C14 UNL     1       5.901  -0.909  -0.372  1.00  0.00     0.063 C 
HETATM   15  C15 UNL     1       6.336  -0.005  -1.507  1.00  0.00     0.124 C 
ATOM     16  H3  UNL     1       5.089   0.532  -3.241  1.00  0.00     0.159 HD
BRANCH  13  17
HETATM   17  O2  UNL     1       3.952  -1.836   1.731  1.00  0.00    -0.358 OA
ATOM     18  H2  UNL     1       4.882  -1.997   1.839  1.00  0.00     0.217 HD
ENDBRANCH  13  17
ENDBRANCH   4   6
ENDBRANCH   2   4
BRANCH   1  19
HETATM   19  C6  UNL     1      -2.185   0.166   1.078  1.00  0.00     0.023 A 
HETATM   20  C4  UNL     1      -2.908   1.322   1.296  1.00  0.00    -0.027 A 
HETATM   21  C3  UNL     1      -4.248   1.433   1.020  1.00  0.00     0.052 A 
HETATM   22  C5  UNL     1      -2.200   2.493   1.853  1.00  0.00     0.050 C 
HETATM   23  C2  UNL     1      -4.929   0.351   0.499  1.00  0.00     0.106 A 
HETATM   24 BR1  UNL     1      -5.176   3.067   1.351  1.00  0.00    -0.048 Br
HETATM   25  C17 UNL     1      -4.227  -0.820   0.271  1.00  0.00     0.079 A 
HETATM   26  C16 UNL     1      -2.869  -0.909   0.559  1.00  0.00     0.098 A 
HETATM   27 BR2  UNL     1      -5.101  -2.354  -0.446  1.00  0.00    -0.045 Br
BRANCH  23  28
HETATM   28  O1  UNL     1      -6.264   0.380   0.198  1.00  0.00    -0.353 OA
HETATM   29  C1  UNL     1      -6.799   0.757  -1.054  1.00  0.00     0.210 C 
ENDBRANCH  23  28
BRANCH  26  30
HETATM   30  O3  UNL     1      -2.196  -2.101   0.316  1.00  0.00    -0.358 OA
ATOM     31  H3  UNL     1      -2.668  -2.843  -0.042  1.00  0.00     0.217 HD
ENDBRANCH  26  30
ENDBRANCH   1  19
TORSDOF 6
