REMARK  4 active torsions:
REMARK  status: ('A' for Active; 'I' for Inactive)
REMARK    1  A    between atoms: C2_3  and  C3_4 
REMARK    2  A    between atoms: C3_4  and  C4_5 
REMARK    3  A    between atoms: C4_5  and  N2_6 
REMARK    4  A    between atoms: N2_6  and  C5_9 
ROOT
HETATM    1  C4  UNL     1       0.174   0.310   0.905  1.00  0.00     0.240 C 
ENDROOT
BRANCH   1   2
HETATM    2  C3  UNL     1      -1.149   0.095   1.528  1.00  0.00     0.087 C 
BRANCH   2   3
HETATM    3  C2  UNL     1      -2.273  -0.250   0.662  1.00  0.00     0.041 A 
HETATM    4  C1  UNL     1      -2.968   0.618  -0.131  1.00  0.00     0.136 A 
HETATM    5  N1  UNL     1      -2.618   1.988  -0.197  1.00  0.00    -0.094 NA
HETATM    6  C8  UNL     1      -4.060   0.217  -0.909  1.00  0.00     0.272 A 
HETATM    7  N8  UNL     1      -4.456  -1.068  -0.893  1.00  0.00    -0.318 N 
HETATM    8  O1  UNL     1      -4.712   1.002  -1.642  1.00  0.00    -0.266 OA
HETATM    9  C7  UNL     1      -3.775  -1.929  -0.115  1.00  0.00     0.183 A 
ATOM     10  H8  UNL     1      -5.249  -1.381  -1.454  1.00  0.00     0.169 HD
HETATM   11  N7  UNL     1      -2.725  -1.547   0.636  1.00  0.00    -0.354 N 
ATOM     12  H7  UNL     1      -2.248  -2.246   1.206  1.00  0.00     0.166 HD
ENDBRANCH   2   3
ENDBRANCH   1   2
BRANCH   1  13
HETATM   13  N2  UNL     1       0.707  -0.778   0.158  1.00  0.00    -0.054 N 
ATOM     14  H22 UNL     1       0.569  -1.663   0.646  1.00  0.00     0.279 HD
ATOM     15  H21 UNL     1       0.148  -0.963  -0.675  1.00  0.00     0.279 HD
BRANCH  13  16
HETATM   16  C5  UNL     1       2.064  -0.583  -0.172  1.00  0.00     0.314 C 
HETATM   17  C6  UNL     1       2.443   0.580  -1.015  1.00  0.00     0.192 C 
HETATM   18  N3  UNL     1       3.874   0.500  -1.274  1.00  0.00    -0.321 N 
HETATM   19  N4  UNL     1       4.665   0.232  -0.205  1.00  0.00    -0.234 N 
ATOM     20  H3  UNL     1       4.260   0.638  -2.208  1.00  0.00     0.181 HD
HETATM   21  N5  UNL     1       4.212  -0.624   0.760  1.00  0.00    -0.014 NA
ATOM     22  H4  UNL     1       5.586   0.663  -0.122  1.00  0.00     0.204 HD
HETATM   23  N6  UNL     1       2.859  -0.486   1.064  1.00  0.00    -0.090 NA
ENDBRANCH  13  16
ENDBRANCH   1  13
TORSDOF 4
