REMARK  4 active torsions:
REMARK  status: ('A' for Active; 'I' for Inactive)
REMARK       I    between atoms: N1_2  and  C2_4 
REMARK       I    between atoms: C2_4  and  N4_9 
REMARK    1  A    between atoms: N4_9  and  C4_11 
REMARK    2  A    between atoms: C7_14  and  N5_15 
REMARK    3  A    between atoms: C9_17  and  C10_18 
REMARK    4  A    between atoms: C10_18  and  N6_19 
ROOT
HETATM    1  C1  UNL     1       8.192  -2.413   0.454  1.00  0.00     0.165 C 
HETATM    2  N1  UNL     1       6.811  -1.976   0.276  1.00  0.00    -0.230 N 
ATOM      3  H1  UNL     1       6.063  -2.656   0.413  1.00  0.00     0.177 HD
HETATM    4  C2  UNL     1       6.462  -0.647  -0.079  1.00  0.00     0.687 C 
HETATM    5  N2  UNL     1       6.862  -0.216  -1.229  1.00  0.00    -0.126 N 
ATOM      6  H2  UNL     1       6.623   0.736  -1.506  1.00  0.00     0.197 HD
HETATM    7  C3  UNL     1       7.610  -1.003  -2.109  1.00  0.00     0.196 C 
HETATM    8  N3  UNL     1       8.223  -1.646  -2.854  1.00  0.00    -0.171 NA
HETATM    9  N4  UNL     1       5.705   0.197   0.776  1.00  0.00    -0.191 N 
ATOM     10  H4  UNL     1       6.137   0.556   1.627  1.00  0.00     0.184 HD
ENDROOT
BRANCH   9  11
HETATM   11  C4  UNL     1       4.359   0.556   0.478  1.00  0.00     0.052 A 
HETATM   12  C5  UNL     1       3.716   0.109  -0.652  1.00  0.00     0.032 A 
HETATM   13  C6  UNL     1       2.399   0.464  -0.938  1.00  0.00     0.037 A 
HETATM   14  C7  UNL     1       1.704   1.276  -0.093  1.00  0.00     0.096 A 
HETATM   15  C23 UNL     1       2.358   1.727   1.050  1.00  0.00     0.147 A 
HETATM   16  F1  UNL     1       1.682   2.546   1.920  1.00  0.00    -0.204 F 
HETATM   17  C24 UNL     1       3.665   1.373   1.331  1.00  0.00     0.074 A 
BRANCH  14  18
HETATM   18  N5  UNL     1       0.360   1.690  -0.302  1.00  0.00    -0.248 N 
HETATM   19  C8  UNL     1      -0.647   1.442   0.582  1.00  0.00     0.146 A 
HETATM   20  C9  UNL     1      -1.820   1.968   0.095  1.00  0.00     0.063 A 
HETATM   21  N7  UNL     1      -1.500   2.528  -1.083  1.00  0.00    -0.287 N 
HETATM   22  N8  UNL     1      -0.203   2.343  -1.282  1.00  0.00    -0.236 N 
ATOM     23  H7  UNL     1      -2.141   3.010  -1.713  1.00  0.00     0.188 HD
ATOM     24  H8  UNL     1       0.298   2.673  -2.107  1.00  0.00     0.209 HD
BRANCH  20  25
HETATM   25  C10 UNL     1      -3.166   1.941   0.709  1.00  0.00     0.189 C 
BRANCH  25  26
HETATM   26  N6  UNL     1      -3.933   0.790   0.329  1.00  0.00    -0.340 N 
HETATM   27  C11 UNL     1      -4.751   0.725  -0.738  1.00  0.00     0.046 A 
HETATM   28  C12 UNL     1      -5.098   1.644  -1.730  1.00  0.00     0.030 A 
HETATM   29  C16 UNL     1      -5.340  -0.530  -0.818  1.00  0.00     0.003 A 
HETATM   30  C13 UNL     1      -5.982   1.307  -2.732  1.00  0.00     0.002 A 
HETATM   31  C14 UNL     1      -6.548   0.055  -2.783  1.00  0.00     0.001 A 
HETATM   32  C15 UNL     1      -6.222  -0.864  -1.819  1.00  0.00     0.014 A 
HETATM   33  C17 UNL     1      -4.820  -1.223   0.278  1.00  0.00     0.003 A 
HETATM   34  C18 UNL     1      -5.073  -2.520   0.677  1.00  0.00     0.016 A 
HETATM   35  C22 UNL     1      -3.960  -0.413   0.978  1.00  0.00     0.047 A 
HETATM   36  C19 UNL     1      -4.438  -3.005   1.810  1.00  0.00     0.020 A 
HETATM   37  C20 UNL     1      -3.579  -2.183   2.502  1.00  0.00     0.013 A 
HETATM   38 BR1  UNL     1      -2.720  -2.895   4.068  1.00  0.00    -0.051 Br
HETATM   39  C21 UNL     1      -3.334  -0.894   2.099  1.00  0.00     0.049 A 
ENDBRANCH  25  26
ENDBRANCH  20  25
ENDBRANCH  14  18
ENDBRANCH   9  11
TORSDOF 4
