REMARK  7 active torsions:
REMARK  status: ('A' for Active; 'I' for Inactive)
REMARK    1  A    between atoms: O1_2  and  C2_3 
REMARK    2  A    between atoms: C3_4  and  O2_5 
REMARK    3  A    between atoms: C7_10  and  N1_11 
REMARK    4  A    between atoms: N1_11  and  C8_13 
REMARK    5  A    between atoms: C15_24  and  N4_25 
REMARK    6  A    between atoms: N4_25  and  C16_27 
REMARK    7  A    between atoms: C21_34  and  O3_35 
ROOT
HETATM    1  C8  UNL     1      -2.254   2.908   0.891  1.00  0.00     0.056 A 
HETATM    2  C9  UNL     1      -1.927   3.490   2.098  1.00  0.00     0.054 A 
HETATM    3  C10 UNL     1      -1.969   4.866   2.287  1.00  0.00     0.036 A 
HETATM    4 CL1  UNL     1      -1.546   5.546   3.831  1.00  0.00    -0.084 Cl
HETATM    5  C11 UNL     1      -2.340   5.700   1.265  1.00  0.00     0.025 A 
HETATM    6  C12 UNL     1      -2.671   5.137   0.047  1.00  0.00     0.027 A 
HETATM    7  C13 UNL     1      -2.626   3.768  -0.128  1.00  0.00     0.071 A 
HETATM    8  C14 UNL     1      -2.968   3.152  -1.393  1.00  0.00     0.102 C 
HETATM    9  N2  UNL     1      -3.226   2.664  -2.418  1.00  0.00    -0.191 NA
ENDROOT
BRANCH   1  10
HETATM   10  N1  UNL     1      -2.218   1.502   0.677  1.00  0.00    -0.340 N 
ATOM     11  H1  UNL     1      -3.076   0.962   0.786  1.00  0.00     0.167 HD
BRANCH  10  12
HETATM   12  C7  UNL     1      -1.119   0.886   0.346  1.00  0.00     0.135 A 
HETATM   13  C6  UNL     1      -1.183  -0.479   0.160  1.00  0.00     0.059 A 
HETATM   14  C5  UNL     1      -2.347  -1.200   0.308  1.00  0.00     0.063 A 
HETATM   15  C20 UNL     1      -0.008  -1.161  -0.197  1.00  0.00     0.101 A 
HETATM   16  C3  UNL     1      -2.376  -2.556   0.116  1.00  0.00     0.122 A 
HETATM   17 BR1  UNL     1      -3.939  -0.292   0.789  1.00  0.00    -0.047 Br
HETATM   18  C2  UNL     1      -1.196  -3.221  -0.239  1.00  0.00     0.139 A 
HETATM   19  C21 UNL     1      -0.017  -2.523  -0.394  1.00  0.00     0.132 A 
HETATM   20  N5  UNL     1       1.118  -0.438  -0.337  1.00  0.00    -0.188 N 
HETATM   21  C15 UNL     1       1.194   0.892  -0.158  1.00  0.00     0.680 A 
ATOM     22  H5  UNL     1       1.972  -0.933  -0.596  1.00  0.00     0.184 HD
HETATM   23  N3  UNL     1       0.048   1.537   0.187  1.00  0.00    -0.176 N 
ATOM     24  H3  UNL     1       0.074   2.547   0.330  1.00  0.00     0.186 HD
BRANCH  16  25
HETATM   25  O2  UNL     1      -3.557  -3.241   0.273  1.00  0.00    -0.352 OA
HETATM   26  C4  UNL     1      -4.404  -3.410  -0.829  1.00  0.00     0.210 C 
ENDBRANCH  16  25
BRANCH  18  27
HETATM   27  O1  UNL     1      -1.229  -4.596  -0.434  1.00  0.00    -0.351 OA
HETATM   28  C1  UNL     1      -0.996  -5.511   0.609  1.00  0.00     0.210 C 
ENDBRANCH  18  27
BRANCH  19  29
HETATM   29  O3  UNL     1       1.129  -3.204  -0.745  1.00  0.00    -0.351 OA
HETATM   30  C22 UNL     1       2.041  -3.763   0.149  1.00  0.00     0.210 C 
ENDBRANCH  19  29
BRANCH  21  31
HETATM   31  N4  UNL     1       2.237   1.602  -0.282  1.00  0.00    -0.218 N 
ATOM     32  H4  UNL     1       2.117   2.600  -0.110  1.00  0.00     0.178 HD
BRANCH  31  33
HETATM   33  C16 UNL     1       3.556   1.187  -0.631  1.00  0.00     0.036 C 
HETATM   34  C17 UNL     1       3.604   0.615  -2.036  1.00  0.00     0.038 C 
HETATM   35  C18 UNL     1       4.171   0.227   0.382  1.00  0.00     0.038 C 
HETATM   36  C19 UNL     1       4.426   2.448  -0.651  1.00  0.00     0.038 C 
ENDBRANCH  31  33
ENDBRANCH  21  31
ENDBRANCH  10  12
ENDBRANCH   1  10
TORSDOF 7
