REMARK  6 active torsions:
REMARK  status: ('A' for Active; 'I' for Inactive)
REMARK    1  A    between atoms: C3_3  and  C4_4 
REMARK    2  A    between atoms: C8_9  and  C9_10 
REMARK    3  A    between atoms: C12_13  and  C13_14 
REMARK    4  A    between atoms: N1_15  and  N2_17 
REMARK    5  A    between atoms: N2_17  and  C14_19 
REMARK    6  A    between atoms: N5_31  and  C22_32 
ROOT
HETATM    1  C1  UNL     1      10.346   1.820   2.220  1.00  0.00     0.112 C 
HETATM    2  C2  UNL     1       9.388   0.995   1.488  1.00  0.00    -0.105 C 
HETATM    3  C3  UNL     1       8.583   0.328   0.890  1.00  0.00    -0.067 C 
ENDROOT
BRANCH   3   4
HETATM    4  C4  UNL     1       7.593  -0.468   0.183  1.00  0.00     0.021 A 
HETATM    5  C5  UNL     1       8.001  -1.557  -0.558  1.00  0.00     0.062 A 
HETATM    6  C6  UNL     1       7.024  -2.282  -1.211  1.00  0.00     0.118 A 
HETATM    7  F1  UNL     1       7.388  -3.375  -1.960  1.00  0.00    -0.206 F 
HETATM    8  C7  UNL     1       5.690  -1.987  -1.168  1.00  0.00     0.054 A 
HETATM    9  C8  UNL     1       5.287  -0.897  -0.427  1.00  0.00    -0.020 A 
HETATM   10  C29 UNL     1       6.253  -0.146   0.244  1.00  0.00     0.033 A 
BRANCH   9  11
HETATM   11  C9  UNL     1       3.892  -0.512  -0.328  1.00  0.00    -0.010 A 
HETATM   12  C10 UNL     1       3.032  -0.729  -1.373  1.00  0.00     0.016 A 
HETATM   13  C11 UNL     1       1.701  -0.363  -1.282  1.00  0.00     0.032 A 
HETATM   14  C12 UNL     1       1.206   0.228  -0.137  1.00  0.00     0.049 A 
HETATM   15  N6  UNL     1       2.065   0.433   0.877  1.00  0.00    -0.364 N 
HETATM   16  C28 UNL     1       3.376   0.082   0.809  1.00  0.00     0.100 A 
ATOM     17  H6  UNL     1       1.719   0.869   1.731  1.00  0.00     0.165 HD
BRANCH  14  18
HETATM   18  C13 UNL     1      -0.199   0.609  -0.055  1.00  0.00     0.137 C 
HETATM   19  N1  UNL     1      -1.011   0.407  -1.036  1.00  0.00    -0.295 N 
ATOM     20  H1  UNL     1      -0.645  -0.031  -1.882  1.00  0.00     0.186 HD
BRANCH  19  21
HETATM   21  N2  UNL     1      -2.349   0.750  -1.006  1.00  0.00    -0.132 N 
ATOM     22  H2  UNL     1      -2.635   1.519  -1.612  1.00  0.00     0.205 HD
BRANCH  21  23
HETATM   23  C14 UNL     1      -3.263   0.212  -0.305  1.00  0.00     0.707 A 
HETATM   24  N3  UNL     1      -2.989  -0.810   0.527  1.00  0.00    -0.189 N 
HETATM   25  C15 UNL     1      -3.955  -1.402   1.287  1.00  0.00     0.065 A 
ATOM     26  H3  UNL     1      -2.030  -1.152   0.591  1.00  0.00     0.184 HD
HETATM   27  C16 UNL     1      -3.664  -2.447   2.136  1.00  0.00     0.033 A 
HETATM   28  C20 UNL     1      -5.241  -0.907   1.170  1.00  0.00     0.062 A 
HETATM   29  C17 UNL     1      -4.660  -3.026   2.892  1.00  0.00     0.029 A 
HETATM   30  C18 UNL     1      -5.973  -2.550   2.798  1.00  0.00     0.047 A 
HETATM   31  N4  UNL     1      -6.991  -3.156   3.583  1.00  0.00    -0.102 NA
HETATM   32  C19 UNL     1      -6.213  -1.502   1.933  1.00  0.00     0.046 A 
HETATM   33  C21 UNL     1      -5.475   0.141   0.303  1.00  0.00     0.279 A 
HETATM   34  O1  UNL     1      -6.642   0.590   0.197  1.00  0.00    -0.266 OA
HETATM   35  N5  UNL     1      -4.516   0.719  -0.443  1.00  0.00    -0.109 N 
BRANCH  35  36
HETATM   36  C22 UNL     1      -4.784   1.799  -1.329  1.00  0.00     0.060 A 
HETATM   37  C23 UNL     1      -5.029   3.056  -0.820  1.00  0.00     0.032 A 
HETATM   38  C24 UNL     1      -5.295   4.138  -1.643  1.00  0.00     0.026 A 
HETATM   39  C25 UNL     1      -5.322   3.990  -3.008  1.00  0.00     0.034 A 
HETATM   40 CL1  UNL     1      -5.659   5.358  -4.078  1.00  0.00    -0.084 Cl
HETATM   41  C26 UNL     1      -5.079   2.739  -3.527  1.00  0.00     0.026 A 
HETATM   42  C27 UNL     1      -4.815   1.667  -2.701  1.00  0.00     0.032 A 
ENDBRANCH  35  36
ENDBRANCH  21  23
ENDBRANCH  19  21
ENDBRANCH  14  18
ENDBRANCH   9  11
ENDBRANCH   3   4
TORSDOF 6
