REMARK  5 active torsions:
REMARK  status: ('A' for Active; 'I' for Inactive)
REMARK    1  A    between atoms: C6_7  and  N2_8 
REMARK    2  A    between atoms: N2_8  and  C7_10 
REMARK    3  A    between atoms: C10_19  and  N6_20 
REMARK    4  A    between atoms: N6_20  and  C11_21 
REMARK    5  A    between atoms: C11_21  and  O1_22 
ROOT
HETATM    1  N1  UNL     1       6.750   1.626   2.815  1.00  0.00    -0.191 NA
HETATM    2  C1  UNL     1       6.275   0.746   2.245  1.00  0.00     0.099 C 
HETATM    3  C2  UNL     1       5.667  -0.324   1.511  1.00  0.00     0.046 A 
HETATM    4  C3  UNL     1       6.492  -1.314   1.028  1.00  0.00     0.023 A 
HETATM    5  C4  UNL     1       5.929  -2.354   0.332  1.00  0.00     0.004 A 
HETATM    6  C5  UNL     1       4.561  -2.423   0.110  1.00  0.00     0.030 A 
HETATM    7  C6  UNL     1       3.725  -1.450   0.579  1.00  0.00     0.050 A 
HETATM    8  C18 UNL     1       4.311  -0.411   1.278  1.00  0.00     0.052 A 
ENDROOT
BRANCH   7   9
HETATM    9  N2  UNL     1       2.331  -1.509   0.364  1.00  0.00    -0.192 N 
ATOM     10  H2  UNL     1       1.852  -2.364   0.647  1.00  0.00     0.184 HD
BRANCH   9  11
HETATM   11  C7  UNL     1       1.626  -0.597  -0.147  1.00  0.00     0.685 A 
HETATM   12  N3  UNL     1       1.996   0.604  -0.600  1.00  0.00    -0.174 N 
HETATM   13  C8  UNL     1       0.918   1.260  -1.043  1.00  0.00     0.154 A 
ATOM     14  H3  UNL     1       2.950   0.964  -0.607  1.00  0.00     0.186 HD
HETATM   15  N4  UNL     1       0.752   2.493  -1.593  1.00  0.00    -0.336 N 
HETATM   16  C17 UNL     1      -0.201   0.432  -0.856  1.00  0.00     0.152 A 
HETATM   17  C9  UNL     1      -0.467   2.897  -1.948  1.00  0.00     0.184 A 
ATOM     18  H4  UNL     1       1.556   3.105  -1.733  1.00  0.00     0.168 HD
HETATM   19  N5  UNL     1      -1.538   2.112  -1.772  1.00  0.00    -0.325 N 
HETATM   20  C10 UNL     1      -1.486   0.858  -1.228  1.00  0.00     0.214 A 
ATOM     21  H5  UNL     1      -2.448   2.471  -2.061  1.00  0.00     0.169 HD
HETATM   22  N8  UNL     1       0.264  -0.693  -0.305  1.00  0.00    -0.183 N 
ATOM     23  H8  UNL     1      -0.304  -1.498  -0.042  1.00  0.00     0.184 HD
BRANCH  20  24
HETATM   24  N6  UNL     1      -2.442   0.151  -1.056  1.00  0.00    -0.357 NA
BRANCH  24  25
HETATM   25  C11 UNL     1      -3.333  -0.751  -0.790  1.00  0.00     0.258 C 
HETATM   26  C12 UNL     1      -4.659  -0.963  -0.289  1.00  0.00     0.171 A 
HETATM   27  C13 UNL     1      -4.810   0.722   0.062  1.00  0.00     0.050 A 
HETATM   28  N7  UNL     1      -5.770  -1.140   0.129  1.00  0.00    -0.413 NA
HETATM   29  C14 UNL     1      -5.913   1.130   0.581  1.00  0.00     0.006 A 
HETATM   30  C15 UNL     1      -7.078   0.473   0.937  1.00  0.00     0.032 A 
HETATM   31  C16 UNL     1      -6.913  -0.918   0.631  1.00  0.00     0.183 A 
BRANCH  25  32
HETATM   32  O1  UNL     1      -2.881  -2.015  -1.089  1.00  0.00    -0.333 OA
ATOM     33  H1  UNL     1      -3.534  -2.676  -0.894  1.00  0.00     0.220 HD
ENDBRANCH  25  32
ENDBRANCH  24  25
ENDBRANCH  20  24
ENDBRANCH   9  11
ENDBRANCH   7   9
TORSDOF 5
