REMARK  3 active torsions:
REMARK  status: ('A' for Active; 'I' for Inactive)
REMARK    1  A    between atoms: N1_1  and  C1_4 
REMARK    2  A    between atoms: C3_8  and  C4_9 
REMARK    3  A    between atoms: C10_17  and  N4_18 
ROOT
HETATM    1  C1  UNL     1      -1.150  -2.103   1.189  1.00  0.00     0.128 A 
HETATM    2  N2  UNL     1      -2.424  -2.543   1.229  1.00  0.00    -0.350 N 
ATOM      3  H2  UNL     1      -2.602  -3.485   1.577  1.00  0.00     0.166 HD
HETATM    4  C2  UNL     1      -3.468  -1.800   0.833  1.00  0.00     0.102 A 
HETATM    5  C3  UNL     1      -3.184  -0.517   0.363  1.00  0.00    -0.008 A 
HETATM    6  C9  UNL     1      -1.876  -0.040   0.312  1.00  0.00     0.049 A 
HETATM    7  C10 UNL     1      -0.853  -0.835   0.726  1.00  0.00     0.104 A 
ENDROOT
BRANCH   7   8
HETATM    8  N4  UNL     1       0.520  -0.383   0.693  1.00  0.00    -0.215 N 
HETATM    9  N5  UNL     1       1.425  -0.689  -0.216  1.00  0.00    -0.289 N 
HETATM   10  C11 UNL     1       2.599  -0.102   0.048  1.00  0.00     0.079 A 
ATOM     11  H5  UNL     1       1.253  -1.295  -1.018  1.00  0.00     0.188 HD
HETATM   12  C12 UNL     1       2.426   0.624   1.203  1.00  0.00     0.114 A 
HETATM   13  C20 UNL     1       3.969   0.041  -0.440  1.00  0.00     0.007 A 
HETATM   14  C13 UNL     1       1.108   0.428   1.585  1.00  0.00     0.283 A 
HETATM   15  C14 UNL     1       3.683   1.260   1.495  1.00  0.00     0.201 A 
HETATM   16  O1  UNL     1       0.573   0.936   2.602  1.00  0.00    -0.265 OA
HETATM   17  O2  UNL     1       3.930   2.008   2.467  1.00  0.00    -0.286 OA
HETATM   18  C15 UNL     1       4.609   0.871   0.452  1.00  0.00     0.028 A 
HETATM   19  C16 UNL     1       5.942   1.190   0.242  1.00  0.00     0.016 A 
HETATM   20  C17 UNL     1       6.664   0.716  -0.823  1.00  0.00     0.001 A 
HETATM   21  C18 UNL     1       6.004  -0.119  -1.712  1.00  0.00     0.001 A 
HETATM   22  C19 UNL     1       4.680  -0.443  -1.513  1.00  0.00     0.015 A 
ENDBRANCH   7   8
BRANCH   1  23
HETATM   23  N1  UNL     1      -0.167  -2.863   1.585  1.00  0.00    -0.384 N 
ATOM     24  H12 UNL     1      -0.386  -3.799   1.927  1.00  0.00     0.157 HD
ATOM     25  H11 UNL     1       0.797  -2.530   1.555  1.00  0.00     0.157 HD
ENDBRANCH   1  23
BRANCH   5  26
HETATM   26  C4  UNL     1      -4.265   0.331  -0.076  1.00  0.00    -0.022 A 
HETATM   27  C5  UNL     1      -4.066   1.250  -1.073  1.00  0.00     0.029 A 
HETATM   28  C6  UNL     1      -5.102   2.082  -1.509  1.00  0.00     0.088 A 
HETATM   29  N3  UNL     1      -6.301   1.960  -0.930  1.00  0.00    -0.375 N 
HETATM   30  C7  UNL     1      -6.542   1.080   0.043  1.00  0.00     0.088 A 
ATOM     31  H3  UNL     1      -7.061   2.563  -1.245  1.00  0.00     0.164 HD
HETATM   32  C8  UNL     1      -5.512   0.247   0.484  1.00  0.00     0.029 A 
ENDBRANCH   5  26
TORSDOF 3
