REMARK  4 active torsions:
REMARK  status: ('A' for Active; 'I' for Inactive)
REMARK    1  A    between atoms: C8_9  and  N2_10 
REMARK    2  A    between atoms: N2_10  and  C9_12 
REMARK    3  A    between atoms: C11_18  and  N5_19 
REMARK    4  A    between atoms: N5_19  and  C12_21 
ROOT
HETATM    1  C1  UNL     1      -4.372  -2.000  -0.885  1.00  0.00     0.050 C 
HETATM    2  C2  UNL     1      -4.829  -0.691  -0.346  1.00  0.00    -0.033 A 
HETATM    3  C3  UNL     1      -5.927  -0.076  -0.949  1.00  0.00     0.031 A 
HETATM    4  C4  UNL     1      -6.373   1.141  -0.470  1.00  0.00     0.045 A 
HETATM    5  C5  UNL     1      -7.504   1.812  -1.063  1.00  0.00     0.099 C 
HETATM    6  N1  UNL     1      -8.410   2.361  -1.533  1.00  0.00    -0.191 NA
HETATM    7  C6  UNL     1      -5.726   1.741   0.608  1.00  0.00     0.025 A 
HETATM    8  C7  UNL     1      -4.640   1.151   1.219  1.00  0.00     0.032 A 
HETATM    9  C8  UNL     1      -4.210  -0.077   0.715  1.00  0.00     0.055 A 
ENDROOT
BRANCH   9  10
HETATM   10  N2  UNL     1      -3.092  -0.694   1.336  1.00  0.00    -0.191 N 
ATOM     11  H2  UNL     1      -3.194  -1.291   2.157  1.00  0.00     0.184 HD
BRANCH  10  12
HETATM   12  C9  UNL     1      -1.920  -0.454   0.796  1.00  0.00     0.698 A 
HETATM   13  N3  UNL     1      -1.786   0.332  -0.285  1.00  0.00    -0.187 N 
HETATM   14  C10 UNL     1      -0.631   0.613  -0.879  1.00  0.00     0.215 A 
ATOM     15  H3  UNL     1      -2.632   0.743  -0.679  1.00  0.00     0.185 HD
HETATM   16  N4  UNL     1       0.475   0.052  -0.330  1.00  0.00    -0.187 N 
HETATM   17  C11 UNL     1       0.386  -0.741   0.754  1.00  0.00     0.698 A 
ATOM     18  H4  UNL     1       1.389   0.234  -0.745  1.00  0.00     0.185 HD
HETATM   19  N7  UNL     1      -0.805  -0.996   1.317  1.00  0.00    -0.022 N 
ATOM     20  H7  UNL     1      -0.864  -1.599   2.138  1.00  0.00     0.203 HD
BRANCH  17  21
HETATM   21  N5  UNL     1       1.487  -1.256   1.241  1.00  0.00    -0.191 N 
ATOM     22  H5  UNL     1       1.445  -1.861   2.061  1.00  0.00     0.184 HD
BRANCH  21  23
HETATM   23  C12 UNL     1       2.740  -0.977   0.633  1.00  0.00     0.050 A 
HETATM   24  C13 UNL     1       3.274  -1.845  -0.309  1.00  0.00     0.031 A 
HETATM   25  C14 UNL     1       4.493  -1.544  -0.880  1.00  0.00     0.020 A 
HETATM   26  C15 UNL     1       5.226  -0.425  -0.575  1.00  0.00     0.042 A 
HETATM   27  C16 UNL     1       6.442  -0.151  -1.163  1.00  0.00     0.256 A 
HETATM   28  C19 UNL     1       4.677   0.435   0.371  1.00  0.00    -0.017 A 
HETATM   29  O1  UNL     1       6.928  -0.936  -2.017  1.00  0.00    -0.267 OA
HETATM   30  N6  UNL     1       7.099   0.967  -0.810  1.00  0.00    -0.333 N 
HETATM   31  C17 UNL     1       6.636   1.839   0.090  1.00  0.00     0.092 A 
ATOM     32  H6  UNL     1       7.998   1.160  -1.252  1.00  0.00     0.168 HD
HETATM   33  C18 UNL     1       5.412   1.567   0.685  1.00  0.00     0.029 A 
HETATM   34  C20 UNL     1       3.465   0.160   0.956  1.00  0.00     0.042 A 
ENDBRANCH  21  23
ENDBRANCH  17  21
ENDBRANCH  10  12
ENDBRANCH   9  10
TORSDOF 4
