REMARK  3 active torsions:
REMARK  status: ('A' for Active; 'I' for Inactive)
REMARK    1  A    between atoms: C7_9  and  C8_10 
REMARK    2  A    between atoms: C10_12  and  C11_13 
REMARK    3  A    between atoms: C18_21  and  N3_22 
REMARK       I    between atoms: N3_22  and  C19_24 
ROOT
HETATM    1  C1  UNL     1       5.101  -0.610  -3.073  1.00  0.00     0.103 C 
HETATM    2  C2  UNL     1       5.143  -0.204  -1.913  1.00  0.00    -0.148 C 
HETATM    3  C3  UNL     1       5.234   0.274  -0.564  1.00  0.00     0.019 A 
HETATM    4  C4  UNL     1       6.482   0.584  -0.018  1.00  0.00     0.037 A 
HETATM    5  C5  UNL     1       6.547   1.037   1.269  1.00  0.00     0.089 A 
HETATM    6  N1  UNL     1       5.412   1.187   2.016  1.00  0.00    -0.374 N 
ATOM      7  H1  UNL     1       5.492   1.528   2.974  1.00  0.00     0.164 HD
HETATM    8  C6  UNL     1       4.207   0.902   1.532  1.00  0.00     0.102 A 
HETATM    9  C7  UNL     1       4.127   0.437   0.215  1.00  0.00     0.026 A 
ENDROOT
BRANCH   9  10
HETATM   10  C8  UNL     1       2.799   0.130  -0.299  1.00  0.00     0.070 A 
HETATM   11  C9  UNL     1       1.589   0.250   0.387  1.00  0.00     0.074 A 
HETATM   12  C10 UNL     1       0.583  -0.142  -0.462  1.00  0.00     0.127 A 
HETATM   13  O1  UNL     1       1.148  -0.479  -1.590  1.00  0.00    -0.235 OA
HETATM   14  N7  UNL     1       2.432  -0.325  -1.506  1.00  0.00    -0.260 N 
ATOM     15  H7  UNL     1       3.084  -0.525  -2.265  1.00  0.00     0.195 HD
BRANCH  12  16
HETATM   16  C11 UNL     1      -0.848  -0.165  -0.130  1.00  0.00     0.072 A 
HETATM   17  C12 UNL     1      -1.272   0.228   1.120  1.00  0.00     0.063 A 
HETATM   18  C13 UNL     1      -2.621   0.215   1.460  1.00  0.00     0.050 A 
HETATM   19  C14 UNL     1      -3.513  -0.214   0.474  1.00  0.00     0.036 A 
HETATM   20  N2  UNL     1      -3.327   0.529   2.563  1.00  0.00    -0.360 N 
HETATM   21  C15 UNL     1      -4.775  -0.135   1.054  1.00  0.00     0.034 A 
HETATM   22  C18 UNL     1      -3.076  -0.604  -0.771  1.00  0.00     0.120 A 
HETATM   23  C16 UNL     1      -4.632   0.323   2.334  1.00  0.00     0.092 A 
HETATM   24  N6  UNL     1      -1.769  -0.567  -1.028  1.00  0.00    -0.339 N 
ATOM     25  H6  UNL     1      -1.449  -0.858  -1.952  1.00  0.00     0.167 HD
HETATM   26  C17 UNL     1      -2.739   1.013   3.793  1.00  0.00     0.155 C 
BRANCH  22  27
HETATM   27  N3  UNL     1      -3.940  -0.989  -1.638  1.00  0.00    -0.316 N 
HETATM   28  C19 UNL     1      -3.663  -1.414  -2.939  1.00  0.00     0.187 C 
HETATM   29  N4  UNL     1      -3.004  -2.463  -3.255  1.00  0.00    -0.373 N 
HETATM   30  N5  UNL     1      -4.156  -0.614  -4.026  1.00  0.00    -0.064 NA
ATOM     31  H42 UNL     1      -2.654  -3.031  -2.483  1.00  0.00     0.158 HD
ATOM     32  H41 UNL     1      -2.802  -2.773  -4.205  1.00  0.00     0.158 HD
ATOM     33  H3  UNL     1      -4.919  -0.984  -1.351  1.00  0.00     0.170 HD
ENDBRANCH  22  27
ENDBRANCH  12  16
ENDBRANCH   9  10
TORSDOF 3
