REMARK  5 active torsions:
REMARK  status: ('A' for Active; 'I' for Inactive)
REMARK       I    between atoms: C1_2  and  N1_3 
REMARK    1  A    between atoms: C1_2  and  C13_29 
REMARK    2  A    between atoms: N1_3  and  C2_5 
REMARK    3  A    between atoms: C2_5  and  N2_7 
REMARK    4  A    between atoms: N2_7  and  C3_9 
REMARK    5  A    between atoms: C4_12  and  C5_13 
ROOT
HETATM    1  C3  UNL     1       0.968  -0.851  -0.596  1.00  0.00     0.140 A 
HETATM    2  N3  UNL     1       2.261  -1.192  -0.289  1.00  0.00    -0.326 N 
ATOM      3  H3  UNL     1       2.452  -2.133   0.054  1.00  0.00     0.169 HD
HETATM    4  C4  UNL     1       3.276  -0.340  -0.422  1.00  0.00     0.118 A 
HETATM    5  N5  UNL     1       2.993   0.893  -0.875  1.00  0.00    -0.326 N 
ATOM      6  H5  UNL     1       3.766   1.550  -0.978  1.00  0.00     0.169 HD
HETATM    7  C10 UNL     1       1.764   1.319  -1.201  1.00  0.00     0.139 A 
HETATM    8  N6  UNL     1       1.227   2.456  -1.661  1.00  0.00    -0.337 N 
ATOM      9  H6  UNL     1       1.761   3.301  -1.864  1.00  0.00     0.168 HD
HETATM   10  C11 UNL     1      -0.099   2.345  -1.822  1.00  0.00     0.182 A 
HETATM   11  N7  UNL     1      -0.395   1.093  -1.449  1.00  0.00    -0.346 N 
ATOM     12  H7  UNL     1      -1.336   0.699  -1.459  1.00  0.00     0.167 HD
HETATM   13  C12 UNL     1       0.702   0.419  -1.060  1.00  0.00     0.122 A 
ENDROOT
BRANCH   1  14
HETATM   14  N2  UNL     1       0.027  -1.689  -0.458  1.00  0.00    -0.317 N 
ATOM     15  H2  UNL     1       0.246  -2.624  -0.114  1.00  0.00     0.170 HD
BRANCH  14  16
HETATM   16  C2  UNL     1      -1.312  -1.372  -0.764  1.00  0.00     0.180 C 
HETATM   17  S1  UNL     1      -1.793  -1.694  -2.311  1.00  0.00    -0.040 SA
BRANCH  16  18
HETATM   18  N1  UNL     1      -2.214  -0.823   0.190  1.00  0.00    -0.299 N 
HETATM   19  C1  UNL     1      -3.558  -0.529  -0.139  1.00  0.00     0.257 C 
HETATM   20  O1  UNL     1      -3.948  -0.772  -1.334  1.00  0.00    -0.267 OA
ATOM     21  H1  UNL     1      -1.883  -0.636   1.136  1.00  0.00     0.171 HD
BRANCH  19  22
HETATM   22  C13 UNL     1      -4.498   0.028   0.806  1.00  0.00     0.032 A 
HETATM   23  C14 UNL     1      -4.162   0.291   2.107  1.00  0.00     0.017 A 
HETATM   24  C15 UNL     1      -5.112   0.834   2.987  1.00  0.00     0.001 A 
HETATM   25  C16 UNL     1      -6.393   1.111   2.567  1.00  0.00     0.000 A 
HETATM   26  C17 UNL     1      -6.726   0.842   1.247  1.00  0.00     0.001 A 
HETATM   27  C18 UNL     1      -5.779   0.311   0.406  1.00  0.00     0.017 A 
ENDBRANCH  19  22
ENDBRANCH  16  18
ENDBRANCH  14  16
ENDBRANCH   1  14
BRANCH   4  28
HETATM   28  C5  UNL     1       4.669  -0.716  -0.089  1.00  0.00     0.011 A 
HETATM   29  C6  UNL     1       5.009  -1.959   0.375  1.00  0.00     0.032 A 
HETATM   30  C7  UNL     1       6.349  -2.218   0.660  1.00  0.00     0.088 A 
HETATM   31  N4  UNL     1       7.305  -1.292   0.495  1.00  0.00    -0.375 N 
HETATM   32  C8  UNL     1       7.009  -0.062   0.042  1.00  0.00     0.088 A 
ATOM     33  H4  UNL     1       8.273  -1.525   0.717  1.00  0.00     0.164 HD
HETATM   34  C9  UNL     1       5.688   0.200  -0.241  1.00  0.00     0.032 A 
ENDBRANCH   4  28
TORSDOF 5
