REMARK  7 active torsions:
REMARK  status: ('A' for Active; 'I' for Inactive)
REMARK    1  A    between atoms: C2_2  and  C3_3 
REMARK    2  A    between atoms: C11_12  and  C12_13 
REMARK    3  A    between atoms: C12_13  and  C14_15 
REMARK    4  A    between atoms: C16_18  and  C17_19 
REMARK    5  A    between atoms: C17_19  and  C18_21 
REMARK    6  A    between atoms: C18_21  and  O4_22 
REMARK    7  A    between atoms: C23_28  and  O5_29 
ROOT
HETATM    1  C3  UNL     1      -4.127   0.547   0.013  1.00  0.00     0.043 C 
HETATM    2  C4  UNL     1      -4.148  -0.848  -0.517  1.00  0.00     0.094 C 
HETATM    3  C5  UNL     1      -2.986  -1.233  -1.317  1.00  0.00     0.156 C 
HETATM    4  O1  UNL     1      -3.235  -1.996  -2.316  1.00  0.00    -0.293 OA
HETATM    5  C6  UNL     1      -1.539  -0.908  -1.201  1.00  0.00    -0.007 C 
HETATM    6  C7  UNL     1      -0.907  -1.201  -2.291  1.00  0.00    -0.015 C 
HETATM    7  C8  UNL     1       0.520  -0.981  -2.443  1.00  0.00     0.033 C 
HETATM    8  C9  UNL     1       1.213  -0.939  -1.098  1.00  0.00    -0.005 C 
HETATM    9  C10 UNL     1       2.609  -0.416  -1.388  1.00  0.00     0.014 C 
HETATM   10  C11 UNL     1       2.810   0.990  -0.873  1.00  0.00     0.022 C 
HETATM   11  C15 UNL     1       2.543   1.116   0.591  1.00  0.00     0.022 C 
HETATM   12  C16 UNL     1       1.258   0.409   1.024  1.00  0.00     0.064 C 
HETATM   13  C19 UNL     1       0.506  -0.000  -0.153  1.00  0.00     0.014 C 
HETATM   14  C20 UNL     1      -0.954  -0.330   0.019  1.00  0.00    -0.006 C 
HETATM   15  C21 UNL     1      -1.203  -1.334   1.126  1.00  0.00     0.021 C 
HETATM   16  C22 UNL     1      -1.659   0.942   0.427  1.00  0.00     0.047 C 
HETATM   17  C23 UNL     1      -2.851   1.300  -0.364  1.00  0.00     0.127 C 
ENDROOT
BRANCH  12  18
HETATM   18  C17 UNL     1       1.617  -0.504   2.087  1.00  0.00     0.154 C 
HETATM   19  O3  UNL     1       1.060  -0.385   3.193  1.00  0.00    -0.295 OA
BRANCH  18  20
HETATM   20  C18 UNL     1       2.600  -1.616   2.046  1.00  0.00     0.242 C 
BRANCH  20  21
HETATM   21  O4  UNL     1       2.706  -2.296   3.269  1.00  0.00    -0.394 OA
ATOM     22  H4  UNL     1       3.335  -3.007   3.243  1.00  0.00     0.209 HD
ENDBRANCH  20  21
ENDBRANCH  18  20
ENDBRANCH  12  18
BRANCH  10  23
HETATM   23  C12 UNL     1       4.230   1.348  -1.122  1.00  0.00    -0.026 C 
HETATM   24  C13 UNL     1       4.597   2.343  -1.906  1.00  0.00     0.022 C 
BRANCH  23  25
HETATM   25  C14 UNL     1       5.262   0.563  -0.469  1.00  0.00     0.265 C 
HETATM   26  O2  UNL     1       6.494   0.819  -0.641  1.00  0.00    -0.302 OA
ENDBRANCH  23  25
ENDBRANCH  10  23
BRANCH  17  27
HETATM   27  O5  UNL     1      -2.684   1.305  -1.730  1.00  0.00    -0.395 OA
ATOM     28  H5  UNL     1      -1.891   1.773  -1.964  1.00  0.00     0.210 HD
ENDBRANCH  17  27
BRANCH   1  29
HETATM   29  C2  UNL     1      -4.404   0.613   1.466  1.00  0.00    -0.029 C 
HETATM   30  C1  UNL     1      -5.531   1.155   1.948  1.00  0.00     0.007 C 
ENDBRANCH   1  29
TORSDOF 7
