REMARK  7 active torsions:
REMARK  status: ('A' for Active; 'I' for Inactive)
REMARK    1  A    between atoms: C2_2  and  C3_3 
REMARK    2  A    between atoms: C11_12  and  O1_13 
REMARK    3  A    between atoms: C13_16  and  O2_17 
REMARK    4  A    between atoms: O2_17  and  C14_18 
REMARK    5  A    between atoms: C18_23  and  O4_24 
REMARK    6  A    between atoms: C19_26  and  C20_27 
REMARK    7  A    between atoms: C20_27  and  O5_28 
ROOT
HETATM    1  C3  UNL     1      -2.294   0.851   1.024  1.00  0.00    -0.001 C 
HETATM    2  C4  UNL     1      -3.425  -0.047   1.414  1.00  0.00     0.007 C 
HETATM    3  C5  UNL     1      -3.022  -1.413   1.809  1.00  0.00     0.021 C 
HETATM    4  C6  UNL     1      -2.137  -1.983   0.730  1.00  0.00     0.087 C 
HETATM    5 CL1  UNL     1      -1.631  -3.584   1.428  1.00  0.00    -0.125 Cl
HETATM    6  C7  UNL     1      -0.917  -1.103   0.556  1.00  0.00     0.018 C 
HETATM    7  C8  UNL     1       0.013  -1.925  -0.252  1.00  0.00     0.019 C 
HETATM    8  C9  UNL     1       1.389  -1.545  -0.497  1.00  0.00    -0.011 C 
HETATM    9  C10 UNL     1       1.741  -1.532  -1.947  1.00  0.00     0.018 C 
HETATM   10  C11 UNL     1       2.456  -2.441   0.170  1.00  0.00     0.129 C 
HETATM   11  C12 UNL     1       3.670  -1.567  -0.104  1.00  0.00     0.065 C 
HETATM   12  C13 UNL     1       3.213  -0.251   0.396  1.00  0.00     0.139 C 
HETATM   13  C16 UNL     1       1.731  -0.273   0.234  1.00  0.00     0.028 C 
HETATM   14  C17 UNL     1       1.110   0.826  -0.518  1.00  0.00     0.040 C 
HETATM   15  C18 UNL     1      -0.183   1.257   0.094  1.00  0.00     0.130 C 
HETATM   16  C19 UNL     1      -1.294   0.224   0.067  1.00  0.00     0.016 C 
ENDROOT
BRANCH  12  17
HETATM   17  O2  UNL     1       3.853   0.879  -0.053  1.00  0.00    -0.316 OA
BRANCH  17  18
HETATM   18  C14 UNL     1       4.613   1.770   0.624  1.00  0.00     0.255 C 
HETATM   19  C15 UNL     1       5.198   2.922  -0.104  1.00  0.00     0.126 C 
HETATM   20  O3  UNL     1       4.786   1.578   1.828  1.00  0.00    -0.266 OA
ENDBRANCH  17  18
ENDBRANCH  12  17
BRANCH  10  21
HETATM   21  O1  UNL     1       2.594  -3.635  -0.491  1.00  0.00    -0.395 OA
ATOM     22  H1  UNL     1       3.250  -4.186  -0.081  1.00  0.00     0.210 HD
ENDBRANCH  10  21
BRANCH  15  23
HETATM   23  O4  UNL     1       0.091   1.737   1.370  1.00  0.00    -0.395 OA
ATOM     24  H4  UNL     1      -0.731   2.011   1.759  1.00  0.00     0.210 HD
ENDBRANCH  15  23
BRANCH  16  25
HETATM   25  C20 UNL     1      -1.817   0.265  -1.347  1.00  0.00     0.179 C 
BRANCH  25  26
HETATM   26  O5  UNL     1      -2.988  -0.367  -1.597  1.00  0.00    -0.395 OA
HETATM   27  C21 UNL     1      -3.308  -0.225  -2.932  1.00  0.00     0.201 C 
ENDBRANCH  25  26
ENDBRANCH  16  25
BRANCH   1  28
HETATM   28  C2  UNL     1      -2.906   2.111   0.512  1.00  0.00     0.001 C 
HETATM   29  C1  UNL     1      -3.738   2.687   1.670  1.00  0.00     0.005 C 
ENDBRANCH   1  28
TORSDOF 7
