REMARK  4 active torsions:
REMARK  status: ('A' for Active; 'I' for Inactive)
REMARK    1  A    between atoms: N1_4  and  C4_5 
REMARK    2  A    between atoms: C4_5  and  C5_6 
REMARK    3  A    between atoms: C8_9  and  N2_10 
REMARK    4  A    between atoms: N5_23  and  C15_24 
ROOT
HETATM    1  N2  UNL     1      -0.217  -0.493  -0.329  1.00  0.00    -0.370 N 
ATOM      2  H2  UNL     1      -0.128  -0.998  -1.211  1.00  0.00     0.161 HD
HETATM    3  C9  UNL     1       0.839  -0.001   0.215  1.00  0.00     0.132 A 
HETATM    4  N3  UNL     1       0.813   0.671   1.366  1.00  0.00    -0.331 N 
ATOM      5  H3  UNL     1      -0.070   0.815   1.857  1.00  0.00     0.168 HD
HETATM    6  C10 UNL     1       1.969   1.163   1.881  1.00  0.00     0.107 A 
HETATM    7 CL1  UNL     1       1.847   2.040   3.406  1.00  0.00    -0.064 Cl
HETATM    8  C11 UNL     1       3.154   0.974   1.233  1.00  0.00     0.074 A 
HETATM    9  C12 UNL     1       3.217   0.282   0.040  1.00  0.00     0.069 A 
HETATM   10  C13 UNL     1       2.041  -0.210  -0.472  1.00  0.00     0.104 A 
HETATM   11  N4  UNL     1       2.364  -0.828  -1.611  1.00  0.00    -0.347 N 
ATOM     12  H4  UNL     1       1.711  -1.302  -2.235  1.00  0.00     0.167 HD
HETATM   13  C14 UNL     1       3.685  -0.723  -1.799  1.00  0.00     0.184 A 
HETATM   14  N5  UNL     1       4.255  -0.030  -0.779  1.00  0.00    -0.335 N 
ENDROOT
BRANCH   1  15
HETATM   15  C8  UNL     1      -1.509  -0.356   0.260  1.00  0.00     0.083 C 
HETATM   16  C7  UNL     1      -1.789  -1.412   1.328  1.00  0.00     0.025 C 
HETATM   17  C6  UNL     1      -3.287  -1.258   1.496  1.00  0.00     0.008 C 
HETATM   18  C5  UNL     1      -3.795  -0.977   0.122  1.00  0.00     0.016 C 
HETATM   19  C20 UNL     1      -2.575  -0.711  -0.759  1.00  0.00     0.031 C 
BRANCH  18  20
HETATM   20  C4  UNL     1      -4.681   0.215   0.019  1.00  0.00     0.277 C 
BRANCH  20  21
HETATM   21  N1  UNL     1      -5.873   0.118   0.835  1.00  0.00     0.089 N 
HETATM   22  C3  UNL     1      -6.748   1.272   0.746  1.00  0.00     0.278 C 
HETATM   23  C2  UNL     1      -7.405   0.674  -0.464  1.00  0.00     0.038 C 
HETATM   24  C1  UNL     1      -8.904   0.809  -0.524  1.00  0.00     0.013 C 
HETATM   25  C21 UNL     1      -6.896  -0.633   0.098  1.00  0.00     0.278 C 
ENDBRANCH  20  21
ENDBRANCH  18  20
ENDBRANCH   1  15
BRANCH  14  26
HETATM   26  C15 UNL     1       5.643   0.297  -0.607  1.00  0.00     0.116 C 
HETATM   27  C16 UNL     1       6.298  -0.419   0.538  1.00  0.00     0.029 C 
HETATM   28  C17 UNL     1       7.790  -0.193   0.444  1.00  0.00     0.029 C 
HETATM   29  C18 UNL     1       8.138   0.869  -0.579  1.00  0.00     0.232 C 
HETATM   30  N6  UNL     1       7.708   0.458  -1.894  1.00  0.00    -0.073 N 
HETATM   31  C19 UNL     1       6.379  -0.094  -1.872  1.00  0.00     0.257 C 
ATOM     32  H62 UNL     1       7.782   1.223  -2.565  1.00  0.00     0.277 HD
ATOM     33  H61 UNL     1       8.373  -0.190  -2.317  1.00  0.00     0.277 HD
ENDBRANCH  14  26
TORSDOF 4
