REMARK  7 active torsions:
REMARK  status: ('A' for Active; 'I' for Inactive)
REMARK    1  A    between atoms: C2_3  and  C3_4 
REMARK    2  A    between atoms: C2_3  and  N2_13 
REMARK    3  A    between atoms: C3_4  and  C4_5 
REMARK    4  A    between atoms: C7_8  and  O1_9 
REMARK    5  A    between atoms: N2_13  and  C10_15 
REMARK    6  A    between atoms: C10_15  and  O2_16 
REMARK    7  A    between atoms: C10_15  and  C11_18 
ROOT
HETATM    1  N1  UNL     1      -1.294   1.570  -2.788  1.00  0.00    -0.195 NA
HETATM    2  C1  UNL     1      -1.149   1.029  -1.758  1.00  0.00     0.084 C 
HETATM    3  C2  UNL     1      -0.918   0.340  -0.494  1.00  0.00     0.191 C 
ENDROOT
BRANCH   3   4
HETATM    4  C3  UNL     1      -1.944  -0.639  -0.103  1.00  0.00     0.044 C 
BRANCH   4   5
HETATM    5  C4  UNL     1      -3.307  -0.120   0.169  1.00  0.00    -0.012 C 
HETATM    6  C5  UNL     1      -4.026   0.600  -0.902  1.00  0.00     0.007 C 
HETATM    7  C6  UNL     1      -5.414   0.986  -0.520  1.00  0.00     0.032 C 
HETATM    8  C7  UNL     1      -6.246  -0.012   0.191  1.00  0.00     0.118 C 
HETATM    9  C8  UNL     1      -5.422  -0.779   1.225  1.00  0.00     0.032 C 
HETATM   10  C9  UNL     1      -4.187  -1.320   0.598  1.00  0.00     0.007 C 
BRANCH   8  11
HETATM   11  O1  UNL     1      -7.246   0.651   0.897  1.00  0.00    -0.396 OA
ATOM     12  H1  UNL     1      -7.780   0.011   1.353  1.00  0.00     0.210 HD
ENDBRANCH   8  11
ENDBRANCH   4   5
ENDBRANCH   3   4
BRANCH   3  13
HETATM   13  N2  UNL     1       0.428  -0.270  -0.514  1.00  0.00    -0.353 N 
ATOM     14  H2  UNL     1       0.565  -1.159  -0.994  1.00  0.00     0.163 HD
BRANCH  13  15
HETATM   15  C10 UNL     1       1.499   0.335   0.100  1.00  0.00     0.148 C 
BRANCH  15  16
HETATM   16  O2  UNL     1       1.211   1.483   0.677  1.00  0.00    -0.346 OA
ATOM     17  H2  UNL     1       1.951   1.901   1.101  1.00  0.00     0.219 HD
ENDBRANCH  15  16
BRANCH  15  18
HETATM   18  C11 UNL     1       2.874  -0.091   0.202  1.00  0.00     0.035 A 
HETATM   19  C12 UNL     1       3.842   0.914   0.285  1.00  0.00     0.057 A 
HETATM   20  C13 UNL     1       5.184   0.639   0.325  1.00  0.00     0.103 A 
HETATM   21  C14 UNL     1       5.628  -0.678   0.283  1.00  0.00     0.103 A 
HETATM   22  O4  UNL     1       6.162   1.645   0.408  1.00  0.00    -0.346 OA
HETATM   23  C15 UNL     1       4.703  -1.696   0.202  1.00  0.00     0.059 A 
HETATM   24  O3  UNL     1       6.992  -0.973   0.321  1.00  0.00    -0.346 OA
HETATM   25  C16 UNL     1       3.349  -1.362   0.165  1.00  0.00     0.028 A 
HETATM   26 BR1  UNL     1       2.123  -2.821   0.113  1.00  0.00    -0.050 Br
HETATM   27  C17 UNL     1       7.960   0.030   0.473  1.00  0.00     0.202 C 
HETATM   28  C18 UNL     1       7.438   1.306  -0.125  1.00  0.00     0.202 C 
ENDBRANCH  15  18
ENDBRANCH  13  15
ENDBRANCH   3  13
TORSDOF 7
