REMARK  6 active torsions:
REMARK  status: ('A' for Active; 'I' for Inactive)
REMARK    1  A    between atoms: N1_1  and  C1_5 
REMARK    2  A    between atoms: C1_5  and  C2_6 
REMARK    3  A    between atoms: C2_6  and  N2_7 
REMARK    4  A    between atoms: N2_7  and  C3_9 
REMARK    5  A    between atoms: C4_12  and  N4_13 
REMARK    6  A    between atoms: C6_17  and  N6_18 
ROOT
HETATM    1  C3  UNL     1      -1.446  -0.346  -0.117  1.00  0.00     0.679 A 
HETATM    2  N3  UNL     1      -0.236  -0.205   0.460  1.00  0.00    -0.172 N 
ATOM      3  H3  UNL     1      -0.195   0.121   1.426  1.00  0.00     0.186 HD
HETATM    4  C4  UNL     1       0.925  -0.474  -0.177  1.00  0.00     0.179 A 
HETATM    5  C7  UNL     1       0.836  -0.919  -1.495  1.00  0.00     0.097 A 
HETATM    6 CL1  UNL     1       2.329  -1.287  -2.372  1.00  0.00    -0.079 Cl
HETATM    7  C8  UNL     1      -0.387  -1.069  -2.098  1.00  0.00     0.134 A 
HETATM    8  N8  UNL     1      -1.488  -0.780  -1.396  1.00  0.00    -0.200 N 
ATOM      9  H8  UNL     1      -2.397  -0.892  -1.845  1.00  0.00     0.183 HD
ENDROOT
BRANCH   4  10
HETATM   10  N4  UNL     1       2.172  -0.309   0.479  1.00  0.00    -0.180 N 
HETATM   11  N5  UNL     1       2.938  -1.226   1.218  1.00  0.00    -0.292 N 
HETATM   12  C5  UNL     1       4.173  -0.865   1.224  1.00  0.00     0.133 C 
ATOM     13  H5  UNL     1       2.569  -2.056   1.682  1.00  0.00     0.187 HD
HETATM   14  C6  UNL     1       4.260   0.382   0.435  1.00  0.00     0.337 C 
HETATM   15  N7  UNL     1       2.904   0.881   0.507  1.00  0.00    -0.077 NA
BRANCH  14  16
HETATM   16  N6  UNL     1       5.209   1.318   1.006  1.00  0.00    -0.055 N 
ATOM     17  H63 UNL     1       4.995   1.512   1.984  1.00  0.00     0.276 HD
ATOM     18  H62 UNL     1       6.127   0.889   1.125  1.00  0.00     0.276 HD
ATOM     19  H61 UNL     1       5.269   2.178   0.462  1.00  0.00     0.276 HD
ENDBRANCH  14  16
ENDBRANCH   4  10
BRANCH   1  20
HETATM   20  N2  UNL     1      -2.532  -0.076   0.525  1.00  0.00    -0.224 N 
ATOM     21  H2  UNL     1      -2.487   0.252   1.490  1.00  0.00     0.177 HD
BRANCH  20  22
HETATM   22  C2  UNL     1      -3.813  -0.240  -0.126  1.00  0.00     0.165 C 
BRANCH  22  23
HETATM   23  C1  UNL     1      -4.926   0.274   0.783  1.00  0.00     0.249 C 
BRANCH  23  24
HETATM   24  N1  UNL     1      -4.743   1.672   1.085  1.00  0.00    -0.078 N 
ATOM     25  H13 UNL     1      -3.820   1.854   1.480  1.00  0.00     0.274 HD
ATOM     26  H12 UNL     1      -4.661   2.232   0.237  1.00  0.00     0.274 HD
ATOM     27  H11 UNL     1      -5.487   2.016   1.693  1.00  0.00     0.274 HD
ENDBRANCH  23  24
ENDBRANCH  22  23
ENDBRANCH  20  22
ENDBRANCH   1  20
TORSDOF 6
