REMARK  6 active torsions:
REMARK  status: ('A' for Active; 'I' for Inactive)
REMARK    1  A    between atoms: C3_3  and  N1_4 
REMARK    2  A    between atoms: C6_12  and  C7_14 
REMARK    3  A    between atoms: C7_14  and  O2_15 
REMARK    4  A    between atoms: C7_14  and  C8_17 
REMARK    5  A    between atoms: C8_17  and  O3_18 
REMARK    6  A    between atoms: C9_20  and  N3_21 
ROOT
HETATM    1  C1  UNL     1      -3.777  -0.257   1.141  1.00  0.00     0.015 C 
HETATM    2  C2  UNL     1      -2.843   0.018   0.433  1.00  0.00    -0.073 C 
HETATM    3  C3  UNL     1      -1.678   0.337  -0.429  1.00  0.00     0.241 C 
HETATM    4  C4  UNL     1      -1.020   1.552   0.111  1.00  0.00     0.281 C 
HETATM    5  C5  UNL     1      -1.569   1.908   1.444  1.00  0.00     0.095 C 
HETATM    6  N2  UNL     1      -1.983   2.173   2.488  1.00  0.00    -0.194 NA
HETATM    7  O1  UNL     1       0.352   1.528   0.127  1.00  0.00    -0.324 OA
HETATM    8  C6  UNL     1       0.913   0.445   0.760  1.00  0.00     0.264 C 
HETATM    9  F1  UNL     1       0.950   0.736   2.129  1.00  0.00    -0.206 F 
HETATM   10  C9  UNL     1       0.238  -0.856   0.554  1.00  0.00     0.274 C 
HETATM   11  C10 UNL     1      -0.780  -0.862  -0.561  1.00  0.00     0.181 C 
HETATM   12  C11 UNL     1      -1.614  -2.064  -0.357  1.00  0.00     0.070 C 
HETATM   13  N4  UNL     1      -2.248  -3.011  -0.201  1.00  0.00    -0.197 NA
ENDROOT
BRANCH   3  14
HETATM   14  N1  UNL     1      -2.254   0.568  -1.764  1.00  0.00    -0.054 N 
ATOM     15  H13 UNL     1      -2.826  -0.203  -2.108  1.00  0.00     0.276 HD
ATOM     16  H12 UNL     1      -2.990   1.274  -1.782  1.00  0.00     0.276 HD
ATOM     17  H11 UNL     1      -1.453   0.787  -2.357  1.00  0.00     0.276 HD
ENDBRANCH   3  14
BRANCH  10  18
HETATM   18  N3  UNL     1       1.140  -1.973   0.358  1.00  0.00    -0.068 N 
ATOM     19  H33 UNL     1       1.783  -1.780  -0.410  1.00  0.00     0.275 HD
ATOM     20  H32 UNL     1       1.803  -2.035   1.130  1.00  0.00     0.275 HD
ATOM     21  H31 UNL     1       0.675  -2.870   0.216  1.00  0.00     0.275 HD
ENDBRANCH  10  18
BRANCH   8  22
HETATM   22  C7  UNL     1       2.357   0.352   0.326  1.00  0.00     0.211 C 
BRANCH  22  23
HETATM   23  O2  UNL     1       2.942   1.567   0.739  1.00  0.00    -0.388 OA
ATOM     24  H2  UNL     1       3.850   1.509   0.466  1.00  0.00     0.210 HD
ENDBRANCH  22  23
BRANCH  22  25
HETATM   25  C8  UNL     1       2.520   0.277  -1.174  1.00  0.00     0.201 C 
BRANCH  25  26
HETATM   26  O3  UNL     1       3.885   0.314  -1.452  1.00  0.00    -0.398 OA
ATOM     27  H3  UNL     1       3.988   0.267  -2.395  1.00  0.00     0.209 HD
ENDBRANCH  25  26
ENDBRANCH  22  25
ENDBRANCH   8  22
TORSDOF 6
