REMARK  5 active torsions:
REMARK  status: ('A' for Active; 'I' for Inactive)
REMARK    1  A    between atoms: C3_5  and  O2_6 
REMARK    2  A    between atoms: O2_6  and  C4_7 
REMARK    3  A    between atoms: C5_9  and  C6_10 
REMARK       I    between atoms: C6_10  and  N2_12 
REMARK    4  A    between atoms: N2_12  and  N3_13 
REMARK    5  A    between atoms: C8_17  and  N4_18 
ROOT
HETATM    1  N1  UNL     1      -3.659   2.490   2.147  1.00  0.00    -0.194 NA
HETATM    2  C1  UNL     1      -3.393   1.472   1.680  1.00  0.00     0.094 C 
HETATM    3  C2  UNL     1      -3.057   0.153   1.086  1.00  0.00     0.266 C 
HETATM    4  O1  UNL     1      -1.755  -0.137   1.411  1.00  0.00    -0.339 OA
HETATM    5  C3  UNL     1      -0.831   0.093   0.431  1.00  0.00     0.267 C 
HETATM    6  C7  UNL     1      -1.137  -0.507  -0.898  1.00  0.00     0.096 C 
HETATM    7  C8  UNL     1      -2.605  -0.866  -1.047  1.00  0.00     0.225 C 
HETATM    8  C9  UNL     1      -3.370   0.250  -0.365  1.00  0.00     0.243 C 
HETATM    9  F1  UNL     1      -4.742  -0.016  -0.521  1.00  0.00    -0.243 F 
ENDROOT
BRANCH   5  10
HETATM   10  O2  UNL     1       0.411  -0.338   0.870  1.00  0.00    -0.328 OA
BRANCH  10  11
HETATM   11  C4  UNL     1       1.247   0.741   1.047  1.00  0.00     0.303 A 
HETATM   12  O3  UNL     1       1.989   0.707   2.248  1.00  0.00    -0.337 OA
HETATM   13  C5  UNL     1       2.680   0.727   0.942  1.00  0.00     0.288 A 
BRANCH  13  14
HETATM   14  C6  UNL     1       3.510  -0.494   0.744  1.00  0.00     0.345 C 
HETATM   15  O4  UNL     1       3.024  -1.595   0.910  1.00  0.00    -0.252 OA
HETATM   16  N2  UNL     1       4.889  -0.258   0.351  1.00  0.00    -0.291 NA
BRANCH  16  17
HETATM   17  N3  UNL     1       6.046  -0.060   0.022  1.00  0.00    -0.277 N 
ATOM     18  H32 UNL     1       5.086  -0.225   0.326  1.00  0.00     0.191 HD
ATOM     19  H31 UNL     1       7.014   0.106  -0.254  1.00  0.00     0.191 HD
ENDBRANCH  16  17
ENDBRANCH  13  14
ENDBRANCH  10  11
ENDBRANCH   5  10
BRANCH   7  20
HETATM   20  N4  UNL     1      -2.950  -0.896  -2.451  1.00  0.00    -0.072 N 
ATOM     21  H43 UNL     1      -2.715  -0.024  -2.925  1.00  0.00     0.274 HD
ATOM     22  H42 UNL     1      -2.344  -1.519  -2.985  1.00  0.00     0.274 HD
ATOM     23  H41 UNL     1      -3.936  -1.137  -2.551  1.00  0.00     0.274 HD
ENDBRANCH   7  20
TORSDOF 5
