REMARK  2 active torsions:
REMARK  status: ('A' for Active; 'I' for Inactive)
REMARK    1  A    between atoms: C7_7  and  N1_8 
REMARK    2  A    between atoms: N1_8  and  N2_9 
ROOT
HETATM    1  C1  UNL     1      -2.529  -0.510   1.961  1.00  0.00     0.022 C 
HETATM    2  C2  UNL     1      -1.838  -0.560   0.837  1.00  0.00    -0.025 C 
HETATM    3  C3  UNL     1      -0.574  -1.325   0.673  1.00  0.00     0.095 C 
HETATM    4  C4  UNL     1       0.453  -0.406   0.038  1.00  0.00     0.112 C 
HETATM    5  C5  UNL     1      -0.072   0.420  -1.085  1.00  0.00     0.061 C 
HETATM    6  C6  UNL     1      -1.464   0.023  -1.534  1.00  0.00     0.079 C 
HETATM    7  C7  UNL     1      -2.322   0.168  -0.329  1.00  0.00     0.114 C 
HETATM    8  N3  UNL     1       1.573  -1.183  -0.468  1.00  0.00    -0.334 N 
ATOM      9  H3  UNL     1       1.553  -2.202  -0.496  1.00  0.00     0.165 HD
HETATM   10  C8  UNL     1       2.698  -0.440  -0.921  1.00  0.00     0.228 C 
HETATM   11  O1  UNL     1       3.490  -0.946  -1.743  1.00  0.00    -0.273 OA
HETATM   12  C9  UNL     1       2.915   0.935  -0.406  1.00  0.00     0.205 C 
HETATM   13  C10 UNL     1       2.276   1.076   0.937  1.00  0.00     0.228 C 
HETATM   14  O2  UNL     1       2.863   1.725   1.821  1.00  0.00    -0.273 OA
HETATM   15  N4  UNL     1       1.015   0.440   1.104  1.00  0.00    -0.334 N 
ATOM     16  H4  UNL     1       0.494   0.571   1.971  1.00  0.00     0.165 HD
ENDROOT
BRANCH   7  17
HETATM   17  N1  UNL     1      -3.356   0.862  -0.360  1.00  0.00    -0.337 NA
BRANCH  17  18
HETATM   18  N2  UNL     1      -4.293   1.687  -0.258  1.00  0.00    -0.280 N 
ATOM     19  H22 UNL     1      -3.705   2.225   0.378  1.00  0.00     0.191 HD
ATOM     20  H21 UNL     1      -5.140   2.255  -0.283  1.00  0.00     0.191 HD
ENDBRANCH  17  18
ENDBRANCH   7  17
TORSDOF 2
