REMARK  2 active torsions:
REMARK  status: ('A' for Active; 'I' for Inactive)
REMARK    1  A    between atoms: N1_3  and  C3_5 
REMARK    2  A    between atoms: C3_5  and  N2_7 
REMARK       I    between atoms: N3_10  and  C6_11 
ROOT
HETATM    1  C1  UNL     1      -4.370   0.712  -0.495  1.00  0.00     0.123 C 
HETATM    2  C2  UNL     1      -3.693  -0.309  -0.441  1.00  0.00    -0.073 C 
HETATM    3  N1  UNL     1      -2.962  -1.482  -0.409  1.00  0.00    -0.303 N 
ATOM      4  H1  UNL     1      -3.438  -2.292  -0.807  1.00  0.00     0.177 HD
ENDROOT
BRANCH   3   5
HETATM    5  C3  UNL     1      -1.691  -1.738   0.074  1.00  0.00     0.180 C 
HETATM    6  S1  UNL     1      -1.229  -3.374  -0.135  1.00  0.00    -0.040 SA
BRANCH   5   7
HETATM    7  N2  UNL     1      -0.766  -0.904   0.681  1.00  0.00    -0.354 N 
HETATM    8  C4  UNL     1       0.550  -1.466   1.089  1.00  0.00     0.145 C 
HETATM    9  C5  UNL     1       1.585  -0.358   1.063  1.00  0.00     0.145 C 
HETATM   10  N3  UNL     1       1.305   0.682   0.125  1.00  0.00    -0.353 N 
HETATM   11  C6  UNL     1       2.389   1.210  -0.642  1.00  0.00     0.184 C 
HETATM   12  C7  UNL     1      -0.020   1.191  -0.051  1.00  0.00     0.145 C 
HETATM   13  N4  UNL     1       2.321   2.359  -1.227  1.00  0.00    -0.374 N 
HETATM   14  N5  UNL     1       3.593   0.481  -0.789  1.00  0.00    -0.064 NA
ATOM     15  H42 UNL     1       1.453   2.884  -1.121  1.00  0.00     0.158 HD
ATOM     16  H41 UNL     1       3.095   2.736  -1.774  1.00  0.00     0.158 HD
HETATM   17  C8  UNL     1      -0.915   0.471   0.978  1.00  0.00     0.145 C 
ENDBRANCH   5   7
ENDBRANCH   3   5
TORSDOF 2
