REMARK  3 active torsions:
REMARK  status: ('A' for Active; 'I' for Inactive)
REMARK    1  A    between atoms: C2_7  and  N3_8 
REMARK    2  A    between atoms: N3_8  and  C3_10 
REMARK    3  A    between atoms: C3_10  and  N4_12 
ROOT
HETATM    1  O1  UNL     1       5.126  -0.699   1.663  1.00  0.00    -0.245 OA
HETATM    2  C1  UNL     1       4.065  -0.544   0.975  1.00  0.00     0.353 A 
HETATM    3  N1  UNL     1       3.792   0.444   0.102  1.00  0.00    -0.237 N 
ATOM      4  H1  UNL     1       4.412   1.219  -0.131  1.00  0.00     0.192 HD
HETATM    5  N2  UNL     1       2.569   0.240  -0.410  1.00  0.00    -0.128 N 
ATOM      6  H2  UNL     1       2.106   0.834  -1.098  1.00  0.00     0.205 HD
HETATM    7  C2  UNL     1       2.055  -0.877   0.133  1.00  0.00     0.703 A 
HETATM    8  N5  UNL     1       2.987  -1.344   0.979  1.00  0.00    -0.139 N 
ATOM      9  H5  UNL     1       2.890  -2.187   1.545  1.00  0.00     0.189 HD
ENDROOT
BRANCH   7  10
HETATM   10  N3  UNL     1       0.906  -1.440  -0.075  1.00  0.00    -0.165 N 
ATOM     11  H3  UNL     1       0.690  -2.296   0.436  1.00  0.00     0.186 HD
BRANCH  10  12
HETATM   12  C3  UNL     1      -0.055  -0.941  -0.961  1.00  0.00     0.188 C 
HETATM   13  S1  UNL     1       0.226  -0.938  -2.565  1.00  0.00    -0.040 SA
BRANCH  12  14
HETATM   14  N4  UNL     1      -1.309  -0.419  -0.512  1.00  0.00    -0.358 N 
HETATM   15  C4  UNL     1      -1.776  -0.322   0.877  1.00  0.00     0.125 C 
HETATM   16  C5  UNL     1      -2.660   0.910   0.893  1.00  0.00     0.021 C 
HETATM   17  C6  UNL     1      -2.699   1.404  -0.553  1.00  0.00     0.021 C 
HETATM   18  C7  UNL     1      -2.393   0.127  -1.300  1.00  0.00     0.125 C 
ENDBRANCH  12  14
ENDBRANCH  10  12
ENDBRANCH   7  10
TORSDOF 3
