REMARK  3 active torsions:
REMARK  status: ('A' for Active; 'I' for Inactive)
REMARK    1  A    between atoms: C2_2  and  C3_3 
REMARK    2  A    between atoms: C6_11  and  S1_12 
REMARK    3  A    between atoms: S1_12  and  N3_13 
ROOT
HETATM    1  C3  UNL     1      -2.267   0.191  -0.010  1.00  0.00     0.057 A 
HETATM    2  N1  UNL     1      -1.860   1.337  -0.573  1.00  0.00    -0.320 N 
ATOM      3  H1  UNL     1      -2.540   2.039  -0.865  1.00  0.00     0.169 HD
HETATM    4  C4  UNL     1      -0.523   1.552  -0.750  1.00  0.00     0.275 A 
HETATM    5  O1  UNL     1      -0.196   2.636  -1.278  1.00  0.00    -0.266 OA
HETATM    6  C5  UNL     1       0.426   0.630  -0.371  1.00  0.00     0.131 A 
HETATM    7  N2  UNL     1       1.765   0.550  -0.411  1.00  0.00    -0.325 N 
ATOM      8  H2  UNL     1       2.378   1.273  -0.787  1.00  0.00     0.168 HD
HETATM    9  C6  UNL     1       2.187  -0.615   0.113  1.00  0.00     0.225 A 
HETATM   10  N4  UNL     1       1.080  -1.274   0.486  1.00  0.00    -0.328 N 
ATOM     11  H4  UNL     1       1.075  -2.197   0.920  1.00  0.00     0.168 HD
HETATM   12  C7  UNL     1      -0.021  -0.555   0.211  1.00  0.00     0.090 A 
HETATM   13  C8  UNL     1      -1.363  -0.777   0.393  1.00  0.00     0.100 A 
HETATM   14  C9  UNL     1      -1.833  -2.013   1.001  1.00  0.00     0.104 C 
HETATM   15  N5  UNL     1      -2.214  -2.986   1.498  1.00  0.00    -0.191 NA
ENDROOT
BRANCH   1  16
HETATM   16  C2  UNL     1      -3.682  -0.099   0.207  1.00  0.00     0.021 C 
HETATM   17  C1  UNL     1      -4.612   0.757  -0.142  1.00  0.00     0.013 C 
ENDBRANCH   1  16
BRANCH   9  18
HETATM   18  S1  UNL     1       3.864  -1.164   0.275  1.00  0.00     0.288 S 
HETATM   19  O2  UNL     1       4.059  -2.483  -0.413  1.00  0.00    -0.198 OA
HETATM   20  O3  UNL     1       4.183  -1.321   1.737  1.00  0.00    -0.198 OA
BRANCH  18  21
HETATM   21  N3  UNL     1       4.927   0.044  -0.354  1.00  0.00    -0.322 N 
ATOM     22  H32 UNL     1       4.621   0.931  -0.754  1.00  0.00     0.169 HD
ATOM     23  H31 UNL     1       5.892  -0.272  -0.261  1.00  0.00     0.169 HD
ENDBRANCH  18  21
ENDBRANCH   9  18
TORSDOF 3
