REMARK  3 active torsions:
REMARK  status: ('A' for Active; 'I' for Inactive)
REMARK    1  A    between atoms: C2_2  and  S1_5 
REMARK    2  A    between atoms: S1_5  and  N1_8 
REMARK    3  A    between atoms: N1_8  and  N2_10 
ROOT
HETATM    1  N2  UNL     1       1.045   1.111   0.537  1.00  0.00    -0.288 N 
ATOM      2  H2  UNL     1       1.100   2.044   0.129  1.00  0.00     0.187 HD
HETATM    3  C5  UNL     1       1.979   0.313   0.229  1.00  0.00     0.112 C 
HETATM    4  C6  UNL     1       3.109   0.652  -0.661  1.00  0.00     0.189 C 
HETATM    5  N3  UNL     1       4.324   0.222   0.005  1.00  0.00    -0.337 N 
ATOM      6  H3  UNL     1       5.128   0.845   0.087  1.00  0.00     0.164 HD
HETATM    7  C7  UNL     1       4.359  -1.095   0.539  1.00  0.00     0.323 C 
HETATM    8  O3  UNL     1       5.434  -1.737   0.682  1.00  0.00    -0.247 OA
HETATM    9  N4  UNL     1       3.166  -1.757   0.943  1.00  0.00    -0.274 N 
ATOM     10  H4  UNL     1       3.182  -2.701   1.328  1.00  0.00     0.173 HD
HETATM   11  C8  UNL     1       1.950  -1.035   0.783  1.00  0.00     0.275 C 
HETATM   12  O4  UNL     1       0.896  -1.618   1.139  1.00  0.00    -0.266 OA
ENDROOT
BRANCH   1  13
HETATM   13  N1  UNL     1      -0.041   0.870   1.360  1.00  0.00    -0.226 N 
ATOM     14  H1  UNL     1       0.068   0.385   2.251  1.00  0.00     0.200 HD
BRANCH  13  15
HETATM   15  S1  UNL     1      -1.588   1.420   0.825  1.00  0.00     0.251 S 
HETATM   16  O1  UNL     1      -2.441   1.863   1.981  1.00  0.00    -0.204 OA
HETATM   17  O2  UNL     1      -1.363   2.631  -0.033  1.00  0.00    -0.204 OA
BRANCH  15  18
HETATM   18  C2  UNL     1      -2.423   0.199  -0.155  1.00  0.00     0.073 C 
HETATM   19  C1  UNL     1      -2.667  -1.080   0.578  1.00  0.00     0.033 C 
HETATM   20  C3  UNL     1      -3.759   0.786  -0.557  1.00  0.00     0.033 C 
HETATM   21  C4  UNL     1      -1.628  -0.081  -1.393  1.00  0.00     0.033 C 
ENDBRANCH  15  18
ENDBRANCH  13  15
ENDBRANCH   1  13
TORSDOF 3
