REMARK  4 active torsions:
REMARK  status: ('A' for Active; 'I' for Inactive)
REMARK    1  A    between atoms: N1_4  and  O2_5 
REMARK    2  A    between atoms: O2_5  and  C3_6 
REMARK       I    between atoms: C3_6  and  N2_8 
REMARK    3  A    between atoms: N2_8  and  N3_10 
REMARK       I    between atoms: N3_10  and  C4_12 
REMARK    4  A    between atoms: C4_12  and  C5_14 
ROOT
HETATM    1  C3  UNL     1       0.631   0.259  -0.221  1.00  0.00     0.401 C 
HETATM    2  O3  UNL     1       0.549   1.495   0.018  1.00  0.00    -0.235 OA
HETATM    3  N2  UNL     1      -0.543  -0.480  -0.500  1.00  0.00    -0.241 N 
ATOM      4  H2  UNL     1      -0.478  -1.480  -0.692  1.00  0.00     0.192 HD
ENDROOT
BRANCH   1   5
HETATM    5  O2  UNL     1       1.861  -0.351  -0.206  1.00  0.00    -0.178 OA
BRANCH   5   6
HETATM    6  N1  UNL     1       2.964   0.416   0.073  1.00  0.00    -0.253 N 
HETATM    7  C2  UNL     1       3.639   0.956  -1.041  1.00  0.00     0.258 C 
HETATM    8  C1  UNL     1       4.932   0.299  -1.378  1.00  0.00     0.238 C 
HETATM    9  O1  UNL     1       5.376   0.248  -2.558  1.00  0.00    -0.272 OA
HETATM   10  N4  UNL     1       5.658  -0.276  -0.309  1.00  0.00    -0.355 N 
HETATM   11  C10 UNL     1       5.189  -0.075   1.025  1.00  0.00     0.169 C 
ATOM     12  H4  UNL     1       6.500  -0.823  -0.487  1.00  0.00     0.162 HD
HETATM   13  C9  UNL     1       3.721  -0.009   1.184  1.00  0.00     0.110 C 
ENDBRANCH   5   6
ENDBRANCH   1   5
BRANCH   3  14
HETATM   14  N3  UNL     1      -1.781   0.144  -0.514  1.00  0.00    -0.265 N 
HETATM   15  C4  UNL     1      -2.781  -0.206   0.414  1.00  0.00     0.240 C 
HETATM   16  O4  UNL     1      -2.540  -1.099   1.265  1.00  0.00    -0.271 OA
ATOM     17  H3  UNL     1      -1.971   0.868  -1.207  1.00  0.00     0.190 HD
BRANCH  15  18
HETATM   18  C5  UNL     1      -4.123   0.429   0.446  1.00  0.00     0.079 C 
HETATM   19  C6  UNL     1      -4.838   0.216  -0.870  1.00  0.00     0.014 C 
HETATM   20  C7  UNL     1      -5.525  -0.981  -0.256  1.00  0.00     0.002 C 
HETATM   21  C8  UNL     1      -5.153  -0.452   1.112  1.00  0.00     0.014 C 
ENDBRANCH  15  18
ENDBRANCH   3  14
TORSDOF 4
