REMARK  2 active torsions:
REMARK  status: ('A' for Active; 'I' for Inactive)
REMARK    1  A    between atoms: C5_8  and  C6_9 
REMARK    2  A    between atoms: C9_18  and  N4_19 
ROOT
HETATM    1  C6  UNL     1       0.914  -0.102  -0.298  1.00  0.00     0.065 A 
HETATM    2  N2  UNL     1       1.182   0.695  -1.345  1.00  0.00    -0.309 N 
ATOM      3  H2  UNL     1       0.404   1.020  -1.918  1.00  0.00     0.170 HD
HETATM    4  C7  UNL     1       2.419   1.083  -1.673  1.00  0.00     0.327 A 
HETATM    5  O2  UNL     1       2.609   1.837  -2.674  1.00  0.00    -0.247 OA
HETATM    6  N3  UNL     1       3.453   0.663  -0.921  1.00  0.00    -0.273 N 
ATOM      7  H3  UNL     1       4.400   0.955  -1.163  1.00  0.00     0.173 HD
HETATM    8  C8  UNL     1       3.259  -0.138   0.147  1.00  0.00     0.284 A 
HETATM    9  O3  UNL     1       4.254  -0.491   0.804  1.00  0.00    -0.265 OA
HETATM   10  C9  UNL     1       1.968  -0.550   0.496  1.00  0.00     0.194 A 
ENDROOT
BRANCH   1  11
HETATM   11  C5  UNL     1      -0.414  -0.625   0.064  1.00  0.00     0.130 C 
HETATM   12  C1  UNL     1      -1.310  -0.684  -1.131  1.00  0.00     0.227 C 
HETATM   13  O1  UNL     1      -1.034  -1.369  -2.128  1.00  0.00    -0.273 OA
HETATM   14  N1  UNL     1      -2.518   0.087  -1.112  1.00  0.00    -0.360 N 
HETATM   15  C2  UNL     1      -3.337   0.284   0.083  1.00  0.00     0.122 C 
ATOM     16  H1  UNL     1      -2.824   0.523  -1.982  1.00  0.00     0.162 HD
HETATM   17  C3  UNL     1      -2.424  -0.064   1.283  1.00  0.00     0.021 C 
HETATM   18  C4  UNL     1      -1.095   0.523   0.878  1.00  0.00     0.022 C 
ENDBRANCH   1  11
BRANCH  10  19
HETATM   19  N4  UNL     1       1.771  -1.324   1.666  1.00  0.00    -0.108 N 
HETATM   20  O4  UNL     1       1.566  -2.533   1.589  1.00  0.00    -0.532 OA
HETATM   21  O5  UNL     1       1.786  -0.714   2.889  1.00  0.00    -0.532 OA
ENDBRANCH  10  19
TORSDOF 2
