REMARK  4 active torsions:
REMARK  status: ('A' for Active; 'I' for Inactive)
REMARK    1  A    between atoms: C1_2  and  C3_9 
REMARK    2  A    between atoms: N2_3  and  N3_5 
REMARK    3  A    between atoms: N3_5  and  C2_7 
REMARK    4  A    between atoms: N4_11  and  C5_12 
ROOT
HETATM    1  C3  UNL     1       1.359  -0.940   0.086  1.00  0.00     0.090 A 
HETATM    2  C4  UNL     1       0.302  -0.052   0.138  1.00  0.00     0.119 A 
HETATM    3  N4  UNL     1      -0.928  -0.413   0.592  1.00  0.00    -0.265 N 
HETATM    4  C7  UNL     1      -1.064  -1.670   0.986  1.00  0.00     0.332 A 
HETATM    5  O2  UNL     1      -2.181  -2.039   1.410  1.00  0.00    -0.246 OA
HETATM    6  N8  UNL     1      -0.064  -2.565   0.952  1.00  0.00    -0.274 N 
ATOM      7  H8  UNL     1      -0.243  -3.517   1.272  1.00  0.00     0.173 HD
HETATM    8  C8  UNL     1       1.171  -2.246   0.508  1.00  0.00     0.264 A 
HETATM    9  O3  UNL     1       2.113  -3.098   0.479  1.00  0.00    -0.267 OA
ENDROOT
BRANCH   1  10
HETATM   10  C1  UNL     1       2.660  -0.517  -0.406  1.00  0.00     0.148 C 
HETATM   11  N1  UNL     1       3.739  -1.423  -0.459  1.00  0.00    -0.080 NA
HETATM   12  N2  UNL     1       2.848   0.690  -0.801  1.00  0.00    -0.285 N 
ATOM     13  H2  UNL     1       2.071   1.350  -0.765  1.00  0.00     0.188 HD
BRANCH  12  14
HETATM   14  N3  UNL     1       4.069   1.119  -1.272  1.00  0.00    -0.276 N 
ATOM     15  H3  UNL     1       4.579   0.534  -1.934  1.00  0.00     0.189 HD
BRANCH  14  16
HETATM   16  C2  UNL     1       4.575   2.219  -0.905  1.00  0.00     0.368 C 
HETATM   17  O1  UNL     1       4.989   3.385  -0.885  1.00  0.00    -0.282 OA
ENDBRANCH  14  16
ENDBRANCH  12  14
ENDBRANCH   1  10
BRANCH   3  18
HETATM   18  C5  UNL     1      -1.924   0.592   0.593  1.00  0.00     0.407 C 
HETATM   19  N5  UNL     1      -1.929   1.413  -0.608  1.00  0.00    -0.024 N 
HETATM   20  C6  UNL     1      -3.297   1.900  -0.650  1.00  0.00     0.366 C 
ATOM     21  H52 UNL     1      -1.214   2.140  -0.634  1.00  0.00     0.282 HD
ATOM     22  H51 UNL     1      -1.617   0.937  -1.454  1.00  0.00     0.282 HD
HETATM   23  N6  UNL     1      -3.934   1.417   0.569  1.00  0.00    -0.117 NA
HETATM   24  N7  UNL     1      -3.281   0.153   0.677  1.00  0.00    -0.092 NA
ENDBRANCH   3  18
TORSDOF 4
