REMARK  5 active torsions:
REMARK  status: ('A' for Active; 'I' for Inactive)
REMARK    1  A    between atoms: C2_2  and  C3_8 
REMARK    2  A    between atoms: N1_3  and  N2_5 
REMARK    3  A    between atoms: C3_8  and  O1_9 
REMARK    4  A    between atoms: C4_12  and  C5_13 
REMARK    5  A    between atoms: C6_18  and  C7_19 
ROOT
HETATM    1  C3  UNL     1       0.092   0.119  -0.687  1.00  0.00     0.270 C 
HETATM    2  O2  UNL     1      -0.780   1.135  -0.231  1.00  0.00    -0.275 OA
HETATM    3  C4  UNL     1      -1.865   0.445   0.338  1.00  0.00     0.400 C 
HETATM    4  O5  UNL     1      -1.393  -0.026   1.532  1.00  0.00    -0.206 OA
HETATM    5  N3  UNL     1      -0.569  -1.066   1.197  1.00  0.00    -0.037 NA
HETATM    6  C6  UNL     1      -0.750  -1.079  -0.251  1.00  0.00     0.313 C 
HETATM    7  O8  UNL     1      -2.008  -0.675  -0.401  1.00  0.00    -0.277 OA
ENDROOT
BRANCH   1   8
HETATM    8  C2  UNL     1       1.378   0.294  -0.033  1.00  0.00     0.066 C 
HETATM    9  C1  UNL     1       2.398   1.202  -0.659  1.00  0.00     0.071 C 
HETATM   10  N1  UNL     1       1.652  -0.199   1.101  1.00  0.00    -0.310 N 
ATOM     11  H1  UNL     1       0.986  -0.834   1.541  1.00  0.00     0.185 HD
BRANCH  10  12
HETATM   12  N2  UNL     1       2.861   0.110   1.775  1.00  0.00    -0.345 N 
ATOM     13  H22 UNL     1       3.516   0.747   1.321  1.00  0.00     0.176 HD
ATOM     14  H21 UNL     1       3.082  -0.287   2.688  1.00  0.00     0.176 HD
ENDBRANCH  10  12
ENDBRANCH   1   8
BRANCH   1  15
HETATM   15  O1  UNL     1       0.193   0.136  -2.052  1.00  0.00    -0.357 OA
ATOM     16  H1  UNL     1      -0.648   0.022  -2.480  1.00  0.00     0.213 HD
ENDBRANCH   1  15
BRANCH   6  17
HETATM   17  C7  UNL     1      -0.292  -2.296  -0.934  1.00  0.00     0.236 C 
HETATM   18  O6  UNL     1       0.375  -2.292  -1.969  1.00  0.00    -0.644 OA
HETATM   19  O7  UNL     1      -0.623  -3.553  -0.370  1.00  0.00    -0.644 OA
ENDBRANCH   6  17
BRANCH   3  20
HETATM   20  C5  UNL     1      -3.046   1.297   0.356  1.00  0.00     0.273 C 
HETATM   21  O3  UNL     1      -4.192   0.955   0.814  1.00  0.00    -0.642 OA
HETATM   22  O4  UNL     1      -2.935   2.572  -0.154  1.00  0.00    -0.642 OA
ENDBRANCH   3  20
TORSDOF 5
