REMARK  6 active torsions:
REMARK  status: ('A' for Active; 'I' for Inactive)
REMARK    1  A    between atoms: C4_8  and  S1_9 
REMARK    2  A    between atoms: S1_9  and  C5_10 
REMARK    3  A    between atoms: C5_10  and  C6_11 
REMARK       I    between atoms: C6_11  and  N3_13 
REMARK       I    between atoms: N3_13  and  C7_15 
REMARK       I    between atoms: C7_15  and  N6_21 
REMARK    4  A    between atoms: N4_16  and  N5_18 
REMARK    5  A    between atoms: N6_21  and  N7_23 
REMARK    6  A    between atoms: N7_23  and  N8_24 
ROOT
HETATM    1  C6  UNL     1      -0.915  -0.412   0.045  1.00  0.00     0.245 C 
HETATM    2  O1  UNL     1      -1.597  -1.294  -0.530  1.00  0.00    -0.272 OA
HETATM    3  N3  UNL     1      -1.543   0.775   0.491  1.00  0.00    -0.157 N 
ATOM      4  H3  UNL     1      -0.999   1.500   0.959  1.00  0.00     0.187 HD
HETATM    5  C7  UNL     1      -2.933   0.948   0.282  1.00  0.00     0.712 C 
HETATM    6  N4  UNL     1      -3.499   2.037   0.693  1.00  0.00    -0.137 N 
ATOM      7  H4  UNL     1      -2.920   2.737   1.156  1.00  0.00     0.205 HD
HETATM    8  N6  UNL     1      -3.718  -0.020  -0.354  1.00  0.00    -0.115 N 
ATOM      9  H6  UNL     1      -3.727  -0.016  -1.374  1.00  0.00     0.203 HD
ENDROOT
BRANCH   1  10
HETATM   10  C5  UNL     1       0.535  -0.674   0.224  1.00  0.00     0.185 C 
BRANCH  10  11
HETATM   11  S1  UNL     1       1.517  -0.094  -1.167  1.00  0.00    -0.085 SA
BRANCH  11  12
HETATM   12  C4  UNL     1       3.238  -0.478  -0.805  1.00  0.00     0.146 A 
HETATM   13  N2  UNL     1       3.798  -1.646  -1.162  1.00  0.00    -0.333 N 
HETATM   14  C3  UNL     1       5.073  -1.959  -0.907  1.00  0.00     0.183 A 
ATOM     15  H2  UNL     1       3.221  -2.329  -1.653  1.00  0.00     0.168 HD
HETATM   16  N1  UNL     1       5.827  -1.056  -0.261  1.00  0.00    -0.342 N 
HETATM   17  C2  UNL     1       5.309   0.123   0.114  1.00  0.00     0.079 A 
ATOM     18  H1  UNL     1       6.803  -1.268  -0.053  1.00  0.00     0.167 HD
HETATM   19  C1  UNL     1       6.168   1.112   0.832  1.00  0.00     0.089 C 
HETATM   20  N9  UNL     1       4.023   0.413  -0.155  1.00  0.00    -0.327 N 
ATOM     21  H9  UNL     1       3.636   1.312   0.133  1.00  0.00     0.169 HD
ENDBRANCH  11  12
ENDBRANCH  10  11
ENDBRANCH   1  10
BRANCH   6  22
HETATM   22  N5  UNL     1      -4.840   2.300   0.538  1.00  0.00    -0.331 N 
ATOM     23  H52 UNL     1      -5.404   1.589   0.073  1.00  0.00     0.177 HD
ATOM     24  H51 UNL     1      -5.286   3.158   0.862  1.00  0.00     0.177 HD
ENDBRANCH   6  22
BRANCH   8  25
HETATM   25  N7  UNL     1      -4.486  -0.986   0.282  1.00  0.00    -0.015 NA
BRANCH  25  26
HETATM   26  N8  UNL     1      -5.842  -0.670   0.358  1.00  0.00    -0.328 N 
ATOM     27  H82 UNL     1      -6.220   0.197  -0.024  1.00  0.00     0.174 HD
ATOM     28  H81 UNL     1      -6.406  -1.380   0.825  1.00  0.00     0.174 HD
ENDBRANCH  25  26
ENDBRANCH   8  25
TORSDOF 6
