REMARK  9 active torsions:
REMARK  status: ('A' for Active; 'I' for Inactive)
REMARK    1  A    between atoms: C2_3  and  O1_4 
REMARK    2  A    between atoms: C3_6  and  C4_7 
REMARK    3  A    between atoms: C4_7  and  O2_8 
REMARK    4  A    between atoms: C4_7  and  O3_10 
REMARK    5  A    between atoms: N2_12  and  C5_13 
REMARK    6  A    between atoms: C7_16  and  C8_17 
REMARK    7  A    between atoms: C9_22  and  C10_23 
REMARK    8  A    between atoms: C10_23  and  O6_24 
REMARK    9  A    between atoms: C10_23  and  O7_26 
ROOT
HETATM    1  C5  UNL     1      -0.640   0.278  -0.555  1.00  0.00     0.191 C 
HETATM    2  C6  UNL     1      -1.320   1.428   0.151  1.00  0.00     0.080 C 
HETATM    3  N3  UNL     1      -0.749   2.656   0.551  1.00  0.00    -0.102 NA
HETATM    4  C7  UNL     1      -2.638   1.091   0.312  1.00  0.00     0.128 C 
HETATM    5  N4  UNL     1      -2.766  -0.169  -0.332  1.00  0.00    -0.155 NA
HETATM    6  N5  UNL     1      -2.598  -1.424  -0.846  1.00  0.00    -0.121 NA
HETATM    7  C9  UNL     1      -1.558  -0.847  -0.040  1.00  0.00     0.194 A 
ENDROOT
BRANCH   1   8
HETATM    8  N2  UNL     1       0.716   0.095  -0.324  1.00  0.00    -0.281 N 
HETATM    9  C3  UNL     1       1.569  -0.458  -1.226  1.00  0.00     0.123 A 
HETATM   10  C2  UNL     1       2.814  -0.468  -0.630  1.00  0.00     0.174 A 
HETATM   11  N1  UNL     1       2.749   0.051   0.582  1.00  0.00    -0.282 N 
HETATM   12  C1  UNL     1       3.854   0.216   1.529  1.00  0.00     0.163 C 
HETATM   13  C11 UNL     1       1.446   0.390   0.749  1.00  0.00     0.331 A 
HETATM   14  O8  UNL     1       1.135   0.919   1.866  1.00  0.00    -0.246 OA
BRANCH   9  15
HETATM   15  C4  UNL     1       1.415  -0.993  -2.569  1.00  0.00     0.310 C 
BRANCH  15  16
HETATM   16  O2  UNL     1       2.480  -0.498  -3.365  1.00  0.00    -0.366 OA
ATOM     17  H2  UNL     1       2.379  -0.848  -4.243  1.00  0.00     0.213 HD
ENDBRANCH  15  16
BRANCH  15  18
HETATM   18  O3  UNL     1       0.294  -0.840  -3.264  1.00  0.00    -0.366 OA
ATOM     19  H3  UNL     1       0.193  -1.190  -4.142  1.00  0.00     0.213 HD
ENDBRANCH  15  18
ENDBRANCH   9  15
BRANCH  10  20
HETATM   20  O1  UNL     1       4.029  -0.948  -1.178  1.00  0.00    -0.344 OA
ATOM     21  H1  UNL     1       4.076  -1.322  -2.050  1.00  0.00     0.219 HD
ENDBRANCH  10  20
ENDBRANCH   1   8
BRANCH   7  22
HETATM   22  C10 UNL     1      -1.279  -1.603   1.186  1.00  0.00     0.298 C 
BRANCH  22  23
HETATM   23  O6  UNL     1      -2.196  -2.684   1.271  1.00  0.00    -0.368 OA
ATOM     24  H6  UNL     1      -2.015  -3.174   2.065  1.00  0.00     0.212 HD
ENDBRANCH  22  23
BRANCH  22  25
HETATM   25  O7  UNL     1      -1.589  -0.865   2.366  1.00  0.00    -0.368 OA
ATOM     26  H7  UNL     1      -1.408  -1.355   3.160  1.00  0.00     0.212 HD
ENDBRANCH  22  25
ENDBRANCH   7  22
BRANCH   4  27
HETATM   27  C8  UNL     1      -3.599   1.939   0.951  1.00  0.00     0.224 C 
HETATM   28  O4  UNL     1      -3.274   3.050   1.403  1.00  0.00    -0.643 OA
HETATM   29  O5  UNL     1      -4.906   1.526   1.073  1.00  0.00    -0.643 OA
ENDBRANCH   4  27
TORSDOF 9
