REMARK  8 active torsions:
REMARK  status: ('A' for Active; 'I' for Inactive)
REMARK    1  A    between atoms: C2_2  and  N1_3 
REMARK    2  A    between atoms: C2_2  and  C6_20 
REMARK       I    between atoms: N1_3  and  C3_5 
REMARK    3  A    between atoms: C3_5  and  C4_7 
REMARK    4  A    between atoms: C4_7  and  N2_8 
REMARK    5  A    between atoms: C4_7  and  C5_12 
REMARK       I    between atoms: C5_12  and  N3_14 
REMARK    6  A    between atoms: N3_14  and  N4_16 
REMARK    7  A    between atoms: N4_16  and  N5_17 
REMARK       I    between atoms: C6_20  and  N6_22 
REMARK    8  A    between atoms: C9_27  and  O4_28 
ROOT
HETATM    1  C1  UNL     1      -0.634   1.578  -0.316  1.00  0.00     0.042 C 
HETATM    2  C2  UNL     1      -0.401   0.100  -0.023  1.00  0.00     0.173 C 
ENDROOT
BRANCH   2   3
HETATM    3  N1  UNL     1       1.020  -0.188  -0.274  1.00  0.00    -0.346 N 
HETATM    4  C3  UNL     1       1.784  -0.949   0.664  1.00  0.00     0.258 C 
HETATM    5  O1  UNL     1       1.218  -1.360   1.692  1.00  0.00    -0.271 OA
ATOM      6  H1  UNL     1       1.464   0.158  -1.125  1.00  0.00     0.163 HD
BRANCH   4   7
HETATM    7  C4  UNL     1       3.197  -1.193   0.330  1.00  0.00     0.366 C 
BRANCH   7   8
HETATM    8  N2  UNL     1       3.811  -2.298   1.026  1.00  0.00    -0.058 N 
ATOM      9  H23 UNL     1       3.704  -2.181   2.034  1.00  0.00     0.275 HD
ATOM     10  H22 UNL     1       3.265  -3.148   0.885  1.00  0.00     0.275 HD
ATOM     11  H21 UNL     1       4.790  -2.467   0.795  1.00  0.00     0.275 HD
ENDBRANCH   7   8
BRANCH   7  12
HETATM   12  C5  UNL     1       4.008   0.033   0.547  1.00  0.00     0.274 C 
HETATM   13  O2  UNL     1       3.431   1.143   0.566  1.00  0.00    -0.269 OA
HETATM   14  N3  UNL     1       5.392  -0.068   0.720  1.00  0.00    -0.252 N 
ATOM     15  H3  UNL     1       5.795  -1.004   0.682  1.00  0.00     0.187 HD
BRANCH  14  16
HETATM   16  N4  UNL     1       6.277   0.994   0.940  1.00  0.00    -0.027 NA
BRANCH  16  17
HETATM   17  N5  UNL     1       5.997   2.115   0.176  1.00  0.00    -0.329 N 
ATOM     18  H52 UNL     1       5.217   2.148  -0.480  1.00  0.00     0.174 HD
ATOM     19  H51 UNL     1       6.642   2.889   0.336  1.00  0.00     0.174 HD
ENDBRANCH  16  17
ENDBRANCH  14  16
ENDBRANCH   7  12
ENDBRANCH   4   7
ENDBRANCH   2   3
BRANCH   2  20
HETATM   20  C6  UNL     1      -1.257  -0.656  -0.996  1.00  0.00     0.253 C 
HETATM   21  O3  UNL     1      -0.606  -1.296  -1.900  1.00  0.00    -0.270 OA
HETATM   22  N6  UNL     1      -2.653  -0.686  -0.957  1.00  0.00    -0.260 N 
HETATM   23  C7  UNL     1      -3.441  -1.351  -1.843  1.00  0.00     0.193 A 
HETATM   24  C11 UNL     1      -3.499  -0.130  -0.077  1.00  0.00     0.151 A 
HETATM   25  N7  UNL     1      -4.720  -1.210  -1.520  1.00  0.00    -0.345 N 
HETATM   26  C8  UNL     1      -4.817  -0.460  -0.430  1.00  0.00     0.130 A 
ATOM     27  H7  UNL     1      -5.505  -1.615  -2.030  1.00  0.00     0.167 HD
HETATM   28  C9  UNL     1      -5.900  -0.022   0.307  1.00  0.00     0.175 A 
HETATM   29  N8  UNL     1      -5.641   0.742   1.386  1.00  0.00    -0.287 N 
HETATM   30  C10 UNL     1      -4.384   1.064   1.736  1.00  0.00     0.327 A 
ATOM     31  H8  UNL     1      -6.418   1.084   1.951  1.00  0.00     0.172 HD
HETATM   32  O5  UNL     1      -4.253   1.778   2.760  1.00  0.00    -0.247 OA
HETATM   33  N9  UNL     1      -3.358   0.628   1.009  1.00  0.00    -0.292 N 
ATOM     34  H9  UNL     1      -2.415   0.888   1.298  1.00  0.00     0.172 HD
BRANCH  28  35
HETATM   35  O4  UNL     1      -7.187  -0.379  -0.098  1.00  0.00    -0.344 OA
ATOM     36  H4  UNL     1      -7.932  -0.078   0.409  1.00  0.00     0.219 HD
ENDBRANCH  28  35
ENDBRANCH   2  20
TORSDOF 8
