REMARK  7 active torsions:
REMARK  status: ('A' for Active; 'I' for Inactive)
REMARK    1  A    between atoms: C3_6  and  O1_7 
REMARK    2  A    between atoms: C3_6  and  C4_9 
REMARK    3  A    between atoms: C4_9  and  N2_10 
REMARK    4  A    between atoms: N3_13  and  C6_14 
REMARK    5  A    between atoms: C6_14  and  O3_15 
REMARK    6  A    between atoms: N4_17  and  C7_18 
REMARK    7  A    between atoms: C9_23  and  O4_24 
ROOT
HETATM    1  N2  UNL     1       0.464  -0.398   0.895  1.00  0.00    -0.245 N 
HETATM    2  C5  UNL     1      -0.217  -1.539   1.102  1.00  0.00     0.349 A 
HETATM    3  O2  UNL     1       0.266  -2.676   1.450  1.00  0.00    -0.245 OA
HETATM    4  N3  UNL     1      -1.510  -1.250   0.871  1.00  0.00    -0.210 N 
HETATM    5  N4  UNL     1      -1.672   0.009   0.531  1.00  0.00    -0.200 N 
HETATM    6  C10 UNL     1      -0.435   0.541   0.547  1.00  0.00     0.349 A 
HETATM    7  O5  UNL     1      -0.131   1.755   0.275  1.00  0.00    -0.245 OA
ENDROOT
BRANCH   1   8
HETATM    8  C4  UNL     1       1.876  -0.250   1.032  1.00  0.00     0.187 C 
BRANCH   8   9
HETATM    9  C3  UNL     1       2.683  -0.517  -0.182  1.00  0.00     0.161 C 
HETATM   10  C2  UNL     1       4.154  -0.296   0.206  1.00  0.00     0.125 C 
HETATM   11  C1  UNL     1       4.411   1.118  -0.151  1.00  0.00     0.080 C 
HETATM   12  N1  UNL     1       5.285   1.950   0.308  1.00  0.00    -0.389 N 
HETATM   13  N6  UNL     1       3.470   1.449  -1.161  1.00  0.00    -0.314 N 
ATOM     14  H12 UNL     1       5.961   1.712   1.034  1.00  0.00     0.157 HD
ATOM     15  H11 UNL     1       5.462   2.924   0.062  1.00  0.00     0.157 HD
HETATM   16  C11 UNL     1       2.506   0.411  -1.296  1.00  0.00     0.259 C 
ATOM     17  H6  UNL     1       3.483   2.308  -1.711  1.00  0.00     0.170 HD
HETATM   18  O6  UNL     1       1.678   0.371  -2.240  1.00  0.00    -0.270 OA
BRANCH   9  19
HETATM   19  O1  UNL     1       2.603  -1.818  -0.651  1.00  0.00    -0.378 OA
ATOM     20  H1  UNL     1       1.694  -1.955  -0.891  1.00  0.00     0.211 HD
ENDBRANCH   9  19
ENDBRANCH   8   9
ENDBRANCH   1   8
BRANCH   4  21
HETATM   21  C6  UNL     1      -2.542  -2.289   1.010  1.00  0.00     0.318 C 
BRANCH  21  22
HETATM   22  O3  UNL     1      -2.738  -2.959  -0.199  1.00  0.00    -0.380 OA
ATOM     23  H3  UNL     1      -3.404  -3.630  -0.109  1.00  0.00     0.211 HD
ENDBRANCH  21  22
ENDBRANCH   4  21
BRANCH   5  24
HETATM   24  C7  UNL     1      -2.914   0.629   0.222  1.00  0.00     0.342 C 
HETATM   25  N5  UNL     1      -3.720  -0.014  -0.806  1.00  0.00    -0.047 N 
HETATM   26  C8  UNL     1      -4.285   1.333  -1.019  1.00  0.00     0.270 C 
ATOM     27  H52 UNL     1      -3.305  -0.556  -1.564  1.00  0.00     0.279 HD
ATOM     28  H51 UNL     1      -4.306  -0.826  -0.610  1.00  0.00     0.279 HD
HETATM   29  C9  UNL     1      -2.866   1.826  -0.689  1.00  0.00     0.196 C 
BRANCH  29  30
HETATM   30  O4  UNL     1      -2.105   1.679  -1.834  1.00  0.00    -0.390 OA
ATOM     31  H4  UNL     1      -2.075   2.435  -2.409  1.00  0.00     0.210 HD
ENDBRANCH  29  30
ENDBRANCH   5  24
TORSDOF 7
