REMARK  11 active torsions:
REMARK  status: ('A' for Active; 'I' for Inactive)
REMARK    1  A    between atoms: N3_6  and  C3_7 
REMARK    2  A    between atoms: C5_9  and  N4_10 
REMARK    3  A    between atoms: C6_14  and  N5_15 
REMARK    4  A    between atoms: C7_19  and  O1_20 
REMARK    5  A    between atoms: O1_20  and  C8_21 
REMARK    6  A    between atoms: C8_21  and  C9_22 
REMARK    7  A    between atoms: C9_22  and  N6_23 
REMARK    8  A    between atoms: C9_22  and  C10_27 
REMARK    9  A    between atoms: C10_27  and  O2_28 
REMARK   10  A    between atoms: C10_27  and  O3_30 
REMARK   11  A    between atoms: C11_32  and  N7_33 
ROOT
HETATM    1  C3  UNL     1      -1.324  -0.760  -0.059  1.00  0.00     0.123 C 
HETATM    2  C4  UNL     1      -1.313  -0.946  -1.564  1.00  0.00     0.062 C 
HETATM    3  C5  UNL     1      -0.381  -2.114  -1.800  1.00  0.00     0.218 C 
HETATM    4  C6  UNL     1       0.889  -1.992  -1.050  1.00  0.00     0.244 C 
HETATM    5  C7  UNL     1       1.155  -0.650  -0.410  1.00  0.00     0.186 C 
HETATM    6  C11 UNL     1      -0.028  -0.051   0.266  1.00  0.00     0.237 C 
ENDROOT
BRANCH   5   7
HETATM    7  O1  UNL     1       1.675   0.270  -1.257  1.00  0.00    -0.379 OA
BRANCH   7   8
HETATM    8  C8  UNL     1       2.923   0.724  -1.120  1.00  0.00     0.206 C 
BRANCH   8   9
HETATM    9  C9  UNL     1       3.190   1.423   0.187  1.00  0.00     0.261 C 
BRANCH   9  10
HETATM   10  N6  UNL     1       2.376   2.592   0.390  1.00  0.00    -0.068 N 
ATOM     11  H63 UNL     1       2.473   3.240  -0.392  1.00  0.00     0.275 HD
ATOM     12  H62 UNL     1       1.386   2.363   0.299  1.00  0.00     0.275 HD
ATOM     13  H61 UNL     1       2.557   3.065   1.275  1.00  0.00     0.275 HD
ENDBRANCH   9  10
BRANCH   9  14
HETATM   14  C10 UNL     1       4.648   1.900   0.258  1.00  0.00     0.286 C 
BRANCH  14  15
HETATM   15  O2  UNL     1       5.445   0.787   0.064  1.00  0.00    -0.369 OA
ATOM     16  H2  UNL     1       6.347   1.082   0.108  1.00  0.00     0.212 HD
ENDBRANCH  14  15
BRANCH  14  17
HETATM   17  O3  UNL     1       4.892   2.811  -0.751  1.00  0.00    -0.369 OA
ATOM     18  H3  UNL     1       5.794   3.106  -0.707  1.00  0.00     0.212 HD
ENDBRANCH  14  17
ENDBRANCH   9  14
ENDBRANCH   8   9
ENDBRANCH   7   8
ENDBRANCH   5   7
BRANCH   4  19
HETATM   19  N5  UNL     1       0.883  -2.972   0.010  1.00  0.00    -0.070 N 
ATOM     20  H53 UNL     1       0.062  -2.896   0.611  1.00  0.00     0.274 HD
ATOM     21  H52 UNL     1       0.717  -3.919  -0.331  1.00  0.00     0.274 HD
ATOM     22  H51 UNL     1       1.758  -2.888   0.527  1.00  0.00     0.274 HD
ENDBRANCH   4  19
BRANCH   6  23
HETATM   23  N7  UNL     1       0.214  -0.079   1.718  1.00  0.00    -0.070 N 
ATOM     24  H73 UNL     1      -0.572   0.303   2.243  1.00  0.00     0.274 HD
ATOM     25  H72 UNL     1       0.195  -1.029   2.090  1.00  0.00     0.274 HD
ATOM     26  H71 UNL     1       1.088   0.399   1.937  1.00  0.00     0.274 HD
ENDBRANCH   6  23
BRANCH   3  27
HETATM   27  N4  UNL     1      -1.019  -3.378  -1.520  1.00  0.00    -0.073 N 
ATOM     28  H43 UNL     1      -1.405  -3.397  -0.576  1.00  0.00     0.274 HD
ATOM     29  H42 UNL     1      -1.884  -3.482  -2.050  1.00  0.00     0.274 HD
ATOM     30  H41 UNL     1      -0.391  -4.166  -1.679  1.00  0.00     0.274 HD
ENDBRANCH   3  27
BRANCH   1  31
HETATM   31  N3  UNL     1      -2.448   0.073   0.266  1.00  0.00    -0.332 N 
HETATM   32  C2  UNL     1      -2.652   1.404  -0.218  1.00  0.00     0.252 A 
HETATM   33  N2  UNL     1      -3.877   1.977   0.255  1.00  0.00    -0.348 N 
HETATM   34  C1  UNL     1      -4.725   1.438   1.028  1.00  0.00     0.191 A 
ATOM     35  H2  UNL     1      -4.090   2.922  -0.065  1.00  0.00     0.163 HD
HETATM   36  N1  UNL     1      -5.908   2.123   1.423  1.00  0.00    -0.063 NA
HETATM   37  N9  UNL     1      -4.498   0.112   1.512  1.00  0.00    -0.305 N 
HETATM   38  C12 UNL     1      -3.430  -0.500   1.142  1.00  0.00     0.194 A 
ATOM     39  H9  UNL     1      -5.168  -0.338   2.136  1.00  0.00     0.171 HD
HETATM   40  N8  UNL     1      -3.255  -1.831   1.660  1.00  0.00    -0.063 NA
ENDBRANCH   1  31
TORSDOF 11
