REMARK  10 active torsions:
REMARK  status: ('A' for Active; 'I' for Inactive)
REMARK    1  A    between atoms: O1_2  and  N1_3 
REMARK    2  A    between atoms: N1_3  and  C2_5 
REMARK    3  A    between atoms: C3_8  and  N3_9 
REMARK    4  A    between atoms: N5_15  and  C5_17 
REMARK    5  A    between atoms: C6_19  and  O3_20 
REMARK    6  A    between atoms: C6_19  and  C7_22 
REMARK    7  A    between atoms: C7_22  and  O4_23 
REMARK    8  A    between atoms: C8_26  and  C9_27 
REMARK    9  A    between atoms: C9_27  and  N6_28 
REMARK   10  A    between atoms: N7_33  and  O6_35 
ROOT
HETATM    1  C5  UNL     1      -1.048   0.110   1.275  1.00  0.00     0.295 C 
HETATM    2  O2  UNL     1      -1.562  -1.130   1.654  1.00  0.00    -0.300 OA
HETATM    3  C6  UNL     1      -2.395  -1.730   0.766  1.00  0.00     0.305 C 
HETATM    4  O5  UNL     1      -3.426  -1.009   0.250  1.00  0.00    -0.318 OA
HETATM    5  C8  UNL     1      -3.102   0.245  -0.251  1.00  0.00     0.205 C 
HETATM    6  C10 UNL     1      -2.080   0.925   0.577  1.00  0.00     0.089 C 
HETATM    7  N7  UNL     1      -2.049   2.193   0.720  1.00  0.00    -0.270 N 
ATOM      8  H7  UNL     1      -1.304   2.558   1.313  1.00  0.00     0.193 HD
ENDROOT
BRANCH   1   9
HETATM    9  N5  UNL     1       0.135  -0.081   0.526  1.00  0.00    -0.193 N 
HETATM   10  C4  UNL     1       1.239   0.545   0.539  1.00  0.00     0.709 A 
HETATM   11  N4  UNL     1       1.417   1.579   1.367  1.00  0.00    -0.022 N 
HETATM   12  N8  UNL     1       2.250   0.150  -0.306  1.00  0.00    -0.020 N 
HETATM   13  C3  UNL     1       2.607   2.229   1.359  1.00  0.00     0.705 A 
ATOM     14  H4  UNL     1       0.670   1.874   1.995  1.00  0.00     0.203 HD
HETATM   15  N2  UNL     1       3.581   1.825   0.523  1.00  0.00    -0.020 N 
HETATM   16  C2  UNL     1       3.426   0.790  -0.317  1.00  0.00     0.731 A 
ATOM     17  H2  UNL     1       4.470   2.324   0.528  1.00  0.00     0.203 HD
ATOM     18  H8  UNL     1       2.102  -0.641  -0.933  1.00  0.00     0.203 HD
ATOM     19  H5  UNL     1       0.095  -0.854  -0.138  1.00  0.00     0.180 HD
BRANCH  13  20
HETATM   20  N3  UNL     1       2.747   3.223   2.170  1.00  0.00    -0.234 N 
ATOM     21  H32 UNL     1       3.642   3.712   2.164  1.00  0.00     0.174 HD
ATOM     22  H31 UNL     1       2.009   3.529   2.804  1.00  0.00     0.174 HD
ENDBRANCH  13  20
BRANCH  16  23
HETATM   23  N1  UNL     1       4.404   0.449  -1.097  1.00  0.00    -0.096 N 
ATOM     24  H1  UNL     1       5.272   0.983  -1.047  1.00  0.00     0.213 HD
BRANCH  23  25
HETATM   25  O1  UNL     1       4.332  -0.584  -1.978  1.00  0.00    -0.271 OA
HETATM   26  C1  UNL     1       5.267  -1.649  -1.974  1.00  0.00     0.238 C 
ENDBRANCH  23  25
ENDBRANCH  16  23
ENDBRANCH   1   9
BRANCH   3  27
HETATM   27  O3  UNL     1      -1.653  -2.330  -0.278  1.00  0.00    -0.342 OA
ATOM     28  H3  UNL     1      -2.236  -2.750  -0.899  1.00  0.00     0.215 HD
ENDBRANCH   3  27
BRANCH   3  29
HETATM   29  C7  UNL     1      -3.012  -2.926   1.507  1.00  0.00     0.266 C 
BRANCH  29  30
HETATM   30  O4  UNL     1      -1.963  -3.752   1.887  1.00  0.00    -0.393 OA
ATOM     31  H4  UNL     1      -2.345  -4.492   2.345  1.00  0.00     0.209 HD
ENDBRANCH  29  30
ENDBRANCH   3  29
BRANCH   5  32
HETATM   32  C9  UNL     1      -2.717   0.166  -1.701  1.00  0.00     0.267 C 
BRANCH  32  33
HETATM   33  N6  UNL     1      -2.375   1.440  -2.261  1.00  0.00    -0.077 N 
ATOM     34  H63 UNL     1      -3.128   2.113  -2.121  1.00  0.00     0.274 HD
ATOM     35  H62 UNL     1      -1.643   1.893  -1.714  1.00  0.00     0.274 HD
ATOM     36  H61 UNL     1      -2.114   1.386  -3.245  1.00  0.00     0.274 HD
ENDBRANCH  32  33
ENDBRANCH   5  32
BRANCH   7  37
HETATM   37  O6  UNL     1      -2.881   3.110   0.183  1.00  0.00    -0.290 OA
ATOM     38  H6  UNL     1      -2.858   4.054   0.289  1.00  0.00     0.244 HD
ENDBRANCH   7  37
TORSDOF 10
