REMARK  7 active torsions:
REMARK  status: ('A' for Active; 'I' for Inactive)
REMARK    1  A    between atoms: C3_7  and  N2_8 
REMARK    2  A    between atoms: N2_8  and  N3_9 
REMARK    3  A    between atoms: N3_9  and  C4_11 
REMARK    4  A    between atoms: C7_20  and  C8_21 
REMARK    5  A    between atoms: C8_21  and  C9_22 
REMARK    6  A    between atoms: C8_21  and  C10_25 
REMARK    7  A    between atoms: C9_22  and  O3_23 
ROOT
HETATM    1  O1  UNL     1      -2.244   2.822   2.374  1.00  0.00    -0.247 OA
HETATM    2  C1  UNL     1      -1.491   2.051   1.731  1.00  0.00     0.324 C 
HETATM    3  N1  UNL     1      -0.160   2.003   2.233  1.00  0.00    -0.276 N 
ATOM      4  H1  UNL     1       0.027   2.571   3.060  1.00  0.00     0.173 HD
HETATM    5  C2  UNL     1       0.952   1.254   1.719  1.00  0.00     0.265 C 
HETATM    6  O2  UNL     1       2.103   1.567   2.056  1.00  0.00    -0.269 OA
HETATM    7  C3  UNL     1       0.776   0.088   0.774  1.00  0.00     0.287 C 
HETATM    8  N6  UNL     1       0.085   0.580  -0.358  1.00  0.00    -0.374 N 
ATOM      9  H6  UNL     1       0.591   0.986  -1.145  1.00  0.00     0.157 HD
HETATM   10  C7  UNL     1      -1.337   0.493  -0.370  1.00  0.00     0.196 C 
HETATM   11  N9  UNL     1      -1.996   1.325   0.615  1.00  0.00    -0.321 N 
ATOM     12  H9  UNL     1      -3.005   1.406   0.486  1.00  0.00     0.166 HD
ENDROOT
BRANCH  10  13
HETATM   13  C8  UNL     1      -1.883  -0.914  -0.392  1.00  0.00     0.118 C 
BRANCH  13  14
HETATM   14  C9  UNL     1      -1.428  -1.684  -1.610  1.00  0.00     0.180 C 
BRANCH  14  15
HETATM   15  O3  UNL     1      -1.779  -1.171  -2.813  1.00  0.00    -0.400 OA
ATOM     16  H3  UNL     1      -1.493  -1.655  -3.579  1.00  0.00     0.209 HD
ENDBRANCH  14  15
ENDBRANCH  13  14
BRANCH  13  17
HETATM   17  C10 UNL     1      -3.344  -0.940  -0.187  1.00  0.00     0.083 C 
HETATM   18  N7  UNL     1      -3.946  -1.574   0.790  1.00  0.00    -0.378 N 
HETATM   19  C11 UNL     1      -5.364  -1.393   0.693  1.00  0.00     0.140 C 
ATOM     20  H7  UNL     1      -3.474  -2.117   1.513  1.00  0.00     0.160 HD
HETATM   21  C12 UNL     1      -5.641  -0.833  -0.685  1.00  0.00     0.140 C 
HETATM   22  N8  UNL     1      -4.308  -0.296  -1.001  1.00  0.00    -0.378 N 
ATOM     23  H8  UNL     1      -4.110   0.425  -1.695  1.00  0.00     0.160 HD
ENDBRANCH  13  17
ENDBRANCH  10  13
BRANCH   7  24
HETATM   24  N2  UNL     1       2.102  -0.354   0.383  1.00  0.00    -0.103 NA
BRANCH  24  25
HETATM   25  N3  UNL     1       2.805   0.661  -0.252  1.00  0.00    -0.273 N 
ATOM     26  H3  UNL     1       2.322   1.483  -0.613  1.00  0.00     0.185 HD
BRANCH  25  27
HETATM   27  C4  UNL     1       4.212   0.528  -0.387  1.00  0.00     0.187 C 
HETATM   28  N4  UNL     1       5.055   1.510  -0.386  1.00  0.00    -0.360 N 
HETATM   29  C5  UNL     1       6.402   1.059  -0.540  1.00  0.00     0.142 C 
ATOM     30  H4  UNL     1       4.789   2.490  -0.287  1.00  0.00     0.162 HD
HETATM   31  C6  UNL     1       6.311  -0.432  -0.444  1.00  0.00     0.142 C 
HETATM   32  N5  UNL     1       4.891  -0.706  -0.542  1.00  0.00    -0.360 N 
ATOM     33  H5  UNL     1       4.460  -1.618  -0.694  1.00  0.00     0.162 HD
ENDBRANCH  25  27
ENDBRANCH  24  25
ENDBRANCH   7  24
TORSDOF 7
