REMARK  9 active torsions:
REMARK  status: ('A' for Active; 'I' for Inactive)
REMARK    1  A    between atoms: N1_1  and  N2_4 
REMARK       I    between atoms: N2_4  and  C1_6 
REMARK    2  A    between atoms: C1_6  and  C2_8 
REMARK    3  A    between atoms: N3_10  and  C4_11 
REMARK    4  A    between atoms: C5_13  and  C6_14 
REMARK    5  A    between atoms: C6_14  and  O3_15 
REMARK    6  A    between atoms: C8_18  and  N4_19 
REMARK    7  A    between atoms: C9_23  and  O4_24 
REMARK    8  A    between atoms: C9_23  and  C10_26 
REMARK    9  A    between atoms: N5_31  and  N6_32 
ROOT
HETATM    1  C4  UNL     1      -0.681  -0.336   0.075  1.00  0.00     0.280 C 
HETATM    2  O2  UNL     1      -1.318  -0.677   1.267  1.00  0.00    -0.355 OA
HETATM    3  C5  UNL     1      -2.598  -1.105   0.915  1.00  0.00     0.150 C 
HETATM    4  C7  UNL     1      -3.397   0.140   0.638  1.00  0.00     0.071 C 
HETATM    5  C8  UNL     1      -2.821   0.826  -0.548  1.00  0.00     0.235 C 
HETATM    6  C9  UNL     1      -1.335   0.822  -0.627  1.00  0.00     0.218 C 
ENDROOT
BRANCH   1   7
HETATM    7  N3  UNL     1       0.701  -0.062   0.399  1.00  0.00    -0.275 N 
HETATM    8  C3  UNL     1       1.764  -0.509  -0.295  1.00  0.00     0.136 A 
HETATM    9  C2  UNL     1       2.925  -0.037   0.323  1.00  0.00     0.145 A 
HETATM   10  N5  UNL     1       2.491   0.681   1.374  1.00  0.00    -0.205 N 
HETATM   11  C11 UNL     1       1.140   0.669   1.424  1.00  0.00     0.350 A 
HETATM   12  O7  UNL     1       0.465   1.271   2.320  1.00  0.00    -0.244 OA
BRANCH   9  13
HETATM   13  C1  UNL     1       4.286  -0.287  -0.102  1.00  0.00     0.289 C 
HETATM   14  N2  UNL     1       4.548  -1.075  -1.245  1.00  0.00    -0.271 N 
ATOM     15  H2  UNL     1       3.755  -1.461  -1.758  1.00  0.00     0.189 HD
HETATM   16  O1  UNL     1       5.231   0.200   0.548  1.00  0.00    -0.264 OA
BRANCH  14  17
HETATM   17  N1  UNL     1       5.831  -1.353  -1.708  1.00  0.00    -0.342 N 
ATOM     18  H12 UNL     1       6.612  -0.959  -1.183  1.00  0.00     0.176 HD
ATOM     19  H11 UNL     1       6.020  -1.922  -2.533  1.00  0.00     0.176 HD
ENDBRANCH  14  17
ENDBRANCH   9  13
BRANCH  10  20
HETATM   20  N6  UNL     1       3.343   1.327   2.256  1.00  0.00    -0.334 N 
ATOM     21  H62 UNL     1       4.362   1.336   2.218  1.00  0.00     0.177 HD
ATOM     22  H61 UNL     1       3.014   1.872   3.053  1.00  0.00     0.177 HD
ENDBRANCH  10  20
ENDBRANCH   1   7
BRANCH   6  23
HETATM   23  O4  UNL     1      -0.873   2.052  -0.151  1.00  0.00    -0.373 OA
ATOM     24  H4  UNL     1      -1.286   2.784  -0.594  1.00  0.00     0.211 HD
ENDBRANCH   6  23
BRANCH   6  25
HETATM   25  C10 UNL     1      -0.948   0.744  -2.062  1.00  0.00     0.216 C 
HETATM   26  O5  UNL     1      -1.251  -0.283  -2.741  1.00  0.00    -0.646 OA
HETATM   27  O6  UNL     1      -0.267   1.745  -2.708  1.00  0.00    -0.646 OA
ENDBRANCH   6  25
BRANCH   3  28
HETATM   28  C6  UNL     1      -3.221  -1.979   1.972  1.00  0.00     0.196 C 
BRANCH  28  29
HETATM   29  O3  UNL     1      -2.371  -3.094   2.115  1.00  0.00    -0.398 OA
ATOM     30  H3  UNL     1      -2.764  -3.645   2.782  1.00  0.00     0.209 HD
ENDBRANCH  28  29
ENDBRANCH   3  28
BRANCH   5  31
HETATM   31  N4  UNL     1      -3.342   2.199  -0.579  1.00  0.00    -0.071 N 
ATOM     32  H43 UNL     1      -4.361   2.234  -0.560  1.00  0.00     0.274 HD
ATOM     33  H42 UNL     1      -3.171   2.705   0.290  1.00  0.00     0.274 HD
ATOM     34  H41 UNL     1      -2.947   2.670  -1.393  1.00  0.00     0.274 HD
ENDBRANCH   5  31
TORSDOF 9
