REMARK  8 active torsions:
REMARK  status: ('A' for Active; 'I' for Inactive)
REMARK    1  A    between atoms: N1_1  and  C1_4 
REMARK    2  A    between atoms: C2_7  and  C3_8 
REMARK    3  A    between atoms: C5_16  and  C6_17 
REMARK    4  A    between atoms: C6_17  and  O3_18 
REMARK    5  A    between atoms: C6_17  and  C7_20 
REMARK    6  A    between atoms: C7_20  and  O4_21 
REMARK    7  A    between atoms: C7_20  and  C8_23 
REMARK    8  A    between atoms: C9_27  and  O5_28 
ROOT
HETATM    1  C1  UNL     1       1.891   2.433  -0.406  1.00  0.00     0.146 C 
HETATM    2  N2  UNL     1       3.112   2.065   0.089  1.00  0.00    -0.322 N 
ATOM      3  H2  UNL     1       3.774   2.822   0.259  1.00  0.00     0.169 HD
HETATM    4  C2  UNL     1       3.544   0.825   0.378  1.00  0.00     0.177 C 
HETATM    5  N4  UNL     1       2.756  -0.261   0.521  1.00  0.00    -0.290 N 
ATOM      6  H4  UNL     1       3.229  -1.087   0.888  1.00  0.00     0.172 HD
HETATM    7  C4  UNL     1       1.445  -0.432   0.257  1.00  0.00     0.334 C 
HETATM    8  O2  UNL     1       0.922  -1.416   0.765  1.00  0.00    -0.246 OA
HETATM    9  N5  UNL     1       0.619   0.327  -0.490  1.00  0.00    -0.242 N 
HETATM   10  C5  UNL     1      -0.533  -0.105  -1.049  1.00  0.00     0.093 A 
HETATM   11  C10 UNL     1      -1.006   1.053  -1.714  1.00  0.00     0.122 A 
HETATM   12  N7  UNL     1      -0.186   2.075  -1.549  1.00  0.00    -0.346 N 
ATOM     13  H7  UNL     1      -0.304   3.015  -1.928  1.00  0.00     0.167 HD
HETATM   14  C11 UNL     1       0.830   1.643  -0.790  1.00  0.00     0.161 A 
ENDROOT
BRANCH  10  15
HETATM   15  C6  UNL     1      -1.110  -1.422  -1.022  1.00  0.00     0.105 C 
BRANCH  15  16
HETATM   16  O3  UNL     1      -0.265  -2.468  -1.462  1.00  0.00    -0.360 OA
ATOM     17  H3  UNL     1      -0.646  -3.338  -1.444  1.00  0.00     0.217 HD
ENDBRANCH  15  16
BRANCH  15  18
HETATM   18  C7  UNL     1      -2.100  -1.853  -0.030  1.00  0.00     0.233 C 
BRANCH  18  19
HETATM   19  O4  UNL     1      -2.973  -2.858  -0.607  1.00  0.00    -0.384 OA
ATOM     20  H4  UNL     1      -3.614  -3.137   0.036  1.00  0.00     0.210 HD
ENDBRANCH  18  19
BRANCH  18  21
HETATM   21  C8  UNL     1      -3.051  -0.889   0.567  1.00  0.00     0.365 C 
HETATM   22  N6  UNL     1      -2.391   0.229   1.224  1.00  0.00     0.004 N 
HETATM   23  C9  UNL     1      -3.670   0.887   0.923  1.00  0.00     0.472 C 
ATOM     24  H62 UNL     1      -1.987   0.178   2.159  1.00  0.00     0.286 HD
ATOM     25  H61 UNL     1      -1.484   0.598   0.939  1.00  0.00     0.286 HD
HETATM   26  O6  UNL     1      -3.708   0.034  -0.228  1.00  0.00    -0.302 OA
BRANCH  23  27
HETATM   27  O5  UNL     1      -4.661   0.632   1.834  1.00  0.00    -0.349 OA
ATOM     28  H5  UNL     1      -5.488   1.057   1.639  1.00  0.00     0.214 HD
ENDBRANCH  23  27
ENDBRANCH  18  21
ENDBRANCH  15  18
ENDBRANCH  10  15
BRANCH   1  29
HETATM   29  N1  UNL     1       1.680   3.707  -0.541  1.00  0.00    -0.382 N 
ATOM     30  H12 UNL     1       2.466   4.292  -0.257  1.00  0.00     0.157 HD
ATOM     31  H11 UNL     1       0.770   3.981  -0.910  1.00  0.00     0.157 HD
ENDBRANCH   1  29
BRANCH   4  32
HETATM   32  C3  UNL     1       4.989   0.649   0.550  1.00  0.00     0.299 C 
HETATM   33  N3  UNL     1       5.517  -0.625   0.856  1.00  0.00    -0.054 NA
HETATM   34  O1  UNL     1       5.791   1.608   0.434  1.00  0.00    -0.268 OA
ENDBRANCH   4  32
TORSDOF 8
