REMARK  12 active torsions:
REMARK  status: ('A' for Active; 'I' for Inactive)
REMARK    1  A    between atoms: C2_2  and  O1_3 
REMARK    2  A    between atoms: O1_3  and  C3_4 
REMARK    3  A    between atoms: C3_4  and  C4_5 
REMARK    4  A    between atoms: C4_5  and  C5_6 
REMARK    5  A    between atoms: C5_6  and  N1_7 
REMARK    6  A    between atoms: N1_7  and  C6_8 
REMARK    7  A    between atoms: N1_7  and  C31_36 
REMARK    8  A    between atoms: C6_8  and  C7_9 
REMARK    9  A    between atoms: C8_10  and  C10_12 
REMARK   10  A    between atoms: C11_13  and  C12_14 
REMARK   11  A    between atoms: C31_36  and  C32_37 
REMARK   12  A    between atoms: C32_37  and  O5_38 
ROOT
HETATM    1  C12 UNL     1      -1.879  -1.366   1.172  1.00  0.00    -0.014 C 
HETATM    2  C13 UNL     1      -2.050  -1.379   2.695  1.00  0.00     0.021 C 
HETATM    3  C14 UNL     1      -2.493  -2.681   0.683  1.00  0.00    -0.006 C 
HETATM    4  C15 UNL     1      -1.747  -3.896   1.120  1.00  0.00     0.011 C 
HETATM    5  C16 UNL     1      -3.916  -2.707   1.062  1.00  0.00     0.006 C 
HETATM    6  C17 UNL     1      -4.744  -1.530   0.740  1.00  0.00     0.017 C 
HETATM    7  C18 UNL     1      -4.063  -0.199   0.791  1.00  0.00     0.014 C 
HETATM    8  C19 UNL     1      -4.367   0.440   2.140  1.00  0.00     0.023 C 
HETATM    9  C20 UNL     1      -4.733   0.695  -0.177  1.00  0.00     0.067 C 
HETATM   10  C21 UNL     1      -4.247   1.230  -1.266  1.00  0.00     0.025 C 
HETATM   11  C22 UNL     1      -5.022   2.132  -2.177  1.00  0.00     0.126 C 
HETATM   12  C23 UNL     1      -6.403   2.346  -1.757  1.00  0.00     0.165 C 
HETATM   13  O2  UNL     1      -7.073   3.223  -2.234  1.00  0.00    -0.294 OA
HETATM   14  C24 UNL     1      -7.023   1.479  -0.721  1.00  0.00     0.120 C 
HETATM   15  C25 UNL     1      -8.029   2.312   0.039  1.00  0.00     0.055 C 
HETATM   16  C26 UNL     1      -7.789   0.328  -1.338  1.00  0.00     0.055 C 
HETATM   17  O3  UNL     1      -6.079   0.973   0.180  1.00  0.00    -0.336 OA
HETATM   18  C27 UNL     1      -2.863   0.907  -1.593  1.00  0.00     0.159 C 
HETATM   19  O4  UNL     1      -2.176   1.664  -2.318  1.00  0.00    -0.293 OA
HETATM   20  C28 UNL     1      -2.352  -0.366  -1.008  1.00  0.00     0.095 C 
HETATM   21  C29 UNL     1      -2.578  -0.264   0.497  1.00  0.00    -0.013 C 
HETATM   22  C30 UNL     1      -2.033   1.085   0.900  1.00  0.00     0.018 C 
ENDROOT
BRANCH   1  23
HETATM   23  C11 UNL     1      -0.425  -1.421   0.983  1.00  0.00    -0.016 C 
HETATM   24  C10 UNL     1       0.488  -0.608   0.567  1.00  0.00     0.003 C 
BRANCH  24  25
HETATM   25  C8  UNL     1       1.928  -1.046   0.519  1.00  0.00    -0.061 C 
HETATM   26  C7  UNL     1       2.839  -0.234   0.105  1.00  0.00     0.024 C 
HETATM   27  C9  UNL     1       2.192  -2.412   0.980  1.00  0.00     0.048 C 
BRANCH  26  28
HETATM   28  C6  UNL     1       4.298  -0.512   0.014  1.00  0.00     0.090 C 
BRANCH  28  29
HETATM   29  N1  UNL     1       4.847  -0.392  -1.265  1.00  0.00    -0.368 N 
BRANCH  29  30
HETATM   30  C5  UNL     1       5.027   0.794  -1.924  1.00  0.00     0.065 C 
BRANCH  30  31
HETATM   31  C4  UNL     1       6.135   1.719  -1.613  1.00  0.00     0.071 C 
BRANCH  31  32
HETATM   32  C3  UNL     1       6.193   2.215  -0.219  1.00  0.00     0.172 C 
BRANCH  32  33
HETATM   33  O1  UNL     1       7.218   3.176  -0.010  1.00  0.00    -0.391 OA
BRANCH  33  34
HETATM   34  C2  UNL     1       8.465   2.653  -0.246  1.00  0.00     0.163 C 
HETATM   35  C1  UNL     1       9.470   3.778   0.065  1.00  0.00     0.033 C 
ENDBRANCH  33  34
ENDBRANCH  32  33
ENDBRANCH  31  32
ENDBRANCH  30  31
ENDBRANCH  29  30
BRANCH  29  36
HETATM   36  C31 UNL     1       5.038  -1.618  -1.996  1.00  0.00     0.153 C 
BRANCH  36  37
HETATM   37  C32 UNL     1       6.515  -1.732  -2.333  1.00  0.00     0.184 C 
BRANCH  37  38
HETATM   38  O5  UNL     1       7.313  -1.750  -1.189  1.00  0.00    -0.399 OA
ATOM     39  H5  UNL     1       8.237  -1.821  -1.400  1.00  0.00     0.209 HD
ENDBRANCH  37  38
ENDBRANCH  36  37
ENDBRANCH  29  36
ENDBRANCH  28  29
ENDBRANCH  26  28
ENDBRANCH  24  25
ENDBRANCH   1  23
TORSDOF 12
