REMARK  14 active torsions:
REMARK  status: ('A' for Active; 'I' for Inactive)
REMARK    1  A    between atoms: O1_2  and  C2_3 
REMARK    2  A    between atoms: C2_3  and  C3_4 
REMARK    3  A    between atoms: C3_4  and  C4_5 
REMARK    4  A    between atoms: C4_5  and  C6_7 
REMARK    5  A    between atoms: C7_8  and  C8_9 
REMARK    6  A    between atoms: C9_10  and  C10_11 
REMARK    7  A    between atoms: C11_12  and  C12_13 
REMARK    8  A    between atoms: C13_14  and  C15_16 
REMARK    9  A    between atoms: C16_17  and  C17_18 
REMARK   10  A    between atoms: C17_18  and  O2_19 
REMARK   11  A    between atoms: C24_28  and  C25_29 
REMARK   12  A    between atoms: C25_29  and  N2_30 
REMARK       I    between atoms: N2_30  and  C26_32 
REMARK   13  A    between atoms: C26_32  and  O5_34 
REMARK   14  A    between atoms: O5_34  and  C27_35 
ROOT
HETATM    1  C4  UNL     1      -0.926   0.438  -0.011  1.00  0.00    -0.018 C 
HETATM    2  C5  UNL     1      -0.501  -0.323  -1.263  1.00  0.00     0.057 C 
ENDROOT
BRANCH   1   3
HETATM    3  C3  UNL     1      -2.119   0.656   0.156  1.00  0.00    -0.111 C 
BRANCH   3   4
HETATM    4  C2  UNL     1      -3.555   0.906   0.333  1.00  0.00     0.120 C 
HETATM    5  C22 UNL     1      -3.838   2.382   0.610  1.00  0.00     0.077 C 
HETATM    6  C23 UNL     1      -4.538   2.975  -0.568  1.00  0.00     0.172 C 
HETATM    7  O3  UNL     1      -5.798   2.355  -0.683  1.00  0.00    -0.384 OA
HETATM    8  C24 UNL     1      -5.624   1.061  -1.135  1.00  0.00     0.143 C 
HETATM    9  C31 UNL     1      -4.244   0.552  -0.942  1.00  0.00     0.084 C 
BRANCH   4  10
HETATM   10  O1  UNL     1      -4.069   0.211   1.420  1.00  0.00    -0.373 OA
HETATM   11  C1  UNL     1      -3.871  -1.140   1.376  1.00  0.00     0.204 C 
ENDBRANCH   4  10
BRANCH   8  12
HETATM   12  C25 UNL     1      -6.652   0.116  -0.542  1.00  0.00     0.157 C 
BRANCH  12  13
HETATM   13  N2  UNL     1      -8.000   0.498  -0.893  1.00  0.00    -0.334 N 
HETATM   14  C26 UNL     1      -9.135  -0.247  -0.472  1.00  0.00     0.361 C 
HETATM   15  O4  UNL     1      -8.967  -1.279   0.233  1.00  0.00    -0.238 OA
ATOM     16  H2  UNL     1      -8.143   1.332  -1.463  1.00  0.00     0.164 HD
BRANCH  14  17
HETATM   17  O5  UNL     1     -10.440   0.075  -0.783  1.00  0.00    -0.294 OA
BRANCH  17  18
HETATM   18  C27 UNL     1     -11.502  -0.739  -0.333  1.00  0.00     0.061 C 
HETATM   19  C28 UNL     1     -11.398  -2.152  -0.860  1.00  0.00     0.046 C 
HETATM   20  C29 UNL     1     -12.846  -0.191  -0.713  1.00  0.00     0.046 C 
HETATM   21  C30 UNL     1     -11.433  -0.800   1.173  1.00  0.00     0.046 C 
ENDBRANCH  17  18
ENDBRANCH  14  17
ENDBRANCH  12  13
ENDBRANCH   8  12
ENDBRANCH   3   4
ENDBRANCH   1   3
BRANCH   1  22
HETATM   22  C6  UNL     1       0.157   0.838   0.894  1.00  0.00     0.015 C 
HETATM   23  C7  UNL     1       1.407   0.710   0.848  1.00  0.00     0.001 C 
BRANCH  23  24
HETATM   24  C8  UNL     1       2.303   0.128  -0.099  1.00  0.00     0.000 C 
HETATM   25  C9  UNL     1       3.639   0.173   0.177  1.00  0.00     0.000 C 
BRANCH  25  26
HETATM   26  C10 UNL     1       4.625  -0.386  -0.720  1.00  0.00     0.000 C 
HETATM   27  C11 UNL     1       5.922  -0.343  -0.491  1.00  0.00     0.001 C 
BRANCH  27  28
HETATM   28  C12 UNL     1       6.512   0.260   0.666  1.00  0.00     0.007 C 
HETATM   29  C13 UNL     1       7.805   0.340   0.935  1.00  0.00    -0.062 C 
HETATM   30  C14 UNL     1       8.237   1.013   2.209  1.00  0.00     0.048 C 
BRANCH  29  31
HETATM   31  C15 UNL     1       8.809  -0.190   0.047  1.00  0.00     0.006 C 
HETATM   32  C16 UNL     1      10.109  -0.105   0.316  1.00  0.00     0.015 C 
BRANCH  32  33
HETATM   33  C17 UNL     1      11.139  -0.653  -0.603  1.00  0.00     0.137 C 
HETATM   34  C19 UNL     1      10.807  -2.106  -0.875  1.00  0.00     0.317 C 
HETATM   35  N1  UNL     1      11.691  -2.597   0.128  1.00  0.00     0.103 N 
HETATM   36  C20 UNL     1      11.848  -1.982   1.412  1.00  0.00     0.312 A 
HETATM   37  C21 UNL     1      12.288  -1.211   0.207  1.00  0.00     0.291 A 
BRANCH  33  38
HETATM   38  O2  UNL     1      11.490   0.111  -1.682  1.00  0.00    -0.377 OA
HETATM   39  C18 UNL     1      12.006   1.324  -1.300  1.00  0.00     0.203 C 
ENDBRANCH  33  38
ENDBRANCH  32  33
ENDBRANCH  29  31
ENDBRANCH  27  28
ENDBRANCH  25  26
ENDBRANCH  23  24
ENDBRANCH   1  22
TORSDOF 14
