REMARK  11 active torsions:
REMARK  status: ('A' for Active; 'I' for Inactive)
REMARK    1  A    between atoms: O1_1  and  C1_3 
REMARK    2  A    between atoms: C1_3  and  C2_4 
REMARK    3  A    between atoms: C2_4  and  C3_5 
REMARK    4  A    between atoms: C5_8  and  C6_9 
REMARK    5  A    between atoms: C7_10  and  C8_11 
REMARK    6  A    between atoms: C8_11  and  C9_12 
REMARK    7  A    between atoms: C9_12  and  C10_13 
REMARK    8  A    between atoms: C10_13  and  C11_14 
REMARK    9  A    between atoms: C11_14  and  C12_15 
REMARK   10  A    between atoms: C12_15  and  N2_16 
REMARK   11  A    between atoms: N3_32  and  C26_33 
ROOT
HETATM    1  C6  UNL     1      -0.143   1.674   0.662  1.00  0.00     0.004 A 
HETATM    2  C7  UNL     1       1.181   1.258   0.451  1.00  0.00    -0.004 A 
HETATM    3  S1  UNL     1       1.941   2.658  -0.116  1.00  0.00    -0.093 SA
HETATM    4  C17 UNL     1       0.632   3.731  -0.089  1.00  0.00     0.016 A 
HETATM    5  C18 UNL     1       0.530   5.099  -0.407  1.00  0.00     0.019 A 
HETATM    6  C19 UNL     1      -0.675   5.754  -0.257  1.00  0.00     0.001 A 
HETATM    7  C20 UNL     1      -1.716   5.002   0.204  1.00  0.00     0.001 A 
HETATM    8  C21 UNL     1      -1.610   3.676   0.510  1.00  0.00     0.014 A 
HETATM    9  C22 UNL     1      -0.395   2.978   0.367  1.00  0.00    -0.006 A 
ENDROOT
BRANCH   1  10
HETATM   10  C5  UNL     1      -1.106   0.721   1.295  1.00  0.00     0.104 C 
HETATM   11  N1  UNL     1      -1.302  -0.520   0.766  1.00  0.00    -0.363 N 
HETATM   12  C4  UNL     1      -1.726  -0.846  -0.529  1.00  0.00     0.115 C 
HETATM   13  C23 UNL     1      -1.516  -1.564   1.755  1.00  0.00     0.133 C 
HETATM   14  C3  UNL     1      -3.090  -1.423  -0.657  1.00  0.00     0.029 C 
HETATM   15  N3  UNL     1      -4.012  -1.053   0.365  1.00  0.00    -0.358 N 
HETATM   16  C25 UNL     1      -3.965  -1.877   1.501  1.00  0.00     0.066 C 
HETATM   17  C24 UNL     1      -2.823  -1.476   2.435  1.00  0.00     0.065 C 
BRANCH  14  18
HETATM   18  C2  UNL     1      -3.183  -2.870  -1.020  1.00  0.00     0.084 C 
BRANCH  18  19
HETATM   19  C1  UNL     1      -2.643  -3.255  -2.361  1.00  0.00     0.170 C 
BRANCH  19  20
HETATM   20  O1  UNL     1      -1.335  -3.030  -2.593  1.00  0.00    -0.400 OA
ATOM     21  H1  UNL     1      -0.992  -3.274  -3.445  1.00  0.00     0.209 HD
ENDBRANCH  19  20
ENDBRANCH  18  19
ENDBRANCH  14  18
BRANCH  15  22
HETATM   22  C26 UNL     1      -5.240  -0.633  -0.168  1.00  0.00     0.089 C 
HETATM   23  C27 UNL     1      -5.204   0.612  -1.002  1.00  0.00     0.026 C 
HETATM   24  C28 UNL     1      -5.527   1.886  -0.254  1.00  0.00     0.002 C 
HETATM   25  C29 UNL     1      -6.770   1.793   0.588  1.00  0.00     0.000 C 
HETATM   26  C30 UNL     1      -6.461   0.687   1.605  1.00  0.00     0.002 C 
HETATM   27  C31 UNL     1      -6.415  -0.571   0.767  1.00  0.00     0.026 C 
ENDBRANCH  15  22
ENDBRANCH   1  10
BRANCH   2  28
HETATM   28  C8  UNL     1       1.718  -0.110   0.692  1.00  0.00     0.047 C 
BRANCH  28  29
HETATM   29  C9  UNL     1       3.210  -0.068   0.490  1.00  0.00     0.005 C 
BRANCH  29  30
HETATM   30  C10 UNL     1       3.664   0.197  -0.898  1.00  0.00     0.002 C 
BRANCH  30  31
HETATM   31  C11 UNL     1       5.150   0.351  -1.023  1.00  0.00     0.030 C 
BRANCH  31  32
HETATM   32  C12 UNL     1       5.891  -0.864  -0.636  1.00  0.00     0.272 C 
BRANCH  32  33
HETATM   33  N2  UNL     1       7.352  -0.656  -0.700  1.00  0.00     0.092 N 
HETATM   34  C13 UNL     1       7.979  -1.924  -0.471  1.00  0.00     0.298 C 
HETATM   35  C14 UNL     1       8.097  -2.331   0.969  1.00  0.00     0.198 C 
HETATM   36  O2  UNL     1       8.748  -1.375   1.743  1.00  0.00    -0.388 OA
HETATM   37  C15 UNL     1       9.011  -0.241   0.995  1.00  0.00     0.198 C 
HETATM   38  C16 UNL     1       7.736   0.254   0.373  1.00  0.00     0.298 C 
ENDBRANCH  32  33
ENDBRANCH  31  32
ENDBRANCH  30  31
ENDBRANCH  29  30
ENDBRANCH  28  29
ENDBRANCH   2  28
TORSDOF 11
