REMARK  5 active torsions:
REMARK  status: ('A' for Active; 'I' for Inactive)
REMARK    1  A    between atoms: N3_4  and  C2_6 
REMARK    2  A    between atoms: C2_6  and  C3_7 
REMARK    3  A    between atoms: C3_7  and  S1_8 
REMARK    4  A    between atoms: S1_8  and  N4_9 
REMARK    5  A    between atoms: S1_8  and  C4_12 
ROOT
HETATM    1  C3  UNL     1      -0.026  -0.531  -0.066  1.00  0.00     0.104 C 
ENDROOT
BRANCH   1   2
HETATM    2  C2  UNL     1      -1.304  -0.502   0.722  1.00  0.00     0.133 C 
BRANCH   2   3
HETATM    3  N3  UNL     1      -2.393  -0.912  -0.134  1.00  0.00    -0.366 N 
HETATM    4  C1  UNL     1      -3.381  -0.118  -0.298  1.00  0.00     0.196 C 
HETATM    5  N1  UNL     1      -4.491  -0.463  -1.133  1.00  0.00    -0.067 NA
HETATM    6  N2  UNL     1      -3.379   1.129   0.360  1.00  0.00    -0.067 NA
ATOM      7  H3  UNL     1      -2.374  -1.819  -0.599  1.00  0.00     0.161 HD
ENDBRANCH   2   3
ENDBRANCH   1   2
BRANCH   1   8
HETATM    8  S1  UNL     1       1.351  -0.034   0.938  1.00  0.00    -0.129 SA
BRANCH   8   9
HETATM    9  N4  UNL     1       1.484  -1.107   2.253  1.00  0.00    -0.383 NA
ATOM     10  H42 UNL     1       0.652  -1.155   2.841  1.00  0.00     0.163 HD
ATOM     11  H41 UNL     1       2.275  -0.821   2.830  1.00  0.00     0.163 HD
ENDBRANCH   8   9
BRANCH   8  12
HETATM   12  C4  UNL     1       2.780   0.049  -0.071  1.00  0.00     0.057 A 
HETATM   13  C5  UNL     1       4.105   0.436   0.460  1.00  0.00     0.017 A 
HETATM   14  C6  UNL     1       3.328   1.463  -0.265  1.00  0.00     0.017 A 
ENDBRANCH   8  12
ENDBRANCH   1   8
TORSDOF 5
