REMARK  5 active torsions:
REMARK  status: ('A' for Active; 'I' for Inactive)
REMARK    1  A    between atoms: N1_1  and  C1_5 
REMARK    2  A    between atoms: C1_5  and  C2_6 
REMARK    3  A    between atoms: C2_6  and  C3_7 
REMARK    4  A    between atoms: C3_7  and  N2_8 
REMARK    5  A    between atoms: C6_11  and  N3_12 
ROOT
HETATM    1  N2  UNL     1       0.597  -0.579   0.073  1.00  0.00    -0.391 N 
HETATM    2  C4  UNL     1       0.257   0.716   0.454  1.00  0.00     0.124 C 
HETATM    3  C5  UNL     1      -1.069   0.520   1.223  1.00  0.00     0.046 C 
HETATM    4  C6  UNL     1      -1.733  -0.552   0.423  1.00  0.00     0.103 C 
HETATM    5  C8  UNL     1      -0.577  -1.398  -0.059  1.00  0.00     0.147 C 
ENDROOT
BRANCH   1   6
HETATM    6  C3  UNL     1       1.677  -0.870  -0.773  1.00  0.00     0.060 C 
BRANCH   6   7
HETATM    7  C2  UNL     1       3.064  -0.724  -0.294  1.00  0.00     0.071 C 
BRANCH   7   8
HETATM    8  C1  UNL     1       3.556   0.596   0.148  1.00  0.00     0.234 C 
BRANCH   8   9
HETATM    9  N1  UNL     1       4.984   0.377   0.525  1.00  0.00    -0.079 N 
ATOM     10  H13 UNL     1       5.119  -0.364   1.213  1.00  0.00     0.274 HD
ATOM     11  H12 UNL     1       5.545  -0.045  -0.215  1.00  0.00     0.274 HD
ATOM     12  H11 UNL     1       5.324   1.289   0.830  1.00  0.00     0.274 HD
ENDBRANCH   8   9
ENDBRANCH   7   8
ENDBRANCH   6   7
ENDBRANCH   1   6
BRANCH   4  13
HETATM   13  N3  UNL     1      -2.457  -0.005  -0.679  1.00  0.00    -0.361 N 
HETATM   14  C7  UNL     1      -3.619   0.516  -0.495  1.00  0.00     0.197 C 
HETATM   15  N4  UNL     1      -4.279   1.040  -1.640  1.00  0.00    -0.067 NA
HETATM   16  N5  UNL     1      -4.256   0.595   0.763  1.00  0.00    -0.067 NA
ATOM     17  H3  UNL     1      -2.052  -0.027  -1.615  1.00  0.00     0.162 HD
ENDBRANCH   4  13
TORSDOF 5
