REMARK  6 active torsions:
REMARK  status: ('A' for Active; 'I' for Inactive)
REMARK    1  A    between atoms: N1_2  and  C2_3 
REMARK    2  A    between atoms: C2_3  and  C3_4 
REMARK    3  A    between atoms: C3_4  and  N2_5 
REMARK    4  A    between atoms: C6_11  and  N3_12 
REMARK    5  A    between atoms: C6_11  and  C7_16 
REMARK    6  A    between atoms: C7_16  and  C8_17 
ROOT
HETATM    1  C1  UNL     1      -1.354  -0.629   1.385  1.00  0.00     0.272 C 
HETATM    2  N1  UNL     1      -0.879  -0.614   0.031  1.00  0.00    -0.067 N 
HETATM    3  C4  UNL     1      -0.228  -1.887  -0.311  1.00  0.00     0.239 C 
HETATM    4  C5  UNL     1       1.222  -1.716   0.056  1.00  0.00     0.068 C 
HETATM    5  C6  UNL     1       1.462  -0.228   0.168  1.00  0.00     0.153 C 
HETATM    6  C9  UNL     1       0.124   0.398  -0.100  1.00  0.00     0.275 C 
ENDROOT
BRANCH   5   7
HETATM    7  N3  UNL     1       1.879   0.070   1.482  1.00  0.00    -0.068 N 
ATOM      8  H33 UNL     1       1.224  -0.272   2.185  1.00  0.00     0.275 HD
ATOM      9  H32 UNL     1       2.691  -0.478   1.766  1.00  0.00     0.275 HD
ATOM     10  H31 UNL     1       2.041   1.074   1.558  1.00  0.00     0.275 HD
ENDBRANCH   5   7
BRANCH   5  11
HETATM   11  C7  UNL     1       2.429   0.211  -0.908  1.00  0.00     0.084 C 
BRANCH  11  12
HETATM   12  C8  UNL     1       2.668   1.670  -0.803  1.00  0.00     0.055 C 
HETATM   13  N4  UNL     1       3.404   2.195   0.101  1.00  0.00    -0.411 N 
ATOM     14  H42 UNL     1       3.840   1.565   0.775  1.00  0.00     0.155 HD
ATOM     15  H41 UNL     1       3.568   3.199   0.173  1.00  0.00     0.155 HD
ENDBRANCH  11  12
ENDBRANCH   5  11
BRANCH   2  16
HETATM   16  C2  UNL     1      -1.927  -0.439  -0.941  1.00  0.00     0.264 C 
BRANCH  16  17
HETATM   17  C3  UNL     1      -2.987   0.535  -0.496  1.00  0.00     0.257 C 
BRANCH  17  18
HETATM   18  N2  UNL     1      -2.440   1.854  -0.245  1.00  0.00    -0.078 N 
ATOM     19  H23 UNL     1      -1.669   1.815   0.422  1.00  0.00     0.274 HD
ATOM     20  H22 UNL     1      -1.932   2.205  -1.057  1.00  0.00     0.274 HD
ATOM     21  H21 UNL     1      -3.158   2.513   0.056  1.00  0.00     0.274 HD
ENDBRANCH  17  18
ENDBRANCH  16  17
ENDBRANCH   2  16
TORSDOF 6
