REMARK  5 active torsions:
REMARK  status: ('A' for Active; 'I' for Inactive)
REMARK       I    between atoms: C1_4  and  N3_6 
REMARK    1  A    between atoms: N4_9  and  C4_10 
REMARK    2  A    between atoms: C4_10  and  C5_11 
REMARK    3  A    between atoms: C5_11  and  C6_12 
REMARK    4  A    between atoms: C6_12  and  C7_13 
REMARK    5  A    between atoms: C7_13  and  N5_14 
ROOT
HETATM    1  N1  UNL     1      -4.138   0.494   1.701  1.00  0.00    -0.374 N 
ATOM      2  H11 UNL     1      -3.484   1.053   2.249  1.00  0.00     0.158 HD
ATOM      3  H12 UNL     1      -5.087   0.282   2.008  1.00  0.00     0.158 HD
HETATM    4  C1  UNL     1      -3.681   0.057   0.558  1.00  0.00     0.185 C 
HETATM    5  N2  UNL     1      -4.601  -0.729  -0.212  1.00  0.00    -0.064 NA
HETATM    6  N3  UNL     1      -2.370   0.350   0.134  1.00  0.00    -0.338 N 
HETATM    7  C2  UNL     1      -1.847   0.264  -1.206  1.00  0.00     0.147 C 
HETATM    8  C3  UNL     1      -0.408  -0.253  -0.910  1.00  0.00     0.143 C 
HETATM    9  N4  UNL     1      -0.127   0.236   0.349  1.00  0.00    -0.376 N 
HETATM   10  C8  UNL     1      -1.298   0.796   0.977  1.00  0.00     0.250 C 
ENDROOT
BRANCH   9  11
HETATM   11  C4  UNL     1       1.084   0.659   0.850  1.00  0.00     0.060 C 
BRANCH  11  12
HETATM   12  C5  UNL     1       2.085  -0.401   1.084  1.00  0.00     0.046 C 
BRANCH  12  13
HETATM   13  C6  UNL     1       2.553  -1.083  -0.139  1.00  0.00     0.032 C 
BRANCH  13  14
HETATM   14  C7  UNL     1       3.250  -0.166  -1.125  1.00  0.00     0.230 C 
BRANCH  14  15
HETATM   15  N5  UNL     1       4.426   0.438  -0.517  1.00  0.00    -0.079 N 
ATOM     16  H53 UNL     1       4.198   0.920   0.353  1.00  0.00     0.274 HD
ATOM     17  H52 UNL     1       5.061  -0.265  -0.139  1.00  0.00     0.274 HD
ATOM     18  H51 UNL     1       4.895   1.055  -1.180  1.00  0.00     0.274 HD
ENDBRANCH  14  15
ENDBRANCH  13  14
ENDBRANCH  12  13
ENDBRANCH  11  12
ENDBRANCH   9  11
TORSDOF 5
