REMARK  7 active torsions:
REMARK  status: ('A' for Active; 'I' for Inactive)
REMARK    1  A    between atoms: O1_1  and  C1_3 
REMARK    2  A    between atoms: C1_3  and  C2_4 
REMARK    3  A    between atoms: C2_4  and  N1_5 
REMARK    4  A    between atoms: N1_5  and  C3_6 
REMARK    5  A    between atoms: C3_6  and  C4_7 
REMARK    6  A    between atoms: C8_11  and  O2_12 
REMARK    7  A    between atoms: C9_14  and  O3_15 
ROOT
HETATM    1  N1  UNL     1      -0.440  -0.161   0.117  1.00  0.00    -0.034 N 
HETATM    2  C7  UNL     1      -1.430  -0.913   0.829  1.00  0.00     0.276 C 
HETATM    3  C8  UNL     1      -1.581  -1.895  -0.312  1.00  0.00     0.201 C 
HETATM    4  C9  UNL     1      -0.743  -0.928  -1.073  1.00  0.00     0.354 C 
ENDROOT
BRANCH   1   5
HETATM    5  C2  UNL     1      -0.618   1.222  -0.069  1.00  0.00     0.266 C 
BRANCH   5   6
HETATM    6  C1  UNL     1      -2.007   1.750   0.091  1.00  0.00     0.192 C 
BRANCH   6   7
HETATM    7  O1  UNL     1      -1.940   3.145  -0.139  1.00  0.00    -0.399 OA
ATOM      8  H1  UNL     1      -2.823   3.481  -0.037  1.00  0.00     0.209 HD
ENDBRANCH   6   7
ENDBRANCH   5   6
ENDBRANCH   1   5
BRANCH   1   9
HETATM    9  C3  UNL     1       0.873  -0.436   0.685  1.00  0.00     0.245 C 
BRANCH   9  10
HETATM   10  C4  UNL     1       1.988   0.010  -0.227  1.00  0.00     0.012 A 
HETATM   11  C5  UNL     1       3.367  -0.256   0.323  1.00  0.00     0.007 A 
HETATM   12  C6  UNL     1       2.860   1.132   0.189  1.00  0.00     0.007 A 
ENDBRANCH   9  10
ENDBRANCH   1   9
BRANCH   4  13
HETATM   13  O3  UNL     1      -1.479  -0.274  -2.046  1.00  0.00    -0.367 OA
ATOM     14  H3  UNL     1      -1.678  -0.777  -2.827  1.00  0.00     0.212 HD
ENDBRANCH   4  13
BRANCH   3  15
HETATM   15  O2  UNL     1      -0.926  -3.092  -0.108  1.00  0.00    -0.389 OA
ATOM     16  H2  UNL     1      -1.021  -3.709  -0.824  1.00  0.00     0.210 HD
ENDBRANCH   3  15
TORSDOF 7
