REMARK  4 active torsions:
REMARK  status: ('A' for Active; 'I' for Inactive)
REMARK    1  A    between atoms: C3_3  and  N1_4 
REMARK    2  A    between atoms: N1_4  and  C4_5 
REMARK       I    between atoms: N1_4  and  C9_13 
REMARK    3  A    between atoms: C4_5  and  C5_6 
REMARK    4  A    between atoms: C5_6  and  C6_7 
ROOT
HETATM    1  C1  UNL     1      -4.610  -0.402   0.228  1.00  0.00     0.014 C 
HETATM    2  C2  UNL     1      -3.435  -0.685   0.062  1.00  0.00    -0.098 C 
HETATM    3  C3  UNL     1      -2.014  -1.016  -0.121  1.00  0.00     0.218 C 
ENDROOT
BRANCH   3   4
HETATM    4  N1  UNL     1      -1.237   0.023   0.548  1.00  0.00    -0.345 N 
HETATM    5  C9  UNL     1      -1.858   1.107   1.225  1.00  0.00     0.184 C 
HETATM    6  N4  UNL     1      -2.157   1.077   2.478  1.00  0.00    -0.374 N 
HETATM    7  N5  UNL     1      -2.161   2.275   0.475  1.00  0.00    -0.064 NA
ATOM      8  H42 UNL     1      -1.939   0.238   3.016  1.00  0.00     0.158 HD
ATOM      9  H41 UNL     1      -2.603   1.855   2.964  1.00  0.00     0.158 HD
BRANCH   4  10
HETATM   10  C4  UNL     1       0.207  -0.108   0.487  1.00  0.00     0.133 C 
BRANCH  10  11
HETATM   11  C5  UNL     1       0.741   0.095  -0.911  1.00  0.00     0.093 C 
BRANCH  11  12
HETATM   12  C6  UNL     1       2.214  -0.058  -0.870  1.00  0.00     0.102 C 
HETATM   13  N2  UNL     1       2.918   0.091  -2.101  1.00  0.00    -0.087 NA
HETATM   14  N3  UNL     1       2.778  -0.310   0.239  1.00  0.00    -0.308 N 
HETATM   15  C7  UNL     1       4.172  -0.467   0.350  1.00  0.00     0.000 C 
ATOM     16  H3  UNL     1       2.203  -0.402   1.076  1.00  0.00     0.177 HD
HETATM   17  C8  UNL     1       5.373  -0.584   0.457  1.00  0.00     0.037 C 
ENDBRANCH  11  12
ENDBRANCH  10  11
ENDBRANCH   4  10
ENDBRANCH   3   4
TORSDOF 4
