REMARK  6 active torsions:
REMARK  status: ('A' for Active; 'I' for Inactive)
REMARK    1  A    between atoms: N1_1  and  N2_4 
REMARK    2  A    between atoms: N2_4  and  N3_6 
REMARK    3  A    between atoms: C6_13  and  N4_14 
REMARK    4  A    between atoms: N4_14  and  C7_16 
REMARK    5  A    between atoms: C7_16  and  C8_17 
REMARK    6  A    between atoms: C8_17  and  O1_18 
ROOT
HETATM    1  N3  UNL     1      -1.027   1.842  -0.625  1.00  0.00    -0.293 N 
ATOM      2  H3  UNL     1      -0.024   2.007  -0.705  1.00  0.00     0.188 HD
HETATM    3  C1  UNL     1      -1.136   0.648  -0.547  1.00  0.00     0.027 C 
HETATM    4  C2  UNL     1      -2.424  -0.077  -0.414  1.00  0.00     0.056 C 
HETATM    5  C3  UNL     1      -2.319  -1.530  -0.148  1.00  0.00     0.006 C 
HETATM    6  C4  UNL     1      -1.105  -2.020   0.527  1.00  0.00     0.003 C 
HETATM    7  C5  UNL     1      -0.030  -0.954   0.754  1.00  0.00     0.031 C 
HETATM    8  C6  UNL     1       0.149  -0.236  -0.564  1.00  0.00     0.124 C 
ENDROOT
BRANCH   1   9
HETATM    9  N2  UNL     1      -1.574   3.054  -0.658  1.00  0.00    -0.249 N 
ATOM     10  H2  UNL     1      -0.927   3.843  -0.663  1.00  0.00     0.207 HD
BRANCH   9  11
HETATM   11  N1  UNL     1      -2.841   3.347  -0.685  1.00  0.00    -0.331 N 
ATOM     12  H12 UNL     1      -3.472   2.546  -0.680  1.00  0.00     0.178 HD
ATOM     13  H11 UNL     1      -3.260   4.276  -0.710  1.00  0.00     0.178 HD
ENDBRANCH   9  11
ENDBRANCH   1   9
BRANCH   8  14
HETATM   14  N4  UNL     1       1.252   0.609  -0.709  1.00  0.00    -0.410 N 
ATOM     15  H4  UNL     1       1.434   1.035  -1.618  1.00  0.00     0.154 HD
BRANCH  14  16
HETATM   16  C7  UNL     1       2.123   0.891   0.367  1.00  0.00     0.140 C 
BRANCH  16  17
HETATM   17  C8  UNL     1       3.346   0.026   0.327  1.00  0.00     0.183 C 
BRANCH  17  18
HETATM   18  O1  UNL     1       3.231  -1.310   0.355  1.00  0.00    -0.399 OA
ATOM     19  H1  UNL     1       4.006  -1.858   0.330  1.00  0.00     0.209 HD
ENDBRANCH  17  18
ENDBRANCH  16  17
ENDBRANCH  14  16
ENDBRANCH   8  14
TORSDOF 6
