REMARK  4 active torsions:
REMARK  status: ('A' for Active; 'I' for Inactive)
REMARK    1  A    between atoms: C2_2  and  N1_3 
REMARK    2  A    between atoms: C3_4  and  O1_5 
REMARK    3  A    between atoms: C10_15  and  C11_16 
REMARK    4  A    between atoms: C15_23  and  O4_25 
ROOT
HETATM    1  N1  UNL     1       3.267   1.029  -1.097  1.00  0.00    -0.278 N 
HETATM    2  C3  UNL     1       2.590   1.421  -0.004  1.00  0.00     0.173 A 
HETATM    3  C4  UNL     1       1.654   0.490   0.305  1.00  0.00     0.108 A 
HETATM    4  N2  UNL     1       1.761  -0.503  -0.627  1.00  0.00    -0.286 N 
HETATM    5  C5  UNL     1       2.734  -0.154  -1.452  1.00  0.00     0.332 A 
HETATM    6  O2  UNL     1       3.107  -0.843  -2.440  1.00  0.00    -0.246 OA
HETATM    7  C6  UNL     1       0.824  -1.599  -0.452  1.00  0.00     0.041 C 
HETATM    8  C7  UNL     1       1.277  -2.699  -1.424  1.00  0.00     0.039 C 
HETATM    9  C8  UNL     1       0.859  -2.196   0.916  1.00  0.00     0.035 C 
HETATM   10  C9  UNL     1       0.850  -1.093   1.932  1.00  0.00     0.053 C 
HETATM   11  C10 UNL     1       0.598   0.266   1.329  1.00  0.00     0.167 C 
HETATM   12  O3  UNL     1      -0.628   0.510   0.881  1.00  0.00    -0.357 OA
HETATM   13  C12 UNL     1      -1.267  -0.266   0.016  1.00  0.00     0.065 C 
HETATM   14  C13 UNL     1      -2.119   0.656  -0.879  1.00  0.00     0.041 C 
HETATM   15  C14 UNL     1      -3.461   0.021  -1.171  1.00  0.00     0.040 C 
HETATM   16  C15 UNL     1      -4.307   0.126   0.100  1.00  0.00     0.054 C 
HETATM   17  C16 UNL     1      -4.936   1.488   0.182  1.00  0.00     0.045 C 
HETATM   18  C17 UNL     1      -3.351  -0.075   1.257  1.00  0.00     0.040 C 
HETATM   19  C18 UNL     1      -2.309  -1.096   0.785  1.00  0.00     0.041 C 
HETATM   20  C19 UNL     1      -0.529  -1.160  -0.885  1.00  0.00     0.069 C 
ENDROOT
BRANCH  11  21
HETATM   21  C11 UNL     1       0.892   1.273   2.455  1.00  0.00     0.393 C 
HETATM   22  F1  UNL     1      -0.115   1.041   3.403  1.00  0.00    -0.211 F 
HETATM   23  F2  UNL     1       2.077   1.006   3.058  1.00  0.00    -0.211 F 
ENDBRANCH  11  21
BRANCH  16  24
HETATM   24  O4  UNL     1      -5.235  -0.895   0.130  1.00  0.00    -0.390 OA
ATOM     25  H4  UNL     1      -5.760  -0.830   0.919  1.00  0.00     0.210 HD
ENDBRANCH  16  24
BRANCH   2  26
HETATM   26  O1  UNL     1       2.793   2.588   0.716  1.00  0.00    -0.344 OA
ATOM     27  H1  UNL     1       2.315   2.865   1.489  1.00  0.00     0.219 HD
ENDBRANCH   2  26
BRANCH   1  28
HETATM   28  C2  UNL     1       4.362   1.735  -1.770  1.00  0.00     0.131 C 
HETATM   29  C1  UNL     1       5.679   1.297  -1.167  1.00  0.00     0.027 C 
ENDBRANCH   1  28
TORSDOF 4
