REMARK  4 active torsions:
REMARK  status: ('A' for Active; 'I' for Inactive)
REMARK    1  A    between atoms: O1_2  and  C2_3 
REMARK    2  A    between atoms: C4_6  and  C5_7 
REMARK    3  A    between atoms: N1_11  and  O3_13 
REMARK    4  A    between atoms: C13_22  and  O5_24 
ROOT
HETATM    1  C5  UNL     1       1.408   0.232  -0.399  1.00  0.00     0.006 C 
HETATM    2  C6  UNL     1       1.891   0.656  -1.789  1.00  0.00     0.019 C 
HETATM    3  C7  UNL     1       2.160   1.158   0.530  1.00  0.00     0.070 C 
HETATM    4  C8  UNL     1       3.573   0.744   0.713  1.00  0.00     0.039 C 
HETATM    5  N1  UNL     1       4.380   1.590   1.224  1.00  0.00    -0.275 N 
ATOM      6  H1  UNL     1       5.355   1.323   1.358  1.00  0.00     0.193 HD
HETATM    7  C9  UNL     1       4.121  -0.581   0.348  1.00  0.00     0.175 C 
HETATM    8  C10 UNL     1       3.723  -1.551   1.438  1.00  0.00     0.120 C 
HETATM    9  C11 UNL     1       2.218  -1.655   1.131  1.00  0.00     0.272 C 
HETATM   10  F1  UNL     1       1.586  -1.079   2.172  1.00  0.00    -0.203 F 
HETATM   11  F2  UNL     1       1.951  -3.034   1.224  1.00  0.00    -0.203 F 
HETATM   12  C12 UNL     1       2.056  -1.131  -0.218  1.00  0.00     0.204 C 
HETATM   13  O4  UNL     1       3.378  -1.048  -0.727  1.00  0.00    -0.368 OA
ENDROOT
BRANCH   1  14
HETATM   14  C4  UNL     1      -0.043   0.245  -0.210  1.00  0.00     0.103 C 
HETATM   15  C3  UNL     1      -0.814  -0.685  -1.090  1.00  0.00     0.164 C 
HETATM   16  C2  UNL     1      -2.216  -0.985  -0.696  1.00  0.00     0.198 C 
HETATM   17  O2  UNL     1      -0.409  -1.218  -2.095  1.00  0.00    -0.295 OA
HETATM   18  C16 UNL     1      -2.739  -0.007   0.318  1.00  0.00    -0.012 C 
HETATM   19  C15 UNL     1      -2.191   1.356   0.286  1.00  0.00     0.050 C 
HETATM   20  C17 UNL     1      -4.250   0.099   0.013  1.00  0.00     0.018 C 
HETATM   21  C18 UNL     1      -2.689  -0.595   1.734  1.00  0.00     0.018 C 
HETATM   22  C13 UNL     1      -0.803   1.529  -0.299  1.00  0.00     0.066 C 
HETATM   23  C14 UNL     1      -0.968   2.071  -1.687  1.00  0.00     0.046 C 
BRANCH  16  24
HETATM   24  O1  UNL     1      -2.203  -2.234  -0.073  1.00  0.00    -0.382 OA
HETATM   25  C1  UNL     1      -3.016  -3.161  -0.751  1.00  0.00     0.202 C 
ENDBRANCH  16  24
BRANCH  22  26
HETATM   26  O5  UNL     1      -0.170   2.488   0.478  1.00  0.00    -0.389 OA
ATOM     27  H5  UNL     1      -0.653   3.304   0.421  1.00  0.00     0.210 HD
ENDBRANCH  22  26
ENDBRANCH   1  14
BRANCH   5  28
HETATM   28  O3  UNL     1       3.979   2.841   1.597  1.00  0.00    -0.290 OA
ATOM     29  H3  UNL     1       4.580   3.471   1.977  1.00  0.00     0.244 HD
ENDBRANCH   5  28
TORSDOF 4
