REMARK  9 active torsions:
REMARK  status: ('A' for Active; 'I' for Inactive)
REMARK    1  A    between atoms: O1_2  and  C2_3 
REMARK    2  A    between atoms: C2_3  and  C3_5 
REMARK    3  A    between atoms: C3_5  and  O3_6 
REMARK    4  A    between atoms: C3_5  and  S1_8 
REMARK    5  A    between atoms: S1_8  and  C5_9 
REMARK    6  A    between atoms: C6_10  and  O4_11 
REMARK    7  A    between atoms: C8_13  and  O5_14 
REMARK    8  A    between atoms: O5_14  and  C9_15 
REMARK    9  A    between atoms: C19_26  and  O7_27 
ROOT
HETATM    1  C5  UNL     1       1.422   0.215   1.144  1.00  0.00     0.018 C 
HETATM    2  C6  UNL     1       0.619  -0.517   0.414  1.00  0.00     0.089 C 
HETATM    3  C8  UNL     1      -0.790  -0.087   0.044  1.00  0.00     0.198 C 
HETATM    4  C14 UNL     1      -1.229   1.154   0.676  1.00  0.00     0.053 C 
HETATM    5  C15 UNL     1      -1.143   2.416  -0.069  1.00  0.00    -0.001 A 
HETATM    6  C16 UNL     1       0.053   3.052  -0.197  1.00  0.00    -0.047 A 
HETATM    7  C17 UNL     1       0.026   4.194  -0.969  1.00  0.00     0.011 A 
HETATM    8  C18 UNL     1      -1.180   4.615  -1.549  1.00  0.00     0.040 A 
HETATM    9  C19 UNL     1      -2.360   3.897  -1.356  1.00  0.00     0.099 A 
HETATM   10  C20 UNL     1      -2.346   2.739  -0.575  1.00  0.00     0.110 A 
HETATM   11  O8  UNL     1      -3.257   1.777  -0.134  1.00  0.00    -0.341 OA
HETATM   12  C21 UNL     1      -2.680   1.249   1.094  1.00  0.00     0.145 C 
HETATM   13  C22 UNL     1      -2.625   2.424   2.075  1.00  0.00     0.034 C 
HETATM   14  C23 UNL     1      -1.228   2.445   2.645  1.00  0.00     0.009 C 
HETATM   15  C24 UNL     1      -0.503   1.346   1.994  1.00  0.00     0.013 C 
HETATM   16  C25 UNL     1       0.911   1.576   1.642  1.00  0.00     0.037 C 
HETATM   17  C26 UNL     1       1.236   2.576   0.551  1.00  0.00     0.049 C 
ENDROOT
BRANCH   1  18
HETATM   18  S1  UNL     1       3.023  -0.214   1.626  1.00  0.00    -0.089 SA
BRANCH  18  19
HETATM   19  C3  UNL     1       4.094  -1.183   0.663  1.00  0.00     0.286 C 
BRANCH  19  20
HETATM   20  C2  UNL     1       4.692  -0.467  -0.515  1.00  0.00     0.298 C 
HETATM   21  O2  UNL     1       4.002   0.098  -1.362  1.00  0.00    -0.261 OA
BRANCH  20  22
HETATM   22  O1  UNL     1       6.082  -0.403  -0.714  1.00  0.00    -0.324 OA
HETATM   23  C1  UNL     1       6.642   0.270  -1.820  1.00  0.00     0.213 C 
ENDBRANCH  20  22
ENDBRANCH  19  20
BRANCH  19  24
HETATM   24  O3  UNL     1       5.200  -1.557   1.461  1.00  0.00    -0.370 OA
HETATM   25  C4  UNL     1       5.293  -2.938   1.437  1.00  0.00     0.204 C 
ENDBRANCH  19  24
ENDBRANCH  18  19
ENDBRANCH   1  18
BRANCH   2  26
HETATM   26  O4  UNL     1       0.994  -1.739  -0.066  1.00  0.00    -0.356 OA
HETATM   27  C7  UNL     1       1.178  -2.166  -1.377  1.00  0.00     0.209 C 
ENDBRANCH   2  26
BRANCH   3  28
HETATM   28  O5  UNL     1      -1.695  -1.095   0.490  1.00  0.00    -0.348 OA
BRANCH  28  29
HETATM   29  C9  UNL     1      -2.297  -1.832  -0.464  1.00  0.00     0.260 C 
HETATM   30  C10 UNL     1      -3.818  -1.729  -0.550  1.00  0.00     0.061 C 
HETATM   31  C11 UNL     1      -4.299  -3.056  -1.135  1.00  0.00     0.007 C 
HETATM   32  C12 UNL     1      -4.091  -4.163  -0.096  1.00  0.00     0.026 C 
HETATM   33  C13 UNL     1      -2.894  -3.698   0.735  1.00  0.00     0.171 C 
HETATM   34  O6  UNL     1      -1.972  -3.193  -0.187  1.00  0.00    -0.361 OA
ENDBRANCH  28  29
ENDBRANCH   3  28
BRANCH   9  35
HETATM   35  O7  UNL     1      -3.563   4.291  -1.915  1.00  0.00    -0.358 OA
ATOM     36  H7  UNL     1      -4.367   3.802  -1.784  1.00  0.00     0.217 HD
ENDBRANCH   9  35
TORSDOF 9
