REMARK  10 active torsions:
REMARK  status: ('A' for Active; 'I' for Inactive)
REMARK    1  A    between atoms: O1_2  and  C2_3 
REMARK    2  A    between atoms: C2_3  and  C3_4 
REMARK    3  A    between atoms: C5_6  and  C6_7 
REMARK    4  A    between atoms: C6_7  and  C7_8 
REMARK    5  A    between atoms: C7_8  and  C8_9 
REMARK    6  A    between atoms: C18_21  and  O4_23 
REMARK    7  A    between atoms: C20_25  and  C21_26 
REMARK    8  A    between atoms: C21_26  and  O5_27 
REMARK    9  A    between atoms: O5_27  and  C22_28 
REMARK   10  A    between atoms: C22_28  and  C23_30 
ROOT
HETATM    1  C8  UNL     1       0.645   0.690   0.951  1.00  0.00     0.125 C 
HETATM    2  C9  UNL     1       1.061   0.970   2.308  1.00  0.00     0.266 C 
HETATM    3  O2  UNL     1       1.150   2.150   2.768  1.00  0.00    -0.265 OA
HETATM    4  O3  UNL     1       1.371  -0.086   3.131  1.00  0.00    -0.320 OA
HETATM    5  C10 UNL     1       1.301  -1.349   2.573  1.00  0.00     0.191 C 
HETATM    6  C11 UNL     1      -0.023  -1.592   1.787  1.00  0.00     0.014 C 
HETATM    7  C12 UNL     1      -0.974  -1.663   2.946  1.00  0.00     0.020 C 
HETATM    8  C13 UNL     1       0.335  -2.959   1.233  1.00  0.00     0.017 C 
HETATM    9  C14 UNL     1      -0.532  -3.599   0.276  1.00  0.00     0.042 C 
HETATM   10  C15 UNL     1      -1.161  -2.817  -0.791  1.00  0.00     0.095 C 
HETATM   11  C16 UNL     1      -1.348  -3.682  -2.023  1.00  0.00     0.049 C 
HETATM   12  C17 UNL     1      -2.498  -2.356  -0.269  1.00  0.00     0.078 C 
HETATM   13  C18 UNL     1      -2.640  -0.893  -0.167  1.00  0.00     0.066 C 
HETATM   14  C19 UNL     1      -2.977  -0.423  -1.600  1.00  0.00     0.046 C 
HETATM   15  C20 UNL     1      -1.589  -0.049   0.419  1.00  0.00     0.083 C 
HETATM   16  C27 UNL     1      -0.237  -0.553   0.774  1.00  0.00     0.126 C 
HETATM   17  O8  UNL     1       0.293  -1.115  -0.418  1.00  0.00    -0.226 OA
HETATM   18  O9  UNL     1      -0.520  -1.669  -1.196  1.00  0.00    -0.229 OA
ENDROOT
BRANCH  15  19
HETATM   19  C21 UNL     1      -2.238   0.807   1.490  1.00  0.00     0.190 C 
BRANCH  19  20
HETATM   20  O5  UNL     1      -3.244   1.585   0.935  1.00  0.00    -0.315 OA
BRANCH  20  21
HETATM   21  C22 UNL     1      -3.252   2.572   0.025  1.00  0.00     0.317 C 
HETATM   22  O6  UNL     1      -2.162   2.938  -0.478  1.00  0.00    -0.257 OA
BRANCH  21  23
HETATM   23  C23 UNL     1      -4.494   3.257  -0.418  1.00  0.00     0.149 A 
HETATM   24  C24 UNL     1      -4.579   4.275  -1.343  1.00  0.00     0.045 A 
HETATM   25  C25 UNL     1      -5.909   4.618  -1.458  1.00  0.00     0.027 A 
HETATM   26  C26 UNL     1      -6.594   3.797  -0.596  1.00  0.00     0.143 A 
HETATM   27  O7  UNL     1      -5.714   3.027  -0.019  1.00  0.00    -0.317 OA
ENDBRANCH  21  23
ENDBRANCH  20  21
ENDBRANCH  19  20
ENDBRANCH  15  19
BRANCH  13  28
HETATM   28  O4  UNL     1      -3.869  -0.705   0.526  1.00  0.00    -0.390 OA
ATOM     29  H4  UNL     1      -3.961   0.238   0.592  1.00  0.00     0.210 HD
ENDBRANCH  13  28
BRANCH   1  30
HETATM   30  C7  UNL     1       1.860   0.664   0.037  1.00  0.00     0.021 C 
BRANCH  30  31
HETATM   31  C6  UNL     1       2.589   1.965   0.032  1.00  0.00     0.028 C 
BRANCH  31  32
HETATM   32  C5  UNL     1       3.792   2.102  -0.757  1.00  0.00    -0.022 C 
HETATM   33  C3  UNL     1       4.524   1.281  -1.470  1.00  0.00    -0.064 C 
HETATM   34  C4  UNL     1       4.281  -0.152  -1.732  1.00  0.00     0.045 C 
BRANCH  33  35
HETATM   35  C2  UNL     1       5.733   1.897  -2.140  1.00  0.00     0.200 C 
BRANCH  35  36
HETATM   36  O1  UNL     1       6.910   1.427  -1.805  1.00  0.00    -0.392 OA
HETATM   37  C1  UNL     1       7.366   0.183  -1.920  1.00  0.00     0.201 C 
ENDBRANCH  35  36
ENDBRANCH  33  35
ENDBRANCH  31  32
ENDBRANCH  30  31
ENDBRANCH   1  30
TORSDOF 10
