REMARK  9 active torsions:
REMARK  status: ('A' for Active; 'I' for Inactive)
REMARK    1  A    between atoms: C2_2  and  C4_4 
REMARK    2  A    between atoms: C5_6  and  C6_7 
REMARK    3  A    between atoms: C9_12  and  C10_13 
REMARK    4  A    between atoms: C10_13  and  C11_14 
REMARK    5  A    between atoms: C11_14  and  C13_16 
REMARK    6  A    between atoms: C13_16  and  C14_17 
REMARK    7  A    between atoms: C14_17  and  C15_18 
REMARK    8  A    between atoms: C22_30  and  C23_31 
REMARK    9  A    between atoms: C26_36  and  O4_37 
ROOT
HETATM    1  C6  UNL     1      -3.140   1.764   0.460  1.00  0.00     0.191 C 
HETATM    2  C7  UNL     1      -1.698   2.040   0.881  1.00  0.00     0.306 C 
HETATM    3  O1  UNL     1      -1.639   2.439   2.110  1.00  0.00    -0.256 OA
HETATM    4  N1  UNL     1      -0.691   1.866   0.030  1.00  0.00    -0.385 NA
HETATM    5  C8  UNL     1       0.145   1.748  -0.754  1.00  0.00     0.184 C 
HETATM    6  C9  UNL     1       1.440   0.957  -0.276  1.00  0.00     0.137 C 
HETATM    7  N2  UNL     1       1.716  -0.008  -1.309  1.00  0.00    -0.349 N 
ATOM      8  H2  UNL     1       2.339   0.277  -2.065  1.00  0.00     0.163 HD
HETATM    9  C17 UNL     1       1.194  -1.310  -1.355  1.00  0.00     0.240 C 
HETATM   10  O2  UNL     1       1.414  -1.996  -2.368  1.00  0.00    -0.271 OA
HETATM   11  C18 UNL     1       0.390  -1.933  -0.262  1.00  0.00     0.174 C 
HETATM   12  C19 UNL     1       1.255  -2.797   0.634  1.00  0.00     0.042 C 
HETATM   13  N3  UNL     1      -0.626  -2.774  -0.850  1.00  0.00    -0.342 N 
HETATM   14  C20 UNL     1      -0.376  -4.204  -0.929  1.00  0.00     0.153 C 
HETATM   15  C21 UNL     1      -1.868  -2.298  -1.394  1.00  0.00     0.243 C 
HETATM   16  O3  UNL     1      -2.197  -2.795  -2.547  1.00  0.00    -0.271 OA
HETATM   17  C22 UNL     1      -2.788  -1.334  -0.813  1.00  0.00     0.179 C 
HETATM   18  N4  UNL     1      -2.639   0.013  -1.364  1.00  0.00    -0.360 N 
ATOM     19  H4  UNL     1      -2.045   0.109  -2.188  1.00  0.00     0.162 HD
HETATM   20  C26 UNL     1      -3.228   1.177  -0.875  1.00  0.00     0.130 C 
ENDROOT
BRANCH   6  21
HETATM   21  C10 UNL     1       2.408   2.089  -0.202  1.00  0.00     0.036 C 
BRANCH  21  22
HETATM   22  C11 UNL     1       3.796   1.923   0.214  1.00  0.00    -0.016 C 
HETATM   23  C12 UNL     1       4.439   3.324   0.191  1.00  0.00     0.010 C 
BRANCH  22  24
HETATM   24  C13 UNL     1       4.642   1.114  -0.761  1.00  0.00     0.004 C 
BRANCH  24  25
HETATM   25  C14 UNL     1       6.085   1.076  -0.280  1.00  0.00     0.000 C 
BRANCH  25  26
HETATM   26  C15 UNL     1       6.959   0.309  -1.223  1.00  0.00    -0.005 C 
HETATM   27  C16 UNL     1       8.375   0.384  -0.716  1.00  0.00     0.005 C 
ENDBRANCH  25  26
ENDBRANCH  24  25
ENDBRANCH  22  24
ENDBRANCH  21  22
ENDBRANCH   6  21
BRANCH   1  28
HETATM   28  C5  UNL     1      -3.874   1.125   1.553  1.00  0.00     0.021 C 
HETATM   29  C4  UNL     1      -4.805   1.771   2.227  1.00  0.00     0.036 C 
HETATM   30 CL1  UNL     1      -5.208   3.436   1.832  1.00  0.00    -0.084 Cl
BRANCH  29  31
HETATM   31  C2  UNL     1      -5.551   1.146   3.332  1.00  0.00    -0.050 C 
HETATM   32  C1  UNL     1      -6.420   1.753   3.980  1.00  0.00     0.020 C 
HETATM   33  C3  UNL     1      -5.177  -0.264   3.684  1.00  0.00     0.049 C 
ENDBRANCH  29  31
ENDBRANCH   1  28
BRANCH  20  34
HETATM   34  O4  UNL     1      -3.969   1.858  -1.720  1.00  0.00    -0.349 OA
ATOM     35  H4  UNL     1      -4.026   1.476  -2.588  1.00  0.00     0.219 HD
ENDBRANCH  20  34
BRANCH  17  36
HETATM   36  C23 UNL     1      -4.234  -1.740  -1.003  1.00  0.00     0.018 A 
HETATM   37  C24 UNL     1      -4.803  -1.933  -2.384  1.00  0.00     0.007 A 
HETATM   38  C25 UNL     1      -4.707  -3.065  -1.361  1.00  0.00     0.007 A 
ENDBRANCH  17  36
TORSDOF 9
