REMARK  7 active torsions:
REMARK  status: ('A' for Active; 'I' for Inactive)
REMARK    1  A    between atoms: C2_2  and  C3_3 
REMARK    2  A    between atoms: C3_3  and  C4_4 
REMARK    3  A    between atoms: C6_7  and  N1_8 
REMARK       I    between atoms: N1_8  and  C7_10 
REMARK       I    between atoms: C7_10  and  N2_12 
REMARK    4  A    between atoms: N2_12  and  C8_14 
REMARK    5  A    between atoms: C15_21  and  N3_23 
REMARK    6  A    between atoms: N3_23  and  S1_25 
REMARK    7  A    between atoms: S1_25  and  N4_28 
ROOT
HETATM    1  C4  UNL     1      -1.366  -1.679  -1.119  1.00  0.00     0.043 C 
HETATM    2 CL1  UNL     1      -2.153  -1.200  -2.680  1.00  0.00    -0.119 Cl
HETATM    3  C5  UNL     1      -0.211  -0.771  -0.943  1.00  0.00     0.058 C 
HETATM    4  C6  UNL     1      -0.249   0.145   0.247  1.00  0.00     0.046 C 
HETATM    5  C14 UNL     1      -1.381   1.202   0.066  1.00  0.00     0.063 C 
HETATM    6  C15 UNL     1      -2.625   0.665   0.636  1.00  0.00     0.045 C 
HETATM    7  C16 UNL     1      -3.307   1.413   1.726  1.00  0.00     0.039 C 
HETATM    8  C19 UNL     1      -2.179  -0.725   1.097  1.00  0.00     0.030 C 
HETATM    9  C20 UNL     1      -2.341  -1.725   0.010  1.00  0.00     0.012 C 
HETATM   10  C21 UNL     1      -2.568  -3.147   0.547  1.00  0.00     0.012 C 
HETATM   11  C22 UNL     1      -0.732  -0.510   1.486  1.00  0.00    -0.016 C 
HETATM   12  C23 UNL     1      -0.055  -1.745   1.947  1.00  0.00     0.018 C 
HETATM   13  C24 UNL     1      -0.536   0.496   2.600  1.00  0.00     0.018 C 
ENDROOT
BRANCH   4  14
HETATM   14  N1  UNL     1       1.006   0.838   0.344  1.00  0.00    -0.333 N 
HETATM   15  C7  UNL     1       2.300   0.313   0.473  1.00  0.00     0.317 C 
HETATM   16  O1  UNL     1       2.615  -0.900   0.523  1.00  0.00    -0.247 OA
HETATM   17  N2  UNL     1       3.431   1.215   0.561  1.00  0.00    -0.339 N 
ATOM     18  H2  UNL     1       3.272   2.222   0.528  1.00  0.00     0.164 HD
ATOM     19  H1  UNL     1       0.947   1.856   0.315  1.00  0.00     0.165 HD
BRANCH  17  20
HETATM   20  C8  UNL     1       4.758   0.721   0.692  1.00  0.00     0.086 C 
HETATM   21  C9  UNL     1       5.412   1.144   2.005  1.00  0.00     0.025 C 
HETATM   22  C10 UNL     1       6.685   0.309   2.120  1.00  0.00     0.002 C 
HETATM   23  C11 UNL     1       7.607   0.564   0.949  1.00  0.00     0.000 C 
HETATM   24  C12 UNL     1       6.907   0.281  -0.373  1.00  0.00     0.002 C 
HETATM   25  C13 UNL     1       5.680   1.168  -0.413  1.00  0.00     0.025 C 
ENDBRANCH  17  20
ENDBRANCH   4  14
BRANCH   1  26
HETATM   26  C3  UNL     1      -0.937  -3.110  -1.500  1.00  0.00     0.026 C 
BRANCH  26  27
HETATM   27  C2  UNL     1      -0.002  -3.068  -2.690  1.00  0.00    -0.003 C 
HETATM   28  C1  UNL     1       0.437  -4.462  -3.092  1.00  0.00     0.005 C 
ENDBRANCH  26  27
ENDBRANCH   1  26
BRANCH   6  29
HETATM   29  N3  UNL     1      -3.647   0.577  -0.422  1.00  0.00    -0.293 N 
ATOM     30  H3  UNL     1      -4.082  -0.302  -0.702  1.00  0.00     0.174 HD
BRANCH  29  31
HETATM   31  S1  UNL     1      -4.033   2.056  -1.128  1.00  0.00     0.317 S 
HETATM   32  O2  UNL     1      -2.956   3.111  -0.911  1.00  0.00    -0.183 OA
HETATM   33  O3  UNL     1      -4.048   1.872  -2.647  1.00  0.00    -0.183 OA
BRANCH  31  34
HETATM   34  N4  UNL     1      -5.540   2.736  -0.741  1.00  0.00    -0.303 N 
HETATM   35  C17 UNL     1      -5.579   3.699   0.297  1.00  0.00     0.163 C 
HETATM   36  C18 UNL     1      -6.386   3.007  -1.861  1.00  0.00     0.163 C 
ENDBRANCH  31  34
ENDBRANCH  29  31
ENDBRANCH   6  29
TORSDOF 7
