REMARK  7 active torsions:
REMARK  status: ('A' for Active; 'I' for Inactive)
REMARK    1  A    between atoms: C2_2  and  C3_3 
REMARK    2  A    between atoms: C5_5  and  N1_6 
REMARK       I    between atoms: N1_6  and  C6_8 
REMARK       I    between atoms: C6_8  and  N2_10 
REMARK    3  A    between atoms: N2_10  and  C7_12 
REMARK    4  A    between atoms: C7_12  and  C8_13 
REMARK    5  A    between atoms: C9_14  and  C10_15 
REMARK    6  A    between atoms: C14_20  and  S1_21 
REMARK    7  A    between atoms: S1_21  and  N3_24 
ROOT
HETATM    1  C3  UNL     1      -0.019   0.324   1.042  1.00  0.00    -0.033 A 
HETATM    2  C4  UNL     1       1.380   0.222   0.899  1.00  0.00     0.038 A 
HETATM    3  C5  UNL     1       2.030   0.432  -0.279  1.00  0.00     0.037 A 
HETATM    4  C11 UNL     1       1.204   0.764  -1.366  1.00  0.00     0.038 A 
HETATM    5  C12 UNL     1      -0.163   0.864  -1.230  1.00  0.00    -0.036 A 
HETATM    6  C13 UNL     1      -1.000   1.204  -2.419  1.00  0.00     0.050 C 
HETATM    7  C14 UNL     1      -0.799   0.646  -0.022  1.00  0.00     0.092 A 
ENDROOT
BRANCH   7   8
HETATM    8  S1  UNL     1      -2.520   0.785   0.063  1.00  0.00     0.277 S 
HETATM    9  O2  UNL     1      -2.970   1.362   1.400  1.00  0.00    -0.200 OA
HETATM   10  O3  UNL     1      -3.007   1.830  -0.939  1.00  0.00    -0.200 OA
BRANCH   8  11
HETATM   11  N3  UNL     1      -3.347  -0.647  -0.254  1.00  0.00    -0.112 N 
HETATM   12  C15 UNL     1      -4.611  -0.750  -0.260  1.00  0.00     0.692 A 
HETATM   13  N4  UNL     1      -5.200  -1.966  -0.530  1.00  0.00    -0.195 N 
HETATM   14  N5  UNL     1      -5.409   0.299  -0.009  1.00  0.00    -0.195 N 
HETATM   15  C16 UNL     1      -6.515  -2.113  -0.545  1.00  0.00     0.024 A 
ATOM     16  H4  UNL     1      -4.607  -2.773  -0.723  1.00  0.00     0.184 HD
HETATM   17  C17 UNL     1      -7.178  -3.434  -0.837  1.00  0.00     0.068 C 
HETATM   18  C18 UNL     1      -7.319  -1.024  -0.284  1.00  0.00     0.050 A 
HETATM   19  C19 UNL     1      -6.769   0.210  -0.010  1.00  0.00     0.024 A 
HETATM   20  C20 UNL     1      -7.597   1.409   0.277  1.00  0.00     0.068 C 
ATOM     21  H5  UNL     1      -4.979   1.202   0.191  1.00  0.00     0.184 HD
ATOM     22  H3  UNL     1      -2.798  -1.483  -0.453  1.00  0.00     0.197 HD
ENDBRANCH   8  11
ENDBRANCH   7   8
BRANCH   1  23
HETATM   23  C2  UNL     1      -0.635   0.072   2.367  1.00  0.00     0.036 C 
HETATM   24  C1  UNL     1      -1.337  -1.268   2.420  1.00  0.00     0.010 C 
ENDBRANCH   1  23
BRANCH   3  25
HETATM   25  N1  UNL     1       3.431   0.360  -0.494  1.00  0.00    -0.309 N 
HETATM   26  C6  UNL     1       4.426   0.225   0.465  1.00  0.00     0.320 C 
HETATM   27  O1  UNL     1       4.203   0.155   1.679  1.00  0.00    -0.247 OA
HETATM   28  N2  UNL     1       5.813   0.157   0.084  1.00  0.00    -0.339 N 
ATOM     29  H2  UNL     1       6.048   0.210  -0.907  1.00  0.00     0.164 HD
ATOM     30  H1  UNL     1       3.743   0.414  -1.464  1.00  0.00     0.170 HD
BRANCH  28  31
HETATM   31  C7  UNL     1       6.881   0.018   1.035  1.00  0.00     0.151 C 
BRANCH  31  32
HETATM   32  C8  UNL     1       8.187  -0.026   0.353  1.00  0.00    -0.010 C 
HETATM   33  C9  UNL     1       9.109   0.888   0.618  1.00  0.00    -0.018 C 
BRANCH  33  34
HETATM   34  C10 UNL     1      10.446   0.913  -0.026  1.00  0.00     0.112 C 
HETATM   35 BR1  UNL     1      10.556  -0.577  -1.254  1.00  0.00    -0.092 Br
ENDBRANCH  33  34
ENDBRANCH  31  32
ENDBRANCH  28  31
ENDBRANCH   3  25
TORSDOF 7
