REMARK  5 active torsions:
REMARK  status: ('A' for Active; 'I' for Inactive)
REMARK       I    between atoms: C1_2  and  N1_3 
REMARK    1  A    between atoms: C1_2  and  C9_12 
REMARK    2  A    between atoms: N1_3  and  C2_5 
REMARK    3  A    between atoms: C9_12  and  C10_13 
REMARK    4  A    between atoms: C9_12  and  C16_19 
REMARK    5  A    between atoms: C10_13  and  C11_14 
ROOT
HETATM    1  C9  UNL     1      -0.936   0.722  -0.637  1.00  0.00     0.082 C 
ENDROOT
BRANCH   1   2
HETATM    2  C1  UNL     1       0.546   0.795  -0.316  1.00  0.00     0.222 C 
HETATM    3  O1  UNL     1       1.009   1.828   0.200  1.00  0.00    -0.273 OA
HETATM    4  N1  UNL     1       1.398  -0.306  -0.604  1.00  0.00    -0.356 N 
ATOM      5  H1  UNL     1       1.023  -1.155  -1.028  1.00  0.00     0.162 HD
BRANCH   4   6
HETATM    6  C2  UNL     1       2.816  -0.202  -0.283  1.00  0.00     0.084 C 
HETATM    7  C3  UNL     1       3.566  -0.303  -1.592  1.00  0.00     0.025 C 
HETATM    8  C4  UNL     1       4.963  -0.763  -1.330  1.00  0.00     0.002 C 
HETATM    9  C5  UNL     1       5.565   0.088  -0.244  1.00  0.00     0.000 C 
HETATM   10  C6  UNL     1       5.607  -0.650   1.076  1.00  0.00     0.000 C 
HETATM   11  C7  UNL     1       4.242  -0.803   1.687  1.00  0.00     0.002 C 
HETATM   12  C8  UNL     1       3.207  -1.269   0.698  1.00  0.00     0.025 C 
ENDBRANCH   4   6
ENDBRANCH   1   2
BRANCH   1  13
HETATM   13  C10 UNL     1      -1.407  -0.478   0.119  1.00  0.00     0.019 C 
BRANCH  13  14
HETATM   14  C11 UNL     1      -2.820  -0.875   0.014  1.00  0.00    -0.014 C 
HETATM   15  C12 UNL     1      -3.020  -2.130   0.904  1.00  0.00     0.005 C 
HETATM   16  C13 UNL     1      -4.181  -2.864   0.293  1.00  0.00     0.000 C 
HETATM   17  C14 UNL     1      -4.523  -2.131  -0.984  1.00  0.00     0.000 C 
HETATM   18  C15 UNL     1      -3.180  -1.497  -1.327  1.00  0.00     0.005 C 
ENDBRANCH  13  14
ENDBRANCH   1  13
BRANCH   1  19
HETATM   19  C16 UNL     1      -1.542   2.027  -0.250  1.00  0.00    -0.002 C 
HETATM   20  C17 UNL     1      -1.502   2.417   1.177  1.00  0.00     0.005 C 
HETATM   21  C18 UNL     1      -2.582   3.517   1.240  1.00  0.00     0.000 C 
HETATM   22  C19 UNL     1      -3.679   2.920   0.418  1.00  0.00     0.000 C 
HETATM   23  C20 UNL     1      -2.894   2.343  -0.776  1.00  0.00     0.005 C 
ENDBRANCH   1  19
TORSDOF 5
