REMARK  5 active torsions:
REMARK  status: ('A' for Active; 'I' for Inactive)
REMARK    1  A    between atoms: C2_2  and  C3_3 
REMARK    2  A    between atoms: C8_8  and  C9_9 
REMARK    3  A    between atoms: C9_9  and  C10_10 
REMARK    4  A    between atoms: C10_10  and  C11_11 
REMARK    5  A    between atoms: C11_11  and  N1_12 
ROOT
HETATM    1  C3  UNL     1      -1.832   1.302  -0.030  1.00  0.00    -0.022 C 
HETATM    2  C4  UNL     1      -1.894   2.349   1.092  1.00  0.00     0.020 C 
HETATM    3  C5  UNL     1      -0.382   0.902  -0.228  1.00  0.00     0.019 C 
HETATM    4  C6  UNL     1      -0.035  -0.136   0.763  1.00  0.00    -0.004 C 
HETATM    5  C7  UNL     1       1.347  -0.514   0.989  1.00  0.00    -0.001 A 
HETATM    6  C8  UNL     1       2.618  -0.265   0.368  1.00  0.00    -0.005 A 
HETATM    7  C12 UNL     1       1.768  -1.134  -0.392  1.00  0.00    -0.005 A 
HETATM    8  C13 UNL     1       1.319  -2.523  -0.237  1.00  0.00     0.006 C 
HETATM    9  C14 UNL     1      -0.215  -2.445  -0.313  1.00  0.00     0.006 C 
HETATM   10  C15 UNL     1      -0.829  -1.430   0.578  1.00  0.00    -0.001 C 
HETATM   11  C16 UNL     1      -2.231  -1.178   0.151  1.00  0.00    -0.029 C 
HETATM   12  C17 UNL     1      -3.147  -2.137   0.927  1.00  0.00     0.016 C 
HETATM   13  C18 UNL     1      -2.501  -1.459  -1.305  1.00  0.00     0.088 C 
HETATM   14  C19 UNL     1      -3.862  -0.829  -1.455  1.00  0.00     0.128 C 
HETATM   15  O1  UNL     1      -4.640  -1.159  -2.323  1.00  0.00    -0.298 OA
HETATM   16  C20 UNL     1      -4.044   0.210  -0.392  1.00  0.00     0.084 C 
HETATM   17  C21 UNL     1      -2.736   0.194   0.370  1.00  0.00     0.013 C 
ENDROOT
BRANCH   6  18
HETATM   18  C9  UNL     1       2.988   1.058  -0.247  1.00  0.00     0.007 C 
BRANCH  18  19
HETATM   19  C10 UNL     1       4.318   1.193  -0.858  1.00  0.00     0.027 C 
BRANCH  19  20
HETATM   20  C11 UNL     1       5.543   1.053  -0.055  1.00  0.00     0.229 C 
BRANCH  20  21
HETATM   21  N1  UNL     1       5.776  -0.213   0.570  1.00  0.00    -0.079 N 
ATOM     22  H13 UNL     1       4.968  -0.464   1.139  1.00  0.00     0.274 HD
ATOM     23  H12 UNL     1       5.747  -0.949  -0.135  1.00  0.00     0.274 HD
ATOM     24  H11 UNL     1       6.625  -0.310   1.127  1.00  0.00     0.274 HD
ENDBRANCH  20  21
ENDBRANCH  19  20
ENDBRANCH  18  19
ENDBRANCH   6  18
BRANCH   1  25
HETATM   25  C2  UNL     1      -2.240   2.003  -1.275  1.00  0.00    -0.027 C 
HETATM   26  C1  UNL     1      -1.956   3.289  -1.403  1.00  0.00     0.007 C 
ENDBRANCH   1  25
TORSDOF 5
