REMARK  4 active torsions:
REMARK  status: ('A' for Active; 'I' for Inactive)
REMARK    1  A    between atoms: C2_2  and  C3_3 
REMARK    2  A    between atoms: C3_3  and  C4_4 
REMARK    3  A    between atoms: C3_3  and  C15_18 
REMARK       I    between atoms: C4_4  and  N1_6 
REMARK    4  A    between atoms: N1_6  and  C5_8 
ROOT
HETATM    1  C4  UNL     1       0.507  -0.822  -0.732  1.00  0.00     0.222 C 
HETATM    2  O1  UNL     1       0.021  -0.865  -1.898  1.00  0.00    -0.273 OA
HETATM    3  N1  UNL     1      -0.311  -0.465   0.375  1.00  0.00    -0.351 N 
ATOM      4  H1  UNL     1       0.119  -0.442   1.300  1.00  0.00     0.163 HD
ENDROOT
BRANCH   3   5
HETATM    5  C5  UNL     1      -1.700  -0.136   0.273  1.00  0.00     0.034 C 
HETATM    6  C6  UNL     1      -2.220   0.178   1.658  1.00  0.00     0.035 C 
HETATM    7  C7  UNL     1      -3.652   0.607   1.669  1.00  0.00    -0.012 C 
HETATM    8  C8  UNL     1      -4.481  -0.514   1.085  1.00  0.00     0.009 C 
HETATM    9  C12 UNL     1      -3.863   1.831   0.806  1.00  0.00     0.009 C 
HETATM   10  C9  UNL     1      -3.983  -0.804  -0.300  1.00  0.00    -0.012 C 
HETATM   11  C10 UNL     1      -4.134   0.411  -1.186  1.00  0.00     0.009 C 
HETATM   12  C14 UNL     1      -2.538  -1.268  -0.270  1.00  0.00     0.035 C 
HETATM   13  C11 UNL     1      -3.350   1.530  -0.568  1.00  0.00    -0.012 C 
HETATM   14  C13 UNL     1      -1.896   1.132  -0.551  1.00  0.00     0.035 C 
ENDBRANCH   3   5
BRANCH   1  15
HETATM   15  C3  UNL     1       1.919  -1.144  -0.538  1.00  0.00     0.081 C 
BRANCH  15  16
HETATM   16  C2  UNL     1       2.103  -2.340   0.402  1.00  0.00     0.010 C 
HETATM   17  C1  UNL     1       1.421  -3.567  -0.163  1.00  0.00     0.006 C 
ENDBRANCH  15  16
BRANCH  15  18
HETATM   18  C15 UNL     1       2.714  -0.011   0.060  1.00  0.00    -0.002 C 
HETATM   19  C16 UNL     1       4.164  -0.352   0.175  1.00  0.00     0.005 C 
HETATM   20  C17 UNL     1       5.065   0.784  -0.256  1.00  0.00     0.000 C 
HETATM   21  C18 UNL     1       4.638   2.101   0.335  1.00  0.00     0.000 C 
HETATM   22  C19 UNL     1       3.175   2.372   0.148  1.00  0.00     0.000 C 
HETATM   23  C20 UNL     1       2.586   1.275  -0.713  1.00  0.00     0.005 C 
ENDBRANCH  15  18
ENDBRANCH   1  15
TORSDOF 4
