REMARK  5 active torsions:
REMARK  status: ('A' for Active; 'I' for Inactive)
REMARK    1  A    between atoms: C2_2  and  C3_3 
REMARK    2  A    between atoms: C2_2  and  C7_7 
REMARK    3  A    between atoms: C3_3  and  C4_4 
REMARK    4  A    between atoms: C4_4  and  C5_5 
REMARK    5  A    between atoms: C11_11  and  C12_12 
ROOT
HETATM    1  C7  UNL     1       0.561  -1.142   0.327  1.00  0.00    -0.009 C 
HETATM    2  C8  UNL     1       0.266  -1.798   1.696  1.00  0.00     0.020 C 
HETATM    3  C9  UNL     1      -0.945  -2.435   0.985  1.00  0.00    -0.004 C 
HETATM    4  C10 UNL     1      -2.060  -1.450   1.035  1.00  0.00     0.017 C 
HETATM    5  C11 UNL     1      -1.768  -0.305   0.088  1.00  0.00    -0.018 C 
HETATM    6  C16 UNL     1      -1.882  -0.819  -1.307  1.00  0.00     0.012 C 
HETATM    7  C17 UNL     1      -0.971  -1.985  -1.479  1.00  0.00     0.011 C 
HETATM    8  C18 UNL     1      -0.114  -2.301  -0.298  1.00  0.00    -0.029 C 
HETATM    9  C19 UNL     1       0.669  -3.549  -0.498  1.00  0.00     0.016 C 
HETATM   10  C20 UNL     1      -0.320   0.082   0.324  1.00  0.00     0.026 C 
ENDROOT
BRANCH   5  11
HETATM   11  C12 UNL     1      -2.716   0.814   0.343  1.00  0.00     0.091 C 
HETATM   12  C13 UNL     1      -2.508   2.004  -0.549  1.00  0.00     0.033 C 
HETATM   13  C14 UNL     1      -3.010   3.149   0.300  1.00  0.00     0.075 C 
HETATM   14  C15 UNL     1      -2.822   2.643   1.679  1.00  0.00     0.089 C 
HETATM   15  N1  UNL     1      -2.817   3.473   2.867  1.00  0.00    -0.088 NA
HETATM   16  N2  UNL     1      -2.669   1.376   1.635  1.00  0.00    -0.377 N 
ATOM     17  H2  UNL     1      -2.524   0.812   2.473  1.00  0.00     0.160 HD
ENDBRANCH   5  11
BRANCH   1  18
HETATM   18  C2  UNL     1       2.004  -0.945   0.089  1.00  0.00    -0.080 C 
HETATM   19  C1  UNL     1       2.826  -1.108   1.148  1.00  0.00     0.015 C 
BRANCH  18  20
HETATM   20  C3  UNL     1       2.662  -0.601  -1.171  1.00  0.00     0.034 C 
BRANCH  20  21
HETATM   21  C4  UNL     1       2.424   0.725  -1.769  1.00  0.00     0.004 C 
BRANCH  21  22
HETATM   22  C5  UNL     1       2.835   1.886  -0.889  1.00  0.00    -0.004 C 
HETATM   23  C6  UNL     1       4.311   1.830  -0.566  1.00  0.00     0.005 C 
ENDBRANCH  21  22
ENDBRANCH  20  21
ENDBRANCH  18  20
ENDBRANCH   1  18
TORSDOF 5
