REMARK  5 active torsions:
REMARK  status: ('A' for Active; 'I' for Inactive)
REMARK    1  A    between atoms: C3_3  and  C4_4 
REMARK    2  A    between atoms: C6_6  and  C7_7 
REMARK    3  A    between atoms: C7_7  and  C8_8 
REMARK    4  A    between atoms: C8_8  and  C9_9 
REMARK    5  A    between atoms: C19_20  and  C20_21 
ROOT
HETATM    1  C1  UNL     1       1.490   4.480   1.601  1.00  0.00     0.012 C 
HETATM    2  C2  UNL     1       0.636   3.799   1.090  1.00  0.00    -0.117 C 
HETATM    3  C3  UNL     1      -0.420   2.986   0.454  1.00  0.00     0.103 C 
ENDROOT
BRANCH   3   4
HETATM    4  C4  UNL     1      -0.367   1.559   0.958  1.00  0.00     0.053 C 
HETATM    5  C5  UNL     1       1.000   1.021   0.596  1.00  0.00    -0.016 C 
HETATM    6  C6  UNL     1       1.172  -0.296   0.389  1.00  0.00    -0.078 C 
HETATM    7  C11 UNL     1      -0.053  -0.994   0.553  1.00  0.00     0.026 C 
HETATM    8  C12 UNL     1      -0.418  -2.366   0.542  1.00  0.00     0.016 C 
HETATM    9  C19 UNL     1      -1.030  -0.349  -0.397  1.00  0.00     0.002 C 
HETATM   10  C13 UNL     1      -1.958  -2.151   0.659  1.00  0.00     0.019 C 
HETATM   11  C14 UNL     1      -2.333  -1.186   1.744  1.00  0.00     0.278 C 
HETATM   12  C18 UNL     1      -2.148  -1.387  -0.614  1.00  0.00     0.003 C 
HETATM   13  N1  UNL     1      -2.365   0.181   1.447  1.00  0.00     0.095 N 
HETATM   14  C15 UNL     1      -3.752   0.577   1.140  1.00  0.00     0.273 C 
HETATM   15  C22 UNL     1      -1.539   0.793   0.459  1.00  0.00     0.240 C 
HETATM   16  C16 UNL     1      -4.352  -0.400   0.190  1.00  0.00     0.031 C 
HETATM   17  C17 UNL     1      -3.457  -0.860  -0.913  1.00  0.00     0.007 C 
BRANCH   6  18
HETATM   18  C7  UNL     1       2.466  -0.849   0.043  1.00  0.00     0.034 C 
BRANCH  18  19
HETATM   19  C8  UNL     1       3.571   0.175  -0.061  1.00  0.00     0.004 C 
BRANCH  19  20
HETATM   20  C9  UNL     1       4.840  -0.607  -0.431  1.00  0.00    -0.004 C 
HETATM   21  C10 UNL     1       6.017   0.306  -0.564  1.00  0.00     0.005 C 
ENDBRANCH  19  20
ENDBRANCH  18  19
ENDBRANCH   6  18
BRANCH   9  22
HETATM   22  C20 UNL     1      -0.619   0.084  -1.715  1.00  0.00     0.008 C 
HETATM   23  C21 UNL     1      -0.077  -0.890  -2.692  1.00  0.00     0.006 C 
ENDBRANCH   9  22
ENDBRANCH   3   4
TORSDOF 5
