REMARK  4 active torsions:
REMARK  status: ('A' for Active; 'I' for Inactive)
REMARK    1  A    between atoms: C2_2  and  C4_4 
REMARK    2  A    between atoms: C10_10  and  C11_11 
REMARK    3  A    between atoms: C11_11  and  C12_12 
REMARK    4  A    between atoms: C12_12  and  C13_13 
ROOT
HETATM    1  C4  UNL     1      -3.209  -0.236   0.234  1.00  0.00    -0.017 C 
HETATM    2  C5  UNL     1      -3.700   0.476  -1.007  1.00  0.00     0.018 C 
HETATM    3  C6  UNL     1      -2.540   0.503  -1.973  1.00  0.00    -0.012 C 
HETATM    4  C7  UNL     1      -2.289  -0.904  -2.398  1.00  0.00     0.009 C 
HETATM    5  C8  UNL     1      -1.833  -1.689  -1.160  1.00  0.00    -0.012 C 
HETATM    6  C9  UNL     1      -0.550  -0.989  -0.716  1.00  0.00     0.014 C 
HETATM    7  C10 UNL     1      -0.818   0.394  -0.220  1.00  0.00    -0.039 C 
HETATM    8  C20 UNL     1      -1.370   1.216  -1.370  1.00  0.00     0.014 C 
HETATM    9  C21 UNL     1      -1.994   0.389   0.800  1.00  0.00     0.023 C 
HETATM   10  C22 UNL     1      -2.874  -1.670  -0.109  1.00  0.00     0.018 C 
ENDROOT
BRANCH   7  11
HETATM   11  C11 UNL     1       0.295   1.014   0.495  1.00  0.00     0.011 C 
BRANCH  11  12
HETATM   12  C12 UNL     1       1.616   1.271  -0.055  1.00  0.00     0.034 C 
BRANCH  12  13
HETATM   13  C13 UNL     1       2.499   0.130  -0.458  1.00  0.00     0.190 C 
HETATM   14  N1  UNL     1       2.795  -0.752   0.663  1.00  0.00    -0.066 N 
HETATM   15  C14 UNL     1       4.201  -0.802   0.993  1.00  0.00     0.186 C 
ATOM     16  H12 UNL     1       2.239  -0.499   1.480  1.00  0.00     0.278 HD
ATOM     17  H11 UNL     1       2.429  -1.689   0.494  1.00  0.00     0.278 HD
HETATM   18  C15 UNL     1       4.638   0.599   1.384  1.00  0.00     0.033 C 
HETATM   19  C19 UNL     1       5.023  -1.337  -0.173  1.00  0.00     0.033 C 
HETATM   20  C16 UNL     1       4.548   1.432   0.124  1.00  0.00     0.009 C 
HETATM   21  C17 UNL     1       3.867   0.657  -0.934  1.00  0.00     0.016 C 
HETATM   22  C18 UNL     1       4.648  -0.547  -1.406  1.00  0.00     0.009 C 
ENDBRANCH  12  13
ENDBRANCH  11  12
ENDBRANCH   7  11
BRANCH   1  23
HETATM   23  C2  UNL     1      -4.307  -0.153   1.218  1.00  0.00    -0.084 C 
HETATM   24  C1  UNL     1      -4.844  -1.253   1.706  1.00  0.00     0.015 C 
HETATM   25  C3  UNL     1      -4.829   1.155   1.681  1.00  0.00     0.043 C 
ENDBRANCH   1  23
TORSDOF 4
