REMARK  5 active torsions:
REMARK  status: ('A' for Active; 'I' for Inactive)
REMARK    1  A    between atoms: C6_6  and  N1_7 
REMARK    2  A    between atoms: N1_7  and  C7_9 
REMARK    3  A    between atoms: C7_9  and  C8_10 
REMARK    4  A    between atoms: C8_10  and  C9_11 
REMARK    5  A    between atoms: C9_11  and  C10_12 
ROOT
HETATM    1  C9  UNL     1      -0.726  -1.027  -0.909  1.00  0.00     0.014 C 
ENDROOT
BRANCH   1   2
HETATM    2  C8  UNL     1       0.450  -0.152  -0.869  1.00  0.00     0.045 C 
BRANCH   2   3
HETATM    3  C7  UNL     1       0.783   0.591   0.379  1.00  0.00     0.056 C 
BRANCH   3   4
HETATM    4  N1  UNL     1       1.954   1.345   0.265  1.00  0.00    -0.398 N 
ATOM      5  H1  UNL     1       1.835   2.357   0.210  1.00  0.00     0.159 HD
BRANCH   4   6
HETATM    6  C6  UNL     1       3.242   0.883   0.219  1.00  0.00     0.081 C 
HETATM    7  C5  UNL     1       3.732   0.142   1.467  1.00  0.00     0.025 C 
HETATM    8  C4  UNL     1       5.231   0.354   1.531  1.00  0.00     0.002 C 
HETATM    9  C3  UNL     1       5.850   0.832   0.264  1.00  0.00     0.004 C 
HETATM   10  C2  UNL     1       5.265   0.299  -0.999  1.00  0.00    -0.017 C 
HETATM   11  C1  UNL     1       5.981  -1.002  -1.355  1.00  0.00     0.010 C 
HETATM   12  C21 UNL     1       3.754   0.116  -0.949  1.00  0.00     0.029 C 
ENDBRANCH   4   6
ENDBRANCH   3   4
ENDBRANCH   2   3
ENDBRANCH   1   2
BRANCH   1  13
HETATM   13  C10 UNL     1      -2.080  -0.515  -0.609  1.00  0.00    -0.039 C 
HETATM   14  C11 UNL     1      -2.512   0.638  -1.444  1.00  0.00     0.014 C 
HETATM   15  C12 UNL     1      -3.881   1.104  -1.065  1.00  0.00    -0.013 C 
HETATM   16  C13 UNL     1      -4.877   0.055  -1.538  1.00  0.00     0.009 C 
HETATM   17  C18 UNL     1      -3.956   1.330   0.420  1.00  0.00     0.014 C 
HETATM   18  C14 UNL     1      -4.470  -1.232  -0.852  1.00  0.00    -0.013 C 
HETATM   19  C15 UNL     1      -4.756  -1.020   0.625  1.00  0.00     0.014 C 
HETATM   20  C20 UNL     1      -3.079  -1.664  -1.097  1.00  0.00     0.014 C 
HETATM   21  C16 UNL     1      -3.789   0.028   1.135  1.00  0.00    -0.043 C 
HETATM   22  C17 UNL     1      -3.934   0.150   2.619  1.00  0.00     0.015 C 
HETATM   23  C19 UNL     1      -2.360  -0.463   0.848  1.00  0.00     0.018 C 
ENDBRANCH   1  13
TORSDOF 5
