REMARK  5 active torsions:
REMARK  status: ('A' for Active; 'I' for Inactive)
REMARK    1  A    between atoms: C2_2  and  N1_3 
REMARK    2  A    between atoms: C2_2  and  C12_15 
REMARK    3  A    between atoms: N1_3  and  C3_6 
REMARK    4  A    between atoms: C3_6  and  C4_7 
REMARK    5  A    between atoms: C4_7  and  C5_8 
ROOT
HETATM    1  C1  UNL     1      -0.883   1.235   2.780  1.00  0.00     0.041 C 
HETATM    2  C2  UNL     1       0.237   0.972   1.875  1.00  0.00     0.190 C 
ENDROOT
BRANCH   2   3
HETATM    3  N1  UNL     1       0.008  -0.268   1.118  1.00  0.00    -0.070 N 
ATOM      4  H12 UNL     1      -0.826  -0.188   0.536  1.00  0.00     0.277 HD
ATOM      5  H11 UNL     1       0.712  -0.382   0.389  1.00  0.00     0.277 HD
BRANCH   3   6
HETATM    6  C3  UNL     1      -0.060  -1.428   1.939  1.00  0.00     0.237 C 
BRANCH   6   7
HETATM    7  C4  UNL     1       0.049  -2.725   1.227  1.00  0.00     0.061 C 
BRANCH   7   8
HETATM    8  C5  UNL     1      -0.926  -3.038   0.169  1.00  0.00    -0.082 C 
HETATM    9  C6  UNL     1      -1.680  -4.103   0.470  1.00  0.00    -0.024 C 
HETATM   10  C7  UNL     1      -2.752  -4.717  -0.323  1.00  0.00     0.027 C 
HETATM   11  C8  UNL     1      -2.539  -4.647  -1.818  1.00  0.00     0.004 C 
HETATM   12  C9  UNL     1      -1.078  -4.580  -2.135  1.00  0.00     0.001 C 
HETATM   13  C10 UNL     1      -0.570  -3.180  -2.276  1.00  0.00     0.004 C 
HETATM   14  C11 UNL     1      -0.986  -2.292  -1.094  1.00  0.00     0.034 C 
ENDBRANCH   7   8
ENDBRANCH   6   7
ENDBRANCH   3   6
ENDBRANCH   2   3
BRANCH   2  15
HETATM   15  C12 UNL     1       0.668   2.073   0.947  1.00  0.00    -0.011 C 
HETATM   16  C13 UNL     1      -0.436   2.539   0.041  1.00  0.00     0.016 C 
HETATM   17  C14 UNL     1       0.130   3.435  -1.037  1.00  0.00    -0.013 C 
HETATM   18  C15 UNL     1       0.767   4.632  -0.407  1.00  0.00     0.009 C 
HETATM   19  C19 UNL     1       1.143   2.706  -1.893  1.00  0.00     0.009 C 
HETATM   20  C16 UNL     1       1.865   4.176   0.553  1.00  0.00    -0.013 C 
HETATM   21  C17 UNL     1       2.925   3.523  -0.310  1.00  0.00     0.009 C 
HETATM   22  C21 UNL     1       1.309   3.252   1.608  1.00  0.00     0.016 C 
HETATM   23  C18 UNL     1       2.287   2.317  -0.971  1.00  0.00    -0.013 C 
HETATM   24  C20 UNL     1       1.746   1.382   0.060  1.00  0.00     0.016 C 
ENDBRANCH   2  15
TORSDOF 5
