REMARK  6 active torsions:
REMARK  status: ('A' for Active; 'I' for Inactive)
REMARK    1  A    between atoms: C3_3  and  O1_4 
REMARK    2  A    between atoms: C11_13  and  C12_14 
REMARK    3  A    between atoms: C12_14  and  C13_15 
REMARK    4  A    between atoms: C13_15  and  C14_16 
REMARK    5  A    between atoms: C14_16  and  C15_17 
REMARK    6  A    between atoms: C15_17  and  C16_18 
ROOT
HETATM    1  C1  UNL     1      -6.885  -0.472   1.790  1.00  0.00     0.015 C 
HETATM    2  C2  UNL     1      -5.854  -0.747   1.233  1.00  0.00    -0.079 C 
HETATM    3  C3  UNL     1      -4.588  -1.075   0.531  1.00  0.00     0.120 C 
HETATM    4  C4  UNL     1      -4.500  -0.165  -0.649  1.00  0.00     0.051 C 
HETATM    5  C5  UNL     1      -3.155  -0.089  -1.283  1.00  0.00     0.009 C 
HETATM    6  C6  UNL     1      -2.127  -0.878  -0.521  1.00  0.00    -0.006 C 
HETATM    7  C7  UNL     1      -2.182  -0.462   0.940  1.00  0.00    -0.006 C 
HETATM    8  C8  UNL     1      -1.922   0.996   1.130  1.00  0.00     0.005 C 
HETATM    9  C9  UNL     1      -0.679   1.389   0.361  1.00  0.00     0.006 C 
HETATM   10  C10 UNL     1       0.102   0.180  -0.089  1.00  0.00    -0.006 C 
HETATM   11  C11 UNL     1       1.217   0.559  -1.006  1.00  0.00    -0.010 C 
HETATM   12  C18 UNL     1       0.527   0.939  -2.271  1.00  0.00     0.005 C 
HETATM   13  C19 UNL     1      -0.596  -0.090  -2.356  1.00  0.00     0.006 C 
HETATM   14  C20 UNL     1      -0.740  -0.706  -0.998  1.00  0.00    -0.006 C 
HETATM   15  C21 UNL     1      -3.488  -0.921   1.518  1.00  0.00     0.056 C 
ENDROOT
BRANCH   3  16
HETATM   16  O1  UNL     1      -4.751  -2.419   0.118  1.00  0.00    -0.378 OA
ATOM     17  H1  UNL     1      -3.941  -2.629  -0.331  1.00  0.00     0.211 HD
ENDBRANCH   3  16
BRANCH  11  18
HETATM   18  C12 UNL     1       2.107   1.656  -0.518  1.00  0.00     0.005 C 
BRANCH  18  19
HETATM   19  C13 UNL     1       2.818   1.350   0.770  1.00  0.00     0.000 C 
BRANCH  19  20
HETATM   20  C14 UNL     1       3.706   0.133   0.681  1.00  0.00     0.000 C 
BRANCH  20  21
HETATM   21  C15 UNL     1       4.760   0.338  -0.369  1.00  0.00    -0.000 C 
BRANCH  21  22
HETATM   22  C16 UNL     1       5.668  -0.872  -0.469  1.00  0.00    -0.005 C 
HETATM   23  C17 UNL     1       6.380  -1.171   0.810  1.00  0.00     0.005 C 
ENDBRANCH  21  22
ENDBRANCH  20  21
ENDBRANCH  19  20
ENDBRANCH  18  19
ENDBRANCH  11  18
TORSDOF 6
