REMARK  7 active torsions:
REMARK  status: ('A' for Active; 'I' for Inactive)
REMARK    1  A    between atoms: C2_2  and  N1_4 
REMARK    2  A    between atoms: N1_4  and  C4_7 
REMARK    3  A    between atoms: C4_7  and  C5_8 
REMARK    4  A    between atoms: C5_8  and  C6_9 
REMARK    5  A    between atoms: C5_8  and  C19_22 
REMARK    6  A    between atoms: C7_10  and  C8_11 
REMARK    7  A    between atoms: C8_11  and  C9_12 
ROOT
HETATM    1  C6  UNL     1       0.888  -0.657  -0.920  1.00  0.00    -0.100 C 
HETATM    2  C7  UNL     1      -0.298  -0.603  -1.142  1.00  0.00    -0.106 C 
ENDROOT
BRANCH   1   3
HETATM    3  C5  UNL     1       2.360  -0.748  -0.669  1.00  0.00     0.094 C 
BRANCH   3   4
HETATM    4  C4  UNL     1       2.769   0.410   0.149  1.00  0.00     0.250 C 
BRANCH   4   5
HETATM    5  N1  UNL     1       4.171   0.399   0.475  1.00  0.00    -0.070 N 
ATOM      6  H12 UNL     1       4.754   0.189  -0.335  1.00  0.00     0.277 HD
ATOM      7  H11 UNL     1       4.427  -0.403   1.051  1.00  0.00     0.277 HD
BRANCH   5   8
HETATM    8  C2  UNL     1       4.540   1.687   1.112  1.00  0.00     0.177 C 
HETATM    9  C1  UNL     1       4.342   2.834   0.177  1.00  0.00     0.039 C 
HETATM   10  C3  UNL     1       5.979   1.541   1.520  1.00  0.00     0.039 C 
ENDBRANCH   5   8
ENDBRANCH   4   5
ENDBRANCH   3   4
BRANCH   3  11
HETATM   11  C19 UNL     1       2.788  -2.088  -0.251  1.00  0.00    -0.006 C 
HETATM   12  C20 UNL     1       2.124  -3.113  -1.238  1.00  0.00     0.011 C 
HETATM   13  C21 UNL     1       4.296  -2.328  -0.452  1.00  0.00     0.011 C 
ENDBRANCH   3  11
ENDBRANCH   1   3
BRANCH   2  14
HETATM   14  C8  UNL     1      -1.700  -0.554  -1.438  1.00  0.00     0.100 C 
BRANCH  14  15
HETATM   15  C9  UNL     1      -2.485   0.310  -0.530  1.00  0.00     0.012 C 
HETATM   16  C10 UNL     1      -3.938   0.219  -1.036  1.00  0.00    -0.043 C 
HETATM   17  C11 UNL     1      -3.917   0.623  -2.521  1.00  0.00     0.015 C 
HETATM   18  C12 UNL     1      -4.485  -1.166  -0.991  1.00  0.00     0.015 C 
HETATM   19  C13 UNL     1      -4.766   1.257  -0.354  1.00  0.00     0.009 C 
HETATM   20  C14 UNL     1      -4.576   1.298   1.133  1.00  0.00     0.001 C 
HETATM   21  C15 UNL     1      -3.712   0.210   1.669  1.00  0.00     0.009 C 
HETATM   22  C16 UNL     1      -2.375   0.095   0.923  1.00  0.00    -0.043 C 
HETATM   23  C17 UNL     1      -1.771  -1.202   1.366  1.00  0.00     0.015 C 
HETATM   24  C18 UNL     1      -1.517   1.208   1.551  1.00  0.00     0.015 C 
ENDBRANCH  14  15
ENDBRANCH   2  14
TORSDOF 7
