REMARK  6 active torsions:
REMARK  status: ('A' for Active; 'I' for Inactive)
REMARK    1  A    between atoms: C1_4  and  N2_5 
REMARK    2  A    between atoms: C1_4  and  C7_15 
REMARK    3  A    between atoms: N2_5  and  O1_7 
REMARK    4  A    between atoms: O1_7  and  C2_8 
REMARK    5  A    between atoms: C2_8  and  C3_10 
REMARK    6  A    between atoms: C12_20  and  C13_21 
ROOT
HETATM    1  N1  UNL     1      -0.594   1.920  -1.246  1.00  0.00    -0.383 N 
ATOM      2  H11 UNL     1      -1.201   2.627  -0.831  1.00  0.00     0.157 HD
ATOM      3  H12 UNL     1       0.217   2.226  -1.783  1.00  0.00     0.157 HD
HETATM    4  C1  UNL     1      -0.879   0.684  -1.072  1.00  0.00     0.130 C 
ENDROOT
BRANCH   4   5
HETATM    5  N2  UNL     1      -0.025  -0.310  -1.655  1.00  0.00    -0.241 N 
ATOM      6  H2  UNL     1      -0.454  -1.013  -2.257  1.00  0.00     0.196 HD
BRANCH   5   7
HETATM    7  O1  UNL     1       1.310  -0.377  -1.459  1.00  0.00    -0.192 OA
BRANCH   7   8
HETATM    8  C2  UNL     1       1.943  -0.415  -0.230  1.00  0.00     0.339 C 
HETATM    9  O2  UNL     1       1.216  -0.385   0.796  1.00  0.00    -0.255 OA
BRANCH   8  10
HETATM   10  C3  UNL     1       3.397  -0.487  -0.130  1.00  0.00     0.151 A 
HETATM   11  C4  UNL     1       4.183  -0.532   0.999  1.00  0.00     0.045 A 
HETATM   12  C5  UNL     1       5.496  -0.594   0.596  1.00  0.00     0.027 A 
HETATM   13  C6  UNL     1       5.461  -0.585  -0.774  1.00  0.00     0.143 A 
HETATM   14  O3  UNL     1       4.214  -0.521  -1.158  1.00  0.00    -0.317 OA
ENDBRANCH   8  10
ENDBRANCH   7   8
ENDBRANCH   5   7
ENDBRANCH   4   5
BRANCH   4  15
HETATM   15  C7  UNL     1      -2.029   0.250  -0.310  1.00  0.00     0.022 A 
HETATM   16  C8  UNL     1      -2.213  -1.137  -0.205  1.00  0.00     0.016 A 
HETATM   17  C9  UNL     1      -3.256  -1.698   0.484  1.00  0.00     0.001 A 
HETATM   18  C10 UNL     1      -4.154  -0.894   1.094  1.00  0.00     0.001 A 
HETATM   19  C11 UNL     1      -4.009   0.468   1.015  1.00  0.00     0.015 A 
HETATM   20  C12 UNL     1      -2.943   1.068   0.311  1.00  0.00     0.015 A 
BRANCH  20  21
HETATM   21  C13 UNL     1      -2.841   2.508   0.261  1.00  0.00     0.271 C 
HETATM   22  O4  UNL     1      -3.756   3.160   0.881  1.00  0.00    -0.301 OA
ENDBRANCH  20  21
ENDBRANCH   4  15
TORSDOF 6
