REMARK  4 active torsions:
REMARK  status: ('A' for Active; 'I' for Inactive)
REMARK    1  A    between atoms: C2_2  and  S1_3 
REMARK    2  A    between atoms: S1_3  and  C3_4 
REMARK    3  A    between atoms: C7_10  and  C8_11 
REMARK    4  A    between atoms: C11_17  and  O3_18 
ROOT
HETATM    1  C3  UNL     1      -0.956  -0.321   1.009  1.00  0.00     0.215 C 
HETATM    2  O1  UNL     1      -0.527  -1.070  -0.023  1.00  0.00    -0.338 OA
HETATM    3  C4  UNL     1       0.683  -1.662   0.035  1.00  0.00     0.159 C 
HETATM    4  C5  UNL     1       0.689  -2.734  -1.072  1.00  0.00     0.078 C 
HETATM    5  C6  UNL     1       1.012  -2.378   1.312  1.00  0.00     0.078 C 
HETATM    6  O2  UNL     1       1.770  -0.837  -0.266  1.00  0.00    -0.345 OA
HETATM    7  C7  UNL     1       1.379   0.481  -0.481  1.00  0.00     0.172 C 
HETATM    8  C10 UNL     1       0.989   1.122   0.837  1.00  0.00     0.073 C 
HETATM    9  C11 UNL     1      -0.544   1.150   0.841  1.00  0.00     0.160 C 
ENDROOT
BRANCH   7  10
HETATM   10  C8  UNL     1       2.490   1.260  -1.034  1.00  0.00     0.005 C 
HETATM   11  C9  UNL     1       3.779   1.419  -0.308  1.00  0.00     0.065 C 
HETATM   12  N1  UNL     1       2.361   1.824  -2.170  1.00  0.00    -0.404 N 
ATOM     13  H12 UNL     1       1.477   1.715  -2.668  1.00  0.00     0.155 HD
ATOM     14  H11 UNL     1       3.134   2.366  -2.555  1.00  0.00     0.155 HD
ENDBRANCH   7  10
BRANCH   9  15
HETATM   15  O3  UNL     1      -1.014   1.927   1.870  1.00  0.00    -0.392 OA
ATOM     16  H3  UNL     1      -0.759   2.836   1.766  1.00  0.00     0.210 HD
ENDBRANCH   9  15
BRANCH   1  17
HETATM   17  S1  UNL     1      -2.790  -0.372   0.968  1.00  0.00    -0.135 SA
BRANCH  17  18
HETATM   18  C2  UNL     1      -3.417   0.457  -0.511  1.00  0.00     0.072 C 
HETATM   19  C1  UNL     1      -4.907   0.399  -0.504  1.00  0.00     0.016 C 
ENDBRANCH  17  18
ENDBRANCH   1  17
TORSDOF 4
