REMARK  4 active torsions:
REMARK  status: ('A' for Active; 'I' for Inactive)
REMARK    1  A    between atoms: C9_11  and  N2_12 
REMARK    2  A    between atoms: N2_12  and  C10_14 
REMARK    3  A    between atoms: C10_14  and  C11_15 
REMARK    4  A    between atoms: N3_17  and  O1_19 
ROOT
HETATM    1  C1  UNL     1      -1.546   1.087  -2.557  1.00  0.00     0.013 C 
HETATM    2  C2  UNL     1      -1.517   0.359  -1.592  1.00  0.00    -0.105 C 
HETATM    3  C3  UNL     1      -1.503  -0.542  -0.446  1.00  0.00     0.042 C 
HETATM    4  C4  UNL     1      -1.037  -1.940  -0.914  1.00  0.00     0.031 C 
HETATM    5  C5  UNL     1      -2.885  -0.814   0.089  1.00  0.00     0.034 C 
HETATM    6  C6  UNL     1      -3.694   0.462   0.131  1.00  0.00     0.077 C 
HETATM    7  S1  UNL     1      -2.764   1.515   1.250  1.00  0.00    -0.147 SA
HETATM    8  C7  UNL     1      -1.084   1.004   1.509  1.00  0.00     0.178 C 
HETATM    9  C8  UNL     1      -0.904   0.655   2.920  1.00  0.00     0.076 C 
HETATM   10  N1  UNL     1      -0.777   0.385   4.056  1.00  0.00    -0.196 NA
HETATM   11  C9  UNL     1      -0.546  -0.080   0.591  1.00  0.00     0.128 C 
ENDROOT
BRANCH  11  12
HETATM   12  N2  UNL     1       0.696   0.412   0.146  1.00  0.00    -0.389 N 
ATOM     13  H2  UNL     1       0.975   1.362   0.391  1.00  0.00     0.159 HD
BRANCH  12  14
HETATM   14  C10 UNL     1       1.553  -0.377  -0.625  1.00  0.00     0.110 C 
BRANCH  14  15
HETATM   15  C11 UNL     1       2.903   0.279  -0.582  1.00  0.00     0.043 C 
HETATM   16  C12 UNL     1       3.857  -0.188   0.496  1.00  0.00     0.071 C 
HETATM   17  N3  UNL     1       3.291   1.199  -1.357  1.00  0.00    -0.273 N 
ATOM     18  H3  UNL     1       2.646   1.533  -2.073  1.00  0.00     0.194 HD
BRANCH  17  19
HETATM   19  O1  UNL     1       4.533   1.770  -1.285  1.00  0.00    -0.290 OA
ATOM     20  H1  UNL     1       4.825   2.461  -1.867  1.00  0.00     0.244 HD
ENDBRANCH  17  19
ENDBRANCH  14  15
ENDBRANCH  12  14
ENDBRANCH  11  12
TORSDOF 4
