REMARK  7 active torsions:
REMARK  status: ('A' for Active; 'I' for Inactive)
REMARK    1  A    between atoms: C2_2  and  C20_20 
REMARK    2  A    between atoms: C3_3  and  C4_4 
REMARK    3  A    between atoms: C4_4  and  C10_10 
REMARK    4  A    between atoms: C20_20  and  C21_21 
REMARK    5  A    between atoms: C20_20  and  N2_26 
REMARK    6  A    between atoms: C21_21  and  C22_22 
REMARK    7  A    between atoms: C22_22  and  O1_24 
REMARK       I    between atoms: N2_26  and  C23_28 
ROOT
HETATM    1  C1  UNL     1       1.927  -0.074  -0.910  1.00  0.00     0.050 C 
HETATM    2  C2  UNL     1       1.647  -0.778   0.311  1.00  0.00    -0.034 C 
HETATM    3  C3  UNL     1       0.415  -1.241   0.592  1.00  0.00     0.022 C 
ENDROOT
BRANCH   3   4
HETATM    4  C4  UNL     1      -0.836  -1.226  -0.032  1.00  0.00    -0.018 C 
HETATM    5  C5  UNL     1      -1.849  -1.892   0.601  1.00  0.00    -0.047 C 
HETATM    6  C6  UNL     1      -3.224  -2.020   0.157  1.00  0.00     0.004 C 
HETATM    7  C9  UNL     1      -1.779  -2.628   1.863  1.00  0.00     0.043 C 
HETATM    8  C7  UNL     1      -3.808  -3.029   0.770  1.00  0.00    -0.026 C 
HETATM    9  C8  UNL     1      -2.876  -3.690   1.698  1.00  0.00     0.032 C 
BRANCH   4  10
HETATM   10  C10 UNL     1      -1.246  -0.448  -1.175  1.00  0.00    -0.018 A 
HETATM   11  C11 UNL     1      -0.942  -0.715  -2.460  1.00  0.00     0.013 A 
HETATM   12  C12 UNL     1      -1.335   0.071  -3.555  1.00  0.00     0.008 A 
HETATM   13  C13 UNL     1      -2.090   1.202  -3.266  1.00  0.00    -0.055 A 
HETATM   14  C14 UNL     1      -2.541   2.078  -4.402  1.00  0.00     0.049 C 
HETATM   15  C15 UNL     1      -2.405   1.480  -1.941  1.00  0.00    -0.045 A 
HETATM   16  C16 UNL     1      -2.015   0.705  -0.880  1.00  0.00    -0.040 A 
HETATM   17  C19 UNL     1      -3.206   2.620  -1.386  1.00  0.00     0.040 C 
HETATM   18  C17 UNL     1      -2.524   1.298   0.399  1.00  0.00     0.040 C 
HETATM   19  C18 UNL     1      -2.594   2.784  -0.016  1.00  0.00     0.009 C 
ENDBRANCH   4  10
ENDBRANCH   3   4
BRANCH   2  20
HETATM   20  C20 UNL     1       2.595  -1.057   1.414  1.00  0.00     0.044 C 
BRANCH  20  21
HETATM   21  C21 UNL     1       3.377  -1.268   2.285  1.00  0.00     0.082 C 
BRANCH  21  22
HETATM   22  C22 UNL     1       4.720  -1.122   2.747  1.00  0.00     0.151 C 
HETATM   23  N1  UNL     1       5.820  -0.540   2.123  1.00  0.00    -0.075 NA
BRANCH  22  24
HETATM   24  O1  UNL     1       5.019  -1.596   3.944  1.00  0.00    -0.348 OA
ATOM     25  H1  UNL     1       5.913  -1.499   4.251  1.00  0.00     0.219 HD
ENDBRANCH  22  24
ENDBRANCH  21  22
ENDBRANCH  20  21
BRANCH  20  26
HETATM   26  N2  UNL     1       3.781   0.038   0.692  1.00  0.00    -0.330 N 
HETATM   27  C23 UNL     1       3.493   1.277   1.116  1.00  0.00     0.186 C 
HETATM   28  N3  UNL     1       4.302   2.393   0.624  1.00  0.00    -0.064 NA
HETATM   29  N4  UNL     1       2.532   1.643   1.915  1.00  0.00    -0.373 N 
ATOM     30  H42 UNL     1       1.968   0.865   2.258  1.00  0.00     0.158 HD
ATOM     31  H41 UNL     1       2.313   2.586   2.238  1.00  0.00     0.158 HD
ATOM     32  H2  UNL     1       4.544  -0.225   0.068  1.00  0.00     0.168 HD
ENDBRANCH  20  26
ENDBRANCH   2  20
TORSDOF 7
