REMARK  3 active torsions:
REMARK  status: ('A' for Active; 'I' for Inactive)
REMARK    1  A    between atoms: C2_5  and  N2_6 
REMARK    2  A    between atoms: N2_6  and  C3_8 
REMARK    3  A    between atoms: C3_8  and  C4_9 
ROOT
HETATM    1  C4  UNL     1       0.308  -0.792  -0.638  1.00  0.00     0.171 C 
HETATM    2  C5  UNL     1       0.098   0.652  -0.406  1.00  0.00     0.210 C 
HETATM    3  O2  UNL     1       1.223   1.341  -1.003  1.00  0.00    -0.342 OA
HETATM    4  C6  UNL     1       2.480   0.909  -0.620  1.00  0.00     0.158 A 
HETATM    5  C7  UNL     1       2.664  -0.373  -0.154  1.00  0.00     0.108 A 
HETATM    6  C8  UNL     1       3.942  -0.798   0.231  1.00  0.00     0.057 A 
HETATM    7  C9  UNL     1       5.030   0.040   0.154  1.00  0.00     0.093 A 
HETATM    8  N3  UNL     1       4.820   1.286  -0.306  1.00  0.00    -0.341 N 
ATOM      9  H3  UNL     1       5.611   1.926  -0.373  1.00  0.00     0.167 HD
HETATM   10  C10 UNL     1       3.602   1.718  -0.681  1.00  0.00     0.224 A 
HETATM   11  F1  UNL     1       3.407   2.991  -1.146  1.00  0.00    -0.183 F 
HETATM   12  O3  UNL     1       1.570  -1.194  -0.084  1.00  0.00    -0.339 OA
ENDROOT
BRANCH   1  13
HETATM   13  C3  UNL     1      -0.772  -1.642  -0.049  1.00  0.00     0.172 C 
BRANCH  13  14
HETATM   14  N2  UNL     1      -2.087  -1.317  -0.513  1.00  0.00    -0.222 N 
ATOM     15  H2  UNL     1      -2.441  -1.757  -1.363  1.00  0.00     0.177 HD
BRANCH  14  16
HETATM   16  C2  UNL     1      -2.899  -0.403   0.181  1.00  0.00     0.697 A 
HETATM   17  N1  UNL     1      -2.703   0.291   1.289  1.00  0.00    -0.139 N 
HETATM   18  C1  UNL     1      -3.763   1.056   1.597  1.00  0.00     0.353 A 
ATOM     19  H1  UNL     1      -1.848   0.250   1.844  1.00  0.00     0.189 HD
HETATM   20  O1  UNL     1      -3.867   1.779   2.530  1.00  0.00    -0.245 OA
HETATM   21  N5  UNL     1      -4.657   0.822   0.630  1.00  0.00    -0.237 N 
HETATM   22  N4  UNL     1      -4.157  -0.048  -0.225  1.00  0.00    -0.128 N 
ATOM     23  H5  UNL     1      -5.581   1.250   0.564  1.00  0.00     0.192 HD
ATOM     24  H4  UNL     1      -4.632  -0.400  -1.056  1.00  0.00     0.205 HD
ENDBRANCH  14  16
ENDBRANCH  13  14
ENDBRANCH   1  13
TORSDOF 3
