REMARK  0 active torsions:
REMARK  status: ('A' for Active; 'I' for Inactive)
ROOT
HETATM    1  N1  UNL     1       2.501  -0.156  -0.298  1.00  0.00    -0.080 NA
HETATM    2  C1  UNL     1       1.228   0.444  -0.241  1.00  0.00     0.144 A 
HETATM    3  N2  UNL     1       1.015   1.757  -0.447  1.00  0.00    -0.287 N 
ATOM      4  H2  UNL     1       1.814   2.356  -0.656  1.00  0.00     0.188 HD
HETATM    5  N3  UNL     1      -0.192   2.304  -0.389  1.00  0.00    -0.308 N 
ATOM      6  H3  UNL     1      -0.279   3.306  -0.557  1.00  0.00     0.186 HD
HETATM    7  C2  UNL     1      -1.307   1.602  -0.119  1.00  0.00     0.139 A 
HETATM    8  C3  UNL     1      -1.166   0.246   0.105  1.00  0.00     0.080 A 
HETATM    9  N4  UNL     1      -2.057  -0.725   0.394  1.00  0.00    -0.299 N 
ATOM     10  H4  UNL     1      -3.064  -0.607   0.504  1.00  0.00     0.187 HD
HETATM   11  N5  UNL     1      -1.385  -1.856   0.508  1.00  0.00    -0.310 N 
ATOM     12  H5  UNL     1      -1.803  -2.761   0.723  1.00  0.00     0.186 HD
HETATM   13  C4  UNL     1      -0.071  -1.649   0.301  1.00  0.00     0.124 A 
HETATM   14  C5  UNL     1       0.103  -0.317   0.041  1.00  0.00     0.053 A 
ENDROOT
TORSDOF 0
