REMARK  15 active torsions:
REMARK  status: ('A' for Active; 'I' for Inactive)
REMARK    1  A    between atoms: C2_2  and  O1_3 
REMARK    2  A    between atoms: C2_2  and  C3_5 
REMARK    3  A    between atoms: C2_2  and  C4_8 
REMARK    4  A    between atoms: C3_5  and  O2_6 
REMARK    5  A    between atoms: C4_8  and  N1_9 
REMARK    6  A    between atoms: C4_8  and  C11_25 
REMARK       I    between atoms: N1_9  and  C5_11 
REMARK    7  A    between atoms: C5_11  and  C6_13 
REMARK    8  A    between atoms: C6_13  and  C7_14 
REMARK    9  A    between atoms: C6_13  and  O5_17 
REMARK   10  A    between atoms: C7_14  and  O4_15 
REMARK   11  A    between atoms: O5_17  and  C8_18 
REMARK   12  A    between atoms: C8_18  and  C9_19 
REMARK   13  A    between atoms: C9_19  and  O6_20 
REMARK   14  A    between atoms: C9_19  and  C10_22 
REMARK   15  A    between atoms: C10_22  and  O7_23 
ROOT
HETATM    1  N1  UNL     1       1.167  -0.888  -0.102  1.00  0.00    -0.342 N 
ATOM      2  H1  UNL     1       1.390  -1.545   0.646  1.00  0.00     0.163 HD
HETATM    3  C5  UNL     1      -0.188  -0.509  -0.306  1.00  0.00     0.249 C 
HETATM    4  O3  UNL     1      -0.412   0.303  -1.239  1.00  0.00    -0.271 OA
ENDROOT
BRANCH   3   5
HETATM    5  C6  UNL     1      -1.284  -1.054   0.550  1.00  0.00     0.236 C 
BRANCH   5   6
HETATM    6  C7  UNL     1      -1.236  -2.574   0.585  1.00  0.00     0.205 C 
BRANCH   6   7
HETATM    7  O4  UNL     1      -2.161  -3.046   1.515  1.00  0.00    -0.398 OA
ATOM      8  H4  UNL     1      -2.131  -3.995   1.537  1.00  0.00     0.209 HD
ENDBRANCH   6   7
ENDBRANCH   5   6
BRANCH   5   9
HETATM    9  O5  UNL     1      -2.514  -0.572   0.200  1.00  0.00    -0.372 OA
BRANCH   9  10
HETATM   10  C8  UNL     1      -3.131   0.181   1.191  1.00  0.00     0.202 C 
BRANCH  10  11
HETATM   11  C9  UNL     1      -4.482   0.653   0.673  1.00  0.00     0.165 C 
BRANCH  11  12
HETATM   12  O6  UNL     1      -5.138   1.416   1.639  1.00  0.00    -0.391 OA
ATOM     13  H6  UNL     1      -5.981   1.711   1.316  1.00  0.00     0.210 HD
ENDBRANCH  11  12
BRANCH  11  14
HETATM   14  C10 UNL     1      -4.285   1.586  -0.529  1.00  0.00     0.198 C 
BRANCH  14  15
HETATM   15  O7  UNL     1      -5.533   2.001  -0.955  1.00  0.00    -0.398 OA
ATOM     16  H7  UNL     1      -5.411   2.579  -1.699  1.00  0.00     0.209 HD
ENDBRANCH  14  15
ENDBRANCH  11  14
ENDBRANCH  10  11
ENDBRANCH   9  10
ENDBRANCH   5   9
ENDBRANCH   3   5
BRANCH   1  17
HETATM   17  C4  UNL     1       2.227  -0.376  -0.913  1.00  0.00     0.221 C 
BRANCH  17  18
HETATM   18  C2  UNL     1       3.264   0.382  -0.119  1.00  0.00     0.105 C 
HETATM   19  C1  UNL     1       4.363   0.927  -0.991  1.00  0.00     0.051 C 
BRANCH  18  20
HETATM   20  O1  UNL     1       3.848  -0.445   0.838  1.00  0.00    -0.385 OA
ATOM     21  H1  UNL     1       3.154  -0.789   1.388  1.00  0.00     0.210 HD
ENDBRANCH  18  20
BRANCH  18  22
HETATM   22  C3  UNL     1       2.667   1.553   0.626  1.00  0.00     0.204 C 
BRANCH  22  23
HETATM   23  O2  UNL     1       3.713   2.189   1.297  1.00  0.00    -0.398 OA
ATOM     24  H2  UNL     1       3.338   2.925   1.765  1.00  0.00     0.209 HD
ENDBRANCH  22  23
ENDBRANCH  18  22
ENDBRANCH  17  18
BRANCH  17  25
HETATM   25  C11 UNL     1       2.925  -1.473  -1.661  1.00  0.00     0.199 C 
HETATM   26  O8  UNL     1       2.547  -2.686  -1.521  1.00  0.00    -0.646 OA
HETATM   27  O9  UNL     1       3.980  -1.261  -2.517  1.00  0.00    -0.646 OA
ENDBRANCH  17  25
ENDBRANCH   1  17
TORSDOF 15
