REMARK  0 active torsions:
REMARK  status: ('A' for Active; 'I' for Inactive)
ROOT
HETATM    1  N1  UNL     1      -0.454  -2.065  -0.584  1.00  0.00    -0.385 N 
ATOM      2  H11 UNL     1       0.482  -2.455  -0.700  1.00  0.00     0.157 HD
ATOM      3  H12 UNL     1      -1.100  -2.825  -0.797  1.00  0.00     0.157 HD
HETATM    4  C1  UNL     1      -0.811  -0.872  -0.243  1.00  0.00     0.109 A 
HETATM    5  C2  UNL     1      -2.139  -0.319  -0.079  1.00  0.00     0.052 A 
HETATM    6  C3  UNL     1      -2.055   0.950   0.282  1.00  0.00     0.054 A 
HETATM    7  C4  UNL     1      -0.637   1.290   0.372  1.00  0.00     0.130 A 
HETATM    8  N2  UNL     1       0.276   2.241   0.637  1.00  0.00    -0.283 N 
ATOM      9  H2  UNL     1       0.053   3.198   0.910  1.00  0.00     0.188 HD
HETATM   10  N3  UNL     1       1.500   1.767   0.496  1.00  0.00    -0.271 N 
ATOM     11  H3  UNL     1       2.364   2.289   0.640  1.00  0.00     0.189 HD
HETATM   12  C5  UNL     1       1.408   0.465   0.126  1.00  0.00     0.217 A 
HETATM   13  N4  UNL     1       2.479  -0.431  -0.134  1.00  0.00    -0.061 NA
HETATM   14  N5  UNL     1       0.089   0.188   0.054  1.00  0.00    -0.254 N 
ENDROOT
TORSDOF 0
