REMARK  6 active torsions:
REMARK  status: ('A' for Active; 'I' for Inactive)
REMARK    1  A    between atoms: C2_2  and  C3_3 
REMARK    2  A    between atoms: C3_3  and  N1_4 
REMARK    3  A    between atoms: N2_8  and  C5_9 
REMARK    4  A    between atoms: C5_9  and  C6_10 
REMARK    5  A    between atoms: C6_10  and  C7_11 
REMARK    6  A    between atoms: C6_10  and  C11_17 
ROOT
HETATM    1  C6  UNL     1      -0.977   0.596  -0.486  1.00  0.00     0.084 C 
ENDROOT
BRANCH   1   2
HETATM    2  C5  UNL     1       0.202   0.856  -1.320  1.00  0.00     0.154 C 
BRANCH   2   3
HETATM    3  N2  UNL     1       1.487   0.480  -0.746  1.00  0.00    -0.241 N 
HETATM    4  C4  UNL     1       2.142  -0.674  -0.914  1.00  0.00     0.393 A 
HETATM    5  O1  UNL     1       3.242  -0.590  -0.203  1.00  0.00    -0.174 OA
HETATM    6  O2  UNL     1       1.875  -1.692  -1.580  1.00  0.00    -0.236 OA
HETATM    7  N1  UNL     1       3.349   0.536   0.416  1.00  0.00    -0.193 N 
HETATM    8  C16 UNL     1       2.246   1.224   0.082  1.00  0.00     0.353 A 
HETATM    9  O5  UNL     1       1.973   2.371   0.480  1.00  0.00    -0.244 OA
BRANCH   7  10
HETATM   10  C3  UNL     1       4.418   0.983   1.286  1.00  0.00     0.188 C 
BRANCH  10  11
HETATM   11  C2  UNL     1       4.171   0.625   2.698  1.00  0.00    -0.015 C 
HETATM   12  C1  UNL     1       3.086  -0.031   3.096  1.00  0.00     0.008 C 
ENDBRANCH  10  11
ENDBRANCH   7  10
ENDBRANCH   2   3
ENDBRANCH   1   2
BRANCH   1  13
HETATM   13  C7  UNL     1      -2.217   1.020  -1.196  1.00  0.00    -0.005 A 
HETATM   14  C8  UNL     1      -2.314   1.547  -2.458  1.00  0.00     0.017 A 
HETATM   15  C9  UNL     1      -3.533   1.879  -2.908  1.00  0.00     0.032 A 
HETATM   16  C10 UNL     1      -4.591   1.662  -2.063  1.00  0.00     0.075 A 
HETATM   17 CL1  UNL     1      -6.300   2.004  -2.392  1.00  0.00    -0.076 Cl
HETATM   18  S1  UNL     1      -3.861   1.008  -0.678  1.00  0.00    -0.082 SA
ENDBRANCH   1  13
BRANCH   1  19
HETATM   19  C11 UNL     1      -1.202  -0.726   0.121  1.00  0.00     0.033 A 
HETATM   20  C12 UNL     1      -1.551  -1.810  -0.630  1.00  0.00    -0.004 A 
HETATM   21  C13 UNL     1      -1.762  -1.814  -2.109  1.00  0.00     0.057 C 
HETATM   22  S2  UNL     1      -1.754  -3.281   0.254  1.00  0.00    -0.033 SA
HETATM   23  C14 UNL     1      -1.488  -3.129   1.903  1.00  0.00     0.291 A 
HETATM   24  O3  UNL     1      -1.586  -4.092   2.735  1.00  0.00    -0.260 OA
HETATM   25  N3  UNL     1      -1.157  -1.894   2.292  1.00  0.00    -0.284 N 
HETATM   26  C15 UNL     1      -1.027  -0.828   1.522  1.00  0.00     0.256 A 
ATOM     27  H3  UNL     1      -0.987  -1.760   3.289  1.00  0.00     0.172 HD
HETATM   28  O4  UNL     1      -0.697   0.241   2.168  1.00  0.00    -0.267 OA
ENDBRANCH   1  19
TORSDOF 6
