REMARK  2 active torsions:
REMARK  status: ('A' for Active; 'I' for Inactive)
REMARK    1  A    between atoms: N1_8  and  C8_9 
REMARK    2  A    between atoms: C8_9  and  C9_10 
ROOT
HETATM    1  C1  UNL     1       4.205   3.428   0.811  1.00  0.00     0.036 C 
HETATM    2  C2  UNL     1       4.182   2.004   1.220  1.00  0.00    -0.022 C 
HETATM    3  C3  UNL     1       3.183   1.233   0.824  1.00  0.00    -0.037 C 
HETATM    4  C4  UNL     1       2.220   1.968   0.002  1.00  0.00     0.068 C 
HETATM    5  C5  UNL     1       0.867   1.440  -0.079  1.00  0.00    -0.007 C 
HETATM    6  C6  UNL     1       0.256   0.283  -0.122  1.00  0.00     0.003 C 
HETATM    7  C7  UNL     1      -1.065   0.938  -0.195  1.00  0.00     0.103 C 
HETATM    8  N1  UNL     1      -2.185   0.120  -0.160  1.00  0.00    -0.366 N 
HETATM    9  C11 UNL     1      -2.508  -0.653  -1.313  1.00  0.00     0.156 C 
HETATM   10  C12 UNL     1      -2.219  -2.104  -1.197  1.00  0.00     0.018 C 
HETATM   11  C13 UNL     1      -1.090  -2.746  -0.918  1.00  0.00     0.005 C 
HETATM   12  C14 UNL     1      -1.197  -4.223  -0.891  1.00  0.00     0.068 C 
HETATM   13  N2  UNL     1       0.283  -2.380  -0.618  1.00  0.00    -0.355 N 
HETATM   14  C15 UNL     1       1.289  -3.311  -0.850  1.00  0.00     0.156 C 
HETATM   15  C16 UNL     1       0.706  -1.115  -0.095  1.00  0.00     0.045 C 
HETATM   16  C17 UNL     1       1.743  -1.761   0.439  1.00  0.00     0.032 C 
HETATM   17  C18 UNL     1       2.872  -1.316   1.227  1.00  0.00     0.026 C 
HETATM   18  C19 UNL     1       3.417  -0.119   1.358  1.00  0.00     0.040 C 
HETATM   19 CL1  UNL     1       4.785  -0.188   2.472  1.00  0.00    -0.084 Cl
ENDROOT
BRANCH   8  20
HETATM   20  C8  UNL     1      -3.264   0.422   0.687  1.00  0.00     0.063 C 
BRANCH  20  21
HETATM   21  C9  UNL     1      -4.086   1.617   0.333  1.00  0.00     0.040 C 
HETATM   22  C10 UNL     1      -3.391   2.931   0.312  1.00  0.00     0.010 C 
ENDBRANCH  20  21
ENDBRANCH   8  20
TORSDOF 2
