REMARK  7 active torsions:
REMARK  status: ('A' for Active; 'I' for Inactive)
REMARK    1  A    between atoms: O1_2  and  C2_3 
REMARK    2  A    between atoms: C2_3  and  C3_5 
REMARK    3  A    between atoms: C3_5  and  C4_6 
REMARK    4  A    between atoms: C6_9  and  C7_10 
REMARK    5  A    between atoms: C9_13  and  S2_14 
REMARK    6  A    between atoms: S2_14  and  C10_15 
REMARK    7  A    between atoms: C10_15  and  C11_16 
REMARK       I    between atoms: C11_16  and  N1_18 
ROOT
HETATM    1  C11 UNL     1      -3.082  -0.006   0.140  1.00  0.00     0.230 C 
HETATM    2  O3  UNL     1      -2.054   0.691   0.411  1.00  0.00    -0.272 OA
HETATM    3  N1  UNL     1      -4.366   0.606   0.020  1.00  0.00    -0.330 N 
HETATM    4  C12 UNL     1      -4.497   2.046   0.213  1.00  0.00     0.153 C 
HETATM    5  C13 UNL     1      -5.810   2.435  -0.434  1.00  0.00     0.187 C 
HETATM    6  O4  UNL     1      -6.806   1.777   0.259  1.00  0.00    -0.387 OA
HETATM    7  C14 UNL     1      -6.822   0.425   0.082  1.00  0.00     0.208 C 
HETATM    8  C15 UNL     1      -5.502  -0.185  -0.285  1.00  0.00     0.218 C 
HETATM    9  C16 UNL     1      -5.523  -0.431  -1.739  1.00  0.00     0.087 C 
HETATM   10  N2  UNL     1      -5.542  -0.624  -2.887  1.00  0.00    -0.195 NA
ENDROOT
BRANCH   1  11
HETATM   11  C10 UNL     1      -2.958  -1.471  -0.056  1.00  0.00     0.181 C 
BRANCH  11  12
HETATM   12  S2  UNL     1      -1.227  -1.933   0.146  1.00  0.00    -0.130 SA
BRANCH  12  13
HETATM   13  C9  UNL     1      -0.226  -1.256  -1.128  1.00  0.00     0.076 C 
HETATM   14  C8  UNL     1       1.060  -1.069  -1.111  1.00  0.00     0.057 C 
HETATM   15  C5  UNL     1       1.879  -1.441   0.076  1.00  0.00     0.026 C 
HETATM   16  N3  UNL     1       1.766  -0.455  -2.229  1.00  0.00    -0.325 N 
HETATM   17  S1  UNL     1       3.068  -0.167   0.524  1.00  0.00    -0.113 SA
HETATM   18  C6  UNL     1       1.701  -2.567   0.661  1.00  0.00     0.009 C 
HETATM   19  C4  UNL     1       3.775   0.445  -1.019  1.00  0.00     0.154 C 
HETATM   20  C17 UNL     1       3.159  -0.235  -2.161  1.00  0.00     0.236 C 
HETATM   21  O5  UNL     1       3.887  -0.648  -3.136  1.00  0.00    -0.272 OA
ATOM     22  H3  UNL     1       1.250  -0.183  -3.066  1.00  0.00     0.169 HD
BRANCH  19  23
HETATM   23  C3  UNL     1       5.284   0.337  -1.027  1.00  0.00     0.136 C 
BRANCH  23  24
HETATM   24  C2  UNL     1       5.805   1.147   0.100  1.00  0.00     0.260 C 
HETATM   25  O2  UNL     1       5.014   1.766   0.852  1.00  0.00    -0.265 OA
BRANCH  24  26
HETATM   26  O1  UNL     1       7.161   1.261   0.375  1.00  0.00    -0.326 OA
HETATM   27  C1  UNL     1       7.583   2.049   1.463  1.00  0.00     0.213 C 
ENDBRANCH  24  26
ENDBRANCH  23  24
ENDBRANCH  19  23
BRANCH  18  28
HETATM   28  C7  UNL     1       2.453  -3.027   1.832  1.00  0.00     0.143 C 
HETATM   29 CL1  UNL     1       3.660  -1.906   2.408  1.00  0.00    -0.126 Cl
ENDBRANCH  18  28
ENDBRANCH  12  13
ENDBRANCH  11  12
ENDBRANCH   1  11
TORSDOF 7
