REMARK  4 active torsions:
REMARK  status: ('A' for Active; 'I' for Inactive)
REMARK    1  A    between atoms: C2_2  and  C3_3 
REMARK    2  A    between atoms: C3_3  and  C4_4 
REMARK    3  A    between atoms: C4_4  and  N1_5 
REMARK    4  A    between atoms: N1_5  and  C5_8 
ROOT
HETATM    1  C5  UNL     1       1.553  -1.091   0.413  1.00  0.00     0.194 C 
HETATM    2  C6  UNL     1       1.564  -2.076  -0.690  1.00  0.00     0.034 C 
HETATM    3  C7  UNL     1       1.002  -1.605  -2.005  1.00  0.00     0.002 C 
HETATM    4  C8  UNL     1      -0.150  -0.687  -1.827  1.00  0.00     0.006 C 
HETATM    5  C9  UNL     1      -0.716  -0.789  -0.444  1.00  0.00     0.000 C 
HETATM    6  C10 UNL     1      -2.037  -0.042  -0.442  1.00  0.00    -0.005 C 
HETATM    7  C11 UNL     1      -3.026  -0.641   0.568  1.00  0.00     0.014 C 
HETATM    8  C12 UNL     1      -4.413  -0.086   0.207  1.00  0.00    -0.047 C 
HETATM    9  C13 UNL     1      -4.830  -0.435  -1.186  1.00  0.00     0.015 C 
HETATM   10  C14 UNL     1      -5.387  -0.735   1.200  1.00  0.00     0.015 C 
HETATM   11  C15 UNL     1      -4.347   1.393   0.427  1.00  0.00     0.009 C 
HETATM   12  C16 UNL     1      -2.971   1.892   0.723  1.00  0.00     0.005 C 
HETATM   13  C17 UNL     1      -1.939   1.423  -0.315  1.00  0.00    -0.010 C 
HETATM   14  C18 UNL     1      -0.632   2.024  -0.050  1.00  0.00     0.006 C 
HETATM   15  C19 UNL     1       0.528   1.168   0.244  1.00  0.00     0.012 C 
HETATM   16  C20 UNL     1       0.270  -0.271   0.522  1.00  0.00    -0.012 C 
HETATM   17  C21 UNL     1      -0.190  -0.383   1.970  1.00  0.00     0.018 C 
ENDROOT
BRANCH   1  18
HETATM   18  N1  UNL     1       2.726  -0.252   0.497  1.00  0.00    -0.070 N 
ATOM     19  H12 UNL     1       2.592   0.514   1.157  1.00  0.00     0.277 HD
ATOM     20  H11 UNL     1       2.857   0.295  -0.354  1.00  0.00     0.277 HD
BRANCH  18  21
HETATM   21  C4  UNL     1       3.903  -1.028   0.816  1.00  0.00     0.232 C 
BRANCH  21  22
HETATM   22  C3  UNL     1       5.123  -0.141   0.984  1.00  0.00     0.027 C 
BRANCH  22  23
HETATM   23  C2  UNL     1       5.450   0.653  -0.261  1.00  0.00    -0.003 C 
HETATM   24  C1  UNL     1       6.685   1.494   0.048  1.00  0.00     0.005 C 
ENDBRANCH  22  23
ENDBRANCH  21  22
ENDBRANCH  18  21
ENDBRANCH   1  18
TORSDOF 4
