REMARK  4 active torsions:
REMARK  status: ('A' for Active; 'I' for Inactive)
REMARK    1  A    between atoms: C2_2  and  N1_3 
REMARK    2  A    between atoms: C2_2  and  C14_16 
REMARK    3  A    between atoms: N1_3  and  C3_5 
REMARK    4  A    between atoms: C14_16  and  C16_18 
ROOT
HETATM    1  N1  UNL     1      -0.011  -0.291   0.788  1.00  0.00    -0.388 N 
ATOM      2  H1  UNL     1       0.183  -0.354   1.787  1.00  0.00     0.159 HD
ENDROOT
BRANCH   1   3
HETATM    3  C2  UNL     1       1.052  -0.675  -0.080  1.00  0.00    -0.000 C 
HETATM    4  C1  UNL     1       1.049  -1.872  -0.657  1.00  0.00     0.038 C 
BRANCH   3   5
HETATM    5  C14 UNL     1       2.128   0.330  -0.241  1.00  0.00     0.034 C 
HETATM    6  C15 UNL     1       1.484   1.615  -0.700  1.00  0.00     0.017 C 
BRANCH   5   7
HETATM    7  C16 UNL     1       3.287  -0.074  -1.071  1.00  0.00    -0.005 C 
HETATM    8  C17 UNL     1       4.047  -1.267  -0.536  1.00  0.00     0.005 C 
HETATM    9  C18 UNL     1       5.432  -0.874  -0.073  1.00  0.00     0.000 C 
HETATM   10  C19 UNL     1       5.413   0.373   0.769  1.00  0.00     0.000 C 
HETATM   11  C20 UNL     1       4.918   1.523  -0.061  1.00  0.00     0.000 C 
HETATM   12  C21 UNL     1       4.284   1.002  -1.326  1.00  0.00     0.005 C 
ENDBRANCH   5   7
ENDBRANCH   3   5
ENDBRANCH   1   3
BRANCH   1  13
HETATM   13  C3  UNL     1      -1.300   0.166   0.434  1.00  0.00     0.089 C 
HETATM   14  C4  UNL     1      -2.155   0.534   1.631  1.00  0.00     0.010 C 
HETATM   15  C5  UNL     1      -2.602  -0.670   2.395  1.00  0.00     0.011 C 
HETATM   16  C13 UNL     1      -3.307   1.362   1.089  1.00  0.00     0.015 C 
HETATM   17  C6  UNL     1      -3.541  -1.455   1.507  1.00  0.00    -0.013 C 
HETATM   18  C7  UNL     1      -2.721  -1.915   0.320  1.00  0.00     0.011 C 
HETATM   19  C12 UNL     1      -4.693  -0.626   0.993  1.00  0.00     0.013 C 
HETATM   20  C8  UNL     1      -2.117  -0.743  -0.422  1.00  0.00     0.010 C 
HETATM   21  C9  UNL     1      -3.298   0.033  -0.990  1.00  0.00     0.015 C 
HETATM   22  C10 UNL     1      -4.161   0.503   0.146  1.00  0.00    -0.043 C 
HETATM   23  C11 UNL     1      -5.292   1.370  -0.317  1.00  0.00     0.015 C 
ENDBRANCH   1  13
TORSDOF 4
