REMARK  5 active torsions:
REMARK  status: ('A' for Active; 'I' for Inactive)
REMARK    1  A    between atoms: C2_2  and  C5_5 
REMARK    2  A    between atoms: C6_6  and  N1_7 
REMARK    3  A    between atoms: N1_7  and  C7_9 
REMARK    4  A    between atoms: C7_9  and  C8_10 
REMARK    5  A    between atoms: C8_10  and  C9_11 
ROOT
HETATM    1  C7  UNL     1      -0.352   0.010  -1.268  1.00  0.00     0.057 C 
ENDROOT
BRANCH   1   2
HETATM    2  N1  UNL     1      -0.761   0.793  -0.219  1.00  0.00    -0.396 N 
ATOM      3  H1  UNL     1      -0.496   1.777  -0.264  1.00  0.00     0.159 HD
BRANCH   2   4
HETATM    4  C6  UNL     1      -1.487   0.410   0.889  1.00  0.00     0.094 A 
HETATM    5  C5  UNL     1      -2.897  -0.063   0.996  1.00  0.00     0.026 A 
HETATM    6  C19 UNL     1      -2.639   1.350   1.293  1.00  0.00    -0.021 A 
HETATM    7  C20 UNL     1      -2.947   2.525   0.427  1.00  0.00     0.017 C 
HETATM    8  C21 UNL     1      -2.690   1.781   2.773  1.00  0.00     0.017 C 
BRANCH   5   9
HETATM    9  C2  UNL     1      -3.789  -0.600  -0.015  1.00  0.00    -0.045 C 
HETATM   10  C1  UNL     1      -4.164   0.211  -1.211  1.00  0.00     0.015 C 
HETATM   11  C3  UNL     1      -3.422  -1.990  -0.494  1.00  0.00     0.015 C 
HETATM   12  C4  UNL     1      -5.177  -0.835   0.677  1.00  0.00     0.015 C 
ENDBRANCH   5   9
ENDBRANCH   2   4
ENDBRANCH   1   2
BRANCH   1  13
HETATM   13  C8  UNL     1       0.699  -1.032  -1.083  1.00  0.00     0.053 C 
BRANCH  13  14
HETATM   14  C9  UNL     1       2.067  -0.546  -0.692  1.00  0.00    -0.035 C 
HETATM   15  C10 UNL     1       2.897  -1.839  -0.576  1.00  0.00     0.014 C 
HETATM   16  C11 UNL     1       4.288  -1.596  -0.111  1.00  0.00    -0.013 C 
HETATM   17  C12 UNL     1       4.247  -0.906   1.225  1.00  0.00     0.009 C 
HETATM   18  C16 UNL     1       4.973  -0.692  -1.105  1.00  0.00     0.009 C 
HETATM   19  C13 UNL     1       3.476   0.364   1.092  1.00  0.00    -0.013 C 
HETATM   20  C14 UNL     1       4.136   1.253   0.061  1.00  0.00     0.009 C 
HETATM   21  C18 UNL     1       2.052   0.142   0.623  1.00  0.00     0.014 C 
HETATM   22  C15 UNL     1       4.137   0.570  -1.294  1.00  0.00    -0.013 C 
HETATM   23  C17 UNL     1       2.741   0.253  -1.783  1.00  0.00     0.014 C 
ENDBRANCH  13  14
ENDBRANCH   1  13
TORSDOF 5
