REMARK  4 active torsions:
REMARK  status: ('A' for Active; 'I' for Inactive)
REMARK    1  A    between atoms: C2_2  and  C3_3 
REMARK    2  A    between atoms: C3_3  and  C4_4 
REMARK    3  A    between atoms: C4_4  and  C5_5 
REMARK    4  A    between atoms: C19_19  and  N1_20 
ROOT
HETATM    1  C5  UNL     1      -1.247   0.004   0.537  1.00  0.00    -0.034 C 
HETATM    2  C6  UNL     1      -0.740   0.618   1.769  1.00  0.00     0.010 C 
HETATM    3  C7  UNL     1       0.626   1.221   1.742  1.00  0.00     0.006 C 
HETATM    4  C8  UNL     1       1.422   0.907   0.537  1.00  0.00    -0.005 C 
HETATM    5  C9  UNL     1       2.868   0.761   0.659  1.00  0.00    -0.006 C 
HETATM    6  C10 UNL     1       3.757   1.919   0.468  1.00  0.00     0.005 C 
HETATM    7  C11 UNL     1       5.030   1.244  -0.074  1.00  0.00     0.001 C 
HETATM    8  C12 UNL     1       4.572  -0.135  -0.584  1.00  0.00     0.005 C 
HETATM    9  C13 UNL     1       3.127   0.069  -0.705  1.00  0.00    -0.006 C 
HETATM   10  C14 UNL     1       2.198  -1.057  -0.655  1.00  0.00    -0.009 C 
HETATM   11  C15 UNL     1       2.777  -2.306  -0.058  1.00  0.00     0.011 C 
HETATM   12  C16 UNL     1       1.070  -0.561   0.195  1.00  0.00    -0.001 C 
HETATM   13  C17 UNL     1      -0.251  -0.434  -0.472  1.00  0.00     0.001 C 
HETATM   14  C18 UNL     1      -0.736  -1.665  -1.154  1.00  0.00     0.038 C 
HETATM   15  C19 UNL     1      -1.624  -2.303  -0.146  1.00  0.00     0.186 C 
HETATM   16  C21 UNL     1      -1.925  -1.320   0.926  1.00  0.00     0.043 C 
ENDROOT
BRANCH   1  17
HETATM   17  C4  UNL     1      -2.324   0.807  -0.163  1.00  0.00     0.010 C 
BRANCH  17  18
HETATM   18  C3  UNL     1      -1.895   2.169  -0.579  1.00  0.00     0.000 C 
BRANCH  18  19
HETATM   19  C2  UNL     1      -3.097   2.825  -1.261  1.00  0.00    -0.005 C 
HETATM   20  C1  UNL     1      -4.270   2.920  -0.320  1.00  0.00     0.005 C 
ENDBRANCH  18  19
ENDBRANCH  17  18
ENDBRANCH   1  17
BRANCH  15  21
HETATM   21  N1  UNL     1      -2.821  -2.867  -0.751  1.00  0.00    -0.075 N 
HETATM   22  C20 UNL     1      -3.625  -3.468   0.307  1.00  0.00     0.267 C 
ATOM     23  H12 UNL     1      -3.342  -2.185  -1.302  1.00  0.00     0.277 HD
ATOM     24  H11 UNL     1      -2.610  -3.521  -1.505  1.00  0.00     0.277 HD
ENDBRANCH  15  21
TORSDOF 4
