REMARK  5 active torsions:
REMARK  status: ('A' for Active; 'I' for Inactive)
REMARK    1  A    between atoms: C3_3  and  O1_4 
REMARK    2  A    between atoms: C9_11  and  C10_12 
REMARK    3  A    between atoms: C10_12  and  C11_13 
REMARK    4  A    between atoms: C11_13  and  C13_15 
REMARK    5  A    between atoms: C18_20  and  C20_22 
ROOT
HETATM    1  C10 UNL     1       0.536  -0.157   0.267  1.00  0.00     0.014 C 
ENDROOT
BRANCH   1   2
HETATM    2  C9  UNL     1       1.992   0.065   0.253  1.00  0.00     0.024 C 
HETATM    3  C2  UNL     1       2.808  -0.773  -0.649  1.00  0.00    -0.056 C 
HETATM    4  C1  UNL     1       2.463  -1.935  -1.153  1.00  0.00     0.017 C 
HETATM    5  C3  UNL     1       4.168  -0.229  -0.979  1.00  0.00     0.146 C 
HETATM    6  C4  UNL     1       4.868   0.268   0.259  1.00  0.00     0.037 C 
HETATM    7  C5  UNL     1       4.006   0.824   1.324  1.00  0.00     0.012 C 
HETATM    8  C6  UNL     1       2.705   0.080   1.567  1.00  0.00    -0.040 C 
HETATM    9  C7  UNL     1       3.082  -1.319   2.029  1.00  0.00     0.015 C 
HETATM   10  C8  UNL     1       1.963   0.816   2.647  1.00  0.00     0.015 C 
BRANCH   5  11
HETATM   11  O1  UNL     1       4.925  -1.273  -1.495  1.00  0.00    -0.391 OA
ATOM     12  H1  UNL     1       5.785  -0.929  -1.704  1.00  0.00     0.210 HD
ENDBRANCH   5  11
ENDBRANCH   1   2
BRANCH   1  13
HETATM   13  C11 UNL     1      -0.134   0.109  -1.061  1.00  0.00    -0.013 C 
HETATM   14  C12 UNL     1       0.143   1.548  -1.373  1.00  0.00     0.010 C 
BRANCH  13  15
HETATM   15  C13 UNL     1      -1.490  -0.386  -1.147  1.00  0.00    -0.002 C 
HETATM   16  C14 UNL     1      -2.148  -0.116  -2.517  1.00  0.00     0.006 C 
HETATM   17  C15 UNL     1      -3.628  -0.393  -2.309  1.00  0.00     0.005 C 
HETATM   18  C16 UNL     1      -3.657  -0.904  -0.925  1.00  0.00    -0.010 C 
HETATM   19  C17 UNL     1      -4.919  -1.107  -0.253  1.00  0.00     0.011 C 
HETATM   20  C18 UNL     1      -2.602  -0.011  -0.250  1.00  0.00    -0.037 C 
HETATM   21  C19 UNL     1      -2.514  -0.451   1.172  1.00  0.00     0.016 C 
BRANCH  20  22
HETATM   22  C20 UNL     1      -2.943   1.443  -0.274  1.00  0.00     0.005 C 
HETATM   23  C21 UNL     1      -4.046   1.899   0.597  1.00  0.00     0.006 C 
ENDBRANCH  20  22
ENDBRANCH  13  15
ENDBRANCH   1  13
TORSDOF 5
