REMARK  4 active torsions:
REMARK  status: ('A' for Active; 'I' for Inactive)
REMARK       I    between atoms: C1_2  and  N1_3 
REMARK       I    between atoms: C1_2  and  N2_18 
REMARK    1  A    between atoms: N1_3  and  C2_5 
REMARK    2  A    between atoms: C2_5  and  C3_6 
REMARK    3  A    between atoms: C3_6  and  C4_7 
REMARK    4  A    between atoms: C4_7  and  C5_8 
ROOT
HETATM    1  C3  UNL     1       0.631   1.417  -0.666  1.00  0.00     0.020 C 
ENDROOT
BRANCH   1   2
HETATM    2  C2  UNL     1       1.316   0.483  -1.648  1.00  0.00     0.124 C 
BRANCH   2   3
HETATM    3  N1  UNL     1       2.694   0.241  -1.361  1.00  0.00    -0.343 N 
HETATM    4  C1  UNL     1       3.142  -0.356  -0.162  1.00  0.00     0.318 C 
HETATM    5  O1  UNL     1       2.304  -0.709   0.723  1.00  0.00    -0.247 OA
HETATM    6  N2  UNL     1       4.521  -0.581   0.096  1.00  0.00    -0.334 N 
HETATM    7  C15 UNL     1       5.457  -0.170  -0.926  1.00  0.00     0.127 C 
HETATM    8  C19 UNL     1       4.903  -1.192   1.335  1.00  0.00     0.127 C 
HETATM    9  C16 UNL     1       6.884  -0.221  -0.543  1.00  0.00     0.020 C 
HETATM   10  C17 UNL     1       7.169  -0.432   0.901  1.00  0.00     0.003 C 
HETATM   11  C18 UNL     1       6.339  -1.642   1.351  1.00  0.00     0.020 C 
ATOM     12  H1  UNL     1       3.389   0.513  -2.056  1.00  0.00     0.164 HD
ENDBRANCH   2   3
ENDBRANCH   1   2
BRANCH   1  13
HETATM   13  C4  UNL     1      -0.803   1.646  -1.000  1.00  0.00     0.006 C 
BRANCH  13  14
HETATM   14  C5  UNL     1      -1.660   0.432  -1.019  1.00  0.00    -0.014 C 
HETATM   15  C6  UNL     1      -1.660  -0.237   0.321  1.00  0.00     0.004 C 
HETATM   16  C7  UNL     1      -2.497  -1.481   0.371  1.00  0.00     0.000 C 
HETATM   17  C8  UNL     1      -3.556  -1.414   1.456  1.00  0.00     0.000 C 
HETATM   18  C9  UNL     1      -4.945  -1.492   0.874  1.00  0.00     0.000 C 
HETATM   19  C10 UNL     1      -5.642  -0.147   0.908  1.00  0.00     0.000 C 
HETATM   20  C11 UNL     1      -5.841   0.397  -0.475  1.00  0.00     0.000 C 
HETATM   21  C12 UNL     1      -5.224   1.749  -0.674  1.00  0.00     0.000 C 
HETATM   22  C13 UNL     1      -3.737   1.763  -0.586  1.00  0.00     0.000 C 
HETATM   23  C14 UNL     1      -3.048   0.802  -1.491  1.00  0.00     0.004 C 
ENDBRANCH  13  14
ENDBRANCH   1  13
TORSDOF 4
