REMARK  4 active torsions:
REMARK  status: ('A' for Active; 'I' for Inactive)
REMARK    1  A    between atoms: C2_3  and  N2_4 
REMARK    2  A    between atoms: C3_8  and  N4_9 
REMARK    3  A    between atoms: C4_12  and  C5_13 
REMARK    4  A    between atoms: C5_13  and  C6_14 
ROOT
HETATM    1  N1  UNL     1      -1.768   3.473  -0.239  1.00  0.00    -0.195 NA
HETATM    2  C1  UNL     1      -2.189   2.436  -0.581  1.00  0.00     0.081 C 
HETATM    3  C2  UNL     1      -2.696   1.145  -1.027  1.00  0.00     0.282 C 
ENDROOT
BRANCH   3   4
HETATM    4  N2  UNL     1      -2.356   0.146  -0.051  1.00  0.00    -0.221 N 
HETATM    5  O1  UNL     1      -3.086  -0.124   0.990  1.00  0.00    -0.152 OA
HETATM    6  N3  UNL     1      -2.570  -1.050   1.709  1.00  0.00    -0.224 N 
HETATM    7  C3  UNL     1      -1.419  -1.431   1.118  1.00  0.00     0.146 A 
ATOM      8  H3  UNL     1      -2.959  -1.430   2.572  1.00  0.00     0.198 HD
HETATM    9  C4  UNL     1      -1.269  -0.667  -0.019  1.00  0.00     0.087 A 
BRANCH   7  10
HETATM   10  N4  UNL     1      -0.640  -2.364   1.590  1.00  0.00    -0.382 N 
ATOM     11  H42 UNL     1      -0.751  -2.930   2.432  1.00  0.00     0.157 HD
ATOM     12  H41 UNL     1       0.230  -2.652   1.143  1.00  0.00     0.157 HD
ENDBRANCH   7  10
BRANCH   9  13
HETATM   13  C5  UNL     1      -0.183  -0.762  -0.994  1.00  0.00     0.102 C 
BRANCH  13  14
HETATM   14  C6  UNL     1       1.136  -0.235  -0.574  1.00  0.00    -0.052 A 
HETATM   15  C7  UNL     1       2.087  -1.085  -0.033  1.00  0.00     0.007 A 
HETATM   16  C8  UNL     1       3.317  -0.618   0.366  1.00  0.00     0.001 A 
HETATM   17  C9  UNL     1       3.636   0.711   0.236  1.00  0.00     0.000 A 
HETATM   18  C10 UNL     1       2.696   1.563  -0.302  1.00  0.00     0.001 A 
HETATM   19  C11 UNL     1       1.463   1.097  -0.702  1.00  0.00     0.007 A 
ENDBRANCH  13  14
ENDBRANCH   9  13
ENDBRANCH   3   4
TORSDOF 4
