REMARK  3 active torsions:
REMARK  status: ('A' for Active; 'I' for Inactive)
REMARK    1  A    between atoms: C3_4  and  C4_5 
REMARK    2  A    between atoms: C4_5  and  C5_6 
REMARK    3  A    between atoms: C5_6  and  C6_7 
ROOT
HETATM    1  N1  UNL     1      -2.346   2.573   1.479  1.00  0.00    -0.191 NA
HETATM    2  C1  UNL     1      -2.540   1.660   0.780  1.00  0.00     0.107 C 
HETATM    3  C2  UNL     1      -2.752   0.543  -0.069  1.00  0.00     0.137 A 
HETATM    4  C3  UNL     1      -1.781  -0.150  -0.802  1.00  0.00     0.052 A 
HETATM    5  N3  UNL     1      -2.472  -1.109  -1.440  1.00  0.00    -0.300 N 
ATOM      6  H3  UNL     1      -2.061  -1.800  -2.068  1.00  0.00     0.186 HD
HETATM    7  N4  UNL     1      -3.766  -1.034  -1.140  1.00  0.00    -0.265 N 
ATOM      8  H4  UNL     1      -4.485  -1.659  -1.505  1.00  0.00     0.190 HD
HETATM    9  C11 UNL     1      -3.991  -0.026  -0.294  1.00  0.00     0.282 A 
HETATM   10  O1  UNL     1      -5.081   0.360   0.216  1.00  0.00    -0.265 OA
ENDROOT
BRANCH   4  11
HETATM   11  C4  UNL     1      -0.327   0.151  -0.836  1.00  0.00     0.065 C 
BRANCH  11  12
HETATM   12  C5  UNL     1       0.295  -0.358   0.440  1.00  0.00     0.044 C 
BRANCH  12  13
HETATM   13  C6  UNL     1       1.734  -0.110   0.531  1.00  0.00    -0.055 A 
HETATM   14  C7  UNL     1       2.258   1.027   1.103  1.00  0.00     0.024 A 
HETATM   15  C8  UNL     1       3.616   1.251   1.177  1.00  0.00     0.088 A 
HETATM   16  N2  UNL     1       4.462   0.329   0.675  1.00  0.00    -0.375 N 
HETATM   17  C9  UNL     1       4.008  -0.806   0.103  1.00  0.00     0.088 A 
ATOM     18  H2  UNL     1       5.467   0.493   0.729  1.00  0.00     0.164 HD
HETATM   19  C10 UNL     1       2.631  -1.028   0.030  1.00  0.00     0.024 A 
ENDBRANCH  12  13
ENDBRANCH  11  12
ENDBRANCH   4  11
TORSDOF 3
