REMARK  5 active torsions:
REMARK  status: ('A' for Active; 'I' for Inactive)
REMARK    1  A    between atoms: C1_2  and  N1_3 
REMARK    2  A    between atoms: C1_2  and  N6_14 
REMARK    3  A    between atoms: N1_3  and  C2_5 
REMARK    4  A    between atoms: N6_14  and  C3_16 
REMARK    5  A    between atoms: C4_19  and  C5_20 
ROOT
HETATM    1  C3  UNL     1       0.613  -0.373  -0.252  1.00  0.00     0.121 A 
HETATM    2  N7  UNL     1      -0.451   0.502  -0.340  1.00  0.00    -0.327 N 
ATOM      3  H7  UNL     1      -0.276   1.504  -0.267  1.00  0.00     0.169 HD
HETATM    4  C4  UNL     1      -1.699   0.075  -0.517  1.00  0.00     0.117 A 
HETATM    5  N9  UNL     1      -1.903  -1.241  -0.609  1.00  0.00    -0.341 N 
ATOM      6  H9  UNL     1      -2.863  -1.558  -0.744  1.00  0.00     0.167 HD
HETATM    7  C10 UNL     1      -0.947  -2.182  -0.538  1.00  0.00     0.047 A 
HETATM    8  C11 UNL     1      -1.233  -3.533  -0.642  1.00  0.00     0.030 A 
HETATM    9  C12 UNL     1      -0.226  -4.454  -0.563  1.00  0.00     0.002 A 
HETATM   10  C13 UNL     1       1.067  -4.031  -0.381  1.00  0.00     0.001 A 
HETATM   11  C14 UNL     1       1.337  -2.667  -0.279  1.00  0.00     0.017 A 
HETATM   12  C15 UNL     1       0.341  -1.720  -0.354  1.00  0.00     0.035 A 
ENDROOT
BRANCH   1  13
HETATM   13  N6  UNL     1       1.712   0.127  -0.090  1.00  0.00    -0.318 N 
ATOM     14  H6  UNL     1       1.528   1.130  -0.061  1.00  0.00     0.170 HD
BRANCH  13  15
HETATM   15  C1  UNL     1       3.032   0.032   0.069  1.00  0.00     0.192 C 
HETATM   16  S1  UNL     1       4.122   0.045  -1.176  1.00  0.00    -0.040 SA
BRANCH  15  17
HETATM   17  N1  UNL     1       3.625  -0.086   1.368  1.00  0.00    -0.163 N 
ATOM     18  H1  UNL     1       3.761  -0.992   1.817  1.00  0.00     0.186 HD
BRANCH  17  19
HETATM   19  C2  UNL     1       3.981   1.025   1.944  1.00  0.00     0.716 A 
HETATM   20  N2  UNL     1       4.555   1.154   3.159  1.00  0.00    -0.115 N 
HETATM   21  N3  UNL     1       4.747   2.427   3.355  1.00  0.00    -0.213 N 
ATOM     22  H2  UNL     1       4.793   0.398   3.801  1.00  0.00     0.207 HD
HETATM   23  N4  UNL     1       4.331   3.147   2.335  1.00  0.00    -0.213 N 
ATOM     24  H3  UNL     1       5.169   2.819   4.197  1.00  0.00     0.210 HD
HETATM   25  N5  UNL     1       3.860   2.275   1.469  1.00  0.00    -0.115 N 
ATOM     26  H4  UNL     1       4.366   4.162   2.237  1.00  0.00     0.210 HD
ATOM     27  H5  UNL     1       3.459   2.515   0.563  1.00  0.00     0.207 HD
ENDBRANCH  17  19
ENDBRANCH  15  17
ENDBRANCH  13  15
ENDBRANCH   1  13
BRANCH   4  28
HETATM   28  C5  UNL     1      -2.851   0.998  -0.614  1.00  0.00     0.011 A 
HETATM   29  C6  UNL     1      -2.737   2.347  -0.531  1.00  0.00     0.032 A 
HETATM   30  C7  UNL     1      -3.894   3.110  -0.636  1.00  0.00     0.088 A 
HETATM   31  N8  UNL     1      -5.110   2.561  -0.815  1.00  0.00    -0.375 N 
HETATM   32  C8  UNL     1      -5.254   1.236  -0.900  1.00  0.00     0.088 A 
ATOM     33  H8  UNL     1      -5.930   3.163  -0.886  1.00  0.00     0.164 HD
HETATM   34  C9  UNL     1      -4.119   0.464  -0.798  1.00  0.00     0.032 A 
ENDBRANCH   4  28
TORSDOF 5
