REMARK  3 active torsions:
REMARK  status: ('A' for Active; 'I' for Inactive)
REMARK    1  A    between atoms: O1_2  and  C2_3 
REMARK    2  A    between atoms: C6_9  and  N2_10 
REMARK    3  A    between atoms: N2_10  and  C7_12 
ROOT
HETATM    1  N2  UNL     1       0.557  -0.016  -2.466  1.00  0.00    -0.021 N 
ATOM      2  H2  UNL     1       0.530  -0.213  -3.466  1.00  0.00     0.203 HD
ENDROOT
BRANCH   1   3
HETATM    3  C6  UNL     1      -0.538  -0.019  -1.771  1.00  0.00     0.698 A 
HETATM    4  N1  UNL     1      -1.745  -0.271  -2.294  1.00  0.00    -0.189 N 
HETATM    5  C5  UNL     1      -2.686  -0.203  -1.329  1.00  0.00     0.076 A 
ATOM      6  H1  UNL     1      -1.926  -0.483  -3.275  1.00  0.00     0.184 HD
HETATM    7  C4  UNL     1      -4.056  -0.369  -1.297  1.00  0.00     0.035 A 
HETATM    8  C14 UNL     1      -2.043   0.104  -0.149  1.00  0.00     0.079 A 
HETATM    9  C3  UNL     1      -4.787  -0.233  -0.114  1.00  0.00     0.039 A 
HETATM   10  C2  UNL     1      -4.145   0.075   1.066  1.00  0.00     0.070 A 
HETATM   11  C15 UNL     1      -2.779   0.235   1.010  1.00  0.00     0.069 A 
HETATM   12  N5  UNL     1      -0.733   0.207  -0.468  1.00  0.00    -0.189 N 
ATOM     13  H5  UNL     1       0.008   0.428   0.197  1.00  0.00     0.184 HD
BRANCH  10  14
HETATM   14  O1  UNL     1      -4.877   0.208   2.234  1.00  0.00    -0.356 OA
HETATM   15  C1  UNL     1      -6.278   0.026   2.204  1.00  0.00     0.210 C 
ENDBRANCH  10  14
ENDBRANCH   1   3
BRANCH   1  16
HETATM   16  C7  UNL     1       1.815   0.268  -1.814  1.00  0.00     0.707 A 
HETATM   17  N3  UNL     1       2.507   1.231  -2.246  1.00  0.00    -0.112 N 
HETATM   18  S1  UNL     1       4.007   1.647  -1.545  1.00  0.00     0.278 S 
ATOM     19  H3  UNL     1       2.161   1.776  -3.036  1.00  0.00     0.197 HD
HETATM   20  O2  UNL     1       5.106   1.613  -2.569  1.00  0.00    -0.200 OA
HETATM   21  O3  UNL     1       3.921   3.047  -0.962  1.00  0.00    -0.200 OA
HETATM   22  C8  UNL     1       4.309   0.537  -0.237  1.00  0.00     0.107 A 
HETATM   23  C9  UNL     1       5.436   0.607   0.526  1.00  0.00     0.028 A 
HETATM   24  C13 UNL     1       3.372  -0.439   0.025  1.00  0.00     0.072 A 
HETATM   25  C10 UNL     1       5.656  -0.293   1.568  1.00  0.00     0.002 A 
HETATM   26  C11 UNL     1       4.745  -1.261   1.843  1.00  0.00     0.002 A 
HETATM   27  C12 UNL     1       3.600  -1.344   1.079  1.00  0.00     0.031 A 
HETATM   28  N4  UNL     1       2.194  -0.545  -0.740  1.00  0.00    -0.189 N 
ATOM     29  H4  UNL     1       1.549  -1.293  -0.484  1.00  0.00     0.184 HD
ENDBRANCH   1  16
TORSDOF 3
