REMARK  6 active torsions:
REMARK  status: ('A' for Active; 'I' for Inactive)
REMARK    1  A    between atoms: C2_4  and  C3_5 
REMARK    2  A    between atoms: C3_5  and  O1_7 
REMARK    3  A    between atoms: C3_5  and  C5_9 
REMARK    4  A    between atoms: C5_9  and  C6_10 
REMARK    5  A    between atoms: C6_10  and  C7_11 
REMARK    6  A    between atoms: N4_17  and  C9_19 
ROOT
HETATM    1  C6  UNL     1       0.583  -0.039  -1.129  1.00  0.00    -0.018 C 
ENDROOT
BRANCH   1   2
HETATM    2  C5  UNL     1       1.761  -0.255  -1.337  1.00  0.00    -0.057 C 
BRANCH   2   3
HETATM    3  C3  UNL     1       3.178  -0.519  -1.568  1.00  0.00     0.148 C 
HETATM    4  C4  UNL     1       3.954   0.736  -1.849  1.00  0.00     0.063 C 
BRANCH   3   5
HETATM    5  C2  UNL     1       3.716  -1.201  -0.328  1.00  0.00     0.214 C 
HETATM    6  S1  UNL     1       5.544  -1.216  -0.520  1.00  0.00    -0.021 SA
HETATM    7  N1  UNL     1       5.916  -0.424   1.028  1.00  0.00    -0.300 N 
HETATM    8  C1  UNL     1       7.227   0.007   1.455  1.00  0.00     0.167 C 
HETATM    9  C13 UNL     1       4.660  -0.339   1.680  1.00  0.00     0.180 C 
HETATM   10  N5  UNL     1       3.559  -0.354   0.829  1.00  0.00    -0.348 N 
HETATM   11  S2  UNL     1       4.575  -0.229   3.333  1.00  0.00    -0.040 SA
ATOM     12  H5  UNL     1       2.713   0.188   1.008  1.00  0.00     0.163 HD
ENDBRANCH   3   5
BRANCH   3  13
HETATM   13  O1  UNL     1       3.358  -1.386  -2.654  1.00  0.00    -0.375 OA
ATOM     14  H1  UNL     1       3.020  -0.958  -3.432  1.00  0.00     0.212 HD
ENDBRANCH   3  13
ENDBRANCH   2   3
ENDBRANCH   1   2
BRANCH   1  15
HETATM   15  C7  UNL     1      -0.818   0.203  -0.872  1.00  0.00     0.222 A 
HETATM   16  N2  UNL     1      -1.549   1.290  -1.171  1.00  0.00    -0.269 N 
HETATM   17  N3  UNL     1      -2.800   1.116  -0.766  1.00  0.00    -0.263 N 
ATOM     18  H2  UNL     1      -1.195   2.124  -1.639  1.00  0.00     0.190 HD
HETATM   19  C8  UNL     1      -2.836  -0.104  -0.208  1.00  0.00     0.242 A 
ATOM     20  H3  UNL     1      -3.574   1.773  -0.859  1.00  0.00     0.190 HD
HETATM   21  N4  UNL     1      -3.875  -0.643   0.305  1.00  0.00    -0.347 N 
HETATM   22  O2  UNL     1      -1.613  -0.631  -0.290  1.00  0.00    -0.252 OA
ATOM     23  H4  UNL     1      -3.758  -1.578   0.695  1.00  0.00     0.163 HD
BRANCH  21  24
HETATM   24  C9  UNL     1      -5.182  -0.076   0.390  1.00  0.00     0.022 C 
HETATM   25  C10 UNL     1      -6.119  -1.146   0.967  1.00  0.00     0.037 C 
HETATM   26  C11 UNL     1      -5.223   1.122   1.320  1.00  0.00     0.037 C 
HETATM   27  C12 UNL     1      -5.744   0.342  -0.938  1.00  0.00     0.037 C 
ENDBRANCH  21  24
ENDBRANCH   1  15
TORSDOF 6
