REMARK  1 active torsions:
REMARK  status: ('A' for Active; 'I' for Inactive)
REMARK       I    between atoms: C2_4  and  N2_5 
REMARK       I    between atoms: C2_4  and  N8_31 
REMARK    1  A    between atoms: C6_14  and  C7_15 
ROOT
HETATM    1  C1  UNL     1      -5.447   1.705  -1.548  1.00  0.00     0.165 C 
HETATM    2  N1  UNL     1      -4.561   1.490  -0.433  1.00  0.00    -0.230 N 
ATOM      3  H1  UNL     1      -4.000   2.270  -0.091  1.00  0.00     0.177 HD
HETATM    4  C2  UNL     1      -4.453   0.322   0.157  1.00  0.00     0.688 C 
HETATM    5  N2  UNL     1      -3.575   0.135   1.251  1.00  0.00    -0.174 N 
ATOM      6  H2  UNL     1      -3.964   0.052   2.190  1.00  0.00     0.186 HD
HETATM    7  C3  UNL     1      -2.298   0.067   1.095  1.00  0.00     0.151 A 
HETATM    8  N3  UNL     1      -1.715   0.166  -0.110  1.00  0.00    -0.326 N 
ATOM      9  H3  UNL     1      -2.311   0.298  -0.927  1.00  0.00     0.169 HD
HETATM   10  C4  UNL     1      -0.379   0.099  -0.294  1.00  0.00     0.119 A 
HETATM   11  N4  UNL     1       0.185   0.201  -1.509  1.00  0.00    -0.351 N 
ATOM     12  H4  UNL     1      -0.427   0.334  -2.314  1.00  0.00     0.166 HD
HETATM   13  C5  UNL     1       1.513   0.138  -1.724  1.00  0.00     0.102 A 
HETATM   14  C6  UNL     1       2.379  -0.040  -0.671  1.00  0.00    -0.008 A 
HETATM   15  C12 UNL     1       1.845  -0.150   0.591  1.00  0.00     0.031 A 
HETATM   16  C13 UNL     1       0.463  -0.081   0.788  1.00  0.00     0.038 A 
HETATM   17  C14 UNL     1      -0.077  -0.188   2.034  1.00  0.00     0.078 A 
HETATM   18  N6  UNL     1       0.486  -0.364   3.242  1.00  0.00    -0.350 N 
ATOM     19  H6  UNL     1       1.484  -0.452   3.435  1.00  0.00     0.166 HD
HETATM   20  C15 UNL     1      -0.506  -0.403   4.151  1.00  0.00     0.181 A 
HETATM   21  N7  UNL     1      -1.690  -0.248   3.490  1.00  0.00    -0.347 N 
ATOM     22  H7  UNL     1      -2.611  -0.237   3.929  1.00  0.00     0.167 HD
HETATM   23  C16 UNL     1      -1.459  -0.113   2.178  1.00  0.00     0.106 A 
HETATM   24  N8  UNL     1      -5.219  -0.787  -0.288  1.00  0.00    -0.126 N 
ATOM     25  H8  UNL     1      -6.218  -0.694  -0.473  1.00  0.00     0.197 HD
HETATM   26  C17 UNL     1      -4.565  -2.010  -0.465  1.00  0.00     0.196 C 
HETATM   27  N9  UNL     1      -4.023  -3.031  -0.632  1.00  0.00    -0.171 NA
ENDROOT
BRANCH  14  28
HETATM   28  C7  UNL     1       3.814  -0.115  -0.853  1.00  0.00    -0.009 A 
HETATM   29  C8  UNL     1       4.484   0.572  -1.849  1.00  0.00     0.015 A 
HETATM   30  C9  UNL     1       5.854   0.475  -1.989  1.00  0.00     0.018 A 
HETATM   31  C10 UNL     1       6.591  -0.317  -1.132  1.00  0.00     0.087 A 
HETATM   32  N5  UNL     1       5.936  -0.979  -0.172  1.00  0.00    -0.374 N 
HETATM   33  C11 UNL     1       4.617  -0.895  -0.025  1.00  0.00     0.100 A 
ATOM     34  H5  UNL     1       6.466  -1.569   0.469  1.00  0.00     0.164 HD
ENDBRANCH  14  28
TORSDOF 1
