REMARK  1 active torsions:
REMARK  status: ('A' for Active; 'I' for Inactive)
REMARK    1  A    between atoms: C4_5  and  N2_6 
ROOT
HETATM    1  N2  UNL     1      -1.844   0.992  -1.172  1.00  0.00    -0.321 N 
HETATM    2  C5  UNL     1      -2.131   1.945  -2.067  1.00  0.00     0.098 A 
HETATM    3  C6  UNL     1      -0.977   2.568  -2.492  1.00  0.00     0.031 A 
HETATM    4  C7  UNL     1       0.066   1.983  -1.839  1.00  0.00    -0.005 A 
HETATM    5  C8  UNL     1       1.425   2.178  -1.853  1.00  0.00     0.044 A 
HETATM    6  C9  UNL     1       2.219   1.402  -1.056  1.00  0.00     0.048 A 
HETATM    7  C10 UNL     1       1.665   0.427  -0.242  1.00  0.00     0.022 A 
HETATM    8  C11 UNL     1       0.306   0.234  -0.230  1.00  0.00     0.047 A 
HETATM    9  C12 UNL     1      -0.514   1.002  -1.022  1.00  0.00     0.050 A 
HETATM   10  C13 UNL     1       2.349  -0.495   0.672  1.00  0.00     0.077 A 
HETATM   11  N3  UNL     1       1.477  -1.378   1.154  1.00  0.00    -0.306 N 
ATOM     12  H3  UNL     1       0.494  -1.357   0.884  1.00  0.00     0.171 HD
HETATM   13  C14 UNL     1       1.955  -2.307   2.021  1.00  0.00     0.324 A 
HETATM   14  O1  UNL     1       1.137  -3.160   2.493  1.00  0.00    -0.247 OA
HETATM   15  N4  UNL     1       3.255  -2.318   2.366  1.00  0.00    -0.317 N 
ATOM     16  H4  UNL     1       3.577  -3.031   3.020  1.00  0.00     0.170 HD
HETATM   17  C15 UNL     1       4.153  -1.433   1.890  1.00  0.00     0.124 A 
HETATM   18  C16 UNL     1       3.695  -0.477   1.006  1.00  0.00     0.078 A 
HETATM   19  N5  UNL     1       4.705   0.414   0.553  1.00  0.00    -0.327 N 
ATOM     20  H5  UNL     1       5.601   0.307   1.028  1.00  0.00     0.168 HD
HETATM   21  C17 UNL     1       4.692   1.338  -0.355  1.00  0.00     0.193 C 
HETATM   22  N6  UNL     1       5.894   2.059  -0.562  1.00  0.00    -0.063 NA
HETATM   23  N7  UNL     1       3.598   1.728  -1.187  1.00  0.00    -0.330 N 
ATOM     24  H7  UNL     1       3.838   2.320  -1.982  1.00  0.00     0.168 HD
ENDROOT
BRANCH   1  25
HETATM   25  C4  UNL     1      -2.786   0.134  -0.509  1.00  0.00     0.041 A 
HETATM   26  C3  UNL     1      -2.688  -1.225  -0.575  1.00  0.00     0.047 A 
HETATM   27  C2  UNL     1      -3.596  -2.037   0.062  1.00  0.00     0.092 A 
HETATM   28  N1  UNL     1      -4.619  -1.537   0.779  1.00  0.00    -0.371 N 
HETATM   29  C1  UNL     1      -5.579  -2.411   1.453  1.00  0.00     0.154 C 
HETATM   30  C19 UNL     1      -4.705  -0.200   0.836  1.00  0.00     0.092 A 
HETATM   31  C18 UNL     1      -3.834   0.662   0.224  1.00  0.00     0.047 A 
ENDBRANCH   1  25
TORSDOF 1
