REMARK  4 active torsions:
REMARK  status: ('A' for Active; 'I' for Inactive)
REMARK    1  A    between atoms: O1_1  and  C1_3 
REMARK    2  A    between atoms: C4_9  and  C5_10 
REMARK    3  A    between atoms: C11_16  and  O2_17 
REMARK    4  A    between atoms: C12_19  and  O3_20 
ROOT
HETATM    1  C1  UNL     1      -2.958   0.593  -0.222  1.00  0.00     0.150 C 
HETATM    2  C2  UNL     1      -3.318  -0.603   0.561  1.00  0.00     0.062 C 
HETATM    3  C3  UNL     1      -2.157  -1.196   1.332  1.00  0.00     0.235 C 
HETATM    4  N1  UNL     1      -0.979  -1.284   0.549  1.00  0.00    -0.068 N 
ATOM      5  H11 UNL     1      -1.104  -1.929  -0.231  1.00  0.00     0.277 HD
ATOM      6  H12 UNL     1      -0.240  -1.776   1.051  1.00  0.00     0.277 HD
HETATM    7  C4  UNL     1      -0.514   0.036   0.078  1.00  0.00     0.223 C 
HETATM    8  C12 UNL     1      -1.580   0.599  -0.834  1.00  0.00     0.178 C 
ENDROOT
BRANCH   7   9
HETATM    9  C5  UNL     1       0.728  -0.250  -0.640  1.00  0.00     0.054 C 
HETATM   10  C6  UNL     1       1.483   0.900  -1.258  1.00  0.00     0.010 C 
HETATM   11  C7  UNL     1       2.356   1.668  -0.297  1.00  0.00     0.001 C 
HETATM   12  C8  UNL     1       3.179   0.702   0.568  1.00  0.00     0.008 C 
HETATM   13  C9  UNL     1       2.194  -0.161   1.221  1.00  0.00     0.023 A 
HETATM   14  C10 UNL     1       1.990  -1.557   1.311  1.00  0.00     0.046 A 
HETATM   15  C11 UNL     1       1.757  -1.071   0.016  1.00  0.00     0.068 A 
BRANCH  15  16
HETATM   16  O2  UNL     1       2.783  -1.363  -0.928  1.00  0.00    -0.389 OA
ATOM     17  H2  UNL     1       3.448  -1.893  -0.504  1.00  0.00     0.210 HD
ENDBRANCH  15  16
ENDBRANCH   7   9
BRANCH   8  18
HETATM   18  O3  UNL     1      -1.331   1.980  -1.039  1.00  0.00    -0.391 OA
ATOM     19  H3  UNL     1      -0.463   1.984  -1.425  1.00  0.00     0.210 HD
ENDBRANCH   8  18
BRANCH   1  20
HETATM   20  O1  UNL     1      -3.882   0.756  -1.267  1.00  0.00    -0.393 OA
ATOM     21  H1  UNL     1      -3.650   1.527  -1.772  1.00  0.00     0.210 HD
ENDBRANCH   1  20
TORSDOF 4
