REMARK  5 active torsions:
REMARK  status: ('A' for Active; 'I' for Inactive)
REMARK    1  A    between atoms: C6_6  and  O1_7 
REMARK    2  A    between atoms: C7_9  and  O2_10 
REMARK    3  A    between atoms: C8_12  and  O3_13 
REMARK    4  A    between atoms: C11_17  and  C12_18 
REMARK    5  A    between atoms: C12_18  and  O4_19 
ROOT
HETATM    1  C1  UNL     1       2.621  -0.809   0.658  1.00  0.00     0.015 C 
HETATM    2  C2  UNL     1       1.564  -0.041  -0.152  1.00  0.00    -0.043 C 
HETATM    3  C3  UNL     1       2.306   1.212  -0.636  1.00  0.00     0.015 C 
HETATM    4  C4  UNL     1       1.137  -0.913  -1.273  1.00  0.00     0.012 C 
HETATM    5  C5  UNL     1      -0.286  -0.899  -1.637  1.00  0.00     0.042 C 
HETATM    6  C6  UNL     1      -1.270  -0.652  -0.565  1.00  0.00     0.092 C 
HETATM    7  C7  UNL     1      -1.977   0.690  -0.803  1.00  0.00     0.181 C 
HETATM    8  C8  UNL     1      -1.058   1.846  -0.631  1.00  0.00     0.150 C 
HETATM    9  C9  UNL     1      -0.076   1.760   0.458  1.00  0.00     0.040 C 
HETATM   10  C10 UNL     1       0.460   0.394   0.766  1.00  0.00     0.005 C 
HETATM   11  C11 UNL     1      -0.692  -0.556   0.820  1.00  0.00     0.051 C 
ENDROOT
BRANCH  11  12
HETATM   12  C12 UNL     1      -0.407  -1.881   1.416  1.00  0.00     0.172 C 
BRANCH  12  13
HETATM   13  O4  UNL     1       0.124  -1.768   2.690  1.00  0.00    -0.400 OA
ATOM     14  H4  UNL     1       0.307  -2.618   3.072  1.00  0.00     0.209 HD
ENDBRANCH  12  13
ENDBRANCH  11  12
BRANCH   6  15
HETATM   15  O1  UNL     1      -2.291  -1.607  -0.511  1.00  0.00    -0.387 OA
ATOM     16  H1  UNL     1      -2.924  -1.448   0.179  1.00  0.00     0.210 HD
ENDBRANCH   6  15
BRANCH   7  17
HETATM   17  O2  UNL     1      -3.088   0.788   0.036  1.00  0.00    -0.390 OA
ATOM     18  H2  UNL     1      -3.525   1.618  -0.111  1.00  0.00     0.210 HD
ENDBRANCH   7  17
BRANCH   8  19
HETATM   19  O3  UNL     1      -1.879   2.976  -0.387  1.00  0.00    -0.393 OA
ATOM     20  H3  UNL     1      -1.292   3.715  -0.277  1.00  0.00     0.210 HD
ENDBRANCH   8  19
TORSDOF 5
