REMARK  6 active torsions:
REMARK  status: ('A' for Active; 'I' for Inactive)
REMARK    1  A    between atoms: C8_8  and  C9_9 
REMARK    2  A    between atoms: C9_9  and  O1_10 
REMARK    3  A    between atoms: C10_12  and  O2_13 
REMARK    4  A    between atoms: C11_15  and  C12_16 
REMARK    5  A    between atoms: C12_16  and  O3_17 
REMARK    6  A    between atoms: C13_19  and  O4_20 
ROOT
HETATM    1  C1  UNL     1      -1.663  -2.939   0.170  1.00  0.00     0.017 C 
HETATM    2  C2  UNL     1      -0.980  -1.839   0.435  1.00  0.00    -0.060 C 
HETATM    3  C3  UNL     1       0.505  -2.071   0.447  1.00  0.00     0.041 C 
HETATM    4  C4  UNL     1       1.147  -1.188  -0.571  1.00  0.00    -0.003 C 
HETATM    5  C5  UNL     1       0.087  -0.604  -1.464  1.00  0.00     0.011 C 
HETATM    6  C6  UNL     1      -0.283   0.693  -0.857  1.00  0.00     0.009 A 
HETATM    7  C7  UNL     1       0.864   1.125  -0.000  1.00  0.00     0.027 A 
HETATM    8  C8  UNL     1       1.814  -0.037   0.132  1.00  0.00     0.020 C 
HETATM    9  C10 UNL     1      -0.088   1.163   1.185  1.00  0.00     0.137 A 
HETATM   10  C11 UNL     1      -1.200   0.661   0.298  1.00  0.00     0.041 A 
HETATM   11  C13 UNL     1      -1.791  -0.649   0.657  1.00  0.00     0.160 C 
ENDROOT
BRANCH   8  12
HETATM   12  C9  UNL     1       3.161   0.249  -0.522  1.00  0.00     0.169 C 
BRANCH  12  13
HETATM   13  O1  UNL     1       3.807   1.312   0.106  1.00  0.00    -0.400 OA
ATOM     14  H1  UNL     1       4.646   1.490  -0.302  1.00  0.00     0.209 HD
ENDBRANCH  12  13
ENDBRANCH   8  12
BRANCH   9  15
HETATM   15  O2  UNL     1      -0.188   2.434   1.687  1.00  0.00    -0.394 OA
ATOM     16  H2  UNL     1      -0.783   2.458   2.427  1.00  0.00     0.210 HD
ENDBRANCH   9  15
BRANCH  10  17
HETATM   17  C12 UNL     1      -2.296   1.700   0.197  1.00  0.00     0.179 C 
BRANCH  17  18
HETATM   18  O3  UNL     1      -1.843   2.996   0.125  1.00  0.00    -0.400 OA
ATOM     19  H3  UNL     1      -2.531   3.648   0.062  1.00  0.00     0.209 HD
ENDBRANCH  17  18
ENDBRANCH  10  17
BRANCH  11  20
HETATM   20  O4  UNL     1      -3.005  -0.799  -0.014  1.00  0.00    -0.390 OA
ATOM     21  H4  UNL     1      -3.534  -0.023   0.131  1.00  0.00     0.210 HD
ENDBRANCH  11  20
TORSDOF 6
