REMARK  4 active torsions:
REMARK  status: ('A' for Active; 'I' for Inactive)
REMARK    1  A    between atoms: C5_5  and  C6_6 
REMARK    2  A    between atoms: C7_7  and  C8_8 
REMARK    3  A    between atoms: C9_9  and  C10_10 
REMARK    4  A    between atoms: C10_10  and  N1_12 
ROOT
HETATM    1  C10 UNL     1       2.217   4.577   0.199  1.00  0.00     0.269 C 
HETATM    2  C11 UNL     1       3.473   4.985   0.972  1.00  0.00     0.078 C 
HETATM    3  C12 UNL     1       2.455   5.039  -1.176  1.00  0.00     0.112 C 
HETATM    4  N2  UNL     1       2.652   5.385  -2.265  1.00  0.00    -0.194 NA
ENDROOT
BRANCH   1   5
HETATM    5  C9  UNL     1       2.082   3.120   0.229  1.00  0.00    -0.047 C 
HETATM    6  C8  UNL     1       2.044   1.898   0.243  1.00  0.00    -0.063 C 
BRANCH   6   7
HETATM    7  C7  UNL     1       2.094   0.426   0.229  1.00  0.00     0.026 A 
HETATM    8  C6  UNL     1       1.027  -0.303  -0.267  1.00  0.00    -0.007 A 
HETATM    9  C16 UNL     1       1.263  -1.675  -0.355  1.00  0.00     0.052 A 
HETATM   10  C15 UNL     1       2.501  -2.220   0.035  1.00  0.00     0.004 A 
HETATM   11  N3  UNL     1       0.524  -2.721  -0.718  1.00  0.00    -0.354 N 
HETATM   12  C14 UNL     1       3.511  -1.426   0.518  1.00  0.00     0.016 A 
HETATM   13  C22 UNL     1       2.457  -3.570  -0.119  1.00  0.00     0.003 A 
HETATM   14  C13 UNL     1       3.305  -0.083   0.618  1.00  0.00     0.022 A 
HETATM   15  C17 UNL     1       1.190  -3.882  -0.601  1.00  0.00     0.043 A 
HETATM   16  C21 UNL     1       3.355  -4.591   0.074  1.00  0.00     0.014 A 
HETATM   17  C18 UNL     1       0.849  -5.214  -0.885  1.00  0.00     0.030 A 
HETATM   18  C19 UNL     1       1.763  -6.225  -0.685  1.00  0.00     0.002 A 
HETATM   19  C20 UNL     1       3.020  -5.882  -0.199  1.00  0.00     0.001 A 
ATOM     20  H3  UNL     1      -0.439  -2.649  -1.048  1.00  0.00     0.166 HD
BRANCH   8  21
HETATM   21  C5  UNL     1      -0.195   0.310  -0.597  1.00  0.00     0.037 C 
HETATM   22  C4  UNL     1      -0.403   0.038  -2.250  1.00  0.00     0.052 C 
HETATM   23  C3  UNL     1      -1.741   0.453  -2.181  1.00  0.00    -0.007 C 
HETATM   24  C2  UNL     1      -2.928   0.448  -2.327  1.00  0.00    -0.053 C 
HETATM   25  C32 UNL     1      -2.023   1.901  -1.672  1.00  0.00     0.173 C 
HETATM   26  C1  UNL     1      -4.403   0.450  -2.503  1.00  0.00     0.046 C 
HETATM   27  C31 UNL     1      -2.544   1.037  -0.708  1.00  0.00     0.075 C 
HETATM   28  C23 UNL     1      -1.568  -0.062  -0.235  1.00  0.00     0.052 C 
HETATM   29  C30 UNL     1      -3.698   1.019   0.081  1.00  0.00     0.008 C 
HETATM   30  C24 UNL     1      -2.001  -0.223   1.161  1.00  0.00    -0.042 A 
HETATM   31  C25 UNL     1      -1.457  -0.869   2.243  1.00  0.00     0.008 A 
HETATM   32  C29 UNL     1      -3.236   0.357   1.370  1.00  0.00    -0.032 A 
HETATM   33  C26 UNL     1      -2.092  -0.948   3.479  1.00  0.00     0.001 A 
HETATM   34  C27 UNL     1      -3.312  -0.356   3.634  1.00  0.00     0.001 A 
HETATM   35  C28 UNL     1      -3.913   0.316   2.562  1.00  0.00     0.011 A 
HETATM   36  O1  UNL     1      -1.909   3.096  -1.891  1.00  0.00    -0.291 OA
ENDBRANCH   8  21
ENDBRANCH   6   7
ENDBRANCH   1   5
BRANCH   1  37
HETATM   37  N1  UNL     1       1.065   5.168   0.782  1.00  0.00    -0.046 N 
ATOM     38  H13 UNL     1       0.202   4.851   0.340  1.00  0.00     0.277 HD
ATOM     39  H12 UNL     1       0.884   4.816   1.722  1.00  0.00     0.277 HD
ATOM     40  H11 UNL     1       1.159   6.183   0.761  1.00  0.00     0.277 HD
ENDBRANCH   1  37
TORSDOF 4
