REMARK  2 active torsions:
REMARK  status: ('A' for Active; 'I' for Inactive)
REMARK    1  A    between atoms: O1_2  and  C2_3 
REMARK    2  A    between atoms: C18_20  and  O3_21 
ROOT
HETATM    1  C2  UNL     1       4.383   0.454   1.367  1.00  0.00     0.074 A 
HETATM    2  C3  UNL     1       4.388   1.803   1.586  1.00  0.00     0.038 A 
HETATM    3  C4  UNL     1       3.824   2.552   0.597  1.00  0.00     0.010 A 
HETATM    4  C5  UNL     1       3.264   1.992  -0.589  1.00  0.00    -0.053 A 
HETATM    5  C6  UNL     1       3.273   0.629  -0.780  1.00  0.00     0.017 A 
HETATM    6  C7  UNL     1       3.836  -0.153   0.200  1.00  0.00    -0.024 A 
HETATM    7  C8  UNL     1       3.994  -1.625   0.309  1.00  0.00     0.046 C 
HETATM    8  C9  UNL     1       2.991  -2.320   1.214  1.00  0.00     0.043 C 
HETATM    9  C10 UNL     1       1.652  -2.534   0.571  1.00  0.00    -0.055 A 
HETATM   10  C11 UNL     1       1.847  -3.386  -0.565  1.00  0.00     0.007 A 
HETATM   11  C12 UNL     1       0.821  -3.819  -1.341  1.00  0.00     0.003 A 
HETATM   12  C13 UNL     1      -0.428  -3.402  -0.987  1.00  0.00     0.037 A 
HETATM   13  C14 UNL     1      -0.689  -2.560   0.123  1.00  0.00     0.076 A 
HETATM   14  C15 UNL     1       0.404  -2.124   0.910  1.00  0.00     0.044 A 
HETATM   15  O2  UNL     1      -2.004  -2.296   0.268  1.00  0.00    -0.310 OA
HETATM   16  C16 UNL     1      -3.078  -1.677   0.688  1.00  0.00     0.085 A 
HETATM   17  C17 UNL     1      -3.343  -1.246   1.987  1.00  0.00     0.074 A 
HETATM   18  C18 UNL     1      -4.510  -0.594   2.347  1.00  0.00     0.068 A 
HETATM   19  C19 UNL     1      -5.464  -0.346   1.419  1.00  0.00     0.037 A 
HETATM   20  C20 UNL     1      -5.269  -0.739   0.144  1.00  0.00     0.012 A 
HETATM   21  C21 UNL     1      -4.115  -1.386  -0.222  1.00  0.00    -0.024 A 
HETATM   22  C22 UNL     1      -4.068  -1.764  -1.665  1.00  0.00     0.046 C 
HETATM   23  C23 UNL     1      -4.078  -0.510  -2.515  1.00  0.00     0.043 C 
HETATM   24  C24 UNL     1      -3.193   0.601  -2.081  1.00  0.00    -0.057 A 
HETATM   25  C25 UNL     1      -3.931   1.772  -1.837  1.00  0.00     0.007 A 
HETATM   26  C26 UNL     1      -3.397   2.961  -1.404  1.00  0.00     0.001 A 
HETATM   27  C27 UNL     1      -2.041   2.924  -1.218  1.00  0.00     0.009 A 
HETATM   28  C28 UNL     1      -1.255   1.782  -1.446  1.00  0.00    -0.040 A 
HETATM   29  C29 UNL     1      -1.830   0.618  -1.880  1.00  0.00     0.015 A 
HETATM   30  C30 UNL     1       0.182   2.049  -1.111  1.00  0.00     0.157 C 
HETATM   31  N1  UNL     1       0.423   3.410  -0.656  1.00  0.00    -0.398 N 
ATOM     32  H1  UNL     1      -0.315   3.974  -0.234  1.00  0.00     0.158 HD
HETATM   33  C31 UNL     1       1.606   3.861  -0.813  1.00  0.00     0.060 C 
HETATM   34  C32 UNL     1       2.750   3.125  -1.417  1.00  0.00     0.082 C 
ENDROOT
BRANCH   1  35
HETATM   35  O1  UNL     1       4.963  -0.345   2.378  1.00  0.00    -0.355 OA
HETATM   36  C1  UNL     1       5.506   0.217   3.530  1.00  0.00     0.210 C 
ENDBRANCH   1  35
BRANCH  18  37
HETATM   37  O3  UNL     1      -4.759  -0.166   3.659  1.00  0.00    -0.361 OA
ATOM     38  H3  UNL     1      -5.560   0.281   3.906  1.00  0.00     0.217 HD
ENDBRANCH  18  37
TORSDOF 2
