REMARK  4 active torsions:
REMARK  status: ('A' for Active; 'I' for Inactive)
REMARK    1  A    between atoms: N1_7  and  C7_9 
REMARK    2  A    between atoms: C17_21  and  O1_22 
REMARK    3  A    between atoms: C19_25  and  C20_26 
REMARK    4  A    between atoms: C21_27  and  C22_28 
ROOT
HETATM    1  C7  UNL     1      -3.241   0.468  -1.981  1.00  0.00     0.033 A 
HETATM    2  C8  UNL     1      -3.875   1.456  -2.652  1.00  0.00     0.030 A 
HETATM    3  C9  UNL     1      -3.308   2.691  -2.865  1.00  0.00     0.014 A 
HETATM    4  C10 UNL     1      -2.036   2.911  -2.365  1.00  0.00    -0.024 A 
HETATM    5  C11 UNL     1      -1.399   4.132  -2.538  1.00  0.00     0.013 A 
HETATM    6  C12 UNL     1      -0.135   4.401  -2.058  1.00  0.00     0.011 A 
HETATM    7  C13 UNL     1       0.551   3.424  -1.368  1.00  0.00    -0.027 A 
HETATM    8  C14 UNL     1      -0.057   2.194  -1.178  1.00  0.00     0.048 A 
HETATM    9  C15 UNL     1      -1.327   1.941  -1.667  1.00  0.00     0.003 A 
HETATM   10  C16 UNL     1      -1.953   0.719  -1.485  1.00  0.00     0.044 A 
HETATM   11  N2  UNL     1       0.617   1.155  -0.480  1.00  0.00    -0.359 N 
ATOM     12  H2  UNL     1       0.374   0.174  -0.620  1.00  0.00     0.162 HD
HETATM   13  C17 UNL     1       1.663   1.551   0.439  1.00  0.00     0.249 C 
HETATM   14  C18 UNL     1       2.537   2.486  -0.319  1.00  0.00    -0.020 C 
HETATM   15  C19 UNL     1       3.796   2.184  -0.479  1.00  0.00     0.072 C 
HETATM   16  C30 UNL     1       1.911   3.724  -0.852  1.00  0.00     0.080 C 
ENDROOT
BRANCH  13  17
HETATM   17  O1  UNL     1       1.076   2.266   1.480  1.00  0.00    -0.373 OA
ATOM     18  H1  UNL     1       1.762   2.526   2.083  1.00  0.00     0.212 HD
ENDBRANCH  13  17
BRANCH  15  19
HETATM   19  C20 UNL     1       4.321   0.971   0.067  1.00  0.00    -0.071 C 
HETATM   20  C21 UNL     1       4.787  -0.051   0.528  1.00  0.00    -0.043 C 
BRANCH  20  21
HETATM   21  C22 UNL     1       5.364  -1.261   1.070  1.00  0.00     0.098 A 
HETATM   22  N3  UNL     1       4.697  -2.350   1.499  1.00  0.00    -0.357 N 
HETATM   23  C23 UNL     1       5.553  -3.290   1.940  1.00  0.00     0.101 A 
ATOM     24  H3  UNL     1       3.682  -2.449   1.491  1.00  0.00     0.166 HD
HETATM   25  C24 UNL     1       6.851  -2.817   1.803  1.00  0.00    -0.008 A 
HETATM   26  C25 UNL     1       8.092  -3.342   2.086  1.00  0.00     0.014 A 
HETATM   27  C29 UNL     1       6.701  -1.550   1.258  1.00  0.00     0.011 A 
HETATM   28  C26 UNL     1       9.236  -2.620   1.836  1.00  0.00     0.001 A 
HETATM   29  C27 UNL     1       9.109  -1.358   1.294  1.00  0.00     0.001 A 
HETATM   30  C28 UNL     1       7.851  -0.839   1.013  1.00  0.00     0.015 A 
ENDBRANCH  20  21
ENDBRANCH  15  19
BRANCH   1  31
HETATM   31  N1  UNL     1      -3.796  -0.821  -1.740  1.00  0.00    -0.359 N 
HETATM   32  C6  UNL     1      -4.582  -1.070  -0.738  1.00  0.00     0.013 A 
HETATM   33  C5  UNL     1      -5.145  -2.410  -0.509  1.00  0.00     0.091 A 
HETATM   34  C31 UNL     1      -4.875   0.048   0.142  1.00  0.00     0.026 A 
HETATM   35  C3  UNL     1      -6.022  -2.482   0.668  1.00  0.00    -0.072 A 
HETATM   36  C2  UNL     1      -6.257  -1.439   1.436  1.00  0.00    -0.060 A 
HETATM   37  C4  UNL     1      -6.669  -3.787   1.010  1.00  0.00     0.044 C 
HETATM   38  C1  UNL     1      -7.161  -1.590   2.623  1.00  0.00     0.048 C 
HETATM   39  C32 UNL     1      -5.673  -0.126   1.179  1.00  0.00     0.009 A 
ATOM     40  H1  UNL     1      -3.566  -1.580  -2.382  1.00  0.00     0.166 HD
ENDBRANCH   1  31
TORSDOF 4
