REMARK  10 active torsions:
REMARK  status: ('A' for Active; 'I' for Inactive)
REMARK    1  A    between atoms: C2_2  and  O1_3 
REMARK    2  A    between atoms: O1_3  and  C3_4 
REMARK    3  A    between atoms: C3_4  and  C4_5 
REMARK    4  A    between atoms: C4_5  and  C5_6 
REMARK    5  A    between atoms: C5_6  and  N1_7 
REMARK    6  A    between atoms: C6_8  and  S1_9 
REMARK    7  A    between atoms: S1_9  and  C7_10 
REMARK    8  A    between atoms: C11_22  and  N6_23 
REMARK    9  A    between atoms: C13_29  and  N8_30 
REMARK   10  A    between atoms: C14_35  and  N10_36 
ROOT
HETATM    1  N1  UNL     1       0.496   0.722  -0.586  1.00  0.00    -0.311 N 
HETATM    2  C6  UNL     1      -0.762   0.387  -0.236  1.00  0.00     0.155 A 
HETATM    3  N7  UNL     1      -1.420   1.505   0.106  1.00  0.00    -0.330 N 
ATOM      4  H7  UNL     1      -2.390   1.566   0.415  1.00  0.00     0.168 HD
HETATM    5  C12 UNL     1      -0.556   2.536  -0.035  1.00  0.00     0.124 A 
HETATM    6  C13 UNL     1      -0.680   3.887   0.170  1.00  0.00     0.145 A 
HETATM    7  N9  UNL     1       0.389   4.657  -0.067  1.00  0.00    -0.175 N 
ATOM      8  H9  UNL     1       0.300   5.662   0.085  1.00  0.00     0.186 HD
HETATM    9  C14 UNL     1       1.580   4.182  -0.496  1.00  0.00     0.679 A 
HETATM   10  N11 UNL     1       1.712   2.875  -0.698  1.00  0.00    -0.174 N 
ATOM     11  H11 UNL     1       2.600   2.491  -1.021  1.00  0.00     0.186 HD
HETATM   12  C15 UNL     1       0.663   2.065  -0.472  1.00  0.00     0.156 A 
ENDROOT
BRANCH   2  13
HETATM   13  S1  UNL     1      -1.360  -1.297  -0.258  1.00  0.00    -0.032 SA
BRANCH  13  14
HETATM   14  C7  UNL     1      -3.068  -1.357   0.265  1.00  0.00     0.123 A 
HETATM   15  N2  UNL     1      -4.008  -1.230  -0.687  1.00  0.00    -0.331 N 
HETATM   16  C8  UNL     1      -5.313  -1.265  -0.370  1.00  0.00     0.152 A 
ATOM     17  H2  UNL     1      -3.728  -1.106  -1.660  1.00  0.00     0.168 HD
HETATM   18  N3  UNL     1      -6.421  -1.161  -1.134  1.00  0.00    -0.335 N 
HETATM   19  C10 UNL     1      -5.689  -1.432   0.938  1.00  0.00     0.152 A 
HETATM   20  C9  UNL     1      -7.492  -1.262  -0.317  1.00  0.00     0.183 A 
ATOM     21  H3  UNL     1      -6.445  -1.030  -2.145  1.00  0.00     0.168 HD
HETATM   22  N4  UNL     1      -7.033  -1.425   0.935  1.00  0.00    -0.335 N 
ATOM     23  H4  UNL     1      -7.619  -1.528   1.763  1.00  0.00     0.168 HD
HETATM   24  N5  UNL     1      -4.744  -1.558   1.883  1.00  0.00    -0.324 N 
HETATM   25  C11 UNL     1      -3.434  -1.524   1.576  1.00  0.00     0.135 A 
ATOM     26  H5  UNL     1      -5.025  -1.682   2.856  1.00  0.00     0.169 HD
BRANCH  25  27
HETATM   27  N6  UNL     1      -2.528  -1.646   2.490  1.00  0.00    -0.383 N 
ATOM     28  H62 UNL     1      -1.535  -1.620   2.257  1.00  0.00     0.157 HD
ATOM     29  H61 UNL     1      -2.800  -1.770   3.465  1.00  0.00     0.157 HD
ENDBRANCH  25  27
ENDBRANCH  13  14
ENDBRANCH   2  13
BRANCH   1  30
HETATM   30  C5  UNL     1       1.533  -0.165  -1.017  1.00  0.00     0.135 C 
BRANCH  30  31
HETATM   31  C4  UNL     1       2.305  -0.628   0.219  1.00  0.00     0.046 C 
BRANCH  31  32
HETATM   32  C3  UNL     1       3.380  -1.551  -0.258  1.00  0.00     0.169 C 
BRANCH  32  33
HETATM   33  O1  UNL     1       4.163  -2.048   0.784  1.00  0.00    -0.391 OA
BRANCH  33  34
HETATM   34  C2  UNL     1       5.146  -2.893   0.335  1.00  0.00     0.163 C 
HETATM   35  C1  UNL     1       6.106  -2.259  -0.624  1.00  0.00     0.033 C 
ENDBRANCH  33  34
ENDBRANCH  32  33
ENDBRANCH  31  32
ENDBRANCH  30  31
ENDBRANCH   1  30
BRANCH   6  36
HETATM   36  N8  UNL     1      -1.791   4.430   0.582  1.00  0.00    -0.383 N 
ATOM     37  H82 UNL     1      -2.606   3.843   0.763  1.00  0.00     0.157 HD
ATOM     38  H81 UNL     1      -1.883   5.434   0.734  1.00  0.00     0.157 HD
ENDBRANCH   6  36
BRANCH   9  39
HETATM   39  N10 UNL     1       2.557   4.999  -0.699  1.00  0.00    -0.234 N 
ATOM     40 2H10 UNL     1       2.456   6.002  -0.544  1.00  0.00     0.174 HD
ATOM     41 1H10 UNL     1       3.455   4.641  -1.023  1.00  0.00     0.174 HD
ENDBRANCH   9  39
TORSDOF 10
