REMARK  9 active torsions:
REMARK  status: ('A' for Active; 'I' for Inactive)
REMARK    1  A    between atoms: N1_1  and  C1_4 
REMARK    2  A    between atoms: C3_8  and  C4_9 
REMARK    3  A    between atoms: C5_12  and  C6_13 
REMARK    4  A    between atoms: C7_15  and  N4_16 
REMARK    5  A    between atoms: N4_16  and  C8_18 
REMARK    6  A    between atoms: N5_21  and  C11_22 
REMARK    7  A    between atoms: C11_22  and  C12_23 
REMARK    8  A    between atoms: C12_23  and  C13_24 
REMARK    9  A    between atoms: C13_24  and  N6_25 
ROOT
HETATM    1  C4  UNL     1       3.820  -0.071   0.158  1.00  0.00     0.091 A 
HETATM    2  N3  UNL     1       2.873  -0.825   0.627  1.00  0.00    -0.350 N 
ATOM      3  H3  UNL     1       3.107  -1.766   0.942  1.00  0.00     0.166 HD
HETATM    4  C5  UNL     1       1.642  -0.429   0.711  1.00  0.00     0.054 A 
HETATM    5  C7  UNL     1       1.348   0.827   0.286  1.00  0.00     0.096 A 
HETATM    6  S2  UNL     1       2.933   1.364  -0.220  1.00  0.00    -0.052 SA
ENDROOT
BRANCH   5   7
HETATM    7  N4  UNL     1       0.176   1.610   0.174  1.00  0.00    -0.378 N 
ATOM      8  H4  UNL     1       0.299   2.584  -0.102  1.00  0.00     0.160 HD
BRANCH   7   9
HETATM    9  C8  UNL     1      -1.140   1.181   0.405  1.00  0.00     0.085 C 
HETATM   10  C9  UNL     1      -2.088   2.377   0.585  1.00  0.00     0.055 C 
HETATM   11  C10 UNL     1      -3.340   2.222  -0.180  1.00  0.00     0.274 C 
HETATM   12  N5  UNL     1      -4.000   0.913  -0.044  1.00  0.00     0.088 N 
HETATM   13  C14 UNL     1      -3.024  -0.130  -0.386  1.00  0.00     0.274 C 
HETATM   14  C15 UNL     1      -1.742   0.505  -0.858  1.00  0.00     0.055 C 
BRANCH  12  15
HETATM   15  C11 UNL     1      -4.963   0.881  -1.116  1.00  0.00     0.274 C 
BRANCH  15  16
HETATM   16  C12 UNL     1      -6.177   0.089  -0.972  1.00  0.00     0.057 C 
BRANCH  16  17
HETATM   17  C13 UNL     1      -6.105  -1.344  -0.672  1.00  0.00     0.231 C 
BRANCH  17  18
HETATM   18  N6  UNL     1      -5.572  -1.630   0.638  1.00  0.00    -0.079 N 
ATOM     19  H63 UNL     1      -4.661  -1.189   0.762  1.00  0.00     0.274 HD
ATOM     20  H62 UNL     1      -6.099  -1.136   1.358  1.00  0.00     0.274 HD
ATOM     21  H61 UNL     1      -5.522  -2.627   0.847  1.00  0.00     0.274 HD
ENDBRANCH  17  18
ENDBRANCH  16  17
ENDBRANCH  15  16
ENDBRANCH  12  15
ENDBRANCH   7   9
ENDBRANCH   5   7
BRANCH   4  22
HETATM   22  C6  UNL     1       0.576  -1.342   1.303  1.00  0.00     0.146 C 
HETATM   23  S1  UNL     1       1.320  -2.953   1.786  1.00  0.00    -0.091 SA
ENDBRANCH   4  22
BRANCH   1  24
HETATM   24  C3  UNL     1       5.269  -0.275  -0.042  1.00  0.00     0.058 A 
HETATM   25  C2  UNL     1       6.029   0.759  -0.587  1.00  0.00     0.124 A 
HETATM   26  N2  UNL     1       7.349   0.587  -0.775  1.00  0.00    -0.201 N 
HETATM   27  C1  UNL     1       7.972  -0.556  -0.454  1.00  0.00     0.677 A 
ATOM     28  H2  UNL     1       7.894   1.351  -1.175  1.00  0.00     0.183 HD
HETATM   29  N8  UNL     1       7.257  -1.551   0.067  1.00  0.00    -0.176 N 
HETATM   30  C16 UNL     1       5.890  -1.434   0.285  1.00  0.00     0.129 A 
ATOM     31  H8  UNL     1       7.726  -2.423   0.313  1.00  0.00     0.186 HD
HETATM   32  N7  UNL     1       5.324  -2.436   0.783  1.00  0.00    -0.384 N 
ATOM     33  H72 UNL     1       4.320  -2.350   0.943  1.00  0.00     0.157 HD
ATOM     34  H71 UNL     1       5.791  -3.308   1.029  1.00  0.00     0.157 HD
BRANCH  27  35
HETATM   35  N1  UNL     1       9.258  -0.656  -0.662  1.00  0.00    -0.234 N 
ATOM     36  H12 UNL     1       9.806   0.106  -1.061  1.00  0.00     0.174 HD
ATOM     37  H11 UNL     1       9.732  -1.526  -0.418  1.00  0.00     0.174 HD
ENDBRANCH  27  35
ENDBRANCH   1  24
TORSDOF 9
