REMARK  10 active torsions:
REMARK  status: ('A' for Active; 'I' for Inactive)
REMARK    1  A    between atoms: C3_4  and  C4_5 
REMARK    2  A    between atoms: C5_8  and  C6_9 
REMARK    3  A    between atoms: C9_17  and  N5_18 
REMARK    4  A    between atoms: C10_22  and  O3_23 
REMARK    5  A    between atoms: C12_27  and  C13_28 
REMARK       I    between atoms: C13_28  and  N7_30 
REMARK    6  A    between atoms: N7_30  and  C14_32 
REMARK    7  A    between atoms: C14_32  and  C15_33 
REMARK    8  A    between atoms: C15_33  and  C16_34 
REMARK    9  A    between atoms: C16_34  and  C17_35 
REMARK   10  A    between atoms: C17_35  and  O5_36 
ROOT
HETATM    1  C6  UNL     1      -5.850  -0.112   1.018  1.00  0.00     0.099 A 
HETATM    2  C7  UNL     1      -6.134   0.958   1.837  1.00  0.00     0.146 A 
HETATM    3  C8  UNL     1      -5.186   1.966   2.195  1.00  0.00     0.120 C 
HETATM    4  N2  UNL     1      -4.403   2.783   2.472  1.00  0.00    -0.190 NA
HETATM    5  N3  UNL     1      -7.430   0.892   2.233  1.00  0.00    -0.288 N 
ATOM      6  H3  UNL     1      -7.910   1.553   2.843  1.00  0.00     0.188 HD
HETATM    7  N4  UNL     1      -7.955  -0.189   1.681  1.00  0.00    -0.284 N 
ATOM      8  H4  UNL     1      -8.919  -0.499   1.799  1.00  0.00     0.188 HD
HETATM    9  C9  UNL     1      -7.020  -0.821   0.936  1.00  0.00     0.131 A 
ENDROOT
BRANCH   1  10
HETATM   10  C5  UNL     1      -4.593  -0.449   0.363  1.00  0.00     0.168 A 
HETATM   11  N1  UNL     1      -3.472   0.281   0.475  1.00  0.00    -0.329 N 
HETATM   12  C4  UNL     1      -2.460  -0.293  -0.256  1.00  0.00     0.129 A 
ATOM     13  H1  UNL     1      -3.384   1.137   1.023  1.00  0.00     0.168 HD
HETATM   14  C10 UNL     1      -3.036  -1.392  -0.802  1.00  0.00     0.215 A 
HETATM   15  O2  UNL     1      -4.309  -1.458  -0.414  1.00  0.00    -0.268 OA
BRANCH  12  16
HETATM   16  C3  UNL     1      -1.114   0.258  -0.342  1.00  0.00     0.132 A 
HETATM   17  O1  UNL     1      -0.758   1.376   0.292  1.00  0.00    -0.310 OA
HETATM   18  C2  UNL     1       0.474   1.696   0.090  1.00  0.00     0.067 A 
HETATM   19  C1  UNL     1       1.163   2.907   0.673  1.00  0.00     0.078 C 
HETATM   20  C12 UNL     1       1.045   0.760  -0.736  1.00  0.00     0.088 A 
HETATM   21  C11 UNL     1       0.010  -0.137  -0.989  1.00  0.00     0.100 A 
HETATM   22  N6  UNL     1       0.155  -1.274  -1.807  1.00  0.00    -0.098 NA
BRANCH  20  23
HETATM   23  C13 UNL     1       2.381   0.627  -1.280  1.00  0.00     0.256 C 
HETATM   24  O4  UNL     1       2.620  -0.387  -2.044  1.00  0.00    -0.268 OA
HETATM   25  N7  UNL     1       3.483   1.469  -1.085  1.00  0.00    -0.357 N 
ATOM     26  H7  UNL     1       3.364   2.291  -0.493  1.00  0.00     0.162 HD
BRANCH  25  27
HETATM   27  C14 UNL     1       4.785   1.232  -1.681  1.00  0.00     0.123 C 
BRANCH  27  28
HETATM   28  C15 UNL     1       5.441  -0.038  -1.275  1.00  0.00     0.022 C 
BRANCH  28  29
HETATM   29  C16 UNL     1       5.673  -0.133   0.216  1.00  0.00     0.028 C 
BRANCH  29  30
HETATM   30  C17 UNL     1       6.347  -1.454   0.568  1.00  0.00     0.164 C 
BRANCH  30  31
HETATM   31  O5  UNL     1       6.566  -1.557   1.931  1.00  0.00    -0.401 OA
ATOM     32  H5  UNL     1       6.986  -2.380   2.150  1.00  0.00     0.209 HD
ENDBRANCH  30  31
ENDBRANCH  29  30
ENDBRANCH  28  29
ENDBRANCH  27  28
ENDBRANCH  25  27
ENDBRANCH  20  23
ENDBRANCH  12  16
BRANCH  14  33
HETATM   33  O3  UNL     1      -2.439  -2.325  -1.635  1.00  0.00    -0.339 OA
ATOM     34  H3  UNL     1      -2.843  -3.095  -2.018  1.00  0.00     0.220 HD
ENDBRANCH  14  33
ENDBRANCH   1  10
BRANCH   9  35
HETATM   35  N5  UNL     1      -7.243  -1.902   0.283  1.00  0.00    -0.384 N 
ATOM     36  H52 UNL     1      -6.538  -2.379  -0.279  1.00  0.00     0.157 HD
ATOM     37  H51 UNL     1      -8.114  -2.430   0.222  1.00  0.00     0.157 HD
ENDBRANCH   9  35
TORSDOF 10
