REMARK  12 active torsions:
REMARK  status: ('A' for Active; 'I' for Inactive)
REMARK    1  A    between atoms: S1_2  and  C2_3 
REMARK    2  A    between atoms: C2_3  and  C3_4 
REMARK    3  A    between atoms: C3_4  and  N2_7 
REMARK    4  A    between atoms: N2_7  and  C5_9 
REMARK    5  A    between atoms: C5_9  and  O1_10 
REMARK    6  A    between atoms: C5_9  and  C6_12 
REMARK    7  A    between atoms: C7_13  and  C8_14 
REMARK    8  A    between atoms: C8_14  and  O2_17 
REMARK    9  A    between atoms: C11_23  and  N5_24 
REMARK   10  A    between atoms: N5_24  and  C12_26 
REMARK   11  A    between atoms: C12_26  and  C13_27 
REMARK   12  A    between atoms: C14_29  and  N6_30 
ROOT
HETATM    1  C3  UNL     1       2.683   2.290  -1.323  1.00  0.00     0.200 C 
HETATM    2  C4  UNL     1       3.117   2.402  -2.726  1.00  0.00     0.085 C 
HETATM    3  N1  UNL     1       3.468   2.509  -3.826  1.00  0.00    -0.195 NA
ENDROOT
BRANCH   1   4
HETATM    4  C2  UNL     1       3.730   2.766  -0.385  1.00  0.00     0.113 C 
BRANCH   4   5
HETATM    5  S1  UNL     1       3.296   2.683   1.355  1.00  0.00    -0.171 SA
HETATM    6  C1  UNL     1       3.142   1.013   1.993  1.00  0.00     0.089 C 
ENDBRANCH   4   5
ENDBRANCH   1   4
BRANCH   1   7
HETATM    7  N2  UNL     1       2.398   0.826  -1.165  1.00  0.00    -0.352 N 
ATOM      8  H2  UNL     1       3.130   0.127  -1.293  1.00  0.00     0.163 HD
BRANCH   7   9
HETATM    9  C5  UNL     1       1.099   0.460  -0.838  1.00  0.00     0.153 C 
BRANCH   9  10
HETATM   10  O1  UNL     1       0.323   1.510  -0.704  1.00  0.00    -0.346 OA
ATOM     11  H1  UNL     1      -0.566   1.260  -0.480  1.00  0.00     0.219 HD
ENDBRANCH   9  10
BRANCH   9  12
HETATM   12  C6  UNL     1       0.467  -0.824  -0.624  1.00  0.00     0.086 A 
HETATM   13  C7  UNL     1       0.999  -2.078  -0.806  1.00  0.00     0.077 A 
HETATM   14  N3  UNL     1      -0.025  -2.957  -0.509  1.00  0.00    -0.299 N 
HETATM   15  N4  UNL     1      -1.093  -2.310  -0.174  1.00  0.00    -0.285 N 
ATOM     16  H3  UNL     1       0.051  -3.973  -0.549  1.00  0.00     0.186 HD
HETATM   17  C11 UNL     1      -0.874  -0.965  -0.218  1.00  0.00     0.133 A 
ATOM     18  H4  UNL     1      -1.978  -2.746   0.087  1.00  0.00     0.188 HD
BRANCH  13  19
HETATM   19  C8  UNL     1       2.350  -2.518  -1.231  1.00  0.00     0.095 C 
HETATM   20  C9  UNL     1       2.182  -4.060  -1.533  1.00  0.00     0.052 C 
HETATM   21  C10 UNL     1       3.400  -2.436  -0.184  1.00  0.00     0.052 C 
BRANCH  19  22
HETATM   22  O2  UNL     1       2.710  -2.045  -2.493  1.00  0.00    -0.384 OA
ATOM     23  H2  UNL     1       3.575  -2.327  -2.765  1.00  0.00     0.211 HD
ENDBRANCH  19  22
ENDBRANCH  13  19
BRANCH  17  24
HETATM   24  N5  UNL     1      -1.807   0.033   0.094  1.00  0.00    -0.370 N 
ATOM     25  H5  UNL     1      -1.557   1.021   0.049  1.00  0.00     0.161 HD
BRANCH  24  26
HETATM   26  C12 UNL     1      -3.162  -0.392   0.489  1.00  0.00     0.171 C 
BRANCH  26  27
HETATM   27  C13 UNL     1      -3.974   0.844   0.778  1.00  0.00     0.045 A 
HETATM   28  S2  UNL     1      -3.515   2.486   0.698  1.00  0.00    -0.054 SA
HETATM   29  C14 UNL     1      -5.000   3.180   1.172  1.00  0.00     0.143 A 
HETATM   30  N7  UNL     1      -5.778   2.114   1.369  1.00  0.00    -0.325 N 
HETATM   31  C15 UNL     1      -5.279   0.930   1.176  1.00  0.00     0.133 A 
ATOM     32  H7  UNL     1      -6.747   2.227   1.666  1.00  0.00     0.169 HD
HETATM   33  N8  UNL     1      -6.045  -0.298   1.362  1.00  0.00    -0.081 NA
BRANCH  29  34
HETATM   34  N6  UNL     1      -5.314   4.450   1.313  1.00  0.00    -0.380 N 
ATOM     35  H62 UNL     1      -4.719   5.265   1.162  1.00  0.00     0.158 HD
ATOM     36  H61 UNL     1      -6.202   4.865   1.596  1.00  0.00     0.158 HD
ENDBRANCH  29  34
ENDBRANCH  26  27
ENDBRANCH  24  26
ENDBRANCH  17  24
ENDBRANCH   9  12
ENDBRANCH   7   9
ENDBRANCH   1   7
TORSDOF 12
