REMARK  14 active torsions:
REMARK  status: ('A' for Active; 'I' for Inactive)
REMARK    1  A    between atoms: C1_2  and  O2_4 
REMARK    2  A    between atoms: O2_4  and  C2_5 
REMARK    3  A    between atoms: C2_5  and  C3_6 
REMARK    4  A    between atoms: C6_9  and  N2_10 
REMARK    5  A    between atoms: N2_10  and  C7_12 
REMARK    6  A    between atoms: C8_14  and  O4_15 
REMARK    7  A    between atoms: C9_17  and  N3_18 
REMARK    8  A    between atoms: N3_18  and  C10_20 
REMARK    9  A    between atoms: C10_20  and  C11_21 
REMARK   10  A    between atoms: C11_21  and  C12_22 
REMARK   11  A    between atoms: C12_22  and  C13_23 
REMARK   12  A    between atoms: C13_23  and  O5_24 
REMARK   13  A    between atoms: C13_23  and  N4_26 
REMARK   14  A    between atoms: N4_26  and  O6_28 
ROOT
HETATM    1  C3  UNL     1      -2.616  -0.060  -0.405  1.00  0.00     0.036 A 
HETATM    2  C4  UNL     1      -1.497  -0.815   0.116  1.00  0.00    -0.002 A 
HETATM    3  C5  UNL     1      -1.608  -1.557   1.299  1.00  0.00     0.046 A 
HETATM    4  C6  UNL     1      -0.588  -2.315   1.816  1.00  0.00     0.070 A 
HETATM    5  C8  UNL     1       0.617  -2.313   1.082  1.00  0.00     0.120 A 
HETATM    6  C9  UNL     1       0.769  -1.597  -0.082  1.00  0.00     0.079 A 
HETATM    7  C14 UNL     1      -0.280  -0.844  -0.583  1.00  0.00     0.057 A 
HETATM    8  C15 UNL     1      -0.206  -0.096  -1.828  1.00  0.00     0.216 A 
HETATM    9  O7  UNL     1       0.863  -0.099  -2.492  1.00  0.00    -0.285 OA
HETATM   10  C16 UNL     1      -1.330   0.680  -2.379  1.00  0.00     0.142 A 
HETATM   11  N5  UNL     1      -1.876   1.475  -3.315  1.00  0.00    -0.254 N 
ATOM     12  H5  UNL     1      -1.571   1.904  -4.189  1.00  0.00     0.195 HD
HETATM   13  O8  UNL     1      -2.982   1.453  -2.598  1.00  0.00    -0.234 OA
HETATM   14  C17 UNL     1      -2.489   0.680  -1.665  1.00  0.00     0.144 A 
ENDROOT
BRANCH   6  15
HETATM   15  N3  UNL     1       2.001  -1.595  -0.797  1.00  0.00    -0.387 N 
ATOM     16  H3  UNL     1       1.977  -2.007  -1.730  1.00  0.00     0.159 HD
BRANCH  15  17
HETATM   17  C10 UNL     1       3.253  -1.093  -0.375  1.00  0.00     0.120 C 
BRANCH  17  18
HETATM   18  C11 UNL     1       3.368   0.147   0.393  1.00  0.00     0.027 C 
BRANCH  18  19
HETATM   19  C12 UNL     1       3.007   1.459  -0.147  1.00  0.00     0.087 C 
BRANCH  19  20
HETATM   20  C13 UNL     1       3.824   1.890  -1.286  1.00  0.00     0.135 C 
BRANCH  20  21
HETATM   21  O5  UNL     1       3.903   1.196  -2.455  1.00  0.00    -0.348 OA
ATOM     22  H5  UNL     1       4.432   1.475  -3.193  1.00  0.00     0.219 HD
ENDBRANCH  20  21
BRANCH  20  23
HETATM   23  N4  UNL     1       4.504   2.999  -1.161  1.00  0.00    -0.251 N 
ATOM     24  H4  UNL     1       5.078   3.317  -1.942  1.00  0.00     0.196 HD
BRANCH  23  25
HETATM   25  O6  UNL     1       4.471   3.751  -0.011  1.00  0.00    -0.288 OA
ATOM     26  H6  UNL     1       4.965   4.557   0.080  1.00  0.00     0.244 HD
ENDBRANCH  23  25
ENDBRANCH  20  23
ENDBRANCH  19  20
ENDBRANCH  18  19
ENDBRANCH  17  18
ENDBRANCH  15  17
ENDBRANCH   6  15
BRANCH   5  27
HETATM   27  O4  UNL     1       1.621  -3.063   1.588  1.00  0.00    -0.356 OA
ATOM     28  H4  UNL     1       2.432  -3.062   1.094  1.00  0.00     0.218 HD
ENDBRANCH   5  27
BRANCH   4  29
HETATM   29  N2  UNL     1      -0.676  -3.074   3.008  1.00  0.00    -0.332 N 
ATOM     30  H2  UNL     1       0.167  -3.587   3.266  1.00  0.00     0.168 HD
BRANCH  29  31
HETATM   31  C7  UNL     1      -1.754  -3.215   3.874  1.00  0.00     0.353 C 
HETATM   32  O3  UNL     1      -2.858  -2.682   3.744  1.00  0.00    -0.283 OA
ENDBRANCH  29  31
ENDBRANCH   4  29
BRANCH   1  33
HETATM   33  C2  UNL     1      -3.765  -0.021   0.241  1.00  0.00     0.162 C 
BRANCH  33  34
HETATM   34  O2  UNL     1      -4.814   0.739  -0.330  1.00  0.00    -0.275 OA
BRANCH  34  35
HETATM   35  C1  UNL     1      -4.894   2.061   0.037  1.00  0.00     0.377 C 
HETATM   36  N1  UNL     1      -5.904   2.918  -0.472  1.00  0.00    -0.032 NA
HETATM   37  O1  UNL     1      -4.038   2.521   0.852  1.00  0.00    -0.242 OA
ENDBRANCH  34  35
ENDBRANCH  33  34
ENDBRANCH   1  33
TORSDOF 14
