REMARK  17 active torsions:
REMARK  status: ('A' for Active; 'I' for Inactive)
REMARK    1  A    between atoms: C3_4  and  O2_5 
REMARK    2  A    between atoms: O2_5  and  C4_6 
REMARK    3  A    between atoms: C7_9  and  O3_10 
REMARK    4  A    between atoms: O3_10  and  C8_11 
REMARK    5  A    between atoms: C11_15  and  O5_16 
REMARK    6  A    between atoms: C12_18  and  O6_19 
REMARK    7  A    between atoms: C13_21  and  O7_22 
REMARK    8  A    between atoms: C15_25  and  O8_26 
REMARK    9  A    between atoms: O8_26  and  C16_27 
REMARK   10  A    between atoms: C17_29  and  O10_30 
REMARK   11  A    between atoms: C17_29  and  C18_32 
REMARK   12  A    between atoms: C21_35  and  O11_36 
REMARK   13  A    between atoms: C22_38  and  O12_39 
REMARK   14  A    between atoms: C23_41  and  O13_42 
REMARK   15  A    between atoms: C24_45  and  C25_46 
REMARK   16  A    between atoms: C25_46  and  O15_47 
REMARK   17  A    between atoms: C27_50  and  O16_51 
ROOT
HETATM    1  O15 UNL     1      -6.809  -3.839   1.265  1.00  0.00    -0.281 OA
HETATM    2  C26 UNL     1      -6.961  -5.057   1.729  1.00  0.00     0.228 C 
HETATM    3  N1  UNL     1      -7.119  -6.121   2.121  1.00  0.00    -0.164 NA
ENDROOT
BRANCH   1   4
HETATM    4  C25 UNL     1      -5.974  -3.167   0.438  1.00  0.00     0.224 C 
BRANCH   4   5
HETATM    5  C24 UNL     1      -4.543  -3.133   0.903  1.00  0.00     0.183 C 
HETATM    6  O14 UNL     1      -3.782  -2.370   0.000  1.00  0.00    -0.329 OA
HETATM    7  C3  UNL     1      -2.441  -2.558   0.284  1.00  0.00     0.414 C 
HETATM    8  O1  UNL     1      -2.126  -3.816  -0.285  1.00  0.00    -0.331 OA
HETATM    9  C2  UNL     1      -2.607  -4.744   0.617  1.00  0.00     0.154 C 
HETATM   10  C1  UNL     1      -2.478  -6.138   0.037  1.00  0.00     0.042 C 
HETATM   11  C27 UNL     1      -4.007  -4.498   1.099  1.00  0.00     0.178 C 
BRANCH   7  12
HETATM   12  O2  UNL     1      -1.723  -1.542  -0.286  1.00  0.00    -0.330 OA
BRANCH  12  13
HETATM   13  C4  UNL     1      -1.000  -0.765   0.655  1.00  0.00     0.164 C 
HETATM   14  C5  UNL     1      -1.439   0.646   0.617  1.00  0.00     0.042 C 
HETATM   15  C6  UNL     1      -2.024   0.990   1.999  1.00  0.00     0.015 C 
HETATM   16  C7  UNL     1      -0.467   1.695   0.276  1.00  0.00     0.133 C 
HETATM   17  C14 UNL     1       0.895   1.248  -0.130  1.00  0.00     0.067 C 
HETATM   18  C15 UNL     1       1.375   0.090   0.756  1.00  0.00     0.158 C 
HETATM   19  C23 UNL     1       0.430  -1.057   0.399  1.00  0.00     0.176 C 
BRANCH  16  20
HETATM   20  O3  UNL     1      -0.974   2.469  -0.787  1.00  0.00    -0.353 OA
BRANCH  20  21
HETATM   21  C8  UNL     1      -1.112   3.799  -0.478  1.00  0.00     0.291 C 
HETATM   22  O4  UNL     1      -2.458   4.145  -0.739  1.00  0.00    -0.351 OA
HETATM   23  C9  UNL     1      -2.740   5.425  -0.298  1.00  0.00     0.152 C 
HETATM   24  C10 UNL     1      -3.906   5.955  -1.104  1.00  0.00     0.042 C 
HETATM   25  C11 UNL     1      -1.577   6.368  -0.510  1.00  0.00     0.178 C 
HETATM   26  C12 UNL     1      -0.858   5.911  -1.766  1.00  0.00     0.183 C 
HETATM   27  C13 UNL     1      -0.212   4.577  -1.447  1.00  0.00     0.204 C 
BRANCH  25  28
HETATM   28  O5  UNL     1      -2.007   7.689  -0.714  1.00  0.00    -0.390 OA
ATOM     29  H5  UNL     1      -1.276   8.281  -0.847  1.00  0.00     0.210 HD
ENDBRANCH  25  28
BRANCH  26  30
HETATM   30  O6  UNL     1       0.068   6.842  -2.215  1.00  0.00    -0.390 OA
ATOM     31  H6  UNL     1       0.518   6.556  -3.001  1.00  0.00     0.210 HD
ENDBRANCH  26  30
BRANCH  27  32
HETATM   32  O7  UNL     1      -0.145   3.877  -2.670  1.00  0.00    -0.388 OA
ATOM     33  H7  UNL     1       0.412   4.359  -3.270  1.00  0.00     0.210 HD
ENDBRANCH  27  32
ENDBRANCH  20  21
ENDBRANCH  16  20
BRANCH  18  34
HETATM   34  O8  UNL     1       2.635  -0.323   0.373  1.00  0.00    -0.350 OA
BRANCH  34  35
HETATM   35  C16 UNL     1       3.568  -0.351   1.373  1.00  0.00     0.295 C 
HETATM   36  O9  UNL     1       4.165  -1.632   1.427  1.00  0.00    -0.320 OA
HETATM   37  C17 UNL     1       4.859  -1.786   0.240  1.00  0.00     0.196 C 
HETATM   38  C21 UNL     1       5.197  -0.433  -0.294  1.00  0.00     0.214 C 
HETATM   39  C22 UNL     1       4.778   0.460   0.883  1.00  0.00     0.207 C 
BRANCH  37  40
HETATM   40  O10 UNL     1       3.991  -2.432  -0.655  1.00  0.00    -0.363 OA
ATOM     41  H10 UNL     1       4.468  -2.538  -1.470  1.00  0.00     0.213 HD
ENDBRANCH  37  40
BRANCH  37  42
HETATM   42  C18 UNL     1       6.044  -2.679   0.433  1.00  0.00     0.043 C 
HETATM   43  C19 UNL     1       7.035  -2.186   1.436  1.00  0.00     0.015 C 
HETATM   44  C20 UNL     1       6.690  -3.005  -0.905  1.00  0.00     0.015 C 
ENDBRANCH  37  42
BRANCH  38  45
HETATM   45  O11 UNL     1       6.505  -0.253  -0.652  1.00  0.00    -0.387 OA
ATOM     46  H11 UNL     1       6.720   0.608  -0.992  1.00  0.00     0.210 HD
ENDBRANCH  38  45
BRANCH  39  47
HETATM   47  O12 UNL     1       4.427   1.727   0.478  1.00  0.00    -0.388 OA
ATOM     48  H12 UNL     1       5.175   2.228   0.175  1.00  0.00     0.210 HD
ENDBRANCH  39  47
ENDBRANCH  34  35
ENDBRANCH  18  34
BRANCH  19  49
HETATM   49  O13 UNL     1       0.601  -1.254  -0.992  1.00  0.00    -0.390 OA
ATOM     50  H13 UNL     1       1.518  -1.441  -1.156  1.00  0.00     0.210 HD
ENDBRANCH  19  49
ENDBRANCH  12  13
ENDBRANCH   7  12
BRANCH  11  51
HETATM   51  O16 UNL     1      -3.977  -4.721   2.500  1.00  0.00    -0.390 OA
ATOM     52  H16 UNL     1      -4.863  -4.565   2.805  1.00  0.00     0.210 HD
ENDBRANCH  11  51
ENDBRANCH   4   5
ENDBRANCH   1   4
TORSDOF 17
