REMARK  17 active torsions:
REMARK  status: ('A' for Active; 'I' for Inactive)
REMARK    1  A    between atoms: O1_2  and  C2_3 
REMARK    2  A    between atoms: C4_5  and  O2_6 
REMARK    3  A    between atoms: C5_8  and  O3_9 
REMARK    4  A    between atoms: C7_13  and  O5_14 
REMARK    5  A    between atoms: O5_14  and  C8_15 
REMARK    6  A    between atoms: C8_15  and  O6_16 
REMARK    7  A    between atoms: C8_15  and  C9_18 
REMARK    8  A    between atoms: C10_19  and  C11_20 
REMARK    9  A    between atoms: C12_22  and  O8_23 
REMARK   10  A    between atoms: O8_23  and  C13_24 
REMARK   11  A    between atoms: C15_27  and  O10_28 
REMARK   12  A    between atoms: C16_30  and  O11_31 
REMARK   13  A    between atoms: C17_33  and  O12_34 
REMARK   14  A    between atoms: O12_34  and  C18_35 
REMARK   15  A    between atoms: C21_39  and  O14_40 
REMARK   16  A    between atoms: C22_42  and  O15_43 
REMARK   17  A    between atoms: C23_45  and  O16_46 
ROOT
HETATM    1  C9  UNL     1       1.934   0.990   1.646  1.00  0.00    -0.005 C 
HETATM    2  C10 UNL     1       0.922   0.088   1.674  1.00  0.00     0.042 C 
HETATM    3  C12 UNL     1      -0.424   0.584   1.948  1.00  0.00     0.301 C 
HETATM    4  O17 UNL     1      -0.428   1.426   3.081  1.00  0.00    -0.351 OA
HETATM    5  C24 UNL     1       0.593   2.318   3.144  1.00  0.00     0.129 C 
HETATM    6  C25 UNL     1       1.402   2.174   4.413  1.00  0.00     0.040 C 
HETATM    7  C26 UNL     1       1.414   2.360   1.908  1.00  0.00     0.045 C 
HETATM    8  C27 UNL     1       2.502   3.388   2.032  1.00  0.00     0.017 C 
ENDROOT
BRANCH   3   9
HETATM    9  O8  UNL     1      -1.421  -0.320   2.095  1.00  0.00    -0.324 OA
BRANCH   9  10
HETATM   10  C13 UNL     1      -2.535  -0.044   1.303  1.00  0.00     0.294 C 
HETATM   11  O9  UNL     1      -3.507   0.435   2.236  1.00  0.00    -0.356 OA
HETATM   12  C14 UNL     1      -3.608  -0.522   3.249  1.00  0.00     0.205 C 
HETATM   13  C15 UNL     1      -4.291  -1.773   2.719  1.00  0.00     0.173 C 
HETATM   14  C16 UNL     1      -3.476  -2.303   1.577  1.00  0.00     0.182 C 
HETATM   15  C17 UNL     1      -3.112  -1.223   0.615  1.00  0.00     0.211 C 
BRANCH  13  16
HETATM   16  O10 UNL     1      -5.619  -1.560   2.445  1.00  0.00    -0.391 OA
ATOM     17  H10 UNL     1      -6.046  -2.342   2.114  1.00  0.00     0.210 HD
ENDBRANCH  13  16
BRANCH  14  18
HETATM   18  O11 UNL     1      -4.118  -3.380   0.941  1.00  0.00    -0.390 OA
ATOM     19  H11 UNL     1      -3.602  -3.716   0.218  1.00  0.00     0.210 HD
ENDBRANCH  14  18
BRANCH  15  20
HETATM   20  O12 UNL     1      -4.239  -0.811  -0.105  1.00  0.00    -0.346 OA
BRANCH  20  21
HETATM   21  C18 UNL     1      -4.077  -0.916  -1.488  1.00  0.00     0.292 C 
HETATM   22  O13 UNL     1      -4.908  -1.787  -2.117  1.00  0.00    -0.351 OA
HETATM   23  C19 UNL     1      -6.219  -1.343  -2.229  1.00  0.00     0.152 C 
HETATM   24  C20 UNL     1      -6.887  -1.190  -0.884  1.00  0.00     0.042 C 
HETATM   25  C21 UNL     1      -6.352  -0.036  -2.977  1.00  0.00     0.178 C 
HETATM   26  C22 UNL     1      -4.966   0.447  -3.347  1.00  0.00     0.183 C 
HETATM   27  C23 UNL     1      -4.032   0.417  -2.166  1.00  0.00     0.204 C 
BRANCH  25  28
HETATM   28  O14 UNL     1      -7.155  -0.130  -4.104  1.00  0.00    -0.390 OA
ATOM     29  H14 UNL     1      -7.239   0.691  -4.574  1.00  0.00     0.210 HD
ENDBRANCH  25  28
BRANCH  26  30
HETATM   30  O15 UNL     1      -5.123   1.786  -3.784  1.00  0.00    -0.390 OA
ATOM     31  H15 UNL     1      -4.253   2.089  -4.016  1.00  0.00     0.210 HD
ENDBRANCH  26  30
BRANCH  27  32
HETATM   32  O16 UNL     1      -2.751   0.720  -2.669  1.00  0.00    -0.388 OA
ATOM     33  H16 UNL     1      -2.722   1.566  -3.099  1.00  0.00     0.210 HD
ENDBRANCH  27  32
ENDBRANCH  20  21
ENDBRANCH  15  20
ENDBRANCH   9  10
ENDBRANCH   3   9
BRANCH   2  34
HETATM   34  C11 UNL     1       1.171  -1.307   1.456  1.00  0.00     0.271 C 
HETATM   35  O7  UNL     1       0.217  -2.133   1.489  1.00  0.00    -0.302 OA
ENDBRANCH   2  34
BRANCH   1  36
HETATM   36  C8  UNL     1       3.309   0.639   1.403  1.00  0.00     0.292 C 
BRANCH  36  37
HETATM   37  O5  UNL     1       3.854   1.275   0.273  1.00  0.00    -0.325 OA
BRANCH  37  38
HETATM   38  C7  UNL     1       4.357   0.401  -0.653  1.00  0.00     0.292 C 
HETATM   39  C2  UNL     1       5.836   0.670  -0.808  1.00  0.00     0.178 C 
HETATM   40  C3  UNL     1       6.293   0.386  -2.229  1.00  0.00     0.071 C 
HETATM   41  C4  UNL     1       6.016  -1.070  -2.535  1.00  0.00     0.151 C 
HETATM   42  C5  UNL     1       4.743  -1.172  -3.313  1.00  0.00     0.170 C 
HETATM   43  C6  UNL     1       3.541  -0.683  -2.534  1.00  0.00     0.205 C 
HETATM   44  O4  UNL     1       3.782   0.532  -1.910  1.00  0.00    -0.356 OA
BRANCH  39  45
HETATM   45  O1  UNL     1       6.625  -0.088   0.038  1.00  0.00    -0.386 OA
HETATM   46  C1  UNL     1       7.389   0.686   0.886  1.00  0.00     0.202 C 
ENDBRANCH  39  45
BRANCH  41  47
HETATM   47  O2  UNL     1       7.054  -1.546  -3.322  1.00  0.00    -0.393 OA
ATOM     48  H2  UNL     1       6.880  -2.460  -3.514  1.00  0.00     0.210 HD
ENDBRANCH  41  47
BRANCH  42  49
HETATM   49  O3  UNL     1       4.516  -2.541  -3.578  1.00  0.00    -0.391 OA
ATOM     50  H3  UNL     1       3.707  -2.606  -4.072  1.00  0.00     0.210 HD
ENDBRANCH  42  49
ENDBRANCH  37  38
ENDBRANCH  36  37
BRANCH  36  51
HETATM   51  O6  UNL     1       4.133   0.901   2.533  1.00  0.00    -0.367 OA
ATOM     52  H6  UNL     1       3.765   0.471   3.296  1.00  0.00     0.213 HD
ENDBRANCH  36  51
ENDBRANCH   1  36
TORSDOF 17
