REMARK  17 active torsions:
REMARK  status: ('A' for Active; 'I' for Inactive)
REMARK    1  A    between atoms: S1_2  and  C2_3 
REMARK    2  A    between atoms: C5_6  and  O1_7 
REMARK    3  A    between atoms: O1_7  and  C6_8 
REMARK    4  A    between atoms: C7_10  and  O3_11 
REMARK    5  A    between atoms: O3_11  and  C8_12 
REMARK    6  A    between atoms: C10_15  and  O5_16 
REMARK    7  A    between atoms: O5_16  and  C11_17 
REMARK    8  A    between atoms: C14_21  and  O7_22 
REMARK    9  A    between atoms: C15_24  and  O8_25 
REMARK   10  A    between atoms: C16_27  and  O9_28 
REMARK   11  A    between atoms: C17_30  and  O10_31 
REMARK   12  A    between atoms: O10_31  and  C18_32 
REMARK   13  A    between atoms: C21_36  and  O12_37 
REMARK   14  A    between atoms: C22_39  and  O13_40 
REMARK   15  A    between atoms: C23_42  and  N1_43 
REMARK   16  A    between atoms: C24_47  and  N2_48 
REMARK   17  A    between atoms: C26_53  and  N3_54 
ROOT
HETATM    1  C8  UNL     1       0.270   0.793   0.165  1.00  0.00     0.294 C 
HETATM    2  O4  UNL     1       0.527   2.114  -0.316  1.00  0.00    -0.356 OA
HETATM    3  C9  UNL     1       0.040   2.097  -1.622  1.00  0.00     0.205 C 
HETATM    4  C10 UNL     1      -1.370   1.536  -1.325  1.00  0.00     0.182 C 
HETATM    5  C17 UNL     1      -0.966   0.334  -0.530  1.00  0.00     0.211 C 
ENDROOT
BRANCH   1   6
HETATM    6  O3  UNL     1       1.404   0.079  -0.169  1.00  0.00    -0.327 OA
BRANCH   6   7
HETATM    7  C7  UNL     1       2.158  -0.221   0.963  1.00  0.00     0.296 C 
HETATM    8  O2  UNL     1       3.401   0.390   0.844  1.00  0.00    -0.327 OA
HETATM    9  C6  UNL     1       4.064   0.305   2.058  1.00  0.00     0.293 C 
HETATM   10  C26 UNL     1       3.421  -0.546   3.093  1.00  0.00     0.240 C 
HETATM   11  C25 UNL     1       2.890  -1.857   2.570  1.00  0.00     0.075 C 
HETATM   12  C24 UNL     1       2.427  -1.701   1.110  1.00  0.00     0.240 C 
BRANCH   9  13
HETATM   13  O1  UNL     1       5.421   0.019   1.882  1.00  0.00    -0.353 OA
BRANCH  13  14
HETATM   14  C5  UNL     1       6.278   1.034   2.208  1.00  0.00     0.138 C 
HETATM   15  C2  UNL     1       7.173   1.378   1.024  1.00  0.00     0.076 C 
HETATM   16  C3  UNL     1       8.333   0.695   1.715  1.00  0.00     0.020 C 
HETATM   17  C4  UNL     1       7.506   0.663   2.981  1.00  0.00     0.034 C 
BRANCH  15  18
HETATM   18  S1  UNL     1       6.712   0.486  -0.475  1.00  0.00    -0.166 SA
HETATM   19  C1  UNL     1       7.983   0.534  -1.732  1.00  0.00     0.090 C 
ENDBRANCH  15  18
ENDBRANCH  13  14
ENDBRANCH   9  13
BRANCH  10  20
HETATM   20  N3  UNL     1       4.402  -0.819   4.136  1.00  0.00    -0.070 N 
ATOM     21  H33 UNL     1       5.261  -1.229   3.769  1.00  0.00     0.274 HD
ATOM     22  H32 UNL     1       4.809   0.032   4.525  1.00  0.00     0.274 HD
ATOM     23  H31 UNL     1       3.961  -1.403   4.846  1.00  0.00     0.274 HD
ENDBRANCH  10  20
BRANCH  12  24
HETATM   24  N2  UNL     1       3.556  -2.044   0.282  1.00  0.00    -0.070 N 
ATOM     25  H23 UNL     1       3.428  -1.764  -0.690  1.00  0.00     0.274 HD
ATOM     26  H22 UNL     1       4.378  -1.474   0.484  1.00  0.00     0.274 HD
ATOM     27  H21 UNL     1       3.738  -3.043   0.381  1.00  0.00     0.274 HD
ENDBRANCH  12  24
ENDBRANCH   6   7
ENDBRANCH   1   6
BRANCH   5  28
HETATM   28  O10 UNL     1      -1.919  -0.248   0.234  1.00  0.00    -0.346 OA
BRANCH  28  29
HETATM   29  C18 UNL     1      -2.220  -1.555  -0.010  1.00  0.00     0.294 C 
HETATM   30  O11 UNL     1      -3.588  -1.636  -0.251  1.00  0.00    -0.351 OA
HETATM   31  C19 UNL     1      -4.045  -2.935  -0.358  1.00  0.00     0.152 C 
HETATM   32  C20 UNL     1      -5.541  -2.894  -0.547  1.00  0.00     0.042 C 
HETATM   33  C21 UNL     1      -3.763  -3.771   0.854  1.00  0.00     0.177 C 
HETATM   34  C22 UNL     1      -2.292  -3.780   1.106  1.00  0.00     0.184 C 
HETATM   35  C23 UNL     1      -1.840  -2.341   1.236  1.00  0.00     0.269 C 
BRANCH  33  36
HETATM   36  O12 UNL     1      -4.265  -5.062   0.594  1.00  0.00    -0.390 OA
ATOM     37  H12 UNL     1      -4.086  -5.592   1.362  1.00  0.00     0.210 HD
ENDBRANCH  33  36
BRANCH  34  38
HETATM   38  O13 UNL     1      -1.947  -4.439   2.284  1.00  0.00    -0.391 OA
ATOM     39  H13 UNL     1      -1.011  -4.445   2.444  1.00  0.00     0.210 HD
ENDBRANCH  34  38
BRANCH  35  40
HETATM   40  N1  UNL     1      -2.352  -1.701   2.435  1.00  0.00    -0.068 N 
ATOM     41  H13 UNL     1      -2.052  -0.728   2.499  1.00  0.00     0.275 HD
ATOM     42  H12 UNL     1      -3.359  -1.550   2.379  1.00  0.00     0.275 HD
ATOM     43  H11 UNL     1      -2.097  -2.228   3.270  1.00  0.00     0.275 HD
ENDBRANCH  35  40
ENDBRANCH  28  29
ENDBRANCH   5  28
BRANCH   4  44
HETATM   44  O5  UNL     1      -2.014   1.191  -2.470  1.00  0.00    -0.348 OA
BRANCH  44  45
HETATM   45  C11 UNL     1      -3.240   1.801  -2.666  1.00  0.00     0.292 C 
HETATM   46  O6  UNL     1      -3.099   2.668  -3.758  1.00  0.00    -0.351 OA
HETATM   47  C12 UNL     1      -4.195   3.398  -4.078  1.00  0.00     0.152 C 
HETATM   48  C13 UNL     1      -3.805   4.863  -4.079  1.00  0.00     0.042 C 
HETATM   49  C14 UNL     1      -5.422   3.149  -3.265  1.00  0.00     0.178 C 
HETATM   50  C15 UNL     1      -5.633   1.736  -2.853  1.00  0.00     0.183 C 
HETATM   51  C16 UNL     1      -4.363   0.890  -3.040  1.00  0.00     0.204 C 
BRANCH  49  52
HETATM   52  O7  UNL     1      -5.354   3.945  -2.122  1.00  0.00    -0.390 OA
ATOM     53  H7  UNL     1      -6.135   3.787  -1.605  1.00  0.00     0.210 HD
ENDBRANCH  49  52
BRANCH  50  54
HETATM   54  O8  UNL     1      -5.908   1.661  -1.478  1.00  0.00    -0.390 OA
ATOM     55  H8  UNL     1      -6.043   0.758  -1.215  1.00  0.00     0.210 HD
ENDBRANCH  50  54
BRANCH  51  56
HETATM   56  O9  UNL     1      -4.300   0.597  -4.412  1.00  0.00    -0.388 OA
ATOM     57  H9  UNL     1      -5.014   0.018  -4.650  1.00  0.00     0.210 HD
ENDBRANCH  51  56
ENDBRANCH  44  45
ENDBRANCH   4  44
TORSDOF 17
