REMARK  18 active torsions:
REMARK  status: ('A' for Active; 'I' for Inactive)
REMARK    1  A    between atoms: C2_2  and  C4_4 
REMARK    2  A    between atoms: C4_4  and  O1_6 
REMARK    3  A    between atoms: O1_6  and  C6_7 
REMARK    4  A    between atoms: C7_9  and  C8_10 
REMARK    5  A    between atoms: C8_10  and  O3_11 
REMARK    6  A    between atoms: C9_13  and  O4_14 
REMARK    7  A    between atoms: C10_16  and  O5_17 
REMARK    8  A    between atoms: O5_17  and  C11_18 
REMARK    9  A    between atoms: C12_19  and  O6_20 
REMARK   10  A    between atoms: C15_25  and  O8_26 
REMARK   11  A    between atoms: O8_26  and  C16_27 
REMARK   12  A    between atoms: C19_31  and  O10_32 
REMARK   13  A    between atoms: C20_34  and  O11_35 
REMARK   14  A    between atoms: O11_35  and  C21_36 
REMARK   15  A    between atoms: C24_40  and  O13_41 
REMARK   16  A    between atoms: C25_43  and  O14_44 
REMARK   17  A    between atoms: C26_46  and  O15_47 
REMARK   18  A    between atoms: C27_49  and  O16_50 
ROOT
HETATM    1  C11 UNL     1      -1.711  -0.982  -1.749  1.00  0.00     0.212 C 
HETATM    2  C12 UNL     1      -2.453  -2.167  -2.412  1.00  0.00     0.176 C 
HETATM    3  C13 UNL     1      -2.815  -3.059  -1.287  1.00  0.00     0.031 C 
HETATM    4  C14 UNL     1      -2.037  -3.104  -0.227  1.00  0.00     0.137 C 
HETATM    5  O7  UNL     1      -0.858  -2.349  -0.082  1.00  0.00    -0.330 OA
HETATM    6  C15 UNL     1      -0.431  -1.502  -1.151  1.00  0.00     0.300 C 
ENDROOT
BRANCH   6   7
HETATM    7  O8  UNL     1       0.546  -0.634  -0.874  1.00  0.00    -0.326 OA
BRANCH   7   8
HETATM    8  C16 UNL     1       1.775  -0.817  -1.426  1.00  0.00     0.294 C 
HETATM    9  O9  UNL     1       2.301   0.157  -2.217  1.00  0.00    -0.351 OA
HETATM   10  C17 UNL     1       3.241  -0.407  -3.112  1.00  0.00     0.152 C 
HETATM   11  C18 UNL     1       4.129   0.731  -3.568  1.00  0.00     0.042 C 
HETATM   12  C19 UNL     1       4.117  -1.364  -2.290  1.00  0.00     0.178 C 
HETATM   13  C20 UNL     1       4.167  -0.813  -0.899  1.00  0.00     0.189 C 
HETATM   14  C27 UNL     1       2.769  -1.105  -0.317  1.00  0.00     0.205 C 
BRANCH  12  15
HETATM   15  O10 UNL     1       5.322  -1.484  -2.924  1.00  0.00    -0.390 OA
ATOM     16  H10 UNL     1       5.864  -2.076  -2.416  1.00  0.00     0.210 HD
ENDBRANCH  12  15
BRANCH  13  17
HETATM   17  O11 UNL     1       5.049  -1.416  -0.044  1.00  0.00    -0.348 OA
BRANCH  17  18
HETATM   18  C21 UNL     1       5.826  -0.545   0.690  1.00  0.00     0.292 C 
HETATM   19  O12 UNL     1       5.553  -0.600   2.056  1.00  0.00    -0.351 OA
HETATM   20  C22 UNL     1       5.791   0.670   2.572  1.00  0.00     0.152 C 
HETATM   21  C23 UNL     1       5.648   0.656   4.076  1.00  0.00     0.042 C 
HETATM   22  C24 UNL     1       7.099   1.249   2.109  1.00  0.00     0.178 C 
HETATM   23  C25 UNL     1       8.003   0.237   1.462  1.00  0.00     0.183 C 
HETATM   24  C26 UNL     1       7.300  -0.694   0.527  1.00  0.00     0.204 C 
BRANCH  22  25
HETATM   25  O13 UNL     1       6.912   2.337   1.256  1.00  0.00    -0.390 OA
ATOM     26  H13 UNL     1       7.738   2.703   0.963  1.00  0.00     0.210 HD
ENDBRANCH  22  25
BRANCH  23  27
HETATM   27  O14 UNL     1       8.765  -0.438   2.417  1.00  0.00    -0.390 OA
ATOM     28  H14 UNL     1       9.336  -1.078   2.008  1.00  0.00     0.210 HD
ENDBRANCH  23  27
BRANCH  24  29
HETATM   29  O15 UNL     1       7.636  -2.003   0.938  1.00  0.00    -0.388 OA
ATOM     30  H15 UNL     1       8.576  -2.098   0.834  1.00  0.00     0.210 HD
ENDBRANCH  24  29
ENDBRANCH  17  18
ENDBRANCH  13  17
BRANCH  14  31
HETATM   31  O16 UNL     1       2.532  -0.303   0.792  1.00  0.00    -0.388 OA
ATOM     32  H16 UNL     1       3.155  -0.483   1.487  1.00  0.00     0.210 HD
ENDBRANCH  14  31
ENDBRANCH   7   8
ENDBRANCH   6   7
BRANCH   1  33
HETATM   33  O5  UNL     1      -2.517  -0.340  -0.863  1.00  0.00    -0.345 OA
BRANCH  33  34
HETATM   34  C10 UNL     1      -2.873   0.958  -1.173  1.00  0.00     0.297 C 
HETATM   35  C9  UNL     1      -2.441   1.949  -0.103  1.00  0.00     0.204 C 
HETATM   36  C7  UNL     1      -3.072   1.393   1.176  1.00  0.00     0.184 C 
HETATM   37  O2  UNL     1      -4.243   0.755   1.014  1.00  0.00    -0.329 OA
HETATM   38  C6  UNL     1      -4.921   0.730  -0.143  1.00  0.00     0.416 C 
HETATM   39  O17 UNL     1      -4.271   1.071  -1.316  1.00  0.00    -0.305 OA
BRANCH  35  40
HETATM   40  O4  UNL     1      -1.104   2.168  -0.020  1.00  0.00    -0.388 OA
ATOM     41  H4  UNL     1      -0.712   2.513  -0.814  1.00  0.00     0.210 HD
ENDBRANCH  35  40
BRANCH  36  42
HETATM   42  C8  UNL     1      -3.104   2.541   2.181  1.00  0.00     0.199 C 
BRANCH  42  43
HETATM   43  O3  UNL     1      -4.016   3.529   1.826  1.00  0.00    -0.398 OA
ATOM     44  H3  UNL     1      -4.036   4.244   2.452  1.00  0.00     0.209 HD
ENDBRANCH  42  43
ENDBRANCH  36  42
BRANCH  38  45
HETATM   45  O1  UNL     1      -6.082   1.506  -0.091  1.00  0.00    -0.334 OA
BRANCH  45  46
HETATM   46  C4  UNL     1      -7.247   0.823  -0.311  1.00  0.00     0.126 C 
HETATM   47  C5  UNL     1      -8.001   1.286  -1.543  1.00  0.00     0.040 C 
BRANCH  46  48
HETATM   48  C2  UNL     1      -8.148   0.777   0.905  1.00  0.00     0.006 C 
HETATM   49  C1  UNL     1      -9.266  -0.211   0.574  1.00  0.00     0.012 C 
HETATM   50  C3  UNL     1      -7.360   0.187   2.044  1.00  0.00     0.012 C 
ENDBRANCH  46  48
ENDBRANCH  45  46
ENDBRANCH  38  45
ENDBRANCH  33  34
ENDBRANCH   1  33
BRANCH   2  51
HETATM   51  O6  UNL     1      -1.511  -2.843  -3.177  1.00  0.00    -0.389 OA
ATOM     52  H6  UNL     1      -1.967  -3.571  -3.584  1.00  0.00     0.210 HD
ENDBRANCH   2  51
TORSDOF 18
