REMARK  8 active torsions:
REMARK  status: ('A' for Active; 'I' for Inactive)
REMARK    1  A    between atoms: O1_2  and  C2_3 
REMARK    2  A    between atoms: C6_7  and  C7_8 
REMARK    3  A    between atoms: C7_8  and  N1_9 
REMARK    4  A    between atoms: N1_9  and  N2_10 
REMARK    5  A    between atoms: N2_10  and  C8_12 
REMARK    6  A    between atoms: N4_19  and  C13_21 
REMARK    7  A    between atoms: C16_24  and  O2_25 
REMARK    8  A    between atoms: O2_25  and  C17_26 
ROOT
HETATM    1  C8  UNL     1      -0.917   0.717  -0.784  1.00  0.00     0.708 A 
HETATM    2  N3  UNL     1      -0.652   1.947  -0.297  1.00  0.00    -0.199 N 
ATOM      3  H3  UNL     1      -1.417   2.613  -0.188  1.00  0.00     0.183 HD
HETATM    4  C9  UNL     1       0.582   2.315   0.046  1.00  0.00     0.116 A 
HETATM    5  C10 UNL     1       1.620   1.392  -0.106  1.00  0.00    -0.001 A 
HETATM    6  C11 UNL     1       2.978   1.848   0.289  1.00  0.00     0.054 C 
HETATM    7  C12 UNL     1       1.357   0.143  -0.598  1.00  0.00     0.129 A 
HETATM    8  N4  UNL     1       2.190  -0.754  -0.776  1.00  0.00    -0.342 N 
ATOM      9  H4  UNL     1       1.701  -1.566  -1.152  1.00  0.00     0.167 HD
HETATM   10  N5  UNL     1       0.051  -0.174  -0.936  1.00  0.00    -0.174 N 
ATOM     11  H5  UNL     1      -0.166  -1.100  -1.304  1.00  0.00     0.186 HD
ENDROOT
BRANCH   8  12
HETATM   12  C13 UNL     1       3.508  -1.074  -0.663  1.00  0.00     0.033 A 
HETATM   13  C14 UNL     1       4.506  -0.630  -1.543  1.00  0.00     0.032 A 
HETATM   14  C15 UNL     1       5.818  -1.002  -1.382  1.00  0.00     0.039 A 
HETATM   15  C16 UNL     1       6.234  -1.824  -0.359  1.00  0.00     0.078 A 
HETATM   16  C18 UNL     1       5.272  -2.272   0.518  1.00  0.00     0.039 A 
HETATM   17  C19 UNL     1       3.953  -1.912   0.375  1.00  0.00     0.032 A 
BRANCH  15  18
HETATM   18  O2  UNL     1       7.552  -2.204  -0.187  1.00  0.00    -0.255 OA
BRANCH  18  19
HETATM   19  C17 UNL     1       8.451  -1.434   0.612  1.00  0.00     0.530 C 
HETATM   20  F1  UNL     1       8.020  -1.332   1.907  1.00  0.00    -0.144 F 
HETATM   21  F2  UNL     1       9.728  -1.941   0.522  1.00  0.00    -0.144 F 
HETATM   22  F3  UNL     1       8.472  -0.148   0.080  1.00  0.00    -0.144 F 
ENDBRANCH  18  19
ENDBRANCH  15  18
ENDBRANCH   8  12
BRANCH   1  23
HETATM   23  N2  UNL     1      -2.149   0.394  -1.110  1.00  0.00    -0.065 N 
ATOM     24  H2  UNL     1      -2.327  -0.542  -1.475  1.00  0.00     0.221 HD
BRANCH  23  25
HETATM   25  N1  UNL     1      -3.133   1.198  -0.990  1.00  0.00    -0.323 NA
BRANCH  25  26
HETATM   26  C7  UNL     1      -4.083   1.897  -0.851  1.00  0.00     0.221 C 
BRANCH  26  27
HETATM   27  C6  UNL     1      -5.326   1.362  -0.235  1.00  0.00    -0.003 A 
HETATM   28  C5  UNL     1      -6.453   2.127  -0.048  1.00  0.00     0.014 A 
HETATM   29  C4  UNL     1      -7.594   1.595   0.528  1.00  0.00     0.004 A 
HETATM   30  C3  UNL     1      -7.635   0.280   0.931  1.00  0.00     0.037 A 
HETATM   31  C2  UNL     1      -6.517  -0.495   0.751  1.00  0.00     0.069 A 
HETATM   32  C20 UNL     1      -5.386   0.035   0.180  1.00  0.00     0.050 A 
BRANCH  31  33
HETATM   33  O1  UNL     1      -6.525  -1.817   1.144  1.00  0.00    -0.356 OA
HETATM   34  C1  UNL     1      -5.365  -2.594   0.950  1.00  0.00     0.210 C 
ENDBRANCH  31  33
ENDBRANCH  26  27
ENDBRANCH  25  26
ENDBRANCH  23  25
ENDBRANCH   1  23
TORSDOF 8
