REMARK  6 active torsions:
REMARK  status: ('A' for Active; 'I' for Inactive)
REMARK    1  A    between atoms: O1_2  and  C2_3 
REMARK    2  A    between atoms: C7_8  and  N1_9 
REMARK       I    between atoms: N1_9  and  C8_11 
REMARK       I    between atoms: C8_11  and  N2_13 
REMARK    3  A    between atoms: N2_13  and  C9_15 
REMARK    4  A    between atoms: C9_15  and  N3_16 
REMARK    5  A    between atoms: C9_15  and  C14_26 
REMARK       I    between atoms: N3_16  and  C10_18 
REMARK    6  A    between atoms: C10_18  and  C11_20 
ROOT
HETATM    1  C9  UNL     1       1.840  -1.634  -0.457  1.00  0.00     0.243 C 
ENDROOT
BRANCH   1   2
HETATM    2  N2  UNL     1       0.705  -0.823  -0.802  1.00  0.00    -0.317 N 
HETATM    3  C8  UNL     1      -0.488  -0.759   0.030  1.00  0.00     0.322 C 
HETATM    4  N1  UNL     1      -1.575   0.045  -0.342  1.00  0.00    -0.306 N 
HETATM    5  O2  UNL     1      -0.414  -1.475   1.056  1.00  0.00    -0.247 OA
ATOM      6  H1  UNL     1      -1.483   0.571  -1.211  1.00  0.00     0.171 HD
ATOM      7  H2  UNL     1       0.736  -0.273  -1.660  1.00  0.00     0.166 HD
BRANCH   4   8
HETATM    8  C7  UNL     1      -2.778   0.196   0.366  1.00  0.00     0.069 A 
HETATM    9  C2  UNL     1      -3.756   1.053  -0.170  1.00  0.00     0.095 A 
HETATM   10  C3  UNL     1      -4.971   1.277   0.435  1.00  0.00     0.039 A 
HETATM   11  C4  UNL     1      -5.284   0.659   1.615  1.00  0.00     0.003 A 
HETATM   12  C5  UNL     1      -4.349  -0.181   2.160  1.00  0.00     0.002 A 
HETATM   13  C6  UNL     1      -3.107  -0.417   1.551  1.00  0.00     0.032 A 
BRANCH   9  14
HETATM   14  O1  UNL     1      -3.436   1.683  -1.376  1.00  0.00    -0.354 OA
HETATM   15  C1  UNL     1      -4.401   2.549  -1.936  1.00  0.00     0.210 C 
ENDBRANCH   9  14
ENDBRANCH   4   8
ENDBRANCH   1   2
BRANCH   1  16
HETATM   16  N3  UNL     1       3.054  -0.854  -0.271  1.00  0.00    -0.330 N 
HETATM   17  C10 UNL     1       3.756  -0.830   0.963  1.00  0.00     0.279 C 
HETATM   18  O3  UNL     1       3.383  -1.473   1.969  1.00  0.00    -0.265 OA
ATOM     19  H3  UNL     1       3.413  -0.306  -1.053  1.00  0.00     0.165 HD
BRANCH  17  20
HETATM   20  C11 UNL     1       4.959  -0.023   1.054  1.00  0.00     0.167 A 
HETATM   21  C12 UNL     1       5.527   0.749   0.063  1.00  0.00     0.064 A 
HETATM   22  C13 UNL     1       6.644   1.319   0.622  1.00  0.00     0.117 A 
HETATM   23  N4  UNL     1       6.720   0.883   1.913  1.00  0.00    -0.272 N 
HETATM   24  O4  UNL     1       5.704   0.091   2.129  1.00  0.00    -0.233 OA
ATOM     25  H4  UNL     1       7.442   1.132   2.589  1.00  0.00     0.194 HD
ENDBRANCH  17  20
ENDBRANCH   1  16
BRANCH   1  26
HETATM   26  C14 UNL     1       2.049  -2.735  -1.486  1.00  0.00     0.226 C 
HETATM   27 CL1  UNL     1       3.432  -3.747  -1.092  1.00  0.00    -0.080 Cl
HETATM   28 CL2  UNL     1       2.279  -1.991  -3.063  1.00  0.00    -0.080 Cl
HETATM   29 CL3  UNL     1       0.589  -3.769  -1.435  1.00  0.00    -0.080 Cl
ENDBRANCH   1  26
TORSDOF 6
