REMARK  8 active torsions:
REMARK  status: ('A' for Active; 'I' for Inactive)
REMARK    1  A    between atoms: N1_1  and  C1_4 
REMARK    2  A    between atoms: C2_5  and  C3_6 
REMARK    3  A    between atoms: C3_6  and  C4_7 
REMARK    4  A    between atoms: N3_19  and  C11_20 
REMARK    5  A    between atoms: C11_20  and  C12_21 
REMARK    6  A    between atoms: C12_21  and  C13_22 
REMARK    7  A    between atoms: C12_21  and  C14_27 
REMARK    8  A    between atoms: C13_22  and  N4_23 
ROOT
HETATM    1  C1  UNL     1       0.727  -0.592   0.072  1.00  0.00     0.123 A 
HETATM    2  C2  UNL     1       1.710  -1.601  -0.013  1.00  0.00     0.008 A 
HETATM    3  C10 UNL     1       1.218  -2.436  -0.992  1.00  0.00     0.118 A 
HETATM    4  N2  UNL     1       0.053  -1.965  -1.444  1.00  0.00    -0.307 N 
ATOM      5  H2  UNL     1      -0.515  -2.399  -2.172  1.00  0.00     0.186 HD
HETATM    6  N3  UNL     1      -0.256  -0.834  -0.795  1.00  0.00    -0.276 N 
ENDROOT
BRANCH   6   7
HETATM    7  C11 UNL     1      -1.464  -0.068  -0.978  1.00  0.00     0.164 C 
BRANCH   7   8
HETATM    8  C12 UNL     1      -2.682  -0.564  -0.312  1.00  0.00     0.099 C 
BRANCH   8   9
HETATM    9  C13 UNL     1      -2.712  -0.668   1.170  1.00  0.00     0.243 C 
BRANCH   9  10
HETATM   10  N4  UNL     1      -2.565   0.552   1.894  1.00  0.00    -0.079 N 
ATOM     11  H43 UNL     1      -1.711   1.026   1.600  1.00  0.00     0.274 HD
ATOM     12  H42 UNL     1      -3.266   1.224   1.582  1.00  0.00     0.274 HD
ATOM     13  H41 UNL     1      -2.586   0.481   2.911  1.00  0.00     0.274 HD
ENDBRANCH   9  10
ENDBRANCH   8   9
BRANCH   8  14
HETATM   14  C14 UNL     1      -3.778   0.421  -0.672  1.00  0.00     0.088 A 
HETATM   15  N5  UNL     1      -3.653   1.705  -0.232  1.00  0.00    -0.355 N 
HETATM   16  C15 UNL     1      -4.600   2.602  -0.529  1.00  0.00     0.090 A 
ATOM     17  H5  UNL     1      -2.841   1.981   0.321  1.00  0.00     0.166 HD
HETATM   18  C16 UNL     1      -5.682   2.199  -1.276  1.00  0.00     0.034 A 
HETATM   19  C17 UNL     1      -5.788   0.900  -1.709  1.00  0.00     0.090 A 
HETATM   20  N6  UNL     1      -4.815   0.031  -1.389  1.00  0.00    -0.355 N 
ATOM     21  H6  UNL     1      -4.878  -0.938  -1.703  1.00  0.00     0.166 HD
ENDBRANCH   8  14
ENDBRANCH   7   8
ENDBRANCH   6   7
BRANCH   1  22
HETATM   22  N1  UNL     1       0.849   0.402   0.865  1.00  0.00    -0.384 N 
ATOM     23  H12 UNL     1       1.601   0.587   1.528  1.00  0.00     0.157 HD
ATOM     24  H11 UNL     1       0.139   1.131   0.926  1.00  0.00     0.157 HD
ENDBRANCH   1  22
BRANCH   2  25
HETATM   25  C3  UNL     1       2.928  -1.659   0.811  1.00  0.00     0.084 C 
BRANCH  25  26
HETATM   26  C4  UNL     1       3.984  -0.704   0.457  1.00  0.00    -0.030 A 
HETATM   27  C5  UNL     1       4.210   0.436   1.238  1.00  0.00     0.034 A 
HETATM   28  C6  UNL     1       5.186   1.360   0.953  1.00  0.00     0.056 A 
HETATM   29 CL1  UNL     1       5.446   2.782   1.952  1.00  0.00    -0.083 Cl
HETATM   30  C7  UNL     1       6.005   1.195  -0.143  1.00  0.00     0.057 A 
HETATM   31 CL2  UNL     1       7.257   2.379  -0.510  1.00  0.00    -0.082 Cl
HETATM   32  C8  UNL     1       5.809   0.084  -0.931  1.00  0.00     0.050 A 
HETATM   33  C9  UNL     1       4.810  -0.853  -0.633  1.00  0.00     0.042 A 
HETATM   34 CL3  UNL     1       4.628  -2.254  -1.683  1.00  0.00    -0.084 Cl
ENDBRANCH  25  26
ENDBRANCH   2  25
TORSDOF 8
