REMARK  7 active torsions:
REMARK  status: ('A' for Active; 'I' for Inactive)
REMARK    1  A    between atoms: N1_2  and  C2_5 
REMARK    2  A    between atoms: C2_5  and  C3_6 
REMARK    3  A    between atoms: C3_6  and  N2_7 
REMARK    4  A    between atoms: N2_7  and  C4_9 
REMARK    5  A    between atoms: C7_15  and  C8_16 
REMARK    6  A    between atoms: C10_18  and  C11_19 
REMARK    7  A    between atoms: C13_25  and  O1_26 
ROOT
HETATM    1  C4  UNL     1       2.784  -0.910   0.760  1.00  0.00     0.117 A 
HETATM    2  C5  UNL     1       2.500  -1.763   1.833  1.00  0.00     0.137 A 
HETATM    3  N3  UNL     1       1.242  -2.115   2.125  1.00  0.00    -0.351 N 
ATOM      4  H3  UNL     1       1.061  -2.738   2.912  1.00  0.00     0.166 HD
HETATM    5  C6  UNL     1       0.190  -1.643   1.372  1.00  0.00     0.131 A 
HETATM    6 CL1  UNL     1      -1.424  -2.199   1.783  1.00  0.00    -0.062 Cl
HETATM    7  C7  UNL     1       0.431  -0.802   0.314  1.00  0.00     0.085 A 
HETATM    8  N6  UNL     1       1.742  -0.472   0.059  1.00  0.00    -0.338 N 
ATOM      9  H6  UNL     1       1.928   0.154  -0.724  1.00  0.00     0.167 HD
ENDROOT
BRANCH   7  10
HETATM   10  C8  UNL     1      -0.639  -0.340  -0.557  1.00  0.00     0.017 A 
HETATM   11  C9  UNL     1      -1.890   0.046  -0.052  1.00  0.00     0.031 A 
HETATM   12  C10 UNL     1      -2.947   0.438  -0.842  1.00  0.00     0.018 A 
HETATM   13  C15 UNL     1      -2.735   0.443  -2.215  1.00  0.00     0.048 A 
HETATM   14 CL2  UNL     1      -4.080   0.939  -3.216  1.00  0.00    -0.083 Cl
HETATM   15  C16 UNL     1      -1.535   0.076  -2.752  1.00  0.00     0.049 A 
HETATM   16  C17 UNL     1      -0.469  -0.324  -1.921  1.00  0.00     0.048 A 
HETATM   17 CL3  UNL     1       1.000  -0.861  -2.659  1.00  0.00    -0.083 Cl
BRANCH  12  18
HETATM   18  C11 UNL     1      -4.223   0.894  -0.295  1.00  0.00     0.094 A 
HETATM   19  N4  UNL     1      -4.746   2.148  -0.446  1.00  0.00    -0.297 N 
HETATM   20  N5  UNL     1      -5.922   2.246   0.139  1.00  0.00    -0.309 N 
ATOM     21  H4  UNL     1      -4.286   2.908  -0.946  1.00  0.00     0.187 HD
HETATM   22  C12 UNL     1      -6.229   1.066   0.699  1.00  0.00     0.146 A 
ATOM     23  H5  UNL     1      -6.505   3.083   0.162  1.00  0.00     0.186 HD
HETATM   24  C13 UNL     1      -5.170   0.215   0.432  1.00  0.00     0.114 A 
BRANCH  24  25
HETATM   25  O1  UNL     1      -5.108  -1.107   0.848  1.00  0.00    -0.352 OA
HETATM   26  C14 UNL     1      -6.113  -1.753   1.587  1.00  0.00     0.210 C 
ENDBRANCH  24  25
ENDBRANCH  12  18
ENDBRANCH   7  10
BRANCH   1  27
HETATM   27  N2  UNL     1       4.014  -0.611   0.522  1.00  0.00    -0.374 N 
ATOM     28  H2  UNL     1       4.707  -1.025   1.146  1.00  0.00     0.161 HD
BRANCH  27  29
HETATM   29  C3  UNL     1       4.519   0.228  -0.508  1.00  0.00     0.148 C 
BRANCH  29  30
HETATM   30  C2  UNL     1       5.106   1.522   0.062  1.00  0.00     0.251 C 
BRANCH  30  31
HETATM   31  N1  UNL     1       6.208   1.160   0.912  1.00  0.00    -0.077 N 
HETATM   32  C1  UNL     1       7.299   0.643   0.080  1.00  0.00     0.267 C 
ATOM     33  H12 UNL     1       5.935   0.506   1.646  1.00  0.00     0.276 HD
ATOM     34  H11 UNL     1       6.507   1.930   1.511  1.00  0.00     0.276 HD
ENDBRANCH  30  31
ENDBRANCH  29  30
ENDBRANCH  27  29
ENDBRANCH   1  27
TORSDOF 7
