REMARK  8 active torsions:
REMARK  status: ('A' for Active; 'I' for Inactive)
REMARK       I    between atoms: C1_2  and  N1_3 
REMARK    1  A    between atoms: C1_2  and  C4_9 
REMARK    2  A    between atoms: N1_3  and  C2_5 
REMARK    3  A    between atoms: C2_5  and  C3_6 
REMARK       I    between atoms: C4_9  and  N2_11 
REMARK    4  A    between atoms: N2_11  and  N3_13 
REMARK    5  A    between atoms: N3_13  and  N4_15 
REMARK    6  A    between atoms: C5_17  and  C6_18 
REMARK    7  A    between atoms: C9_21  and  C10_22 
REMARK    8  A    between atoms: N6_26  and  C12_27 
ROOT
HETATM    1  C6  UNL     1      -0.768  -1.746   0.351  1.00  0.00    -0.019 A 
HETATM    2  C7  UNL     1       0.269  -1.906   1.288  1.00  0.00     0.013 A 
HETATM    3  C8  UNL     1       1.440  -1.254   1.079  1.00  0.00     0.013 A 
HETATM    4  C9  UNL     1       1.687  -0.435   0.001  1.00  0.00    -0.023 A 
HETATM    5  C19 UNL     1       0.649  -0.290  -0.911  1.00  0.00     0.013 A 
HETATM    6  C20 UNL     1      -0.576  -0.941  -0.741  1.00  0.00     0.013 A 
ENDROOT
BRANCH   1   7
HETATM    7  C5  UNL     1      -2.021  -2.456   0.589  1.00  0.00     0.120 C 
HETATM    8  N4  UNL     1      -3.034  -2.543  -0.118  1.00  0.00    -0.297 N 
ATOM      9  H4  UNL     1      -3.733  -3.119   0.351  1.00  0.00     0.187 HD
BRANCH   8  10
HETATM   10  N3  UNL     1      -3.509  -2.126  -1.298  1.00  0.00    -0.240 N 
ATOM     11  H3  UNL     1      -2.928  -2.253  -2.127  1.00  0.00     0.208 HD
BRANCH  10  12
HETATM   12  N2  UNL     1      -4.764  -1.524  -1.451  1.00  0.00    -0.247 N 
HETATM   13  C4  UNL     1      -5.233  -0.660  -0.442  1.00  0.00     0.328 C 
HETATM   14  O2  UNL     1      -4.532  -0.437   0.567  1.00  0.00    -0.261 OA
ATOM     15  H2  UNL     1      -5.329  -1.708  -2.280  1.00  0.00     0.192 HD
BRANCH  13  16
HETATM   16  C1  UNL     1      -6.535  -0.038  -0.589  1.00  0.00     0.311 C 
HETATM   17  O1  UNL     1      -7.237  -0.261  -1.629  1.00  0.00    -0.262 OA
HETATM   18  N1  UNL     1      -7.023   0.815   0.425  1.00  0.00    -0.348 N 
ATOM     19  H1  UNL     1      -6.466   1.000   1.259  1.00  0.00     0.163 HD
BRANCH  18  20
HETATM   20  C2  UNL     1      -8.345   1.431   0.259  1.00  0.00     0.194 C 
BRANCH  20  21
HETATM   21  C3  UNL     1      -8.647   2.311   1.463  1.00  0.00     0.370 C 
HETATM   22  F1  UNL     1      -8.642   1.566   2.621  1.00  0.00    -0.213 F 
HETATM   23  F2  UNL     1      -7.710   3.327   1.502  1.00  0.00    -0.213 F 
ENDBRANCH  20  21
ENDBRANCH  18  20
ENDBRANCH  13  16
ENDBRANCH  10  12
ENDBRANCH   8  10
ENDBRANCH   1   7
BRANCH   4  24
HETATM   24  C10 UNL     1       2.967   0.234  -0.215  1.00  0.00     0.009 A 
HETATM   25  C11 UNL     1       3.140   1.465  -0.828  1.00  0.00     0.121 A 
HETATM   26  N5  UNL     1       4.449   1.755  -0.872  1.00  0.00    -0.304 N 
HETATM   27  N6  UNL     1       5.095   0.746  -0.308  1.00  0.00    -0.267 N 
ATOM     28  H5  UNL     1       4.869   2.597  -1.267  1.00  0.00     0.186 HD
HETATM   29  C18 UNL     1       4.233  -0.198   0.105  1.00  0.00     0.130 A 
BRANCH  27  30
HETATM   30  C12 UNL     1       6.536   0.714  -0.192  1.00  0.00     0.056 A 
HETATM   31  C13 UNL     1       7.312   0.719  -1.312  1.00  0.00     0.033 A 
HETATM   32  C14 UNL     1       8.675   0.683  -1.222  1.00  0.00     0.026 A 
HETATM   33  C15 UNL     1       9.263   0.642   0.022  1.00  0.00     0.034 A 
HETATM   34 CL1  UNL     1      11.016   0.593   0.143  1.00  0.00    -0.084 Cl
HETATM   35  C16 UNL     1       8.482   0.637   1.168  1.00  0.00     0.026 A 
HETATM   36  C17 UNL     1       7.109   0.674   1.049  1.00  0.00     0.033 A 
ENDBRANCH  27  30
ENDBRANCH   4  24
TORSDOF 8
