REMARK  2 active torsions:
REMARK  status: ('A' for Active; 'I' for Inactive)
REMARK    1  A    between atoms: N1_1  and  C1_4 
REMARK    2  A    between atoms: C4_9  and  N3_10 
ROOT
HETATM    1  C1  UNL     1       4.880  -0.593   1.032  1.00  0.00     0.169 A 
HETATM    2  N2  UNL     1       3.559  -0.660   1.242  1.00  0.00    -0.336 N 
ATOM      3  H2  UNL     1       3.215  -1.061   2.114  1.00  0.00     0.168 HD
HETATM    4  C2  UNL     1       2.680  -0.216   0.340  1.00  0.00     0.063 A 
HETATM    5  C3  UNL     1       1.312  -0.267   0.518  1.00  0.00     0.062 A 
HETATM    6  C4  UNL     1       0.451   0.207  -0.447  1.00  0.00     0.056 A 
HETATM    7  C12 UNL     1       0.985   0.736  -1.601  1.00  0.00     0.033 A 
HETATM    8  C13 UNL     1       2.347   0.808  -1.825  1.00  0.00     0.034 A 
HETATM    9  C14 UNL     1       3.175   0.324  -0.836  1.00  0.00     0.062 A 
HETATM   10  N4  UNL     1       4.505   0.402  -1.070  1.00  0.00    -0.318 N 
ATOM     11  H4  UNL     1       4.854   0.802  -1.941  1.00  0.00     0.169 HD
HETATM   12  C15 UNL     1       5.355  -0.052  -0.145  1.00  0.00     0.289 A 
HETATM   13  O4  UNL     1       6.605   0.028  -0.381  1.00  0.00    -0.264 OA
ENDROOT
BRANCH   6  14
HETATM   14  N3  UNL     1      -0.954   0.154  -0.263  1.00  0.00    -0.200 N 
HETATM   15  C5  UNL     1      -1.874  -0.866  -0.608  1.00  0.00     0.273 A 
HETATM   16  O1  UNL     1      -1.434  -1.926  -1.175  1.00  0.00    -0.266 OA
HETATM   17  C6  UNL     1      -3.230  -0.593  -0.277  1.00  0.00     0.056 A 
HETATM   18  C7  UNL     1      -4.357  -1.402  -0.492  1.00  0.00     0.018 A 
HETATM   19  C11 UNL     1      -3.476   0.609   0.328  1.00  0.00     0.096 A 
HETATM   20  C8  UNL     1      -5.597  -1.000  -0.117  1.00  0.00     0.001 A 
HETATM   21  C9  UNL     1      -5.822   0.196   0.483  1.00  0.00     0.002 A 
HETATM   22  C10 UNL     1      -4.743   1.016   0.710  1.00  0.00     0.026 A 
HETATM   23  S1  UNL     1      -1.906   1.394   0.466  1.00  0.00     0.273 S 
HETATM   24  O2  UNL     1      -1.858   2.657  -0.326  1.00  0.00    -0.200 OA
HETATM   25  O3  UNL     1      -1.535   1.606   1.904  1.00  0.00    -0.200 OA
ENDBRANCH   6  14
BRANCH   1  26
HETATM   26  N1  UNL     1       5.750  -1.022   1.900  1.00  0.00    -0.381 N 
ATOM     27  H12 UNL     1       5.399  -1.422   2.770  1.00  0.00     0.157 HD
ATOM     28  H11 UNL     1       6.756  -0.971   1.740  1.00  0.00     0.157 HD
ENDBRANCH   1  26
TORSDOF 2
