REMARK  2 active torsions:
REMARK  status: ('A' for Active; 'I' for Inactive)
REMARK    1  A    between atoms: N1_2  and  C2_4 
REMARK       I    between atoms: N3_13  and  C9_14 
REMARK       I    between atoms: C9_14  and  N5_16 
REMARK       I    between atoms: N5_16  and  C10_18 
REMARK       I    between atoms: C10_18  and  N8_29 
REMARK    2  A    between atoms: N6_19  and  C11_21 
ROOT
HETATM    1  C2  UNL     1      -2.668   1.275   0.806  1.00  0.00     0.687 A 
HETATM    2  N2  UNL     1      -4.005   1.431   0.768  1.00  0.00    -0.189 N 
ATOM      3  H2  UNL     1      -4.519   2.206   1.187  1.00  0.00     0.184 HD
HETATM    4  C3  UNL     1      -4.557   0.412   0.095  1.00  0.00     0.077 A 
HETATM    5  C4  UNL     1      -5.838   0.058  -0.247  1.00  0.00     0.032 A 
HETATM    6  C5  UNL     1      -6.143  -1.079  -0.968  1.00  0.00     0.002 A 
HETATM    7  C6  UNL     1      -5.088  -1.905  -1.365  1.00  0.00     0.002 A 
HETATM    8  C7  UNL     1      -3.802  -1.580  -1.039  1.00  0.00     0.033 A 
HETATM    9  C8  UNL     1      -3.527  -0.443  -0.321  1.00  0.00     0.087 A 
HETATM   10  N3  UNL     1      -2.394   0.126   0.136  1.00  0.00    -0.116 N 
HETATM   11  C9  UNL     1      -1.068  -0.379  -0.039  1.00  0.00     0.229 C 
HETATM   12  N4  UNL     1      -0.644  -1.625   0.440  1.00  0.00    -0.062 NA
HETATM   13  N5  UNL     1      -0.211   0.351  -0.669  1.00  0.00    -0.161 N 
ATOM     14  H5  UNL     1      -0.509   1.261  -1.020  1.00  0.00     0.187 HD
HETATM   15  C10 UNL     1       1.134  -0.061  -0.895  1.00  0.00     0.694 C 
HETATM   16  N6  UNL     1       2.021   0.109   0.023  1.00  0.00    -0.190 N 
ATOM     17  H6  UNL     1       1.704   0.543   0.890  1.00  0.00     0.184 HD
HETATM   18  N8  UNL     1       1.552  -0.658  -2.111  1.00  0.00    -0.126 N 
ATOM     19  H8  UNL     1       2.451  -0.419  -2.530  1.00  0.00     0.197 HD
HETATM   20  C17 UNL     1       0.700  -1.581  -2.719  1.00  0.00     0.196 C 
HETATM   21  N9  UNL     1      -0.028  -2.340  -3.219  1.00  0.00    -0.171 NA
ENDROOT
BRANCH  16  22
HETATM   22  C11 UNL     1       3.377  -0.241  -0.046  1.00  0.00     0.065 A 
HETATM   23  C12 UNL     1       3.777  -1.490  -0.453  1.00  0.00     0.117 A 
HETATM   24  N7  UNL     1       5.071  -1.874  -0.540  1.00  0.00    -0.373 N 
HETATM   25  C13 UNL     1       6.067  -1.026  -0.222  1.00  0.00     0.094 A 
ATOM     26  H7  UNL     1       5.295  -2.819  -0.851  1.00  0.00     0.164 HD
HETATM   27  C14 UNL     1       5.709   0.243   0.193  1.00  0.00    -0.044 A 
HETATM   28  C15 UNL     1       6.803   1.184   0.546  1.00  0.00     0.049 C 
HETATM   29  C16 UNL     1       4.399   0.653   0.289  1.00  0.00     0.039 A 
ENDBRANCH  16  22
BRANCH   1  30
HETATM   30  N1  UNL     1      -1.777   2.034   1.353  1.00  0.00    -0.230 N 
HETATM   31  C1  UNL     1      -2.157   3.253   2.053  1.00  0.00     0.165 C 
ATOM     32  H1  UNL     1      -0.792   1.775   1.294  1.00  0.00     0.177 HD
ENDBRANCH   1  30
TORSDOF 2
