REMARK  2 active torsions:
REMARK  status: ('A' for Active; 'I' for Inactive)
REMARK    1  A    between atoms: C5_6  and  N2_7 
REMARK    2  A    between atoms: N2_7  and  C6_9 
ROOT
HETATM    1  N1  UNL     1       7.132  -1.493  -0.317  1.00  0.00    -0.191 NA
HETATM    2  C1  UNL     1       6.037  -1.133  -0.258  1.00  0.00     0.099 C 
HETATM    3  C2  UNL     1       4.662  -0.708  -0.188  1.00  0.00     0.046 A 
HETATM    4  C3  UNL     1       4.014  -0.166  -1.278  1.00  0.00     0.025 A 
HETATM    5  C4  UNL     1       2.717   0.245  -1.254  1.00  0.00     0.032 A 
HETATM    6  C5  UNL     1       1.962   0.132  -0.088  1.00  0.00     0.053 A 
HETATM    7  C17 UNL     1       2.623  -0.419   1.022  1.00  0.00     0.072 A 
HETATM    8  C18 UNL     1       1.855  -0.544   2.244  1.00  0.00     0.102 C 
HETATM    9  N6  UNL     1       1.252  -0.632   3.232  1.00  0.00    -0.191 NA
HETATM   10  C19 UNL     1       3.924  -0.822   0.968  1.00  0.00     0.047 A 
ENDROOT
BRANCH   6  11
HETATM   11  N2  UNL     1       0.672   0.518   0.026  1.00  0.00    -0.353 N 
ATOM     12  H2  UNL     1       0.739   1.489   0.331  1.00  0.00     0.166 HD
BRANCH  11  13
HETATM   13  C6  UNL     1      -0.505   0.325  -0.041  1.00  0.00     0.065 A 
HETATM   14  C7  UNL     1      -1.183  -0.822  -0.402  1.00  0.00     0.018 A 
HETATM   15  C8  UNL     1      -0.483  -1.937  -0.748  1.00  0.00     0.016 A 
HETATM   16  C12 UNL     1      -2.582  -0.895  -0.431  1.00  0.00     0.046 A 
HETATM   17  C9  UNL     1      -1.137  -3.117  -1.120  1.00  0.00     0.001 A 
HETATM   18  C10 UNL     1      -2.499  -3.142  -1.134  1.00  0.00     0.002 A 
HETATM   19  C11 UNL     1      -3.262  -2.048  -0.795  1.00  0.00     0.030 A 
HETATM   20  N3  UNL     1      -3.298   0.176  -0.100  1.00  0.00    -0.341 N 
HETATM   21  C13 UNL     1      -2.710   1.311   0.258  1.00  0.00     0.128 A 
ATOM     22  H3  UNL     1      -4.316   0.124  -0.122  1.00  0.00     0.167 HD
HETATM   23  N4  UNL     1      -3.480   2.383   0.590  1.00  0.00    -0.293 N 
HETATM   24  C16 UNL     1      -1.345   1.424   0.299  1.00  0.00     0.104 A 
HETATM   25  C14 UNL     1      -2.929   3.553   0.958  1.00  0.00     0.328 A 
ATOM     26  H4  UNL     1      -4.496   2.297   0.559  1.00  0.00     0.172 HD
HETATM   27  O1  UNL     1      -3.610   4.557   1.269  1.00  0.00    -0.247 OA
HETATM   28  N5  UNL     1      -1.585   3.665   0.999  1.00  0.00    -0.275 N 
HETATM   29  C15 UNL     1      -0.797   2.627   0.678  1.00  0.00     0.265 A 
ATOM     30  H5  UNL     1      -1.162   4.550   1.278  1.00  0.00     0.173 HD
HETATM   31  O2  UNL     1       0.475   2.737   0.718  1.00  0.00    -0.267 OA
ENDBRANCH  11  13
ENDBRANCH   6  11
TORSDOF 2
