REMARK  1 active torsions:
REMARK  status: ('A' for Active; 'I' for Inactive)
REMARK    1  A    between atoms: N5_21  and  C11_22 
ROOT
HETATM    1  O1  UNL     1      -0.332  -1.372   2.784  1.00  0.00    -0.267 OA
HETATM    2  C1  UNL     1      -0.898  -0.869   1.788  1.00  0.00     0.264 A 
HETATM    3  N1  UNL     1      -2.221  -0.779   1.630  1.00  0.00    -0.320 N 
ATOM      4  H1  UNL     1      -2.828  -1.142   2.365  1.00  0.00     0.169 HD
HETATM    5  C2  UNL     1      -2.782  -0.230   0.542  1.00  0.00     0.077 A 
HETATM    6  C3  UNL     1      -2.008   0.287  -0.504  1.00  0.00     0.021 A 
HETATM    7  C4  UNL     1      -2.601   0.844  -1.605  1.00  0.00     0.018 A 
HETATM    8  C5  UNL     1      -3.977   0.898  -1.691  1.00  0.00     0.033 A 
HETATM    9  C6  UNL     1      -4.767   0.392  -0.668  1.00  0.00     0.062 A 
HETATM   10  N2  UNL     1      -6.091   0.314  -0.491  1.00  0.00    -0.350 N 
ATOM     11  H2  UNL     1      -6.795   0.649  -1.149  1.00  0.00     0.166 HD
HETATM   12  C7  UNL     1      -6.346  -0.272   0.684  1.00  0.00     0.181 A 
HETATM   13  N3  UNL     1      -5.173  -0.560   1.241  1.00  0.00    -0.349 N 
ATOM     14  H3  UNL     1      -5.048  -1.014   2.146  1.00  0.00     0.167 HD
HETATM   15  C8  UNL     1      -4.175  -0.162   0.429  1.00  0.00     0.088 A 
HETATM   16  C9  UNL     1      -0.630   0.197  -0.346  1.00  0.00     0.070 A 
HETATM   17  N4  UNL     1       0.190   0.661  -1.285  1.00  0.00    -0.306 N 
ATOM     18  H4  UNL     1      -0.193   1.087  -2.129  1.00  0.00     0.171 HD
HETATM   19  C10 UNL     1       1.535   0.569  -1.124  1.00  0.00     0.334 A 
HETATM   20  O2  UNL     1       2.279   1.022  -2.040  1.00  0.00    -0.246 OA
HETATM   21  N5  UNL     1       2.115   0.028  -0.053  1.00  0.00    -0.229 N 
HETATM   22  C17 UNL     1       1.294  -0.441   0.897  1.00  0.00     0.274 A 
HETATM   23  O3  UNL     1       1.775  -0.961   1.928  1.00  0.00    -0.266 OA
HETATM   24  C18 UNL     1      -0.080  -0.373   0.784  1.00  0.00     0.128 A 
ENDROOT
BRANCH  21  25
HETATM   25  C11 UNL     1       3.529  -0.048   0.076  1.00  0.00     0.047 A 
HETATM   26  C12 UNL     1       4.128  -1.262   0.366  1.00  0.00     0.030 A 
HETATM   27  C13 UNL     1       5.498  -1.368   0.497  1.00  0.00     0.002 A 
HETATM   28  C14 UNL     1       6.311  -0.246   0.339  1.00  0.00     0.000 A 
HETATM   29  C15 UNL     1       5.727   0.976   0.048  1.00  0.00     0.002 A 
HETATM   30  C16 UNL     1       4.350   1.064  -0.080  1.00  0.00     0.030 A 
ENDBRANCH  21  25
TORSDOF 1
