REMARK  9 active torsions:
REMARK  status: ('A' for Active; 'I' for Inactive)
REMARK    1  A    between atoms: C2_2  and  C3_3 
REMARK    2  A    between atoms: C3_3  and  C4_4 
REMARK    3  A    between atoms: C4_4  and  C5_5 
REMARK    4  A    between atoms: C5_5  and  N1_6 
REMARK    5  A    between atoms: C6_7  and  O1_8 
REMARK    6  A    between atoms: C7_10  and  N2_11 
REMARK    7  A    between atoms: N2_11  and  N3_13 
REMARK    8  A    between atoms: C12_21  and  O2_22 
REMARK    9  A    between atoms: N5_24  and  C13_25 
ROOT
HETATM    1  N1  UNL     1      -2.077   0.517  -0.012  1.00  0.00    -0.301 N 
HETATM    2  C6  UNL     1      -0.809   0.748   0.322  1.00  0.00     0.191 A 
HETATM    3  C7  UNL     1      -0.119  -0.468   0.477  1.00  0.00     0.177 A 
HETATM    4  N5  UNL     1      -1.026  -1.427   0.219  1.00  0.00    -0.300 N 
HETATM    5  C18 UNL     1      -2.209  -0.797  -0.073  1.00  0.00     0.184 A 
HETATM    6  S2  UNL     1      -3.608  -1.530  -0.415  1.00  0.00    -0.040 SA
ENDROOT
BRANCH   3   7
HETATM    7  N2  UNL     1       1.252  -0.571   0.856  1.00  0.00    -0.281 N 
ATOM      8  H2  UNL     1       1.682  -1.479   1.034  1.00  0.00     0.188 HD
BRANCH   7   9
HETATM    9  N3  UNL     1       1.977   0.593   0.974  1.00  0.00    -0.294 N 
HETATM   10  C8  UNL     1       3.003   1.036   0.449  1.00  0.00     0.094 C 
HETATM   11  S1  UNL     1       3.658   2.669   0.890  1.00  0.00    -0.083 SA
HETATM   12  C12 UNL     1       3.780   0.310  -0.566  1.00  0.00     0.204 C 
HETATM   13  C9  UNL     1       5.290   2.862   0.184  1.00  0.00     0.352 C 
HETATM   14  N4  UNL     1       5.758   1.758  -0.594  1.00  0.00     0.096 N 
HETATM   15  C10 UNL     1       7.216   1.691  -0.425  1.00  0.00     0.310 C 
HETATM   16  C11 UNL     1       5.243   0.488  -0.186  1.00  0.00     0.311 C 
ATOM     17  H3  UNL     1       1.573   1.239   1.652  1.00  0.00     0.187 HD
BRANCH  12  18
HETATM   18  O2  UNL     1       3.507  -1.038  -0.476  1.00  0.00    -0.387 OA
ATOM     19  H2  UNL     1       4.009  -1.507  -1.132  1.00  0.00     0.210 HD
ENDBRANCH  12  18
ENDBRANCH   7   9
ENDBRANCH   3   7
BRANCH   2  20
HETATM   20  O1  UNL     1      -0.184   1.991   0.509  1.00  0.00    -0.343 OA
ATOM     21  H1  UNL     1       0.721   2.156   0.747  1.00  0.00     0.219 HD
ENDBRANCH   2  20
BRANCH   4  22
HETATM   22  C13 UNL     1      -0.863  -2.847   0.206  1.00  0.00     0.094 C 
HETATM   23  C14 UNL     1       0.495  -3.397   0.064  1.00  0.00     0.026 C 
HETATM   24  C15 UNL     1       0.313  -4.832  -0.479  1.00  0.00     0.002 C 
HETATM   25  C16 UNL     1      -0.817  -4.670  -1.425  1.00  0.00     0.002 C 
HETATM   26  C17 UNL     1      -1.675  -3.529  -0.891  1.00  0.00     0.026 C 
ENDBRANCH   4  22
BRANCH   1  27
HETATM   27  C5  UNL     1      -3.031   1.580  -0.240  1.00  0.00     0.133 C 
BRANCH  27  28
HETATM   28  C4  UNL     1      -3.755   1.991   1.015  1.00  0.00     0.020 C 
BRANCH  28  29
HETATM   29  C3  UNL     1      -4.720   3.098   0.649  1.00  0.00     0.001 C 
BRANCH  29  30
HETATM   30  C2  UNL     1      -5.741   2.681  -0.374  1.00  0.00    -0.004 C 
HETATM   31  C1  UNL     1      -6.561   1.526   0.153  1.00  0.00     0.005 C 
ENDBRANCH  29  30
ENDBRANCH  28  29
ENDBRANCH  27  28
ENDBRANCH   1  27
TORSDOF 9
