REMARK  8 active torsions:
REMARK  status: ('A' for Active; 'I' for Inactive)
REMARK    1  A    between atoms: N1_2  and  C2_4 
REMARK    2  A    between atoms: C5_7  and  S1_8 
REMARK    3  A    between atoms: S1_8  and  S2_9 
REMARK    4  A    between atoms: S2_9  and  C6_10 
REMARK    5  A    between atoms: C9_13  and  N2_14 
REMARK       I    between atoms: N2_14  and  C10_16 
REMARK       I    between atoms: C10_16  and  N5_23 
REMARK    6  A    between atoms: N3_17  and  N4_19 
REMARK    7  A    between atoms: N4_19  and  O1_21 
REMARK    8  A    between atoms: C12_27  and  N7_28 
ROOT
HETATM    1  N2  UNL     1      -4.136  -0.803  -0.238  1.00  0.00    -0.187 N 
ATOM      2  H2  UNL     1      -4.182  -1.763  -0.580  1.00  0.00     0.184 HD
HETATM    3  C10 UNL     1      -5.232  -0.288   0.511  1.00  0.00     0.707 C 
HETATM    4  N3  UNL     1      -6.312   0.014  -0.086  1.00  0.00    -0.112 N 
ATOM      5  H3  UNL     1      -6.335  -0.133  -1.095  1.00  0.00     0.207 HD
HETATM    6  N5  UNL     1      -5.105  -0.120   1.898  1.00  0.00    -0.124 N 
ATOM      7  H5  UNL     1      -5.215   0.819   2.280  1.00  0.00     0.197 HD
HETATM    8  C11 UNL     1      -4.835  -1.171   2.792  1.00  0.00     0.196 C 
HETATM    9  N6  UNL     1      -4.627  -2.047   3.528  1.00  0.00    -0.171 NA
ENDROOT
BRANCH   1  10
HETATM   10  C9  UNL     1      -2.990  -0.033  -0.523  1.00  0.00     0.082 A 
HETATM   11  C8  UNL     1      -3.015   1.295  -0.089  1.00  0.00     0.034 A 
HETATM   12  C7  UNL     1      -1.953   2.136  -0.343  1.00  0.00     0.022 A 
HETATM   13  C6  UNL     1      -0.831   1.719  -1.028  1.00  0.00     0.014 A 
HETATM   14  C13 UNL     1      -0.807   0.418  -1.453  1.00  0.00     0.057 A 
HETATM   15  C12 UNL     1      -1.888  -0.456  -1.198  1.00  0.00     0.131 A 
BRANCH  13  16
HETATM   16  S2  UNL     1       0.526   2.844  -1.339  1.00  0.00    -0.052 SA
BRANCH  16  17
HETATM   17  S1  UNL     1       2.043   1.810  -2.413  1.00  0.00    -0.053 SA
BRANCH  17  18
HETATM   18  C5  UNL     1       3.151   1.083  -1.214  1.00  0.00     0.012 A 
HETATM   19  C4  UNL     1       2.936  -0.176  -0.726  1.00  0.00     0.021 A 
HETATM   20  C3  UNL     1       3.844  -0.679   0.207  1.00  0.00     0.030 A 
HETATM   21  C2  UNL     1       4.926   0.055   0.634  1.00  0.00     0.027 A 
HETATM   22  C15 UNL     1       5.133   1.316   0.138  1.00  0.00     0.030 A 
HETATM   23  C14 UNL     1       4.238   1.836  -0.795  1.00  0.00     0.021 A 
BRANCH  21  24
HETATM   24  N1  UNL     1       5.826  -0.498   1.588  1.00  0.00    -0.394 N 
HETATM   25  C1  UNL     1       5.670  -1.799   2.151  1.00  0.00     0.146 C 
ATOM     26  H1  UNL     1       6.623   0.065   1.884  1.00  0.00     0.159 HD
ENDBRANCH  21  24
ENDBRANCH  17  18
ENDBRANCH  16  17
ENDBRANCH  13  16
BRANCH  15  27
HETATM   27  N7  UNL     1      -1.785  -1.769  -1.669  1.00  0.00    -0.113 N 
HETATM   28  O2  UNL     1      -2.252  -2.728  -1.066  1.00  0.00    -0.532 OA
HETATM   29  O3  UNL     1      -1.107  -2.009  -2.840  1.00  0.00    -0.532 OA
ENDBRANCH  15  27
ENDBRANCH   1  10
BRANCH   4  30
HETATM   30  N4  UNL     1      -7.459   0.522   0.496  1.00  0.00    -0.196 N 
ATOM     31  H4  UNL     1      -7.491   1.477   0.852  1.00  0.00     0.216 HD
BRANCH  30  32
HETATM   32  O1  UNL     1      -8.458  -0.231   0.571  1.00  0.00    -0.274 OA
ATOM     33  H1  UNL     1      -9.246   0.118   0.971  1.00  0.00     0.246 HD
ENDBRANCH  30  32
ENDBRANCH   4  30
TORSDOF 8
