REMARK  8 active torsions:
REMARK  status: ('A' for Active; 'I' for Inactive)
REMARK       I    between atoms: C1_2  and  N1_3 
REMARK       I    between atoms: C1_2  and  N3_11 
REMARK    1  A    between atoms: N1_3  and  N2_4 
REMARK    2  A    between atoms: N2_4  and  C2_5 
REMARK    3  A    between atoms: C2_5  and  C3_6 
REMARK    4  A    between atoms: N3_11  and  C7_13 
REMARK    5  A    between atoms: C10_16  and  N4_17 
REMARK    6  A    between atoms: N5_19  and  C11_21 
REMARK    7  A    between atoms: C14_24  and  C15_25 
REMARK    8  A    between atoms: C17_29  and  N6_30 
ROOT
HETATM    1  C7  UNL     1       0.113   0.358  -0.897  1.00  0.00     0.154 A 
HETATM    2  C8  UNL     1       0.278  -0.666  -0.001  1.00  0.00     0.061 A 
HETATM    3  C9  UNL     1       1.665  -0.811   0.144  1.00  0.00     0.062 A 
HETATM    4  C10 UNL     1       2.277   0.113  -0.656  1.00  0.00     0.164 A 
HETATM    5  O7  UNL     1       1.306   0.802  -1.269  1.00  0.00    -0.276 OA
ENDROOT
BRANCH   4   6
HETATM    6  N4  UNL     1       3.647   0.321  -0.822  1.00  0.00    -0.279 N 
HETATM    7  N5  UNL     1       4.620   0.224  -0.105  1.00  0.00    -0.296 N 
ATOM      8  H5  UNL     1       5.517   0.457  -0.530  1.00  0.00     0.187 HD
ATOM      9  H4  UNL     1       3.885   0.625  -1.766  1.00  0.00     0.189 HD
BRANCH   7  10
HETATM   10  C11 UNL     1       4.657  -0.169   1.234  1.00  0.00     0.081 A 
HETATM   11  C12 UNL     1       4.948  -1.472   1.618  1.00  0.00     0.034 A 
HETATM   12  C13 UNL     1       4.894  -1.898   2.873  1.00  0.00     0.021 A 
HETATM   13  C14 UNL     1       4.523  -1.018   3.912  1.00  0.00     0.043 A 
HETATM   14  C16 UNL     1       4.232   0.277   3.554  1.00  0.00     0.056 A 
HETATM   15  C17 UNL     1       4.293   0.741   2.215  1.00  0.00     0.132 A 
BRANCH  13  16
HETATM   16  C15 UNL     1       4.440  -1.486   5.299  1.00  0.00     0.209 C 
HETATM   17  O3  UNL     1       4.100  -0.742   6.232  1.00  0.00    -0.644 OA
HETATM   18  O4  UNL     1       4.764  -2.808   5.520  1.00  0.00    -0.644 OA
ENDBRANCH  13  16
BRANCH  15  19
HETATM   19  N6  UNL     1       3.997   2.096   1.938  1.00  0.00    -0.113 N 
HETATM   20  O5  UNL     1       3.260   2.769   2.648  1.00  0.00    -0.532 OA
HETATM   21  O6  UNL     1       4.563   2.734   0.826  1.00  0.00    -0.532 OA
ENDBRANCH  15  19
ENDBRANCH   7  10
ENDBRANCH   4   6
BRANCH   1  22
HETATM   22  N3  UNL     1      -1.085   0.921  -1.395  1.00  0.00    -0.275 N 
HETATM   23  C1  UNL     1      -2.394   0.567  -0.869  1.00  0.00     0.430 C 
HETATM   24  O1  UNL     1      -2.414  -0.258   0.135  1.00  0.00    -0.227 OA
HETATM   25  N1  UNL     1      -3.436   1.097  -1.445  1.00  0.00    -0.185 NA
ATOM     26  H3  UNL     1      -1.029   1.602  -2.152  1.00  0.00     0.173 HD
BRANCH  25  27
HETATM   27  N2  UNL     1      -4.526   1.634  -2.027  1.00  0.00    -0.254 NA
BRANCH  27  28
HETATM   28  C2  UNL     1      -5.496   1.938  -2.584  1.00  0.00     0.262 C 
BRANCH  28  29
HETATM   29  C3  UNL     1      -6.275   0.870  -3.333  1.00  0.00     0.106 A 
HETATM   30  C4  UNL     1      -7.261   1.134  -4.210  1.00  0.00     0.041 A 
HETATM   31  C5  UNL     1      -7.719  -0.159  -4.648  1.00  0.00     0.027 A 
HETATM   32  C6  UNL     1      -6.944  -1.038  -3.977  1.00  0.00     0.142 A 
HETATM   33  O2  UNL     1      -6.071  -0.390  -3.182  1.00  0.00    -0.320 OA
ENDBRANCH  28  29
ENDBRANCH  27  28
ENDBRANCH  25  27
ENDBRANCH   1  22
TORSDOF 8
