REMARK  11 active torsions:
REMARK  status: ('A' for Active; 'I' for Inactive)
REMARK    1  A    between atoms: S1_2  and  C2_3 
REMARK    2  A    between atoms: C2_3  and  C3_4 
REMARK    3  A    between atoms: C3_4  and  N1_5 
REMARK    4  A    between atoms: C3_4  and  C4_9 
REMARK       I    between atoms: C4_9  and  N2_11 
REMARK    5  A    between atoms: N2_11  and  C5_13 
REMARK    6  A    between atoms: C5_13  and  C6_14 
REMARK    7  A    between atoms: C11_21  and  O4_22 
REMARK    8  A    between atoms: C12_24  and  O5_25 
REMARK    9  A    between atoms: C14_29  and  C15_30 
REMARK   10  A    between atoms: C15_30  and  O7_31 
REMARK   11  A    between atoms: C16_33  and  O8_34 
ROOT
HETATM    1  C6  UNL     1      -0.727  -0.187   0.262  1.00  0.00     0.153 C 
HETATM    2  O2  UNL     1      -0.202  -1.463   0.425  1.00  0.00    -0.334 OA
HETATM    3  C7  UNL     1      -0.727  -2.052   1.544  1.00  0.00     0.159 C 
HETATM    4  C8  UNL     1       0.332  -2.660   2.477  1.00  0.00     0.078 C 
HETATM    5  C9  UNL     1      -1.664  -3.216   1.234  1.00  0.00     0.078 C 
HETATM    6  O3  UNL     1      -1.465  -1.090   2.206  1.00  0.00    -0.344 OA
HETATM    7  C10 UNL     1      -1.850  -0.159   1.251  1.00  0.00     0.199 C 
HETATM    8  C11 UNL     1      -3.176  -0.489   0.630  1.00  0.00     0.190 C 
HETATM    9  C12 UNL     1      -3.456   0.646  -0.337  1.00  0.00     0.143 C 
HETATM   10  C13 UNL     1      -4.424   0.217  -1.415  1.00  0.00     0.213 C 
HETATM   11  O6  UNL     1      -3.330  -0.152  -2.167  1.00  0.00    -0.369 OA
HETATM   12  C14 UNL     1      -2.438   0.682  -1.438  1.00  0.00     0.146 C 
HETATM   13  C16 UNL     1      -1.144   0.076  -1.159  1.00  0.00     0.201 C 
ENDROOT
BRANCH   1  14
HETATM   14  C5  UNL     1       0.232   0.895   0.657  1.00  0.00     0.107 C 
BRANCH  14  15
HETATM   15  N2  UNL     1       1.450   1.052  -0.021  1.00  0.00    -0.336 N 
HETATM   16  C4  UNL     1       2.545   0.194  -0.196  1.00  0.00     0.252 C 
HETATM   17  O1  UNL     1       2.559  -0.940   0.294  1.00  0.00    -0.271 OA
ATOM     18  H2  UNL     1       1.560   1.961  -0.471  1.00  0.00     0.168 HD
BRANCH  16  19
HETATM   19  C3  UNL     1       3.744   0.588  -0.973  1.00  0.00     0.284 C 
BRANCH  19  20
HETATM   20  C2  UNL     1       4.411   1.818  -0.410  1.00  0.00     0.116 C 
BRANCH  20  21
HETATM   21  S1  UNL     1       5.013   1.528   1.268  1.00  0.00    -0.171 SA
HETATM   22  C1  UNL     1       6.356   0.329   1.246  1.00  0.00     0.089 C 
ENDBRANCH  20  21
ENDBRANCH  19  20
BRANCH  19  23
HETATM   23  N1  UNL     1       4.714  -0.484  -0.996  1.00  0.00    -0.066 N 
ATOM     24  H13 UNL     1       5.565  -0.233  -1.500  1.00  0.00     0.275 HD
ATOM     25  H12 UNL     1       5.138  -0.650  -0.083  1.00  0.00     0.275 HD
ATOM     26  H11 UNL     1       4.263  -1.316  -1.377  1.00  0.00     0.275 HD
ENDBRANCH  19  23
ENDBRANCH  16  19
ENDBRANCH  14  15
ENDBRANCH   1  14
BRANCH  13  27
HETATM   27  O8  UNL     1      -0.149   0.765  -1.844  1.00  0.00    -0.389 OA
ATOM     28  H8  UNL     1      -0.412   0.931  -2.742  1.00  0.00     0.210 HD
ENDBRANCH  13  27
BRANCH   8  29
HETATM   29  O4  UNL     1      -4.162  -0.461   1.611  1.00  0.00    -0.390 OA
ATOM     30  H4  UNL     1      -5.001  -0.670   1.218  1.00  0.00     0.210 HD
ENDBRANCH   8  29
BRANCH  12  31
HETATM   31  C15 UNL     1      -2.475   2.040  -2.101  1.00  0.00     0.208 C 
BRANCH  31  32
HETATM   32  O7  UNL     1      -2.094   2.006  -3.445  1.00  0.00    -0.398 OA
ATOM     33  H7  UNL     1      -2.117   2.859  -3.862  1.00  0.00     0.209 HD
ENDBRANCH  31  32
ENDBRANCH  12  31
BRANCH   9  34
HETATM   34  O5  UNL     1      -3.821   1.825   0.251  1.00  0.00    -0.382 OA
ATOM     35  H5  UNL     1      -3.996   2.536  -0.355  1.00  0.00     0.211 HD
ENDBRANCH   9  34
TORSDOF 11
