REMARK  11 active torsions:
REMARK  status: ('A' for Active; 'I' for Inactive)
REMARK    1  A    between atoms: C3_3  and  C4_4 
REMARK       I    between atoms: C4_4  and  N1_6 
REMARK    2  A    between atoms: N3_12  and  C8_13 
REMARK    3  A    between atoms: C8_13  and  N4_14 
REMARK    4  A    between atoms: N4_14  and  C9_16 
REMARK    5  A    between atoms: C9_16  and  C10_21 
REMARK    6  A    between atoms: N5_17  and  O2_19 
REMARK    7  A    between atoms: C12_26  and  N8_27 
REMARK    8  A    between atoms: N8_27  and  O3_29 
REMARK    9  A    between atoms: C13_33  and  N10_34 
REMARK   10  A    between atoms: C14_36  and  C15_37 
REMARK   11  A    between atoms: C15_37  and  O4_38 
ROOT
HETATM    1  C9  UNL     1      -1.581   0.887  -1.242  1.00  0.00     0.139 C 
HETATM    2  N5  UNL     1      -2.104   1.005  -2.409  1.00  0.00    -0.252 N 
ATOM      3  H5  UNL     1      -3.118   1.062  -2.499  1.00  0.00     0.196 HD
ENDROOT
BRANCH   1   4
HETATM    4  N4  UNL     1      -0.171   0.809  -1.145  1.00  0.00    -0.357 N 
ATOM      5  H4  UNL     1       0.380   1.657  -1.010  1.00  0.00     0.162 HD
BRANCH   4   6
HETATM    6  C8  UNL     1       0.476  -0.457  -1.236  1.00  0.00     0.254 C 
BRANCH   6   7
HETATM    7  N3  UNL     1       1.925  -0.351  -1.124  1.00  0.00    -0.328 N 
HETATM    8  C2  UNL     1       2.672  -0.411  -0.011  1.00  0.00     0.042 A 
HETATM    9  C1  UNL     1       2.191  -0.602   1.376  1.00  0.00     0.071 C 
HETATM   10  C3  UNL     1       4.030  -0.266  -0.320  1.00  0.00     0.124 A 
HETATM   11  N2  UNL     1       4.048  -0.120  -1.653  1.00  0.00    -0.346 N 
HETATM   12  C7  UNL     1       2.798  -0.170  -2.138  1.00  0.00     0.185 A 
ATOM     13  H2  UNL     1       4.889   0.010  -2.216  1.00  0.00     0.167 HD
BRANCH  10  14
HETATM   14  C4  UNL     1       5.134  -0.278   0.634  1.00  0.00     0.271 C 
HETATM   15  O1  UNL     1       4.952  -0.427   1.867  1.00  0.00    -0.266 OA
HETATM   16  N1  UNL     1       6.466  -0.120   0.179  1.00  0.00    -0.355 N 
HETATM   17  C5  UNL     1       7.571  -0.134   1.141  1.00  0.00     0.152 C 
HETATM   18  C6  UNL     1       6.808   0.059  -1.216  1.00  0.00     0.152 C 
ENDBRANCH  10  14
ENDBRANCH   6   7
ENDBRANCH   4   6
ENDBRANCH   1   4
BRANCH   1  19
HETATM   19  C10 UNL     1      -2.393   0.823  -0.031  1.00  0.00     0.096 A 
HETATM   20  C11 UNL     1      -2.016   1.344   1.159  1.00  0.00     0.149 A 
HETATM   21  N6  UNL     1      -0.756   2.016   1.284  1.00  0.00    -0.081 NA
HETATM   22  N7  UNL     1      -2.832   1.235   2.234  1.00  0.00    -0.176 N 
HETATM   23  C12 UNL     1      -4.019   0.618   2.156  1.00  0.00     0.704 A 
ATOM     24  H7  UNL     1      -2.536   1.632   3.125  1.00  0.00     0.185 HD
HETATM   25  N9  UNL     1      -4.423   0.091   0.995  1.00  0.00    -0.174 N 
HETATM   26  C13 UNL     1      -3.647   0.169  -0.124  1.00  0.00     0.138 A 
ATOM     27  H9  UNL     1      -5.328  -0.378   0.946  1.00  0.00     0.186 HD
BRANCH  23  28
HETATM   28  N8  UNL     1      -4.796   0.519   3.200  1.00  0.00    -0.098 N 
ATOM     29  H8  UNL     1      -4.483   0.921   4.084  1.00  0.00     0.213 HD
BRANCH  28  30
HETATM   30  O3  UNL     1      -6.003  -0.098   3.156  1.00  0.00    -0.276 OA
ATOM     31  H3  UNL     1      -6.569  -0.170   3.916  1.00  0.00     0.245 HD
ENDBRANCH  28  30
ENDBRANCH  23  28
BRANCH  26  32
HETATM   32  N10 UNL     1      -3.960  -0.295  -1.223  1.00  0.00    -0.353 N 
HETATM   33  C14 UNL     1      -4.861  -0.961  -1.996  1.00  0.00     0.088 C 
ATOM     34  H10 UNL     1      -3.179  -0.079  -1.842  1.00  0.00     0.166 HD
BRANCH  33  35
HETATM   35  C15 UNL     1      -6.122  -1.436  -1.297  1.00  0.00     0.208 C 
BRANCH  35  36
HETATM   36  O4  UNL     1      -6.886  -2.089  -2.292  1.00  0.00    -0.396 OA
ATOM     37  H4  UNL     1      -7.675  -2.386  -1.855  1.00  0.00     0.209 HD
ENDBRANCH  35  36
ENDBRANCH  33  35
ENDBRANCH  26  32
ENDBRANCH   1  19
BRANCH   2  38
HETATM   38  O2  UNL     1      -1.326   1.056  -3.535  1.00  0.00    -0.288 OA
ATOM     39  H2  UNL     1      -1.713   1.143  -4.398  1.00  0.00     0.244 HD
ENDBRANCH   2  38
TORSDOF 11
