REMARK  10 active torsions:
REMARK  status: ('A' for Active; 'I' for Inactive)
REMARK    1  A    between atoms: N1_1  and  C1_4 
REMARK    2  A    between atoms: C2_9  and  C3_10 
REMARK    3  A    between atoms: C3_10  and  O1_11 
REMARK    4  A    between atoms: C3_10  and  C4_13 
REMARK    5  A    between atoms: C4_13  and  N4_14 
REMARK    6  A    between atoms: N4_14  and  C5_16 
REMARK    7  A    between atoms: C7_20  and  N6_21 
REMARK    8  A    between atoms: N6_21  and  C8_23 
REMARK    9  A    between atoms: C10_26  and  C11_27 
REMARK   10  A    between atoms: C11_27  and  C12_29 
ROOT
HETATM    1  C5  UNL     1      -1.416  -0.030  -0.420  1.00  0.00     0.678 A 
HETATM    2  N5  UNL     1      -0.815   1.101  -0.829  1.00  0.00    -0.198 N 
ATOM      3  H5  UNL     1      -1.421   1.733  -1.351  1.00  0.00     0.183 HD
HETATM    4  C6  UNL     1       0.443   1.545  -0.671  1.00  0.00     0.154 A 
HETATM    5  C7  UNL     1       1.502   0.949  -0.024  1.00  0.00     0.122 A 
HETATM    6  N8  UNL     1       1.458  -0.264   0.582  1.00  0.00    -0.337 N 
ATOM      7  H8  UNL     1       2.347  -0.575   0.974  1.00  0.00     0.168 HD
HETATM    8  C14 UNL     1       0.439  -1.126   0.753  1.00  0.00     0.199 A 
HETATM    9  N9  UNL     1      -0.838  -1.021   0.278  1.00  0.00    -0.188 N 
ATOM     10  H9  UNL     1      -1.444  -1.815   0.485  1.00  0.00     0.185 HD
ENDROOT
BRANCH   1  11
HETATM   11  N4  UNL     1      -2.659  -0.228  -0.699  1.00  0.00    -0.223 N 
ATOM     12  H4  UNL     1      -3.146  -1.075  -0.405  1.00  0.00     0.177 HD
BRANCH  11  13
HETATM   13  C4  UNL     1      -3.331   0.814  -1.453  1.00  0.00     0.177 C 
BRANCH  13  14
HETATM   14  C3  UNL     1      -4.662   0.349  -1.999  1.00  0.00     0.205 C 
BRANCH  14  15
HETATM   15  C2  UNL     1      -5.643   0.060  -0.949  1.00  0.00     0.143 A 
HETATM   16  N3  UNL     1      -5.663  -1.074  -0.217  1.00  0.00    -0.272 N 
HETATM   17  N2  UNL     1      -6.661  -1.048   0.650  1.00  0.00    -0.131 N 
ATOM     18  H3  UNL     1      -5.001  -1.843  -0.318  1.00  0.00     0.189 HD
HETATM   19  C1  UNL     1      -7.311   0.114   0.492  1.00  0.00     0.692 A 
ATOM     20  H2  UNL     1      -6.895  -1.781   1.320  1.00  0.00     0.205 HD
HETATM   21  N10 UNL     1      -6.681   0.791  -0.492  1.00  0.00    -0.176 N 
ATOM     22  H10 UNL     1      -6.949   1.713  -0.837  1.00  0.00     0.185 HD
BRANCH  19  23
HETATM   23  N1  UNL     1      -8.343   0.500   1.162  1.00  0.00    -0.233 N 
ATOM     24  H12 UNL     1      -8.819  -0.011   1.905  1.00  0.00     0.174 HD
ATOM     25  H11 UNL     1      -8.837   1.384   1.042  1.00  0.00     0.174 HD
ENDBRANCH  19  23
ENDBRANCH  14  15
BRANCH  14  26
HETATM   26  O1  UNL     1      -4.453  -0.739  -2.843  1.00  0.00    -0.386 OA
ATOM     27  H1  UNL     1      -3.817  -0.552  -3.524  1.00  0.00     0.210 HD
ENDBRANCH  14  26
ENDBRANCH  13  14
ENDBRANCH  11  13
ENDBRANCH   1  11
BRANCH   5  28
HETATM   28  N6  UNL     1       2.626   1.589   0.014  1.00  0.00    -0.341 N 
ATOM     29  H6  UNL     1       2.716   2.506  -0.424  1.00  0.00     0.167 HD
BRANCH  28  30
HETATM   30  C8  UNL     1       3.759   0.980   0.692  1.00  0.00     0.041 A 
HETATM   31  C9  UNL     1       3.702   0.757   2.038  1.00  0.00     0.080 A 
HETATM   32  S1  UNL     1       5.214   0.048   2.374  1.00  0.00    -0.096 SA
HETATM   33  C10 UNL     1       5.878   0.052   0.805  1.00  0.00     0.062 A 
HETATM   34  C13 UNL     1       4.883   0.616   0.050  1.00  0.00     0.053 A 
BRANCH  33  35
HETATM   35  C11 UNL     1       7.193  -0.433   0.381  1.00  0.00     0.253 C 
HETATM   36  O2  UNL     1       7.533  -0.362  -0.801  1.00  0.00    -0.281 OA
BRANCH  35  37
HETATM   37  C12 UNL     1       8.074  -0.994   1.378  1.00  0.00     0.306 C 
HETATM   38  N7  UNL     1       9.357  -1.473   1.000  1.00  0.00    -0.054 NA
HETATM   39  O3  UNL     1       7.706  -1.055   2.573  1.00  0.00    -0.267 OA
ENDBRANCH  35  37
ENDBRANCH  33  35
ENDBRANCH  28  30
ENDBRANCH   5  28
TORSDOF 10
