REMARK  12 active torsions:
REMARK  status: ('A' for Active; 'I' for Inactive)
REMARK    1  A    between atoms: C2_2  and  C3_3 
REMARK    2  A    between atoms: C3_3  and  N1_4 
REMARK    3  A    between atoms: C5_6  and  C6_7 
REMARK    4  A    between atoms: C6_7  and  O1_8 
REMARK    5  A    between atoms: N2_10  and  O2_12 
REMARK       I    between atoms: N3_14  and  C7_15 
REMARK    6  A    between atoms: C7_15  and  C8_17 
REMARK    7  A    between atoms: N4_22  and  C13_23 
REMARK    8  A    between atoms: C13_23  and  C17_27 
REMARK    9  A    between atoms: C14_24  and  C15_25 
REMARK       I    between atoms: C17_27  and  N5_29 
REMARK   10  A    between atoms: N5_29  and  C18_31 
REMARK   11  A    between atoms: C18_31  and  C19_32 
REMARK   12  A    between atoms: C19_32  and  C20_33 
ROOT
HETATM    1  C8  UNL     1      -1.844  -1.402  -0.426  1.00  0.00     0.155 C 
HETATM    2  C9  UNL     1      -2.514  -2.750  -0.687  1.00  0.00     0.030 C 
HETATM    3  C10 UNL     1      -2.694  -2.955  -2.179  1.00  0.00     0.003 C 
HETATM    4  C11 UNL     1      -1.379  -2.733  -2.905  1.00  0.00     0.015 C 
HETATM    5  C12 UNL     1      -0.313  -2.594  -1.882  1.00  0.00     0.097 C 
HETATM    6  N4  UNL     1      -0.517  -1.458  -1.000  1.00  0.00    -0.266 NA
ENDROOT
BRANCH   6   7
HETATM    7  C13 UNL     1       0.555  -1.364  -0.074  1.00  0.00     0.076 C 
HETATM    8  C14 UNL     1       1.294  -2.453   0.499  1.00  0.00     0.002 C 
BRANCH   8   9
HETATM    9  C15 UNL     1       0.729  -3.521   1.335  1.00  0.00     0.025 C 
HETATM   10  C16 UNL     1       0.102  -3.056   2.625  1.00  0.00     0.009 C 
ENDBRANCH   8   9
BRANCH   7  11
HETATM   11  C17 UNL     1       1.251  -0.087  -0.097  1.00  0.00     0.262 C 
HETATM   12  O4  UNL     1       0.612   1.024  -0.234  1.00  0.00    -0.267 OA
HETATM   13  N5  UNL     1       2.654   0.071   0.036  1.00  0.00    -0.355 N 
ATOM     14  H5  UNL     1       3.237  -0.764   0.088  1.00  0.00     0.162 HD
BRANCH  13  15
HETATM   15  C18 UNL     1       3.293   1.366   0.101  1.00  0.00     0.138 C 
BRANCH  15  16
HETATM   16  C19 UNL     1       4.788   1.179   0.188  1.00  0.00     0.019 C 
HETATM   17  C24 UNL     1       5.324   0.646  -1.142  1.00  0.00     0.017 C 
HETATM   18  C25 UNL     1       6.128  -0.573  -0.839  1.00  0.00     0.001 C 
HETATM   19  C26 UNL     1       5.896  -0.953   0.585  1.00  0.00     0.001 C 
HETATM   20  C27 UNL     1       5.223   0.225   1.247  1.00  0.00     0.017 C 
BRANCH  16  21
HETATM   21  C20 UNL     1       5.470   2.499   0.371  1.00  0.00     0.035 A 
HETATM   22  C21 UNL     1       6.798   2.702   0.076  1.00  0.00     0.113 A 
HETATM   23  N6  UNL     1       7.416   3.900   0.291  1.00  0.00    -0.372 N 
HETATM   24  C22 UNL     1       6.722   4.928   0.806  1.00  0.00     0.104 A 
ATOM     25  H6  UNL     1       8.403   4.014   0.061  1.00  0.00     0.164 HD
HETATM   26  C23 UNL     1       5.393   4.728   1.099  1.00  0.00     0.105 A 
HETATM   27  N7  UNL     1       4.784   3.551   0.890  1.00  0.00    -0.366 N 
ATOM     28  H7  UNL     1       3.797   3.445   1.123  1.00  0.00     0.165 HD
ENDBRANCH  16  21
ENDBRANCH  15  16
ENDBRANCH  13  15
ENDBRANCH   7  11
ENDBRANCH   6   7
BRANCH   1  29
HETATM   29  C7  UNL     1      -2.629  -0.316  -1.050  1.00  0.00     0.239 C 
HETATM   30  N3  UNL     1      -3.695   0.331  -0.440  1.00  0.00    -0.325 N 
HETATM   31  C5  UNL     1      -4.610   1.335  -1.033  1.00  0.00     0.178 C 
HETATM   32  C28 UNL     1      -4.129   0.251   0.938  1.00  0.00     0.223 C 
HETATM   33  C4  UNL     1      -5.897   0.876  -0.391  1.00  0.00     0.130 C 
HETATM   34  N1  UNL     1      -5.424   0.844   1.024  1.00  0.00    -0.274 NA
HETATM   35  O3  UNL     1      -2.326   0.058  -2.198  1.00  0.00    -0.271 OA
BRANCH  31  36
HETATM   36  C6  UNL     1      -4.608   1.347  -2.487  1.00  0.00     0.160 C 
HETATM   37  N2  UNL     1      -5.294   0.619  -3.242  1.00  0.00    -0.249 N 
ATOM     38  H2  UNL     1      -5.156   0.775  -4.240  1.00  0.00     0.196 HD
BRANCH  36  39
HETATM   39  O1  UNL     1      -3.736   2.281  -3.118  1.00  0.00    -0.347 OA
ATOM     40  H1  UNL     1      -3.735   2.289  -4.068  1.00  0.00     0.219 HD
ENDBRANCH  36  39
BRANCH  37  41
HETATM   41  O2  UNL     1      -6.183  -0.335  -2.930  1.00  0.00    -0.288 OA
ATOM     42  H2  UNL     1      -6.703  -0.887  -3.502  1.00  0.00     0.244 HD
ENDBRANCH  37  41
ENDBRANCH  31  36
BRANCH  34  43
HETATM   43  C3  UNL     1      -5.547   2.168   1.489  1.00  0.00     0.060 C 
BRANCH  43  44
HETATM   44  C2  UNL     1      -5.209   2.410   2.910  1.00  0.00     0.001 C 
HETATM   45  C1  UNL     1      -6.145   2.903   3.702  1.00  0.00     0.012 C 
ENDBRANCH  43  44
ENDBRANCH  34  43
ENDBRANCH   1  29
TORSDOF 12
