REMARK  12 active torsions:
REMARK  status: ('A' for Active; 'I' for Inactive)
REMARK    1  A    between atoms: C2_2  and  C3_3 
REMARK    2  A    between atoms: C3_3  and  O1_4 
REMARK    3  A    between atoms: O1_4  and  C4_5 
REMARK    4  A    between atoms: C9_10  and  O2_11 
REMARK    5  A    between atoms: C11_13  and  N1_14 
REMARK    6  A    between atoms: N1_14  and  C12_16 
REMARK    7  A    between atoms: C12_16  and  C13_17 
REMARK    8  A    between atoms: C13_17  and  N2_18 
REMARK    9  A    between atoms: N6_26  and  C16_28 
REMARK   10  A    between atoms: C19_31  and  N7_32 
REMARK   11  A    between atoms: C24_38  and  O4_39 
REMARK   12  A    between atoms: O4_39  and  C25_40 
ROOT
HETATM    1  C4  UNL     1      -5.141   1.893  -0.439  1.00  0.00     0.104 A 
HETATM    2  C5  UNL     1      -3.945   2.318   0.023  1.00  0.00     0.071 A 
HETATM    3  C6  UNL     1      -2.824   1.484   0.050  1.00  0.00     0.068 A 
HETATM    4  C7  UNL     1      -2.930   0.165  -0.408  1.00  0.00     0.038 A 
HETATM    5  C8  UNL     1      -4.165  -0.239  -0.875  1.00  0.00     0.057 A 
HETATM    6  C9  UNL     1      -5.286   0.562  -0.917  1.00  0.00     0.102 A 
HETATM    7  C11 UNL     1      -1.803  -0.637  -0.386  1.00  0.00     0.129 A 
HETATM    8  N5  UNL     1      -0.649  -0.104   0.075  1.00  0.00    -0.176 N 
ATOM      9  H5  UNL     1       0.176  -0.703   0.090  1.00  0.00     0.186 HD
HETATM   10  C15 UNL     1      -0.511   1.154   0.513  1.00  0.00     0.686 A 
HETATM   11  N6  UNL     1       0.520   1.684   0.911  1.00  0.00    -0.191 N 
ATOM     12  H6  UNL     1       0.318   2.649   1.173  1.00  0.00     0.184 HD
HETATM   13  N8  UNL     1      -1.646   1.942   0.490  1.00  0.00    -0.186 N 
HETATM   14  C28 UNL     1      -1.554   3.314   0.955  1.00  0.00     0.175 C 
ENDROOT
BRANCH  11  15
HETATM   15  C16 UNL     1       1.850   1.432   1.127  1.00  0.00     0.052 A 
HETATM   16  C17 UNL     1       2.458   2.101   2.208  1.00  0.00     0.032 A 
HETATM   17  C18 UNL     1       3.794   1.961   2.494  1.00  0.00     0.035 A 
HETATM   18  C19 UNL     1       4.581   1.154   1.719  1.00  0.00     0.070 A 
HETATM   19  C24 UNL     1       4.008   0.472   0.637  1.00  0.00     0.097 A 
HETATM   20  C27 UNL     1       2.663   0.632   0.375  1.00  0.00     0.069 A 
BRANCH  18  21
HETATM   21  N7  UNL     1       5.969   1.022   2.015  1.00  0.00    -0.315 N 
HETATM   22  C20 UNL     1       6.578  -0.137   2.629  1.00  0.00     0.133 C 
HETATM   23  C21 UNL     1       8.048  -0.045   2.265  1.00  0.00     0.029 C 
HETATM   24  C22 UNL     1       8.293   1.438   2.211  1.00  0.00     0.105 C 
HETATM   25  C23 UNL     1       6.981   1.976   1.768  1.00  0.00     0.224 C 
HETATM   26  O3  UNL     1       6.783   3.096   1.255  1.00  0.00    -0.273 OA
ENDBRANCH  18  21
BRANCH  19  27
HETATM   27  O4  UNL     1       4.854  -0.311  -0.094  1.00  0.00    -0.349 OA
BRANCH  27  28
HETATM   28  C25 UNL     1       4.578  -1.112  -1.195  1.00  0.00     0.171 C 
HETATM   29  C26 UNL     1       3.601  -2.239  -0.831  1.00  0.00     0.034 C 
ENDBRANCH  27  28
ENDBRANCH  19  27
ENDBRANCH  11  15
BRANCH   7  30
HETATM   30  N1  UNL     1      -1.910  -1.842  -0.802  1.00  0.00    -0.374 N 
ATOM     31  H1  UNL     1      -2.838  -2.120  -1.122  1.00  0.00     0.161 HD
BRANCH  30  32
HETATM   32  C12 UNL     1      -0.905  -2.845  -0.877  1.00  0.00     0.141 C 
BRANCH  32  33
HETATM   33  C13 UNL     1      -0.930  -3.511  -2.238  1.00  0.00     0.141 C 
BRANCH  33  34
HETATM   34  N2  UNL     1       0.113  -4.516  -2.352  1.00  0.00    -0.365 N 
HETATM   35  C14 UNL     1       0.032  -5.697  -1.861  1.00  0.00     0.197 C 
HETATM   36  N3  UNL     1      -1.092  -6.184  -1.135  1.00  0.00    -0.067 NA
HETATM   37  N4  UNL     1       1.125  -6.585  -2.051  1.00  0.00    -0.067 NA
ATOM     38  H2  UNL     1       0.964  -4.266  -2.855  1.00  0.00     0.161 HD
ENDBRANCH  33  34
ENDBRANCH  32  33
ENDBRANCH  30  32
ENDBRANCH   7  30
BRANCH   1  39
HETATM   39  O1  UNL     1      -6.292   2.643  -0.495  1.00  0.00    -0.345 OA
BRANCH  39  40
HETATM   40  C3  UNL     1      -6.387   3.981   0.032  1.00  0.00     0.202 C 
BRANCH  40  41
HETATM   41  C2  UNL     1      -7.784   4.480  -0.180  1.00  0.00    -0.011 C 
HETATM   42  C1  UNL     1      -8.125   5.536  -0.874  1.00  0.00     0.009 C 
ENDBRANCH  40  41
ENDBRANCH  39  40
ENDBRANCH   1  39
BRANCH   6  43
HETATM   43  O2  UNL     1      -6.461   0.154  -1.377  1.00  0.00    -0.353 OA
HETATM   44  C10 UNL     1      -7.046  -0.947  -1.926  1.00  0.00     0.210 C 
ENDBRANCH   6  43
TORSDOF 12
