REMARK  14 active torsions:
REMARK  status: ('A' for Active; 'I' for Inactive)
REMARK    1  A    between atoms: C4_5  and  C5_6 
REMARK    2  A    between atoms: C4_5  and  C17_23 
REMARK    3  A    between atoms: C5_6  and  C6_7 
REMARK    4  A    between atoms: C7_8  and  C8_9 
REMARK    5  A    between atoms: C9_10  and  C10_11 
REMARK    6  A    between atoms: C10_11  and  C11_12 
REMARK    7  A    between atoms: C11_12  and  C12_13 
REMARK    8  A    between atoms: C12_13  and  N2_14 
REMARK    9  A    between atoms: N2_14  and  C15_17 
REMARK   10  A    between atoms: C15_17  and  C16_18 
REMARK   11  A    between atoms: C16_18  and  N3_19 
REMARK   12  A    between atoms: C17_23  and  C18_24 
REMARK   13  A    between atoms: C25_32  and  N4_33 
REMARK   14  A    between atoms: C28_38  and  N6_39 
ROOT
HETATM    1  C18 UNL     1      -3.013   0.260  -0.772  1.00  0.00     0.265 C 
HETATM    2  O1  UNL     1      -3.315   1.047   0.333  1.00  0.00    -0.355 OA
HETATM    3  C19 UNL     1      -4.407   1.856   0.066  1.00  0.00     0.133 C 
HETATM    4  C20 UNL     1      -4.569   2.979   1.064  1.00  0.00     0.032 C 
HETATM    5  C21 UNL     1      -6.063   3.163   1.319  1.00  0.00     0.002 C 
HETATM    6  C22 UNL     1      -6.587   1.940   2.047  1.00  0.00     0.001 C 
HETATM    7  C23 UNL     1      -6.012   0.664   1.456  1.00  0.00     0.011 C 
HETATM    8  C24 UNL     1      -5.636   0.979   0.024  1.00  0.00     0.064 C 
HETATM    9  C25 UNL     1      -5.285  -0.249  -0.785  1.00  0.00     0.240 C 
HETATM   10  O2  UNL     1      -4.097  -0.158  -1.472  1.00  0.00    -0.336 OA
ENDROOT
BRANCH   1  11
HETATM   11  C17 UNL     1      -2.098   1.079  -1.656  1.00  0.00     0.103 C 
BRANCH  11  12
HETATM   12  C4  UNL     1      -0.817   1.468  -0.985  1.00  0.00     0.168 C 
HETATM   13  N1  UNL     1       0.104   2.271  -1.768  1.00  0.00     0.094 N 
HETATM   14  C1  UNL     1      -0.530   2.994  -2.856  1.00  0.00     0.310 C 
HETATM   15  C2  UNL     1       0.404   3.152  -0.656  1.00  0.00     0.275 C 
HETATM   16  C3  UNL     1      -0.865   2.599   0.003  1.00  0.00     0.072 C 
BRANCH  12  17
HETATM   17  C5  UNL     1      -0.017   0.262  -0.458  1.00  0.00     0.069 C 
BRANCH  17  18
HETATM   18  C6  UNL     1       0.538  -0.480  -1.630  1.00  0.00    -0.024 C 
HETATM   19  C7  UNL     1       1.819  -0.719  -1.823  1.00  0.00    -0.004 C 
BRANCH  19  20
HETATM   20  C8  UNL     1       2.886  -0.318  -0.950  1.00  0.00    -0.004 C 
HETATM   21  C9  UNL     1       4.169  -0.607  -1.251  1.00  0.00    -0.023 C 
BRANCH  21  22
HETATM   22  C10 UNL     1       5.246  -0.243  -0.428  1.00  0.00     0.055 C 
BRANCH  22  23
HETATM   23  C11 UNL     1       6.411  -0.888  -1.344  1.00  0.00     0.002 C 
BRANCH  23  24
HETATM   24  C12 UNL     1       7.727  -0.804  -0.958  1.00  0.00     0.198 C 
BRANCH  24  25
HETATM   25  N2  UNL     1       8.293  -0.215   0.206  1.00  0.00    -0.053 N 
HETATM   26  C13 UNL     1       8.119   1.211   0.315  1.00  0.00     0.277 C 
HETATM   27  C14 UNL     1       9.780  -0.366   0.012  1.00  0.00     0.277 C 
BRANCH  25  28
HETATM   28  C15 UNL     1       8.001  -0.857   1.453  1.00  0.00     0.269 C 
BRANCH  28  29
HETATM   29  C16 UNL     1       8.008  -2.376   1.386  1.00  0.00     0.257 C 
BRANCH  29  30
HETATM   30  N3  UNL     1       9.295  -2.918   1.006  1.00  0.00    -0.078 N 
ATOM     31  H33 UNL     1       9.616  -2.513   0.127  1.00  0.00     0.274 HD
ATOM     32  H32 UNL     1      10.031  -2.577   1.624  1.00  0.00     0.274 HD
ATOM     33  H31 UNL     1       9.300  -3.937   0.961  1.00  0.00     0.274 HD
ENDBRANCH  29  30
ENDBRANCH  28  29
ENDBRANCH  25  28
ENDBRANCH  24  25
ENDBRANCH  23  24
ENDBRANCH  22  23
ENDBRANCH  21  22
ENDBRANCH  19  20
ENDBRANCH  17  18
ENDBRANCH  12  17
ENDBRANCH  11  12
ENDBRANCH   1  11
BRANCH   9  34
HETATM   34  N4  UNL     1      -5.471  -1.465  -0.028  1.00  0.00    -0.299 N 
HETATM   35  C26 UNL     1      -4.706  -2.027   0.921  1.00  0.00     0.188 A 
HETATM   36  N5  UNL     1      -5.284  -3.169   1.355  1.00  0.00    -0.346 N 
HETATM   37  C27 UNL     1      -6.421  -3.353   0.696  1.00  0.00     0.122 A 
ATOM     38  H5  UNL     1      -4.907  -3.789   2.072  1.00  0.00     0.167 HD
HETATM   39  C28 UNL     1      -7.364  -4.379   0.794  1.00  0.00     0.131 A 
HETATM   40  C30 UNL     1      -6.542  -2.299  -0.165  1.00  0.00     0.142 A 
HETATM   41  N7  UNL     1      -8.426  -4.279  -0.018  1.00  0.00    -0.337 N 
HETATM   42  C29 UNL     1      -8.553  -3.249  -0.865  1.00  0.00     0.183 A 
ATOM     43  H7  UNL     1      -9.149  -4.998   0.010  1.00  0.00     0.168 HD
HETATM   44  N8  UNL     1      -7.638  -2.255  -0.959  1.00  0.00    -0.336 N 
ATOM     45  H8  UNL     1      -7.772  -1.487  -1.616  1.00  0.00     0.168 HD
BRANCH  39  46
HETATM   46  N6  UNL     1      -7.270  -5.376   1.588  1.00  0.00    -0.383 N 
ATOM     47  H62 UNL     1      -6.462  -5.452   2.206  1.00  0.00     0.157 HD
ATOM     48  H61 UNL     1      -7.959  -6.125   1.660  1.00  0.00     0.157 HD
ENDBRANCH  39  46
ENDBRANCH   9  34
TORSDOF 14
