REMARK  13 active torsions:
REMARK  status: ('A' for Active; 'I' for Inactive)
REMARK    1  A    between atoms: C4_4  and  C5_5 
REMARK    2  A    between atoms: C5_5  and  O2_7 
REMARK    3  A    between atoms: O2_7  and  C6_8 
REMARK    4  A    between atoms: C8_11  and  C9_12 
REMARK    5  A    between atoms: C9_12  and  C10_13 
REMARK    6  A    between atoms: C11_14  and  C12_15 
REMARK    7  A    between atoms: C12_15  and  C13_16 
REMARK    8  A    between atoms: C13_16  and  C14_17 
REMARK    9  A    between atoms: C19_24  and  O6_25 
REMARK   10  A    between atoms: N1_28  and  C21_29 
REMARK   11  A    between atoms: C21_29  and  C22_30 
REMARK   12  A    between atoms: C22_30  and  C23_31 
REMARK   13  A    between atoms: C23_31  and  N2_32 
ROOT
HETATM    1  C1  UNL     1      -0.859  -2.128   0.252  1.00  0.00     0.016 C 
HETATM    2  C2  UNL     1      -0.753  -0.610   0.242  1.00  0.00    -0.028 C 
HETATM    3  C3  UNL     1       0.760  -0.343   0.514  1.00  0.00     0.054 C 
HETATM    4  C4  UNL     1       1.178  -1.173   1.675  1.00  0.00     0.014 C 
HETATM    5  C16 UNL     1       0.311  -1.255   2.644  1.00  0.00    -0.013 C 
HETATM    6  C17 UNL     1      -1.008  -0.611   2.681  1.00  0.00     0.036 C 
HETATM    7  C18 UNL     1      -1.416   0.053   1.381  1.00  0.00     0.032 C 
HETATM    8  C19 UNL     1      -2.895   0.149   1.388  1.00  0.00     0.161 C 
HETATM    9  C20 UNL     1      -3.621  -0.300   0.165  1.00  0.00     0.095 C 
HETATM   10  N1  UNL     1      -3.385   0.481  -0.957  1.00  0.00    -0.366 N 
HETATM   11  C28 UNL     1      -2.150   0.383  -1.644  1.00  0.00     0.093 A 
HETATM   12  C29 UNL     1      -1.108   1.409  -1.251  1.00  0.00     0.033 A 
HETATM   13  C30 UNL     1      -0.957  -0.108  -1.101  1.00  0.00     0.019 A 
ENDROOT
BRANCH   4  14
HETATM   14  C5  UNL     1       2.461  -1.852   1.688  1.00  0.00     0.289 C 
HETATM   15  O1  UNL     1       2.809  -2.589   2.667  1.00  0.00    -0.260 OA
BRANCH  14  16
HETATM   16  O2  UNL     1       3.396  -1.755   0.652  1.00  0.00    -0.310 OA
BRANCH  16  17
HETATM   17  C6  UNL     1       4.595  -2.455   0.747  1.00  0.00     0.158 C 
HETATM   18  C7  UNL     1       4.700  -3.338  -0.491  1.00  0.00     0.200 C 
HETATM   19  O3  UNL     1       5.899  -3.039  -1.104  1.00  0.00    -0.383 OA
HETATM   20  C8  UNL     1       6.753  -2.505  -0.137  1.00  0.00     0.127 C 
HETATM   21  C15 UNL     1       5.787  -1.539   0.547  1.00  0.00     0.067 C 
BRANCH  20  22
HETATM   22  C9  UNL     1       7.888  -1.724  -0.727  1.00  0.00     0.059 C 
BRANCH  22  23
HETATM   23  C10 UNL     1       8.782  -1.179   0.313  1.00  0.00    -0.028 C 
HETATM   24  C11 UNL     1       9.048   0.093   0.480  1.00  0.00    -0.030 C 
BRANCH  24  25
HETATM   25  C12 UNL     1       8.526   1.215  -0.309  1.00  0.00     0.037 C 
BRANCH  25  26
HETATM   26  C13 UNL     1       9.742   1.900  -0.957  1.00  0.00     0.117 C 
BRANCH  26  27
HETATM   27  C14 UNL     1       9.260   3.043  -1.741  1.00  0.00     0.172 C 
HETATM   28  O4  UNL     1       8.499   3.883  -1.149  1.00  0.00    -0.648 OA
HETATM   29  O5  UNL     1       9.641   3.162  -3.060  1.00  0.00    -0.648 OA
ENDBRANCH  26  27
ENDBRANCH  25  26
ENDBRANCH  24  25
ENDBRANCH  22  23
ENDBRANCH  20  22
ENDBRANCH  16  17
ENDBRANCH  14  16
ENDBRANCH   4  14
BRANCH   8  30
HETATM   30  O6  UNL     1      -3.238   1.466   1.667  1.00  0.00    -0.390 OA
ATOM     31  H6  UNL     1      -4.186   1.528   1.671  1.00  0.00     0.210 HD
ENDBRANCH   8  30
BRANCH  10  32
HETATM   32  C21 UNL     1      -4.482   0.652  -1.825  1.00  0.00     0.065 C 
BRANCH  32  33
HETATM   33  C22 UNL     1      -5.608   1.550  -1.567  1.00  0.00     0.075 C 
BRANCH  33  34
HETATM   34  C23 UNL     1      -6.417   1.335  -0.344  1.00  0.00     0.277 C 
BRANCH  34  35
HETATM   35  N2  UNL     1      -7.530   2.300  -0.311  1.00  0.00     0.091 N 
HETATM   36  C24 UNL     1      -8.221   2.168   0.978  1.00  0.00     0.291 C 
HETATM   37  C25 UNL     1      -8.622   0.749   1.195  1.00  0.00     0.144 C 
HETATM   38  N3  UNL     1      -9.350   0.133   0.131  1.00  0.00    -0.418 N 
HETATM   39  C26 UNL     1      -8.931   0.499  -1.201  1.00  0.00     0.144 C 
ATOM     40  H3  UNL     1     -10.114  -0.521   0.301  1.00  0.00     0.153 HD
HETATM   41  C27 UNL     1      -8.516   1.926  -1.312  1.00  0.00     0.291 C 
ENDBRANCH  34  35
ENDBRANCH  33  34
ENDBRANCH  32  33
ENDBRANCH  10  32
TORSDOF 13
