REMARK  14 active torsions:
REMARK  status: ('A' for Active; 'I' for Inactive)
REMARK    1  A    between atoms: C2_2  and  C3_3 
REMARK    2  A    between atoms: C3_3  and  N1_4 
REMARK    3  A    between atoms: C7_13  and  N3_14 
REMARK    4  A    between atoms: N3_14  and  C8_16 
REMARK    5  A    between atoms: C12_20  and  C13_21 
REMARK       I    between atoms: C13_21  and  N4_23 
REMARK    6  A    between atoms: N4_23  and  C14_25 
REMARK    7  A    between atoms: C14_25  and  C15_26 
REMARK    8  A    between atoms: C15_26  and  C16_27 
REMARK    9  A    between atoms: C16_27  and  N5_28 
REMARK   10  A    between atoms: N5_28  and  C18_30 
REMARK   11  A    between atoms: C18_30  and  O4_31 
REMARK   12  A    between atoms: C18_30  and  C19_33 
REMARK   13  A    between atoms: C19_33  and  C20_34 
REMARK   14  A    between atoms: C24_38  and  O5_39 
ROOT
HETATM    1  C8  UNL     1      -2.668   1.595   0.344  1.00  0.00     0.068 A 
HETATM    2  C9  UNL     1      -2.343   1.203   1.622  1.00  0.00     0.040 A 
HETATM    3  C10 UNL     1      -0.992   1.138   2.004  1.00  0.00    -0.044 A 
HETATM    4  C11 UNL     1      -0.749   0.759   3.417  1.00  0.00     0.049 C 
HETATM    5  C12 UNL     1      -0.018   1.453   1.133  1.00  0.00     0.041 A 
HETATM    6  C23 UNL     1      -0.375   1.851  -0.165  1.00  0.00     0.056 A 
HETATM    7  C24 UNL     1      -1.682   1.922  -0.557  1.00  0.00     0.096 A 
ENDROOT
BRANCH   1   8
HETATM    8  N3  UNL     1      -4.016   1.665  -0.049  1.00  0.00    -0.334 N 
ATOM      9  H3  UNL     1      -4.397   2.506  -0.482  1.00  0.00     0.168 HD
BRANCH   8  10
HETATM   10  C7  UNL     1      -4.769   0.604   0.162  1.00  0.00     0.151 A 
HETATM   11  S1  UNL     1      -4.353  -0.897   0.860  1.00  0.00    -0.044 SA
HETATM   12  C6  UNL     1      -5.881  -1.647   0.769  1.00  0.00     0.120 A 
HETATM   13  C5  UNL     1      -6.391  -2.904   1.141  1.00  0.00     0.270 A 
HETATM   14  C26 UNL     1      -6.648  -0.676   0.191  1.00  0.00     0.136 A 
HETATM   15  N2  UNL     1      -7.693  -3.201   0.934  1.00  0.00    -0.274 N 
HETATM   16  O2  UNL     1      -5.615  -3.738   1.667  1.00  0.00    -0.266 OA
HETATM   17  C4  UNL     1      -8.410  -2.214   0.363  1.00  0.00     0.331 A 
ATOM     18  H2  UNL     1      -8.100  -4.101   1.190  1.00  0.00     0.173 HD
HETATM   19  N1  UNL     1      -7.966  -1.024   0.001  1.00  0.00    -0.284 N 
HETATM   20  O1  UNL     1      -9.637  -2.508   0.175  1.00  0.00    -0.246 OA
HETATM   21  N6  UNL     1      -6.063   0.463  -0.111  1.00  0.00    -0.321 N 
ATOM     22  H6  UNL     1      -6.590   1.221  -0.545  1.00  0.00     0.169 HD
BRANCH  19  23
HETATM   23  C3  UNL     1      -8.915  -0.105  -0.593  1.00  0.00     0.135 C 
BRANCH  23  24
HETATM   24  C2  UNL     1      -8.999  -0.238  -2.092  1.00  0.00     0.016 C 
HETATM   25  C1  UNL     1     -10.029   0.777  -2.592  1.00  0.00     0.006 C 
ENDBRANCH  23  24
ENDBRANCH  19  23
ENDBRANCH   8  10
ENDBRANCH   1   8
BRANCH   7  26
HETATM   26  O5  UNL     1      -2.022   2.315  -1.835  1.00  0.00    -0.354 OA
HETATM   27  C25 UNL     1      -1.093   2.666  -2.816  1.00  0.00     0.210 C 
ENDBRANCH   7  26
BRANCH   5  28
HETATM   28  C13 UNL     1       1.401   1.354   1.407  1.00  0.00     0.255 C 
HETATM   29  O3  UNL     1       2.168   2.240   0.860  1.00  0.00    -0.267 OA
HETATM   30  N4  UNL     1       2.036   0.386   2.209  1.00  0.00    -0.337 N 
ATOM     31  H4  UNL     1       1.402  -0.295   2.628  1.00  0.00     0.168 HD
BRANCH  30  32
HETATM   32  C14 UNL     1       3.388   0.194   2.533  1.00  0.00     0.066 C 
BRANCH  32  33
HETATM   33  C15 UNL     1       4.417  -0.240   1.596  1.00  0.00     0.064 C 
BRANCH  33  34
HETATM   34  C16 UNL     1       4.687   0.577   0.401  1.00  0.00     0.129 C 
BRANCH  34  35
HETATM   35  N5  UNL     1       5.846  -0.010  -0.351  1.00  0.00    -0.369 N 
HETATM   36  C17 UNL     1       5.505  -0.963  -1.344  1.00  0.00     0.151 C 
BRANCH  35  37
HETATM   37  C18 UNL     1       7.106   0.447  -0.002  1.00  0.00     0.113 C 
BRANCH  37  38
HETATM   38  O4  UNL     1       7.091   1.375   0.956  1.00  0.00    -0.349 OA
ATOM     39  H4  UNL     1       7.955   1.688   1.195  1.00  0.00     0.219 HD
ENDBRANCH  37  38
BRANCH  37  40
HETATM   40  C19 UNL     1       8.454   0.153  -0.436  1.00  0.00     0.087 C 
BRANCH  40  41
HETATM   41  C20 UNL     1       8.761  -1.014  -1.275  1.00  0.00    -0.015 C 
HETATM   42  C21 UNL     1      10.306  -1.005  -1.547  1.00  0.00     0.010 C 
HETATM   43  C22 UNL     1       8.458  -2.336  -0.578  1.00  0.00     0.010 C 
ENDBRANCH  40  41
ENDBRANCH  37  40
ENDBRANCH  35  37
ENDBRANCH  34  35
ENDBRANCH  33  34
ENDBRANCH  32  33
ENDBRANCH  30  32
ENDBRANCH   5  28
TORSDOF 14
