REMARK  15 active torsions:
REMARK  status: ('A' for Active; 'I' for Inactive)
REMARK    1  A    between atoms: C2_2  and  C3_3 
REMARK    2  A    between atoms: C3_3  and  C4_4 
REMARK    3  A    between atoms: C4_4  and  N1_5 
REMARK    4  A    between atoms: N1_5  and  C5_7 
REMARK    5  A    between atoms: C8_12  and  O1_13 
REMARK    6  A    between atoms: C10_15  and  N3_16 
REMARK    7  A    between atoms: N3_16  and  C11_18 
REMARK    8  A    between atoms: C12_21  and  C13_22 
REMARK    9  A    between atoms: C13_22  and  N5_23 
REMARK   10  A    between atoms: C23_35  and  C24_36 
REMARK   11  A    between atoms: C24_36  and  O2_37 
REMARK   12  A    between atoms: C24_36  and  N7_39 
REMARK   13  A    between atoms: N7_39  and  C25_41 
REMARK   14  A    between atoms: C25_41  and  C26_42 
REMARK   15  A    between atoms: C26_42  and  N8_43 
ROOT
HETATM    1  C5  UNL     1      -3.797   1.142  -0.180  1.00  0.00     0.116 A 
HETATM    2  N2  UNL     1      -2.669   1.914   0.006  1.00  0.00    -0.341 N 
ATOM      3  H2  UNL     1      -2.779   2.921   0.123  1.00  0.00     0.167 HD
HETATM    4  C6  UNL     1      -1.436   1.395   0.039  1.00  0.00     0.046 A 
HETATM    5  C7  UNL     1      -0.310   2.174   0.228  1.00  0.00     0.069 A 
HETATM    6  C8  UNL     1       0.963   1.615   0.263  1.00  0.00     0.097 A 
HETATM    7  C10 UNL     1       1.131   0.255   0.108  1.00  0.00     0.068 A 
HETATM    8  C20 UNL     1      -0.017  -0.522  -0.083  1.00  0.00     0.046 A 
HETATM    9  C21 UNL     1      -1.288   0.033  -0.118  1.00  0.00    -0.006 A 
HETATM   10  C22 UNL     1      -2.409  -0.736  -0.302  1.00  0.00     0.033 A 
HETATM   11  C23 UNL     1      -3.713  -0.205  -0.340  1.00  0.00     0.059 A 
ENDROOT
BRANCH   7  12
HETATM   12  N3  UNL     1       2.383  -0.384   0.134  1.00  0.00    -0.334 N 
ATOM     13  H3  UNL     1       2.550  -1.082   0.859  1.00  0.00     0.168 HD
BRANCH  12  14
HETATM   14  C11 UNL     1       3.336  -0.140  -0.705  1.00  0.00     0.149 A 
HETATM   15  N4  UNL     1       4.546  -0.696  -0.752  1.00  0.00    -0.338 N 
HETATM   16  C12 UNL     1       5.375  -0.317  -1.675  1.00  0.00     0.046 A 
ATOM     17  H4  UNL     1       4.816  -1.408  -0.073  1.00  0.00     0.168 HD
HETATM   18  C19 UNL     1       4.952   0.646  -2.561  1.00  0.00     0.080 A 
HETATM   19  S1  UNL     1       3.365   0.956  -2.008  1.00  0.00    -0.064 SA
BRANCH  16  20
HETATM   20  C13 UNL     1       6.781  -0.865  -1.842  1.00  0.00     0.330 C 
BRANCH  20  21
HETATM   21  N5  UNL     1       7.146  -1.492  -0.594  1.00  0.00     0.097 N 
HETATM   22  C14 UNL     1       8.492  -2.057  -0.767  1.00  0.00     0.303 C 
HETATM   23  C15 UNL     1       8.975  -2.554   0.568  1.00  0.00     0.302 C 
HETATM   24  N6  UNL     1       9.219  -1.471   1.482  1.00  0.00     0.087 N 
HETATM   25  C16 UNL     1      10.612  -1.308   1.802  1.00  0.00     0.310 C 
HETATM   26  C17 UNL     1       8.616  -0.265   0.975  1.00  0.00     0.302 C 
HETATM   27  C18 UNL     1       7.235  -0.491   0.429  1.00  0.00     0.303 C 
ENDBRANCH  20  21
ENDBRANCH  16  20
ENDBRANCH  12  14
ENDBRANCH   7  12
BRANCH   6  28
HETATM   28  O1  UNL     1       2.082   2.410   0.453  1.00  0.00    -0.354 OA
HETATM   29  C9  UNL     1       1.924   3.826   0.615  1.00  0.00     0.210 C 
ENDBRANCH   6  28
BRANCH  11  30
HETATM   30  C24 UNL     1      -4.836  -1.111  -0.515  1.00  0.00     0.150 C 
BRANCH  30  31
HETATM   31  O2  UNL     1      -4.558  -2.312  -0.942  1.00  0.00    -0.346 OA
ATOM     32  H2  UNL     1      -5.292  -2.904  -1.056  1.00  0.00     0.219 HD
ENDBRANCH  30  31
BRANCH  30  33
HETATM   33  N7  UNL     1      -6.189  -0.880  -0.285  1.00  0.00    -0.369 N 
ATOM     34  H7  UNL     1      -6.488   0.037   0.047  1.00  0.00     0.161 HD
BRANCH  33  35
HETATM   35  C25 UNL     1      -7.187  -1.914  -0.507  1.00  0.00     0.152 C 
BRANCH  35  36
HETATM   36  C26 UNL     1      -6.977  -3.074   0.407  1.00  0.00     0.290 C 
BRANCH  36  37
HETATM   37  N8  UNL     1      -7.996  -4.104   0.173  1.00  0.00     0.081 N 
HETATM   38  C27 UNL     1      -7.730  -4.653  -1.142  1.00  0.00     0.309 C 
HETATM   39  C28 UNL     1      -7.899  -5.152   1.166  1.00  0.00     0.309 C 
ENDBRANCH  36  37
ENDBRANCH  35  36
ENDBRANCH  33  35
ENDBRANCH  30  33
ENDBRANCH  11  30
BRANCH   1  40
HETATM   40  N1  UNL     1      -4.926   1.731  -0.216  1.00  0.00    -0.376 N 
ATOM     41  H1  UNL     1      -5.740   1.132  -0.355  1.00  0.00     0.161 HD
BRANCH  40  42
HETATM   42  C4  UNL     1      -5.190   3.126  -0.086  1.00  0.00     0.121 C 
BRANCH  42  43
HETATM   43  C3  UNL     1      -5.235   3.583   1.359  1.00  0.00     0.019 C 
BRANCH  43  44
HETATM   44  C2  UNL     1      -5.518   5.055   1.460  1.00  0.00    -0.003 C 
HETATM   45  C1  UNL     1      -4.464   5.859   0.765  1.00  0.00     0.005 C 
ENDBRANCH  43  44
ENDBRANCH  42  43
ENDBRANCH  40  42
ENDBRANCH   1  40
TORSDOF 15
