REMARK  12 active torsions:
REMARK  status: ('A' for Active; 'I' for Inactive)
REMARK    1  A    between atoms: C2_2  and  C3_3 
REMARK    2  A    between atoms: C3_3  and  C4_4 
REMARK    3  A    between atoms: C4_4  and  C5_5 
REMARK    4  A    between atoms: C5_5  and  C6_6 
REMARK    5  A    between atoms: C6_6  and  O1_7 
REMARK    6  A    between atoms: C6_6  and  C7_9 
REMARK    7  A    between atoms: C7_9  and  N1_10 
REMARK    8  A    between atoms: C9_15  and  C10_16 
REMARK    9  A    between atoms: C10_16  and  C11_18 
REMARK   10  A    between atoms: C11_18  and  C12_19 
REMARK   11  A    between atoms: N3_21  and  C14_22 
REMARK   12  A    between atoms: C14_22  and  C15_23 
REMARK       I    between atoms: C15_23  and  N4_25 
ROOT
HETATM    1  C12 UNL     1      -1.929   1.280   0.432  1.00  0.00    -0.021 A 
HETATM    2  C13 UNL     1      -2.642   0.842   1.524  1.00  0.00     0.101 A 
HETATM    3  N3  UNL     1      -3.974   1.047   1.300  1.00  0.00    -0.333 N 
HETATM    4  C20 UNL     1      -4.083   1.606   0.085  1.00  0.00     0.121 A 
HETATM    5  N5  UNL     1      -5.137   2.019  -0.646  1.00  0.00    -0.308 N 
ATOM      6  H5  UNL     1      -6.069   1.910  -0.245  1.00  0.00     0.170 HD
HETATM    7  C21 UNL     1      -5.038   2.567  -1.873  1.00  0.00     0.252 A 
HETATM    8  O5  UNL     1      -6.073   2.939  -2.515  1.00  0.00    -0.268 OA
HETATM    9  C22 UNL     1      -3.811   2.743  -2.475  1.00  0.00     0.007 A 
HETATM   10  C23 UNL     1      -3.694   3.348  -3.833  1.00  0.00     0.054 C 
HETATM   11  C24 UNL     1      -2.709   2.331  -1.755  1.00  0.00     0.028 A 
HETATM   12  C25 UNL     1      -2.841   1.773  -0.500  1.00  0.00     0.017 A 
ENDROOT
BRANCH   1  13
HETATM   13  C11 UNL     1      -0.463   1.266   0.206  1.00  0.00     0.125 C 
BRANCH  13  14
HETATM   14  C10 UNL     1      -0.081   0.182  -0.728  1.00  0.00     0.171 C 
HETATM   15  O3  UNL     1      -0.975  -0.564  -1.194  1.00  0.00    -0.292 OA
BRANCH  14  16
HETATM   16  C9  UNL     1       1.306  -0.020  -1.103  1.00  0.00     0.103 A 
HETATM   17  C8  UNL     1       1.932   0.585  -2.195  1.00  0.00     0.275 A 
HETATM   18  N2  UNL     1       3.205   0.150  -2.213  1.00  0.00    -0.263 N 
HETATM   19  O2  UNL     1       1.445   1.388  -3.030  1.00  0.00    -0.266 OA
HETATM   20  N1  UNL     1       3.431  -0.684  -1.214  1.00  0.00    -0.290 N 
ATOM     21  H2  UNL     1       3.902   0.427  -2.905  1.00  0.00     0.190 HD
HETATM   22  C26 UNL     1       2.262  -0.802  -0.513  1.00  0.00     0.044 A 
HETATM   23  C27 UNL     1       2.069  -1.654   0.705  1.00  0.00     0.071 C 
BRANCH  20  24
HETATM   24  C7  UNL     1       4.653  -1.386  -0.889  1.00  0.00     0.180 C 
BRANCH  24  25
HETATM   25  C6  UNL     1       5.489  -0.599   0.111  1.00  0.00     0.138 C 
BRANCH  25  26
HETATM   26  C5  UNL     1       6.749  -1.332   0.454  1.00  0.00     0.033 C 
BRANCH  26  27
HETATM   27  C4  UNL     1       7.794  -1.393  -0.593  1.00  0.00     0.002 C 
BRANCH  27  28
HETATM   28  C3  UNL     1       8.343  -0.088  -1.040  1.00  0.00    -0.000 C 
BRANCH  28  29
HETATM   29  C2  UNL     1       8.985   0.700   0.080  1.00  0.00    -0.005 C 
HETATM   30  C1  UNL     1      10.138  -0.060   0.702  1.00  0.00     0.005 C 
ENDBRANCH  28  29
ENDBRANCH  27  28
ENDBRANCH  26  27
ENDBRANCH  25  26
BRANCH  25  31
HETATM   31  O1  UNL     1       5.641   0.722  -0.210  1.00  0.00    -0.394 OA
ATOM     32  H1  UNL     1       4.842   1.187  -0.428  1.00  0.00     0.210 HD
ENDBRANCH  25  31
ENDBRANCH  24  25
ENDBRANCH  20  24
ENDBRANCH  14  16
ENDBRANCH  13  14
ENDBRANCH   1  13
BRANCH   3  33
HETATM   33  C14 UNL     1      -5.034   0.694   2.248  1.00  0.00     0.232 C 
BRANCH  33  34
HETATM   34  C15 UNL     1      -5.423  -0.716   1.941  1.00  0.00     0.238 C 
HETATM   35  O4  UNL     1      -4.513  -1.599   2.139  1.00  0.00    -0.272 OA
HETATM   36  N4  UNL     1      -6.674  -1.129   1.466  1.00  0.00    -0.349 N 
HETATM   37  C16 UNL     1      -6.870  -2.557   1.190  1.00  0.00     0.136 C 
HETATM   38  C19 UNL     1      -7.820  -0.290   1.224  1.00  0.00     0.136 C 
HETATM   39  C17 UNL     1      -7.461  -3.168   2.438  1.00  0.00     0.093 C 
HETATM   40  S1  UNL     1      -8.545  -1.989   3.295  1.00  0.00    -0.166 SA
HETATM   41  C18 UNL     1      -8.859  -0.527   2.304  1.00  0.00     0.093 C 
ENDBRANCH  33  34
ENDBRANCH   3  33
TORSDOF 12
