REMARK  11 active torsions:
REMARK  status: ('A' for Active; 'I' for Inactive)
REMARK    1  A    between atoms: C3_3  and  N1_4 
REMARK    2  A    between atoms: N1_4  and  C4_5 
REMARK    3  A    between atoms: N1_4  and  C23_33 
REMARK    4  A    between atoms: C4_5  and  C5_6 
REMARK    5  A    between atoms: C6_9  and  C7_10 
REMARK    6  A    between atoms: C7_10  and  C8_11 
REMARK    7  A    between atoms: C8_11  and  N3_12 
REMARK    8  A    between atoms: N3_12  and  C11_15 
REMARK    9  A    between atoms: C13_17  and  N4_18 
REMARK   10  A    between atoms: N4_18  and  C14_20 
REMARK   11  A    between atoms: C17_23  and  O1_24 
ROOT
HETATM    1  C1  UNL     1       5.562  -1.419  -2.154  1.00  0.00     0.018 C 
HETATM    2  C2  UNL     1       4.735  -0.788  -1.570  1.00  0.00    -0.072 C 
HETATM    3  C3  UNL     1       3.726  -0.031  -0.905  1.00  0.00     0.173 C 
ENDROOT
BRANCH   3   4
HETATM    4  N1  UNL     1       3.818  -0.020   0.547  1.00  0.00    -0.180 N 
BRANCH   4   5
HETATM    5  C4  UNL     1       2.674   0.549   1.275  1.00  0.00     0.210 C 
BRANCH   5   6
HETATM    6  C5  UNL     1       1.387   0.388   0.540  1.00  0.00     0.097 A 
HETATM    7  N2  UNL     1       0.770  -0.703   0.125  1.00  0.00    -0.354 N 
HETATM    8  C6  UNL     1      -0.518  -0.691  -0.425  1.00  0.00     0.056 A 
ATOM      9  H2  UNL     1       1.254  -1.597   0.209  1.00  0.00     0.166 HD
HETATM   10  C13 UNL     1      -1.166   0.494  -0.552  1.00  0.00     0.131 A 
HETATM   11  N5  UNL     1      -0.495   1.626  -0.113  1.00  0.00    -0.306 N 
HETATM   12  C22 UNL     1       0.715   1.610   0.413  1.00  0.00     0.271 A 
ATOM     13  H5  UNL     1      -0.966   2.526  -0.202  1.00  0.00     0.170 HD
HETATM   14  O2  UNL     1       1.265   2.678   0.796  1.00  0.00    -0.266 OA
BRANCH   8  15
HETATM   15  C7  UNL     1      -1.108  -2.024  -0.758  1.00  0.00     0.089 C 
BRANCH  15  16
HETATM   16  C8  UNL     1      -2.167  -2.497   0.179  1.00  0.00     0.242 C 
BRANCH  16  17
HETATM   17  N3  UNL     1      -2.534  -3.881   0.109  1.00  0.00    -0.075 N 
HETATM   18  C9  UNL     1      -1.984  -4.654  -0.939  1.00  0.00     0.272 C 
HETATM   19  C10 UNL     1      -1.970  -4.479   1.386  1.00  0.00     0.272 C 
BRANCH  17  20
HETATM   20  C11 UNL     1      -3.957  -4.067   0.238  1.00  0.00     0.232 C 
HETATM   21  C12 UNL     1      -4.660  -4.365  -1.068  1.00  0.00     0.034 C 
ENDBRANCH  17  20
ENDBRANCH  16  17
ENDBRANCH  15  16
ENDBRANCH   8  15
BRANCH  10  22
HETATM   22  N4  UNL     1      -2.528   0.674  -0.938  1.00  0.00    -0.340 N 
ATOM     23  H4  UNL     1      -3.179  -0.105  -1.041  1.00  0.00     0.167 HD
BRANCH  22  24
HETATM   24  C14 UNL     1      -2.910   2.042  -1.171  1.00  0.00     0.039 A 
HETATM   25  C15 UNL     1      -2.663   2.670  -2.357  1.00  0.00     0.033 A 
HETATM   26  C16 UNL     1      -3.134   3.936  -2.555  1.00  0.00     0.039 A 
HETATM   27  C17 UNL     1      -3.871   4.602  -1.554  1.00  0.00     0.068 A 
HETATM   28  C19 UNL     1      -4.117   3.937  -0.364  1.00  0.00     0.045 A 
HETATM   29  C20 UNL     1      -3.626   2.662  -0.186  1.00  0.00    -0.033 A 
HETATM   30  C21 UNL     1      -3.757   2.068   1.180  1.00  0.00     0.050 C 
BRANCH  27  31
HETATM   31  O1  UNL     1      -4.304   5.891  -1.808  1.00  0.00    -0.356 OA
HETATM   32  C18 UNL     1      -4.982   6.727  -0.923  1.00  0.00     0.210 C 
ENDBRANCH  27  31
ENDBRANCH  22  24
ENDBRANCH  10  22
ENDBRANCH   5   6
ENDBRANCH   4   5
BRANCH   4  33
HETATM   33  C23 UNL     1       5.051  -0.289   1.163  1.00  0.00     0.688 A 
HETATM   34  N6  UNL     1       5.225  -1.170   2.137  1.00  0.00    -0.154 N 
HETATM   35  C24 UNL     1       6.427  -1.145   2.748  1.00  0.00     0.279 A 
ATOM     36  H6  UNL     1       4.494  -1.828   2.408  1.00  0.00     0.187 HD
HETATM   37  O3  UNL     1       6.759  -1.919   3.695  1.00  0.00    -0.266 OA
HETATM   38  C25 UNL     1       7.442  -0.236   2.377  1.00  0.00     0.100 A 
HETATM   39  S1  UNL     1       8.999   0.180   2.918  1.00  0.00    -0.094 SA
HETATM   40  C28 UNL     1       7.234   0.647   1.370  1.00  0.00     0.072 A 
HETATM   41  C26 UNL     1       9.349   1.453   1.863  1.00  0.00     0.053 A 
HETATM   42  C27 UNL     1       8.213   1.529   1.088  1.00  0.00     0.039 A 
HETATM   43  N7  UNL     1       6.002   0.594   0.767  1.00  0.00    -0.190 N 
ATOM     44  H7  UNL     1       5.796   1.235   0.001  1.00  0.00     0.184 HD
ENDBRANCH   4  33
ENDBRANCH   3   4
TORSDOF 11
