REMARK  11 active torsions:
REMARK  status: ('A' for Active; 'I' for Inactive)
REMARK    1  A    between atoms: C1_2  and  C2_4 
REMARK    2  A    between atoms: C2_4  and  C3_5 
REMARK    3  A    between atoms: C3_5  and  N1_6 
REMARK       I    between atoms: N1_6  and  C4_8 
REMARK    4  A    between atoms: C4_8  and  C5_10 
REMARK    5  A    between atoms: C7_12  and  O4_13 
REMARK    6  A    between atoms: O4_13  and  C8_14 
REMARK    7  A    between atoms: C8_14  and  C9_15 
REMARK    8  A    between atoms: N2_22  and  C16_23 
REMARK    9  A    between atoms: C16_23  and  C17_24 
REMARK       I    between atoms: C17_24  and  N3_26 
REMARK   10  A    between atoms: N3_26  and  C18_28 
REMARK   11  A    between atoms: N4_32  and  C22_33 
ROOT
HETATM    1  C9  UNL     1       2.394   0.580   0.596  1.00  0.00     0.014 C 
HETATM    2  C10 UNL     1       1.997  -0.417  -0.418  1.00  0.00     0.042 C 
HETATM    3  C11 UNL     1       0.620  -0.194  -1.021  1.00  0.00     0.224 C 
HETATM    4  C12 UNL     1       0.692   1.131  -1.760  1.00  0.00     0.038 C 
HETATM    5  C13 UNL     1       0.413   2.177  -0.702  1.00  0.00     0.038 C 
HETATM    6  C14 UNL     1       0.042   1.371   0.498  1.00  0.00     0.224 C 
HETATM    7  C15 UNL     1       1.250   1.177   1.393  1.00  0.00     0.042 C 
HETATM    8  N2  UNL     1      -0.373   0.066  -0.004  1.00  0.00     0.106 N 
ENDROOT
BRANCH   1   9
HETATM    9  C8  UNL     1       3.431   0.093   1.576  1.00  0.00     0.181 C 
BRANCH   9  10
HETATM   10  O4  UNL     1       4.628  -0.245   1.209  1.00  0.00    -0.342 OA
BRANCH  10  11
HETATM   11  C7  UNL     1       5.386  -1.042   0.463  1.00  0.00     0.128 A 
HETATM   12  C6  UNL     1       6.794  -1.014   0.405  1.00  0.00     0.081 A 
HETATM   13  C5  UNL     1       7.373  -1.896  -0.406  1.00  0.00     0.110 A 
HETATM   14  N5  UNL     1       6.598  -2.729  -1.095  1.00  0.00    -0.320 N 
HETATM   15  S1  UNL     1       5.044  -2.314  -0.637  1.00  0.00     0.011 SA
ATOM     16  H5  UNL     1       6.885  -3.454  -1.752  1.00  0.00     0.174 HD
BRANCH  13  17
HETATM   17  C4  UNL     1       8.863  -1.977  -0.546  1.00  0.00     0.268 C 
HETATM   18  N1  UNL     1       9.722  -1.227   0.302  1.00  0.00    -0.355 N 
ATOM     19  H1  UNL     1       9.276  -0.638   1.006  1.00  0.00     0.162 HD
HETATM   20  O3  UNL     1       9.372  -2.706  -1.413  1.00  0.00    -0.266 OA
BRANCH  18  21
HETATM   21  C3  UNL     1      11.149  -1.219   0.263  1.00  0.00     0.133 C 
BRANCH  21  22
HETATM   22  C2  UNL     1      11.718  -0.736  -1.049  1.00  0.00     0.133 C 
BRANCH  22  23
HETATM   23  C1  UNL     1      11.261   0.656  -1.322  1.00  0.00     0.174 C 
HETATM   24  O1  UNL     1      11.708   1.231  -2.348  1.00  0.00    -0.648 OA
HETATM   25  O2  UNL     1      10.388   1.309  -0.500  1.00  0.00    -0.648 OA
ENDBRANCH  22  23
ENDBRANCH  21  22
ENDBRANCH  18  21
ENDBRANCH  13  17
ENDBRANCH  10  11
ENDBRANCH   9  10
ENDBRANCH   1   9
BRANCH   8  26
HETATM   26  C16 UNL     1      -1.648   0.262  -0.689  1.00  0.00     0.375 C 
BRANCH  26  27
HETATM   27  C17 UNL     1      -2.750   0.513   0.265  1.00  0.00     0.247 C 
HETATM   28  O5  UNL     1      -2.627   0.493   1.507  1.00  0.00    -0.272 OA
HETATM   29  N3  UNL     1      -4.077   0.814  -0.218  1.00  0.00    -0.330 N 
ATOM     30  H3  UNL     1      -4.252   0.834  -1.223  1.00  0.00     0.164 HD
BRANCH  29  31
HETATM   31  C18 UNL     1      -5.169   1.090   0.704  1.00  0.00     0.324 C 
HETATM   32  C19 UNL     1      -5.280   2.640   0.634  1.00  0.00     0.059 C 
HETATM   33  C20 UNL     1      -6.711   2.853   0.965  1.00  0.00     0.034 C 
HETATM   34  C21 UNL     1      -7.358   1.497   0.936  1.00  0.00     0.276 C 
HETATM   35  N4  UNL     1      -6.422   0.583   0.261  1.00  0.00     0.116 N 
BRANCH  35  36
HETATM   36  C22 UNL     1      -6.693  -0.730   0.747  1.00  0.00     0.225 C 
HETATM   37  C23 UNL     1      -8.088  -0.998   1.187  1.00  0.00     0.036 C 
HETATM   38  C24 UNL     1      -8.788  -2.009   0.268  1.00  0.00     0.002 C 
HETATM   39  C25 UNL     1      -8.493  -1.547  -1.155  1.00  0.00     0.000 C 
HETATM   40  C26 UNL     1      -7.050  -1.897  -1.449  1.00  0.00     0.002 C 
HETATM   41  C27 UNL     1      -6.247  -1.822  -0.196  1.00  0.00     0.036 C 
ENDBRANCH  35  36
ENDBRANCH  29  31
ENDBRANCH  26  27
ENDBRANCH   8  26
TORSDOF 11
