REMARK  12 active torsions:
REMARK  status: ('A' for Active; 'I' for Inactive)
REMARK    1  A    between atoms: C4_8  and  O1_9 
REMARK    2  A    between atoms: O1_9  and  C5_10 
REMARK    3  A    between atoms: C5_10  and  C6_11 
REMARK    4  A    between atoms: C6_11  and  S1_12 
REMARK    5  A    between atoms: S1_12  and  C7_13 
REMARK    6  A    between atoms: C7_13  and  C8_14 
REMARK       I    between atoms: C8_14  and  N3_16 
REMARK    7  A    between atoms: N3_16  and  C9_18 
REMARK    8  A    between atoms: C9_18  and  C10_19 
REMARK    9  A    between atoms: C10_19  and  C11_20 
REMARK   10  A    between atoms: C11_20  and  N4_21 
REMARK   11  A    between atoms: C19_29  and  N5_30 
REMARK   12  A    between atoms: N5_30  and  C20_31 
ROOT
HETATM    1  C1  UNL     1       4.512  -4.329  -2.607  1.00  0.00     0.070 C 
HETATM    2  C2  UNL     1       4.583  -3.105  -1.720  1.00  0.00     0.029 A 
HETATM    3  N1  UNL     1       3.481  -2.405  -1.429  1.00  0.00    -0.343 N 
ATOM      4  H1  UNL     1       2.571  -2.684  -1.795  1.00  0.00     0.167 HD
HETATM    5  C3  UNL     1       3.608  -1.306  -0.628  1.00  0.00     0.138 A 
HETATM    6  N2  UNL     1       2.527  -0.580  -0.336  1.00  0.00    -0.320 N 
ATOM      7  H2  UNL     1       1.625  -0.875  -0.709  1.00  0.00     0.169 HD
HETATM    8  C4  UNL     1       2.579   0.548   0.445  1.00  0.00     0.162 A 
HETATM    9  C18 UNL     1       3.811   0.963   0.961  1.00  0.00     0.104 A 
HETATM   10  C19 UNL     1       4.982   0.239   0.690  1.00  0.00     0.135 A 
HETATM   11  C25 UNL     1       4.803  -0.888  -0.112  1.00  0.00     0.118 A 
HETATM   12  N7  UNL     1       5.891  -1.602  -0.417  1.00  0.00    -0.353 N 
ATOM     13  H7  UNL     1       6.801  -1.321  -0.051  1.00  0.00     0.166 HD
HETATM   14  C26 UNL     1       5.792  -2.698  -1.210  1.00  0.00     0.028 A 
HETATM   15  C27 UNL     1       7.027  -3.473  -1.524  1.00  0.00     0.070 C 
ENDROOT
BRANCH   8  16
HETATM   16  O1  UNL     1       1.468   1.191   0.670  1.00  0.00    -0.255 OA
BRANCH  16  17
HETATM   17  C5  UNL     1       0.419   1.829   0.903  1.00  0.00    -0.008 C 
BRANCH  17  18
HETATM   18  C6  UNL     1      -0.785   2.553   1.166  1.00  0.00     0.186 C 
BRANCH  18  19
HETATM   19  S1  UNL     1      -2.121   1.682   2.053  1.00  0.00    -0.146 SA
BRANCH  19  20
HETATM   20  C7  UNL     1      -2.757   0.337   0.994  1.00  0.00     0.177 C 
BRANCH  20  21
HETATM   21  C8  UNL     1      -3.375   0.903  -0.234  1.00  0.00     0.226 C 
HETATM   22  O2  UNL     1      -3.512   2.169  -0.281  1.00  0.00    -0.273 OA
HETATM   23  N3  UNL     1      -3.798   0.111  -1.318  1.00  0.00    -0.360 N 
ATOM     24  H3  UNL     1      -3.672  -0.899  -1.244  1.00  0.00     0.162 HD
BRANCH  23  25
HETATM   25  C9  UNL     1      -4.388   0.617  -2.509  1.00  0.00     0.124 C 
BRANCH  25  26
HETATM   26  C10 UNL     1      -5.716   1.303  -2.395  1.00  0.00     0.050 C 
BRANCH  26  27
HETATM   27  C11 UNL     1      -6.789   0.385  -1.890  1.00  0.00     0.274 C 
BRANCH  27  28
HETATM   28  N4  UNL     1      -6.513  -0.010  -0.499  1.00  0.00     0.088 N 
HETATM   29  C12 UNL     1      -7.274  -1.236  -0.214  1.00  0.00     0.272 C 
HETATM   30  C13 UNL     1      -8.716  -1.136  -0.559  1.00  0.00     0.030 C 
HETATM   31  C14 UNL     1      -9.492  -0.297   0.442  1.00  0.00     0.002 C 
HETATM   32  C15 UNL     1      -8.745  -0.216   1.763  1.00  0.00     0.002 C 
HETATM   33  C16 UNL     1      -7.443   0.517   1.675  1.00  0.00     0.030 C 
HETATM   34  C17 UNL     1      -7.087   1.066   0.354  1.00  0.00     0.272 C 
ENDBRANCH  27  28
ENDBRANCH  26  27
ENDBRANCH  25  26
ENDBRANCH  23  25
ENDBRANCH  20  21
ENDBRANCH  19  20
ENDBRANCH  18  19
ENDBRANCH  17  18
ENDBRANCH  16  17
ENDBRANCH   8  16
BRANCH  10  35
HETATM   35  N5  UNL     1       6.038   0.620   1.139  1.00  0.00    -0.440 NA
BRANCH  35  36
HETATM   36  C20 UNL     1       7.342   0.717   1.446  1.00  0.00     0.173 C 
HETATM   37  C21 UNL     1       8.264   0.676   0.241  1.00  0.00     0.059 C 
HETATM   38  C22 UNL     1       9.465   1.577   0.370  1.00  0.00     0.125 C 
HETATM   39  N6  UNL     1       9.951   1.709   1.709  1.00  0.00    -0.361 N 
HETATM   40  C23 UNL     1       9.002   2.001   2.722  1.00  0.00     0.220 C 
ATOM     41  H6  UNL     1      10.941   1.598   1.927  1.00  0.00     0.162 HD
HETATM   42  O3  UNL     1       9.321   2.257   3.916  1.00  0.00    -0.274 OA
HETATM   43  C24 UNL     1       7.571   1.985   2.284  1.00  0.00     0.142 C 
ENDBRANCH  35  36
ENDBRANCH  10  35
TORSDOF 12
