REMARK  12 active torsions:
REMARK  status: ('A' for Active; 'I' for Inactive)
REMARK    1  A    between atoms: C3_3  and  N1_4 
REMARK    2  A    between atoms: N1_4  and  C4_5 
REMARK    3  A    between atoms: N1_4  and  C18_29 
REMARK    4  A    between atoms: C4_5  and  C5_6 
REMARK    5  A    between atoms: C8_11  and  N3_12 
REMARK    6  A    between atoms: C14_20  and  N5_21 
REMARK    7  A    between atoms: N5_21  and  C15_23 
REMARK    8  A    between atoms: C15_23  and  C16_24 
REMARK    9  A    between atoms: C23_34  and  C24_35 
REMARK       I    between atoms: C24_35  and  N8_37 
REMARK   10  A    between atoms: N8_37  and  C25_39 
REMARK   11  A    between atoms: C25_39  and  C26_40 
REMARK   12  A    between atoms: C26_40  and  C27_41 
ROOT
HETATM    1  C1  UNL     1       3.584   1.471  -2.962  1.00  0.00     0.014 C 
HETATM    2  C2  UNL     1       2.577   0.905  -2.614  1.00  0.00    -0.098 C 
HETATM    3  C3  UNL     1       1.352   0.182  -2.186  1.00  0.00     0.216 C 
ENDROOT
BRANCH   3   4
HETATM    4  N1  UNL     1       1.476  -0.263  -0.837  1.00  0.00    -0.363 N 
BRANCH   4   5
HETATM    5  C4  UNL     1       0.519  -1.046  -0.154  1.00  0.00     0.182 C 
BRANCH   5   6
HETATM    6  C5  UNL     1      -0.855  -0.554  -0.063  1.00  0.00     0.048 A 
HETATM    7  C6  UNL     1      -1.495   0.602  -0.363  1.00  0.00     0.080 A 
HETATM    8  C7  UNL     1      -2.841   0.504  -0.065  1.00  0.00     0.162 A 
HETATM    9  N2  UNL     1      -3.851   1.367  -0.179  1.00  0.00    -0.174 N 
HETATM   10  N6  UNL     1      -2.982  -0.763   0.426  1.00  0.00    -0.069 N 
HETATM   11  C8  UNL     1      -5.087   0.999   0.204  1.00  0.00     0.696 A 
ATOM     12  H2  UNL     1      -3.687   2.301  -0.555  1.00  0.00     0.186 HD
HETATM   13  N4  UNL     1      -5.252  -0.226   0.685  1.00  0.00    -0.021 N 
HETATM   14  C14 UNL     1      -4.219  -1.132   0.809  1.00  0.00     0.716 A 
ATOM     15  H4  UNL     1      -6.187  -0.512   0.977  1.00  0.00     0.203 HD
HETATM   16  N7  UNL     1      -1.834  -1.368   0.425  1.00  0.00    -0.280 N 
ATOM     17  H7  UNL     1      -1.684  -2.324   0.746  1.00  0.00     0.188 HD
BRANCH  11  18
HETATM   18  N3  UNL     1      -6.119   1.962   0.049  1.00  0.00    -0.217 N 
HETATM   19  C9  UNL     1      -7.168   1.873  -0.955  1.00  0.00     0.141 C 
HETATM   20  C10 UNL     1      -8.499   1.694  -0.239  1.00  0.00     0.020 C 
HETATM   21  C11 UNL     1      -8.505   2.309   1.133  1.00  0.00     0.003 C 
HETATM   22  C12 UNL     1      -7.624   3.543   1.099  1.00  0.00     0.020 C 
HETATM   23  C13 UNL     1      -6.174   3.157   0.912  1.00  0.00     0.141 C 
ENDBRANCH  11  18
BRANCH  14  24
HETATM   24  N5  UNL     1      -4.518  -2.273   1.275  1.00  0.00    -0.220 N 
ATOM     25  H5  UNL     1      -5.495  -2.433   1.521  1.00  0.00     0.178 HD
BRANCH  24  26
HETATM   26  C15 UNL     1      -3.618  -3.344   1.484  1.00  0.00     0.164 C 
BRANCH  26  27
HETATM   27  C16 UNL     1      -3.494  -4.188   0.243  1.00  0.00    -0.017 C 
HETATM   28  C17 UNL     1      -3.797  -5.485   0.237  1.00  0.00     0.008 C 
ENDBRANCH  26  27
ENDBRANCH  24  26
ENDBRANCH  14  24
ENDBRANCH   5   6
ENDBRANCH   4   5
BRANCH   4  29
HETATM   29  C18 UNL     1       2.686   0.081  -0.128  1.00  0.00     0.057 A 
HETATM   30  C19 UNL     1       2.850   1.212   0.618  1.00  0.00    -0.034 A 
HETATM   31  C20 UNL     1       1.763   2.204   0.760  1.00  0.00     0.050 C 
HETATM   32  C21 UNL     1       4.045   1.487   1.279  1.00  0.00     0.010 A 
HETATM   33  C22 UNL     1       5.089   0.624   1.195  1.00  0.00     0.019 A 
HETATM   34  C23 UNL     1       4.955  -0.549   0.436  1.00  0.00     0.052 A 
HETATM   35  C28 UNL     1       3.765  -0.797  -0.206  1.00  0.00     0.059 A 
HETATM   36  C29 UNL     1       3.645  -2.016  -0.984  1.00  0.00    -0.074 C 
HETATM   37  C30 UNL     1       3.524  -3.029  -1.625  1.00  0.00     0.018 C 
BRANCH  34  38
HETATM   38  C24 UNL     1       6.108  -1.452   0.363  1.00  0.00     0.253 C 
HETATM   39  O1  UNL     1       5.983  -2.677   0.347  1.00  0.00    -0.268 OA
HETATM   40  N8  UNL     1       7.398  -0.861   0.309  1.00  0.00    -0.356 N 
ATOM     41  H8  UNL     1       7.451   0.157   0.324  1.00  0.00     0.162 HD
BRANCH  40  42
HETATM   42  C25 UNL     1       8.638  -1.593   0.235  1.00  0.00     0.133 C 
BRANCH  42  43
HETATM   43  C26 UNL     1       9.795  -0.590   0.186  1.00  0.00     0.133 C 
BRANCH  43  44
HETATM   44  C27 UNL     1       9.658   0.272  -1.008  1.00  0.00     0.174 C 
HETATM   45  O2  UNL     1       8.704   0.079  -1.797  1.00  0.00    -0.648 OA
HETATM   46  O3  UNL     1      10.555   1.285  -1.277  1.00  0.00    -0.648 OA
ENDBRANCH  43  44
ENDBRANCH  42  43
ENDBRANCH  40  42
ENDBRANCH  34  38
ENDBRANCH   4  29
ENDBRANCH   3   4
TORSDOF 12
