REMARK  5 active torsions:
REMARK  status: ('A' for Active; 'I' for Inactive)
REMARK    1  A    between atoms: N2_4  and  C1_6 
REMARK    2  A    between atoms: C1_6  and  C2_7 
REMARK    3  A    between atoms: N3_8  and  C3_10 
REMARK    4  A    between atoms: C3_10  and  C4_11 
REMARK    5  A    between atoms: C4_11  and  N5_15 
ROOT
HETATM    1  C3  UNL     1       0.219   1.057   0.567  1.00  0.00     0.194 C 
ENDROOT
BRANCH   1   2
HETATM    2  N3  UNL     1       1.304   0.249   0.120  1.00  0.00    -0.394 N 
HETATM    3  C2  UNL     1       2.212   0.714  -0.658  1.00  0.00     0.077 C 
ATOM      4  H3  UNL     1       1.360  -0.722   0.426  1.00  0.00     0.159 HD
BRANCH   3   5
HETATM    5  C1  UNL     1       3.351  -0.154  -1.119  1.00  0.00     0.182 C 
BRANCH   5   6
HETATM    6  N2  UNL     1       4.295  -0.391  -0.080  1.00  0.00    -0.338 N 
HETATM    7  N1  UNL     1       4.583  -1.549   0.246  1.00  0.00    -0.349 N 
ATOM      8  H12 UNL     1       4.134  -2.325  -0.241  1.00  0.00     0.176 HD
ATOM      9  H11 UNL     1       5.259  -1.719   0.990  1.00  0.00     0.176 HD
ATOM     10  H2  UNL     1       4.735   0.396   0.397  1.00  0.00     0.179 HD
ENDBRANCH   5   6
ENDBRANCH   3   5
ENDBRANCH   1   2
BRANCH   1  11
HETATM   11  C4  UNL     1      -0.958   0.276   0.979  1.00  0.00     0.094 C 
HETATM   12  N4  UNL     1      -1.397   0.367   2.178  1.00  0.00    -0.387 N 
ATOM     13  H42 UNL     1      -0.925   0.983   2.839  1.00  0.00     0.157 HD
ATOM     14  H41 UNL     1      -2.213  -0.174   2.464  1.00  0.00     0.157 HD
BRANCH  11  15
HETATM   15  N5  UNL     1      -1.611  -0.576   0.065  1.00  0.00    -0.322 N 
HETATM   16  C5  UNL     1      -2.858  -0.575  -0.184  1.00  0.00     0.202 C 
HETATM   17  N6  UNL     1      -3.748   0.325   0.464  1.00  0.00    -0.066 NA
HETATM   18  N7  UNL     1      -3.387  -1.486  -1.126  1.00  0.00    -0.066 NA
ATOM     19  H5  UNL     1      -1.035  -1.250  -0.439  1.00  0.00     0.169 HD
ENDBRANCH  11  15
ENDBRANCH   1  11
TORSDOF 5
