REMARK  4 active torsions:
REMARK  status: ('A' for Active; 'I' for Inactive)
REMARK    1  A    between atoms: N1_2  and  C2_3 
REMARK    2  A    between atoms: C2_3  and  C3_4 
REMARK    3  A    between atoms: N2_5  and  C4_7 
REMARK    4  A    between atoms: C4_7  and  N3_8 
REMARK       I    between atoms: N3_8  and  C5_10 
ROOT
HETATM    1  C3  UNL     1      -0.335  -0.178   0.977  1.00  0.00     0.086 C 
HETATM    2  N2  UNL     1       0.296   0.920   0.852  1.00  0.00    -0.385 N 
ATOM      3  H2  UNL     1      -0.215   1.799   0.932  1.00  0.00     0.160 HD
ENDROOT
BRANCH   2   4
HETATM    4  C4  UNL     1       1.712   0.953   0.601  1.00  0.00     0.245 C 
BRANCH   4   5
HETATM    5  N3  UNL     1       2.109  -0.081  -0.319  1.00  0.00    -0.349 N 
HETATM    6  C5  UNL     1       3.468  -0.206  -0.686  1.00  0.00     0.183 C 
HETATM    7  N4  UNL     1       3.791   0.213  -1.866  1.00  0.00    -0.374 N 
HETATM    8  N5  UNL     1       4.430  -0.761   0.194  1.00  0.00    -0.064 NA
ATOM      9  H42 UNL     1       3.099   0.613  -2.499  1.00  0.00     0.158 HD
ATOM     10  H41 UNL     1       4.772   0.123  -2.131  1.00  0.00     0.158 HD
ATOM     11  H3  UNL     1       1.413  -0.720  -0.704  1.00  0.00     0.163 HD
ENDBRANCH   4   5
ENDBRANCH   2   4
BRANCH   1  12
HETATM   12  C2  UNL     1      -1.794  -0.209   1.236  1.00  0.00     0.305 C 
BRANCH  12  13
HETATM   13  N1  UNL     1      -2.545  -0.087  -0.021  1.00  0.00     0.027 N 
HETATM   14  C1  UNL     1      -3.319  -1.261  -0.385  1.00  0.00     0.299 C 
HETATM   15  C6  UNL     1      -2.916   1.130  -0.547  1.00  0.00     0.402 A 
HETATM   16  N6  UNL     1      -1.779   0.423  -1.082  1.00  0.00    -0.016 NA
ENDBRANCH  12  13
ENDBRANCH   1  12
TORSDOF 4
