REMARK  8 active torsions:
REMARK  status: ('A' for Active; 'I' for Inactive)
REMARK    1  A    between atoms: N1_1  and  C1_4 
REMARK    2  A    between atoms: C1_4  and  N2_5 
REMARK    3  A    between atoms: N2_5  and  N3_7 
REMARK    4  A    between atoms: N3_7  and  O1_8 
REMARK    5  A    between atoms: N3_7  and  N4_10 
REMARK    6  A    between atoms: N4_10  and  C2_11 
REMARK    7  A    between atoms: C2_11  and  C3_12 
REMARK    8  A    between atoms: C3_12  and  N5_13 
ROOT
HETATM    1  N3  UNL     1      -1.646   1.028   0.100  1.00  0.00    -0.010 NA
ENDROOT
BRANCH   1   2
HETATM    2  N2  UNL     1      -1.982   0.184   1.139  1.00  0.00    -0.277 N 
ATOM      3  H2  UNL     1      -1.319  -0.190   1.818  1.00  0.00     0.185 HD
BRANCH   2   4
HETATM    4  C1  UNL     1      -3.367  -0.092   1.135  1.00  0.00     0.189 C 
BRANCH   4   5
HETATM    5  N1  UNL     1      -3.897  -1.173   0.719  1.00  0.00    -0.394 N 
ATOM      6  H12 UNL     1      -3.257  -1.884   0.365  1.00  0.00     0.156 HD
ATOM      7  H11 UNL     1      -4.897  -1.372   0.716  1.00  0.00     0.156 HD
ENDBRANCH   4   5
ENDBRANCH   2   4
ENDBRANCH   1   2
BRANCH   1   8
HETATM    8  O1  UNL     1      -1.983   2.295   0.468  1.00  0.00    -0.279 OA
ATOM      9  H1  UNL     1      -1.752   2.876  -0.247  1.00  0.00     0.240 HD
ENDBRANCH   1   8
BRANCH   1  10
HETATM   10  N4  UNL     1      -0.297   1.005  -0.211  1.00  0.00    -0.117 NA
BRANCH  10  11
HETATM   11  C2  UNL     1      -0.018  -0.008  -1.192  1.00  0.00     0.154 C 
BRANCH  11  12
HETATM   12  C3  UNL     1       1.472  -0.014  -1.518  1.00  0.00     0.165 C 
BRANCH  12  13
HETATM   13  N5  UNL     1       2.233  -0.291  -0.310  1.00  0.00    -0.269 N 
HETATM   14  C4  UNL     1       2.759   0.498   0.644  1.00  0.00     0.213 A 
HETATM   15  N6  UNL     1       3.215  -0.615   1.252  1.00  0.00    -0.279 N 
HETATM   16  N7  UNL     1       2.687  -1.375   0.298  1.00  0.00    -0.018 NA
ATOM     17  H6  UNL     1       3.749  -0.800   2.101  1.00  0.00     0.185 HD
ENDBRANCH  12  13
ENDBRANCH  11  12
ENDBRANCH  10  11
ENDBRANCH   1  10
TORSDOF 8
