REMARK  6 active torsions:
REMARK  status: ('A' for Active; 'I' for Inactive)
REMARK    1  A    between atoms: C1_4  and  N2_5 
REMARK    2  A    between atoms: N2_5  and  C2_7 
REMARK    3  A    between atoms: C2_7  and  N3_8 
REMARK    4  A    between atoms: C3_10  and  C4_11 
REMARK    5  A    between atoms: C4_11  and  C5_12 
REMARK    6  A    between atoms: C5_12  and  N4_13 
ROOT
HETATM    1  N3  UNL     1      -0.986   0.153  -0.949  1.00  0.00    -0.386 N 
ATOM      2  H3  UNL     1      -1.133   0.273  -1.951  1.00  0.00     0.160 HD
HETATM    3  C3  UNL     1       0.100  -0.371  -0.565  1.00  0.00     0.059 C 
ENDROOT
BRANCH   3   4
HETATM    4  C4  UNL     1       1.123  -0.796  -1.543  1.00  0.00     0.067 C 
BRANCH   4   5
HETATM    5  C5  UNL     1       2.422  -1.179  -0.881  1.00  0.00     0.178 C 
BRANCH   5   6
HETATM    6  N4  UNL     1       2.963  -0.055  -0.142  1.00  0.00    -0.203 N 
HETATM    7  N5  UNL     1       3.780   0.970  -0.371  1.00  0.00    -0.209 N 
HETATM    8  N6  UNL     1       3.628   1.376   0.867  1.00  0.00    -0.211 N 
ATOM      9  H5  UNL     1       4.308   1.303  -1.178  1.00  0.00     0.211 HD
HETATM   10  N7  UNL     1       2.816   0.358   1.096  1.00  0.00    -0.209 N 
ATOM     11  H6  UNL     1       3.987   2.153   1.422  1.00  0.00     0.211 HD
ATOM     12  H7  UNL     1       2.290   0.028   1.905  1.00  0.00     0.211 HD
ENDBRANCH   5   6
ENDBRANCH   4   5
ENDBRANCH   3   4
BRANCH   1  13
HETATM   13  C2  UNL     1      -2.022   0.588  -0.060  1.00  0.00     0.243 C 
BRANCH  13  14
HETATM   14  N2  UNL     1      -2.934  -0.472   0.271  1.00  0.00    -0.370 N 
ATOM     15  H2  UNL     1      -2.815  -1.411  -0.109  1.00  0.00     0.161 HD
BRANCH  14  16
HETATM   16  C1  UNL     1      -4.012  -0.161   1.151  1.00  0.00     0.170 C 
HETATM   17  N1  UNL     1      -4.311   1.041   1.479  1.00  0.00    -0.396 N 
ATOM     18  H12 UNL     1      -3.745   1.794   1.086  1.00  0.00     0.156 HD
ATOM     19  H11 UNL     1      -5.082   1.263   2.108  1.00  0.00     0.156 HD
ENDBRANCH  14  16
ENDBRANCH  13  14
ENDBRANCH   1  13
TORSDOF 6
