REMARK  9 active torsions:
REMARK  status: ('A' for Active; 'I' for Inactive)
REMARK    1  A    between atoms: C2_2  and  C3_3 
REMARK    2  A    between atoms: C2_2  and  N10_41 
REMARK    3  A    between atoms: N1_4  and  C4_6 
REMARK    4  A    between atoms: C7_11  and  O1_12 
REMARK    5  A    between atoms: C12_28  and  C13_29 
REMARK    6  A    between atoms: N8_32  and  C14_33 
REMARK    7  A    between atoms: C14_33  and  O4_34 
REMARK    8  A    between atoms: C14_33  and  C15_36 
REMARK    9  A    between atoms: C15_36  and  N9_37 
REMARK       I    between atoms: N10_41  and  C16_44 
REMARK       I    between atoms: C16_44  and  N11_45 
REMARK       I    between atoms: C16_44  and  N12_49 
ROOT
HETATM    1  C4  UNL     1       0.254  -1.121   0.337  1.00  0.00     0.123 C 
HETATM    2  N2  UNL     1      -0.925  -0.496   0.187  1.00  0.00    -0.327 N 
ATOM      3  H2  UNL     1      -0.937   0.225  -0.534  1.00  0.00     0.169 HD
HETATM    4  C5  UNL     1      -2.094  -0.666   0.834  1.00  0.00     0.131 A 
HETATM    5  C6  UNL     1      -2.412  -1.651   1.749  1.00  0.00     0.112 A 
HETATM    6  C7  UNL     1      -1.671  -2.720   2.212  1.00  0.00     0.114 C 
HETATM    7  C8  UNL     1      -0.480  -3.164   1.682  1.00  0.00     0.100 A 
HETATM    8  N3  UNL     1       0.095  -4.345   1.848  1.00  0.00    -0.295 N 
ATOM      9  H3  UNL     1      -0.297  -5.094   2.419  1.00  0.00     0.187 HD
HETATM   10  N4  UNL     1       1.226  -4.441   1.194  1.00  0.00    -0.284 N 
ATOM     11  H4  UNL     1       1.830  -5.263   1.185  1.00  0.00     0.188 HD
HETATM   12  C9  UNL     1       1.477  -3.266   0.520  1.00  0.00     0.130 A 
HETATM   13  N5  UNL     1       2.471  -3.019  -0.208  1.00  0.00    -0.384 N 
ATOM     14  H51 UNL     1       2.657  -2.149  -0.707  1.00  0.00     0.157 HD
ATOM     15  H52 UNL     1       3.247  -3.650  -0.408  1.00  0.00     0.157 HD
HETATM   16  C10 UNL     1       0.431  -2.415   0.790  1.00  0.00     0.084 A 
HETATM   17  C11 UNL     1      -3.653  -1.623   2.329  1.00  0.00     0.264 A 
HETATM   18  O2  UNL     1      -3.961  -2.510   3.162  1.00  0.00    -0.267 OA
HETATM   19  N6  UNL     1      -4.480  -0.642   1.974  1.00  0.00    -0.304 N 
ATOM     20  H6  UNL     1      -5.406  -0.610   2.400  1.00  0.00     0.171 HD
HETATM   21  C12 UNL     1      -4.143   0.336   1.055  1.00  0.00     0.180 A 
HETATM   22  N8  UNL     1      -2.942   0.340   0.467  1.00  0.00    -0.285 N 
ENDROOT
BRANCH   1  23
HETATM   23  N1  UNL     1       1.448  -0.459   0.026  1.00  0.00    -0.353 N 
HETATM   24  C3  UNL     1       1.567   0.610  -0.681  1.00  0.00     0.095 C 
ATOM     25  H1  UNL     1       2.308  -0.864   0.396  1.00  0.00     0.166 HD
BRANCH  24  26
HETATM   26  C2  UNL     1       2.855   1.260  -0.973  1.00  0.00     0.224 C 
HETATM   27  C1  UNL     1       2.794   2.702  -0.515  1.00  0.00     0.046 C 
BRANCH  26  28
HETATM   28  N10 UNL     1       3.919   0.572  -0.316  1.00  0.00    -0.013 N 
HETATM   29  C16 UNL     1       5.231   1.109  -0.619  1.00  0.00     0.576 C 
HETATM   30  N11 UNL     1       6.276   0.364   0.066  1.00  0.00    -0.026 N 
HETATM   31  N12 UNL     1       5.514   1.132  -2.019  1.00  0.00    -0.026 N 
ATOM     32 3H11 UNL     1       6.110   0.324   1.072  1.00  0.00     0.278 HD
ATOM     33 2H11 UNL     1       6.222  -0.633  -0.141  1.00  0.00     0.278 HD
ATOM     34 1H11 UNL     1       7.199   0.742  -0.147  1.00  0.00     0.278 HD
ATOM     35 3H12 UNL     1       5.396   0.206  -2.430  1.00  0.00     0.278 HD
ATOM     36 2H12 UNL     1       4.788   1.635  -2.529  1.00  0.00     0.278 HD
ATOM     37 1H12 UNL     1       6.437   1.510  -2.232  1.00  0.00     0.278 HD
ATOM     38 2H10 UNL     1       3.764   0.546   0.692  1.00  0.00     0.282 HD
ATOM     39 1H10 UNL     1       3.882  -0.427  -0.519  1.00  0.00     0.282 HD
ENDBRANCH  26  28
ENDBRANCH  24  26
ENDBRANCH   1  23
BRANCH  22  40
HETATM   40  C14 UNL     1      -2.516   1.337  -0.485  1.00  0.00     0.253 C 
BRANCH  40  41
HETATM   41  O4  UNL     1      -3.329   2.441  -0.477  1.00  0.00    -0.374 OA
ATOM     42  H4  UNL     1      -3.049   3.097  -1.104  1.00  0.00     0.212 HD
ENDBRANCH  40  41
BRANCH  40  43
HETATM   43  C15 UNL     1      -2.377   0.865  -1.903  1.00  0.00     0.283 C 
BRANCH  43  44
HETATM   44  N9  UNL     1      -3.600   0.491  -2.531  1.00  0.00    -0.075 N 
ATOM     45  H93 UNL     1      -4.085  -0.210  -1.971  1.00  0.00     0.274 HD
ATOM     46  H92 UNL     1      -4.273   1.256  -2.478  1.00  0.00     0.274 HD
ATOM     47  H91 UNL     1      -3.506   0.170  -3.495  1.00  0.00     0.274 HD
ENDBRANCH  43  44
ENDBRANCH  40  43
ENDBRANCH  22  40
BRANCH   6  48
HETATM   48  O1  UNL     1      -2.129  -3.429   3.295  1.00  0.00    -0.357 OA
ATOM     49  H1  UNL     1      -1.619  -4.165   3.614  1.00  0.00     0.217 HD
ENDBRANCH   6  48
BRANCH  21  50
HETATM   50  C13 UNL     1      -5.139   1.364   0.833  1.00  0.00     0.299 C 
HETATM   51  N7  UNL     1      -5.285   2.398   1.782  1.00  0.00    -0.054 NA
HETATM   52  O3  UNL     1      -5.864   1.350  -0.174  1.00  0.00    -0.268 OA
ENDBRANCH  21  50
TORSDOF 9
