REMARK  10 active torsions:
REMARK  status: ('A' for Active; 'I' for Inactive)
REMARK    1  A    between atoms: N1_1  and  C1_4 
REMARK    2  A    between atoms: C2_7  and  C3_8 
REMARK    3  A    between atoms: C3_8  and  O1_9 
REMARK    4  A    between atoms: C3_8  and  C4_11 
REMARK       I    between atoms: C4_11  and  N3_13 
REMARK    5  A    between atoms: N3_13  and  C5_15 
REMARK    6  A    between atoms: C6_18  and  C7_19 
REMARK    7  A    between atoms: C8_22  and  C9_23 
REMARK    8  A    between atoms: C11_25  and  C12_26 
REMARK    9  A    between atoms: C13_37  and  O6_38 
REMARK   10  A    between atoms: C14_40  and  N10_41 
ROOT
HETATM    1  C5  UNL     1       1.042  -0.833   0.569  1.00  0.00     0.218 C 
HETATM    2  N4  UNL     1       0.612   0.408   1.150  1.00  0.00    -0.361 N 
ATOM      3  H4  UNL     1       1.310   1.021   1.571  1.00  0.00     0.162 HD
HETATM    4  C6  UNL     1      -0.769   0.819   1.160  1.00  0.00     0.119 C 
HETATM    5  C8  UNL     1      -1.717  -0.080   1.132  1.00  0.00     0.042 C 
HETATM    6  C13 UNL     1      -1.231  -1.508   1.072  1.00  0.00     0.190 C 
HETATM    7  C14 UNL     1      -0.127  -1.559  -0.003  1.00  0.00     0.258 C 
ENDROOT
BRANCH   1   8
HETATM    8  N3  UNL     1       2.087  -0.523  -0.373  1.00  0.00    -0.335 N 
HETATM    9  C4  UNL     1       3.416  -0.992  -0.209  1.00  0.00     0.255 C 
HETATM   10  O2  UNL     1       3.670  -1.702   0.793  1.00  0.00    -0.270 OA
ATOM     11  H3  UNL     1       1.864   0.053  -1.185  1.00  0.00     0.164 HD
BRANCH   9  12
HETATM   12  C3  UNL     1       4.499  -0.666  -1.183  1.00  0.00     0.279 C 
BRANCH  12  13
HETATM   13  C2  UNL     1       5.589   0.064  -0.500  1.00  0.00     0.143 A 
HETATM   14  N2  UNL     1       6.593   0.750  -1.027  1.00  0.00    -0.306 N 
HETATM   15  C1  UNL     1       7.333   1.239  -0.017  1.00  0.00     0.242 A 
ATOM     16  H2  UNL     1       6.772   0.883  -2.022  1.00  0.00     0.171 HD
HETATM   17  O7  UNL     1       6.788   0.856   1.126  1.00  0.00    -0.200 OA
HETATM   18  N11 UNL     1       5.728   0.143   0.835  1.00  0.00    -0.242 N 
ATOM     19  H11 UNL     1       5.103  -0.287   1.517  1.00  0.00     0.196 HD
BRANCH  15  20
HETATM   20  N1  UNL     1       8.391   1.955  -0.056  1.00  0.00    -0.364 N 
ATOM     21  H12 UNL     1       8.811   2.250  -0.937  1.00  0.00     0.159 HD
ATOM     22  H11 UNL     1       8.953   2.326   0.710  1.00  0.00     0.159 HD
ENDBRANCH  15  20
ENDBRANCH  12  13
BRANCH  12  23
HETATM   23  O1  UNL     1       4.020   0.139  -2.214  1.00  0.00    -0.378 OA
ATOM     24  H1  UNL     1       3.320  -0.330  -2.653  1.00  0.00     0.211 HD
ENDBRANCH  12  23
ENDBRANCH   9  12
ENDBRANCH   1   8
BRANCH   7  25
HETATM   25  N10 UNL     1      -0.670  -0.894  -1.167  1.00  0.00    -0.069 N 
ATOM     26 3H10 UNL     1      -0.904   0.077  -0.961  1.00  0.00     0.275 HD
ATOM     27 2H10 UNL     1       0.050  -0.741  -1.873  1.00  0.00     0.275 HD
ATOM     28 1H10 UNL     1      -1.470  -1.391  -1.559  1.00  0.00     0.275 HD
ENDBRANCH   7  25
BRANCH   4  29
HETATM   29  C7  UNL     1      -0.998   2.275   1.170  1.00  0.00     0.227 C 
HETATM   30  O3  UNL     1      -0.018   3.078   1.179  1.00  0.00    -0.643 OA
HETATM   31  O4  UNL     1      -2.232   2.867   1.168  1.00  0.00    -0.643 OA
ENDBRANCH   4  29
BRANCH   6  32
HETATM   32  O6  UNL     1      -2.197  -2.398   0.712  1.00  0.00    -0.388 OA
ATOM     33  H6  UNL     1      -1.891  -3.297   0.674  1.00  0.00     0.210 HD
ENDBRANCH   6  32
BRANCH   5  34
HETATM   34  C9  UNL     1      -3.141   0.198   1.147  1.00  0.00     0.112 A 
HETATM   35  C10 UNL     1      -4.084  -0.312   0.244  1.00  0.00     0.075 A 
HETATM   36  C11 UNL     1      -5.325   0.169   0.588  1.00  0.00     0.104 A 
HETATM   37  N9  UNL     1      -5.114   0.939   1.661  1.00  0.00    -0.257 N 
HETATM   38  O5  UNL     1      -3.853   0.933   1.954  1.00  0.00    -0.237 OA
ATOM     39  H9  UNL     1      -5.835   1.451   2.169  1.00  0.00     0.195 HD
BRANCH  36  40
HETATM   40  C12 UNL     1      -6.597  -0.109  -0.081  1.00  0.00     0.163 A 
HETATM   41  N5  UNL     1      -6.841  -0.875  -1.158  1.00  0.00    -0.265 N 
HETATM   42  N6  UNL     1      -8.153  -0.856  -1.439  1.00  0.00    -0.005 NA
ATOM     43  H5  UNL     1      -6.136  -1.393  -1.682  1.00  0.00     0.186 HD
HETATM   44  N7  UNL     1      -8.731  -0.079  -0.541  1.00  0.00    -0.225 N 
HETATM   45  N8  UNL     1      -7.797   0.371   0.275  1.00  0.00    -0.270 N 
ATOM     46  H7  UNL     1      -9.727   0.136  -0.488  1.00  0.00     0.205 HD
ATOM     47  H8  UNL     1      -7.964   0.995   1.064  1.00  0.00     0.190 HD
ENDBRANCH  36  40
ENDBRANCH   5  34
TORSDOF 10
