REMARK  9 active torsions:
REMARK  status: ('A' for Active; 'I' for Inactive)
REMARK    1  A    between atoms: N5_16  and  C7_17 
REMARK    2  A    between atoms: C7_17  and  N6_18 
REMARK       I    between atoms: N6_18  and  C8_20 
REMARK    3  A    between atoms: C8_20  and  C9_22 
REMARK    4  A    between atoms: C10_25  and  O3_26 
REMARK    5  A    between atoms: C11_28  and  N8_29 
REMARK    6  A    between atoms: N9_31  and  N10_33 
REMARK    7  A    between atoms: N11_37  and  N12_39 
REMARK    8  A    between atoms: N12_39  and  N13_41 
REMARK    9  A    between atoms: C13_44  and  C14_45 
ROOT
HETATM    1  C9  UNL     1       1.449  -0.162   1.161  1.00  0.00     0.120 A 
HETATM    2  N7  UNL     1       2.314  -1.177   0.858  1.00  0.00    -0.330 N 
ATOM      3  H7  UNL     1       1.986  -2.139   0.949  1.00  0.00     0.168 HD
HETATM    4  C10 UNL     1       3.572  -0.967   0.447  1.00  0.00     0.172 A 
HETATM    5  C11 UNL     1       3.988   0.349   0.334  1.00  0.00     0.129 A 
HETATM    6  C12 UNL     1       3.160   1.384   0.624  1.00  0.00     0.099 A 
HETATM    7  N11 UNL     1       3.497   2.600   0.543  1.00  0.00    -0.283 N 
ATOM      8  H11 UNL     1       2.785   3.288   0.786  1.00  0.00     0.188 HD
HETATM    9  C13 UNL     1       1.824   1.139   1.057  1.00  0.00     0.092 A 
ENDROOT
BRANCH   1  10
HETATM   10  C8  UNL     1       0.135  -0.576   1.601  1.00  0.00     0.274 C 
HETATM   11  N6  UNL     1      -0.459  -1.794   1.129  1.00  0.00    -0.317 N 
ATOM     12  H6  UNL     1       0.076  -2.362   0.472  1.00  0.00     0.170 HD
HETATM   13  O2  UNL     1      -0.515   0.120   2.401  1.00  0.00    -0.266 OA
BRANCH  11  14
HETATM   14  C7  UNL     1      -1.766  -2.268   1.524  1.00  0.00     0.192 C 
BRANCH  14  15
HETATM   15  N5  UNL     1      -2.865  -1.424   1.181  1.00  0.00    -0.297 N 
HETATM   16  C4  UNL     1      -3.543  -1.407  -0.011  1.00  0.00     0.129 A 
HETATM   17  C3  UNL     1      -3.322  -2.151  -1.157  1.00  0.00     0.134 A 
HETATM   18  C5  UNL     1      -4.563  -0.487   0.045  1.00  0.00     0.143 A 
HETATM   19  N2  UNL     1      -4.128  -1.969  -2.244  1.00  0.00    -0.293 N 
HETATM   20  N3  UNL     1      -2.372  -2.988  -1.178  1.00  0.00    -0.383 N 
HETATM   21  C2  UNL     1      -5.123  -1.067  -2.176  1.00  0.00     0.329 A 
ATOM     22  H2  UNL     1      -3.977  -2.510  -3.096  1.00  0.00     0.172 HD
HETATM   23  N1  UNL     1      -5.338  -0.342  -1.062  1.00  0.00    -0.288 N 
HETATM   24  O1  UNL     1      -5.865  -0.892  -3.163  1.00  0.00    -0.246 OA
HETATM   25  C1  UNL     1      -6.403   0.621  -0.994  1.00  0.00     0.163 C 
ATOM     26  H32 UNL     1      -2.209  -3.536  -2.023  1.00  0.00     0.157 HD
ATOM     27  H31 UNL     1      -1.770  -3.124  -0.366  1.00  0.00     0.157 HD
HETATM   28  N4  UNL     1      -4.515   0.051   1.247  1.00  0.00    -0.336 N 
HETATM   29  C6  UNL     1      -3.494  -0.509   1.939  1.00  0.00     0.191 A 
ATOM     30  H4  UNL     1      -5.145   0.772   1.599  1.00  0.00     0.168 HD
ENDBRANCH  14  15
ENDBRANCH  11  14
ENDBRANCH   1  10
BRANCH   9  31
HETATM   31  C14 UNL     1       0.968   2.299   1.239  1.00  0.00     0.269 C 
HETATM   32  N14 UNL     1       1.612   3.564   1.517  1.00  0.00    -0.057 NA
HETATM   33  O4  UNL     1      -0.245   2.284   1.177  1.00  0.00    -0.271 OA
ENDBRANCH   9  31
BRANCH   4  34
HETATM   34  O3  UNL     1       4.447  -1.988   0.141  1.00  0.00    -0.344 OA
ATOM     35  H3  UNL     1       5.339  -1.839  -0.150  1.00  0.00     0.219 HD
ENDBRANCH   4  34
BRANCH   5  36
HETATM   36  N8  UNL     1       5.345   0.562  -0.113  1.00  0.00    -0.281 N 
HETATM   37  N9  UNL     1       5.710   0.260  -1.278  1.00  0.00    -0.249 N 
ATOM     38  H9  UNL     1       6.686   0.445  -1.508  1.00  0.00     0.207 HD
ATOM     39  H8  UNL     1       6.024   0.967   0.532  1.00  0.00     0.188 HD
BRANCH  37  40
HETATM   40  N10 UNL     1       4.941  -0.293  -2.279  1.00  0.00    -0.331 N 
ATOM     41 2H10 UNL     1       3.968  -0.471  -2.030  1.00  0.00     0.178 HD
ATOM     42 1H10 UNL     1       5.237  -0.538  -3.224  1.00  0.00     0.178 HD
ENDBRANCH  37  40
ENDBRANCH   5  36
BRANCH   7  43
HETATM   43  N12 UNL     1       4.720   3.090   0.162  1.00  0.00    -0.249 N 
ATOM     44  H12 UNL     1       5.525   2.919   0.765  1.00  0.00     0.207 HD
BRANCH  43  45
HETATM   45  N13 UNL     1       4.912   3.826  -1.037  1.00  0.00    -0.331 N 
ATOM     46 2H13 UNL     1       4.097   3.988  -1.628  1.00  0.00     0.178 HD
ATOM     47 1H13 UNL     1       5.822   4.190  -1.320  1.00  0.00     0.178 HD
ENDBRANCH  43  45
ENDBRANCH   7  43
TORSDOF 9
