REMARK  10 active torsions:
REMARK  status: ('A' for Active; 'I' for Inactive)
REMARK    1  A    between atoms: N2_4  and  N3_6 
REMARK    2  A    between atoms: N3_6  and  C3_8 
REMARK    3  A    between atoms: C6_16  and  N6_17 
REMARK    4  A    between atoms: N6_17  and  N7_19 
REMARK    5  A    between atoms: N7_19  and  C7_21 
REMARK    6  A    between atoms: C9_25  and  C10_26 
REMARK    7  A    between atoms: C10_26  and  O1_27 
REMARK    8  A    between atoms: C11_30  and  C12_31 
REMARK    9  A    between atoms: C12_31  and  N10_34 
REMARK   10  A    between atoms: C15_38  and  O3_39 
ROOT
HETATM    1  C12 UNL     1      -4.695   1.980  -0.098  1.00  0.00     0.235 C 
HETATM    2  C13 UNL     1      -5.595   1.957  -1.272  1.00  0.00     0.088 C 
HETATM    3  N9  UNL     1      -6.285   1.921  -2.185  1.00  0.00    -0.195 NA
ENDROOT
BRANCH   1   4
HETATM    4  C11 UNL     1      -4.120   0.570   0.111  1.00  0.00     0.227 C 
HETATM    5  C7  UNL     1      -3.137   0.246  -0.931  1.00  0.00     0.124 C 
HETATM    6  N8  UNL     1      -3.303  -0.771  -1.672  1.00  0.00    -0.374 N 
HETATM    7  C8  UNL     1      -4.423  -1.679  -1.578  1.00  0.00     0.155 C 
ATOM      8  H8  UNL     1      -2.597  -0.960  -2.383  1.00  0.00     0.161 HD
HETATM    9  C9  UNL     1      -4.979  -1.571  -0.175  1.00  0.00     0.164 C 
HETATM   10  O2  UNL     1      -5.177  -0.279   0.225  1.00  0.00    -0.366 OA
BRANCH   5  11
HETATM   11  N7  UNL     1      -1.986   1.098  -1.098  1.00  0.00    -0.285 N 
ATOM     12  H7  UNL     1      -1.716   1.368  -2.044  1.00  0.00     0.188 HD
BRANCH  11  13
HETATM   13  N6  UNL     1      -1.225   1.570  -0.034  1.00  0.00    -0.284 N 
ATOM     14  H6  UNL     1      -1.626   2.303   0.552  1.00  0.00     0.188 HD
BRANCH  13  15
HETATM   15  C6  UNL     1       0.064   1.101   0.287  1.00  0.00     0.142 C 
HETATM   16  N5  UNL     1       0.327   1.074   1.564  1.00  0.00    -0.288 N 
HETATM   17  N4  UNL     1       1.594   0.626   2.112  1.00  0.00    -0.296 N 
ATOM     18  H5  UNL     1      -0.397   1.384   2.212  1.00  0.00     0.188 HD
HETATM   19  C5  UNL     1       2.426  -0.464   1.733  1.00  0.00     0.367 C 
ATOM     20  H4  UNL     1       1.944   1.181   2.893  1.00  0.00     0.183 HD
HETATM   21  S1  UNL     1       4.088  -0.118   1.025  1.00  0.00    -0.076 SA
HETATM   22  N12 UNL     1       1.868  -0.867   0.428  1.00  0.00    -0.032 N 
HETATM   23  C4  UNL     1       3.459   0.074  -0.727  1.00  0.00     0.032 C 
HETATM   24  C3  UNL     1       4.207  -0.069  -1.782  1.00  0.00     0.123 C 
HETATM   25  C16 UNL     1       2.157   0.363  -0.336  1.00  0.00     0.266 C 
HETATM   26  C15 UNL     1       0.899   0.724  -0.918  1.00  0.00     0.224 C 
ATOM     27 2H12 UNL     1       2.225  -1.737   0.034  1.00  0.00     0.281 HD
ATOM     28 1H12 UNL     1       0.897  -1.180   0.430  1.00  0.00     0.281 HD
BRANCH  24  29
HETATM   29  N3  UNL     1       5.587  -0.389  -1.660  1.00  0.00    -0.310 N 
ATOM     30  H3  UNL     1       6.001  -1.165  -2.176  1.00  0.00     0.186 HD
BRANCH  29  31
HETATM   31  N2  UNL     1       6.349   0.404  -0.805  1.00  0.00    -0.292 N 
HETATM   32  C2  UNL     1       7.387  -0.060  -0.192  1.00  0.00     0.103 C 
HETATM   33  C1  UNL     1       7.774  -1.469  -0.403  1.00  0.00     0.086 C 
HETATM   34  N1  UNL     1       8.157   0.752   0.676  1.00  0.00    -0.087 NA
ATOM     35  H2  UNL     1       6.080   1.377  -0.659  1.00  0.00     0.188 HD
ENDBRANCH  29  31
ENDBRANCH  24  29
BRANCH  26  36
HETATM   36  O3  UNL     1       1.009   1.816  -1.787  1.00  0.00    -0.385 OA
ATOM     37  H3  UNL     1       1.533   1.579  -2.543  1.00  0.00     0.210 HD
ENDBRANCH  26  36
ENDBRANCH  13  15
ENDBRANCH  11  13
ENDBRANCH   5  11
BRANCH   9  38
HETATM   38  C10 UNL     1      -4.129  -2.362   0.823  1.00  0.00     0.197 C 
BRANCH  38  39
HETATM   39  O1  UNL     1      -3.975  -3.661   0.344  1.00  0.00    -0.398 OA
ATOM     40  H1  UNL     1      -3.448  -4.152   0.963  1.00  0.00     0.209 HD
ENDBRANCH  38  39
ENDBRANCH   9  38
ENDBRANCH   1   4
BRANCH   1  41
HETATM   41  N10 UNL     1      -5.523   2.353   1.032  1.00  0.00    -0.308 N 
HETATM   42  C14 UNL     1      -6.641   1.570   1.339  1.00  0.00     0.178 C 
HETATM   43  N11 UNL     1      -7.591   0.923   1.586  1.00  0.00    -0.172 NA
ATOM     44  H10 UNL     1      -5.294   3.173   1.594  1.00  0.00     0.173 HD
ENDBRANCH   1  41
TORSDOF 10
