REMARK  7 active torsions:
REMARK  status: ('A' for Active; 'I' for Inactive)
REMARK    1  A    between atoms: C2_2  and  C3_3 
REMARK    2  A    between atoms: C6_6  and  O1_7 
REMARK    3  A    between atoms: C7_9  and  C8_10 
REMARK       I    between atoms: C8_10  and  N1_12 
REMARK    4  A    between atoms: N1_12  and  C9_14 
REMARK    5  A    between atoms: N2_16  and  C11_17 
REMARK    6  A    between atoms: C12_20  and  O3_21 
REMARK    7  A    between atoms: C12_20  and  C13_23 
ROOT
HETATM    1  C3  UNL     1      -2.081  -0.440  -0.154  1.00  0.00     0.037 C 
HETATM    2  C4  UNL     1      -2.862   0.090   1.042  1.00  0.00     0.025 C 
HETATM    3  C5  UNL     1      -1.398  -1.721   0.156  1.00  0.00     0.057 C 
HETATM    4  C6  UNL     1      -0.052  -1.594   0.860  1.00  0.00     0.175 C 
HETATM    5  C7  UNL     1       0.757  -0.683  -0.027  1.00  0.00     0.113 C 
HETATM    6  N2  UNL     1       0.073   0.610   0.074  1.00  0.00    -0.279 N 
HETATM    7  C12 UNL     1      -1.161   0.608  -0.716  1.00  0.00     0.242 C 
ENDROOT
BRANCH   5   8
HETATM    8  C8  UNL     1       2.168  -0.768  -0.035  1.00  0.00     0.267 C 
HETATM    9  O2  UNL     1       2.742  -1.790   0.475  1.00  0.00    -0.266 OA
HETATM   10  N1  UNL     1       3.022   0.208  -0.588  1.00  0.00    -0.356 N 
ATOM     11  H1  UNL     1       2.582   1.036  -0.990  1.00  0.00     0.162 HD
BRANCH  10  12
HETATM   12  C9  UNL     1       4.442   0.141  -0.635  1.00  0.00     0.118 C 
HETATM   13  C10 UNL     1       5.119   0.045   0.703  1.00  0.00     0.026 C 
ENDBRANCH  10  12
ENDBRANCH   5   8
BRANCH   4  14
HETATM   14  O1  UNL     1       0.498  -2.862   0.926  1.00  0.00    -0.389 OA
ATOM     15  H1  UNL     1       1.337  -2.783   1.365  1.00  0.00     0.210 HD
ENDBRANCH   4  14
BRANCH   6  16
HETATM   16  C11 UNL     1       0.512   1.629   0.915  1.00  0.00     0.190 C 
HETATM   17  N3  UNL     1      -0.114   2.898   0.977  1.00  0.00    -0.070 NA
HETATM   18  S1  UNL     1       1.743   1.441   1.998  1.00  0.00    -0.044 SA
ENDBRANCH   6  16
BRANCH   7  19
HETATM   19  O3  UNL     1      -0.716   0.135  -1.987  1.00  0.00    -0.361 OA
ATOM     20  H3  UNL     1      -0.135   0.797  -2.342  1.00  0.00     0.213 HD
ENDBRANCH   7  19
BRANCH   7  21
HETATM   21  C13 UNL     1      -1.813   1.886  -0.936  1.00  0.00     0.233 C 
HETATM   22  O4  UNL     1      -2.625   2.433  -0.165  1.00  0.00    -0.644 OA
HETATM   23  O5  UNL     1      -1.540   2.618  -2.110  1.00  0.00    -0.644 OA
ENDBRANCH   7  21
BRANCH   1  24
HETATM   24  C2  UNL     1      -3.120  -0.764  -1.195  1.00  0.00    -0.022 C 
HETATM   25  C1  UNL     1      -3.968  -1.737  -0.938  1.00  0.00     0.008 C 
ENDBRANCH   1  24
TORSDOF 7
