REMARK  5 active torsions:
REMARK  status: ('A' for Active; 'I' for Inactive)
REMARK       I    between atoms: N1_2  and  C2_4 
REMARK       I    between atoms: C2_4  and  N2_6 
REMARK    1  A    between atoms: N2_6  and  C3_8 
REMARK    2  A    between atoms: C5_10  and  C6_11 
REMARK       I    between atoms: N3_14  and  C7_15 
REMARK    3  A    between atoms: C7_15  and  C8_17 
REMARK    4  A    between atoms: C8_17  and  N4_18 
REMARK       I    between atoms: N4_18  and  C9_20 
REMARK       I    between atoms: C9_20  and  N5_22 
REMARK    5  A    between atoms: N5_22  and  C10_24 
ROOT
HETATM    1  C3  UNL     1       3.188  -0.234  -0.009  1.00  0.00     0.106 C 
HETATM    2  C4  UNL     1       3.361  -1.452   0.869  1.00  0.00     0.063 C 
HETATM    3  C5  UNL     1       1.978  -1.626   1.585  1.00  0.00     0.190 C 
HETATM    4  N3  UNL     1       1.122  -0.838   0.770  1.00  0.00    -0.334 N 
HETATM    5  C7  UNL     1      -0.120  -0.863   0.152  1.00  0.00     0.238 C 
HETATM    6  O4  UNL     1      -0.458   0.200  -0.508  1.00  0.00    -0.272 OA
HETATM    7  C14 UNL     1       1.994   0.414   0.641  1.00  0.00     0.152 C 
ENDROOT
BRANCH   3   8
HETATM    8  C6  UNL     1       1.812  -3.025   1.790  1.00  0.00     0.197 C 
HETATM    9  O2  UNL     1       1.004  -3.776   1.269  1.00  0.00    -0.646 OA
HETATM   10  O3  UNL     1       2.694  -3.647   2.720  1.00  0.00    -0.646 OA
ENDBRANCH   3   8
BRANCH   5  11
HETATM   11  C8  UNL     1      -1.135  -1.919   0.125  1.00  0.00     0.227 C 
BRANCH  11  12
HETATM   12  N4  UNL     1      -2.366  -1.515  -0.582  1.00  0.00    -0.334 N 
HETATM   13  C9  UNL     1      -3.157  -0.450  -0.104  1.00  0.00     0.317 C 
HETATM   14  O5  UNL     1      -2.842   0.162   0.936  1.00  0.00    -0.247 OA
HETATM   15  N5  UNL     1      -4.318  -0.069  -0.807  1.00  0.00    -0.335 N 
ATOM     16  H5  UNL     1      -4.574  -0.570  -1.658  1.00  0.00     0.165 HD
ATOM     17  H4  UNL     1      -2.648  -2.012  -1.427  1.00  0.00     0.164 HD
BRANCH  15  18
HETATM   18  C10 UNL     1      -5.154   1.020  -0.345  1.00  0.00     0.023 C 
HETATM   19  C11 UNL     1      -4.375   2.322  -0.283  1.00  0.00     0.037 C 
HETATM   20  C12 UNL     1      -5.719   0.747   1.015  1.00  0.00     0.037 C 
HETATM   21  C13 UNL     1      -6.308   1.244  -1.291  1.00  0.00     0.037 C 
ENDBRANCH  15  18
ENDBRANCH  11  12
ENDBRANCH   5  11
BRANCH   1  22
HETATM   22  N2  UNL     1       4.342   0.600  -0.037  1.00  0.00    -0.337 N 
HETATM   23  C2  UNL     1       4.986   0.899  -1.262  1.00  0.00     0.316 C 
HETATM   24  N1  UNL     1       6.137   1.725  -1.335  1.00  0.00    -0.347 N 
HETATM   25  O1  UNL     1       4.522   0.418  -2.315  1.00  0.00    -0.247 OA
HETATM   26  C1  UNL     1       6.767   2.008  -2.607  1.00  0.00     0.151 C 
ATOM     27  H1  UNL     1       6.525   2.124  -0.481  1.00  0.00     0.163 HD
ATOM     28  H2  UNL     1       4.708   0.986   0.834  1.00  0.00     0.164 HD
ENDBRANCH   1  22
TORSDOF 5
