REMARK  6 active torsions:
REMARK  status: ('A' for Active; 'I' for Inactive)
REMARK       I    between atoms: C2_4  and  N2_5 
REMARK       I    between atoms: C2_4  and  N3_17 
REMARK    1  A    between atoms: N2_5  and  C3_7 
REMARK    2  A    between atoms: C3_7  and  C4_8 
REMARK    3  A    between atoms: C7_11  and  C8_12 
REMARK    4  A    between atoms: N3_17  and  N4_19 
REMARK       I    between atoms: N4_19  and  C11_21 
REMARK    5  A    between atoms: C11_21  and  C12_23 
REMARK    6  A    between atoms: C12_23  and  N5_25 
REMARK       I    between atoms: N5_25  and  C14_27 
ROOT
HETATM    1  C1  UNL     1       1.145   1.084   1.819  1.00  0.00     0.165 C 
HETATM    2  N1  UNL     1       1.439   0.372   0.623  1.00  0.00    -0.229 N 
ATOM      3  H1  UNL     1       2.410   0.074   0.524  1.00  0.00     0.177 HD
HETATM    4  C2  UNL     1       0.680   0.052  -0.336  1.00  0.00     0.688 C 
HETATM    5  N2  UNL     1       1.161  -0.674  -1.467  1.00  0.00    -0.221 N 
ATOM      6  H2  UNL     1       0.686  -1.553  -1.675  1.00  0.00     0.178 HD
HETATM    7  N3  UNL     1      -0.702   0.396  -0.347  1.00  0.00    -0.130 N 
ATOM      8  H3  UNL     1      -0.988   1.225  -0.868  1.00  0.00     0.205 HD
ENDROOT
BRANCH   5   9
HETATM    9  C3  UNL     1       2.218  -0.315  -2.330  1.00  0.00     0.176 C 
BRANCH   9  10
HETATM   10  C4  UNL     1       3.474  -0.163  -1.567  1.00  0.00    -0.040 A 
HETATM   11  C5  UNL     1       4.176   1.036  -1.644  1.00  0.00     0.010 A 
HETATM   12  C6  UNL     1       5.356   1.248  -0.968  1.00  0.00     0.019 A 
HETATM   13  C7  UNL     1       5.861   0.219  -0.179  1.00  0.00     0.040 A 
HETATM   14  C9  UNL     1       5.190  -0.977  -0.083  1.00  0.00     0.019 A 
HETATM   15  C10 UNL     1       4.008  -1.135  -0.784  1.00  0.00     0.010 A 
BRANCH  13  16
HETATM   16  C8  UNL     1       7.105   0.400   0.534  1.00  0.00     0.209 C 
HETATM   17  O1  UNL     1       7.533  -0.558   1.243  1.00  0.00    -0.644 OA
HETATM   18  O2  UNL     1       7.788   1.583   0.429  1.00  0.00    -0.644 OA
ENDBRANCH  13  16
ENDBRANCH   9  10
ENDBRANCH   5   9
BRANCH   7  19
HETATM   19  N4  UNL     1      -1.681  -0.333   0.311  1.00  0.00    -0.254 N 
HETATM   20  C11 UNL     1      -3.052  -0.103   0.103  1.00  0.00     0.259 C 
HETATM   21  O3  UNL     1      -3.358   0.826  -0.732  1.00  0.00    -0.269 OA
ATOM     22  H4  UNL     1      -1.397  -1.060   0.968  1.00  0.00     0.190 HD
BRANCH  20  23
HETATM   23  C12 UNL     1      -4.169  -0.800   0.721  1.00  0.00     0.174 C 
HETATM   24  C13 UNL     1      -4.123  -2.306   0.475  1.00  0.00     0.042 C 
BRANCH  23  25
HETATM   25  N5  UNL     1      -5.433  -0.300   0.282  1.00  0.00    -0.348 N 
HETATM   26  C14 UNL     1      -6.470  -0.054   1.198  1.00  0.00     0.214 C 
HETATM   27  C15 UNL     1      -7.778   0.466   0.754  1.00  0.00     0.117 C 
HETATM   28  O4  UNL     1      -6.264  -0.288   2.431  1.00  0.00    -0.274 OA
ATOM     29  H5  UNL     1      -5.585  -0.119  -0.710  1.00  0.00     0.163 HD
ENDBRANCH  23  25
ENDBRANCH  20  23
ENDBRANCH   7  19
TORSDOF 6
