REMARK  6 active torsions:
REMARK  status: ('A' for Active; 'I' for Inactive)
REMARK       I    between atoms: C2_2  and  N1_4 
REMARK    1  A    between atoms: C4_6  and  C5_7 
REMARK       I    between atoms: C5_7  and  N2_9 
REMARK    2  A    between atoms: N2_9  and  N3_11 
REMARK       I    between atoms: N3_11  and  C6_13 
REMARK       I    between atoms: C6_13  and  N4_15 
REMARK    3  A    between atoms: N4_15  and  C7_17 
REMARK    4  A    between atoms: C7_17  and  C10_20 
REMARK    5  A    between atoms: C10_20  and  O4_21 
REMARK    6  A    between atoms: C12_24  and  C13_25 
ROOT
HETATM    1  C5  UNL     1      -1.100   0.643   0.118  1.00  0.00     0.241 C 
HETATM    2  O2  UNL     1      -1.145   1.297   1.194  1.00  0.00    -0.271 OA
HETATM    3  N2  UNL     1       0.176   0.246  -0.426  1.00  0.00    -0.266 N 
ATOM      4  H2  UNL     1       0.206  -0.284  -1.297  1.00  0.00     0.190 HD
ENDROOT
BRANCH   3   5
HETATM    5  N3  UNL     1       1.365   0.573   0.216  1.00  0.00    -0.249 N 
HETATM    6  C6  UNL     1       2.598   0.163  -0.307  1.00  0.00     0.335 C 
HETATM    7  O3  UNL     1       2.643  -0.502  -1.354  1.00  0.00    -0.246 OA
HETATM    8  N4  UNL     1       3.809   0.503   0.355  1.00  0.00    -0.331 N 
ATOM      9  H4  UNL     1       3.746   1.048   1.215  1.00  0.00     0.165 HD
ATOM     10  H3  UNL     1       1.339   1.118   1.078  1.00  0.00     0.192 HD
BRANCH   8  11
HETATM   11  C7  UNL     1       5.114   0.128  -0.109  1.00  0.00     0.048 C 
HETATM   12  C8  UNL     1       5.286  -1.372  -0.228  1.00  0.00     0.040 C 
HETATM   13  C9  UNL     1       6.134   0.605   0.930  1.00  0.00     0.040 C 
BRANCH  11  14
HETATM   14  C10 UNL     1       5.398   0.833  -1.397  1.00  0.00     0.194 C 
BRANCH  14  15
HETATM   15  O4  UNL     1       6.650   0.525  -1.920  1.00  0.00    -0.398 OA
ATOM     16  H4  UNL     1       6.830   0.973  -2.738  1.00  0.00     0.209 HD
ENDBRANCH  14  15
ENDBRANCH  11  14
ENDBRANCH   8  11
ENDBRANCH   3   5
BRANCH   1  17
HETATM   17  C4  UNL     1      -2.360   0.291  -0.573  1.00  0.00     0.100 C 
HETATM   18  C3  UNL     1      -3.529   0.834   0.210  1.00  0.00     0.141 C 
HETATM   19  N1  UNL     1      -4.647  -0.026  -0.074  1.00  0.00    -0.337 N 
HETATM   20  C2  UNL     1      -6.004   0.316   0.066  1.00  0.00     0.216 C 
HETATM   21  C12 UNL     1      -4.161  -1.307  -0.530  1.00  0.00     0.189 C 
HETATM   22  C1  UNL     1      -6.361   1.673   0.547  1.00  0.00     0.117 C 
HETATM   23  O1  UNL     1      -6.938  -0.505  -0.208  1.00  0.00    -0.274 OA
HETATM   24  C11 UNL     1      -2.651  -1.194  -0.571  1.00  0.00     0.052 C 
BRANCH  21  25
HETATM   25  C13 UNL     1      -4.598  -2.421   0.336  1.00  0.00     0.197 C 
HETATM   26  O5  UNL     1      -4.248  -3.588   0.042  1.00  0.00    -0.646 OA
HETATM   27  O6  UNL     1      -5.382  -2.266   1.472  1.00  0.00    -0.646 OA
ENDBRANCH  21  25
ENDBRANCH   1  17
TORSDOF 6
