REMARK  4 active torsions:
REMARK  status: ('A' for Active; 'I' for Inactive)
REMARK    1  A    between atoms: C2_2  and  C3_3 
REMARK    2  A    between atoms: C3_3  and  N1_4 
REMARK       I    between atoms: N1_4  and  C4_6 
REMARK       I    between atoms: C4_6  and  N2_8 
REMARK    3  A    between atoms: N2_8  and  C5_10 
REMARK    4  A    between atoms: C12_21  and  C13_22 
ROOT
HETATM    1  C5  UNL     1       0.663   0.306   0.565  1.00  0.00     0.194 C 
HETATM    2  C6  UNL     1      -0.177   1.256   1.329  1.00  0.00     0.242 C 
HETATM    3  O2  UNL     1       0.153   2.403   1.671  1.00  0.00    -0.271 OA
HETATM    4  N3  UNL     1      -1.396   0.569   1.564  1.00  0.00    -0.353 N 
ATOM      5  H3  UNL     1      -2.113   0.877   2.221  1.00  0.00     0.163 HD
HETATM    6  C7  UNL     1      -1.491  -0.610   0.762  1.00  0.00     0.114 C 
HETATM    7  C8  UNL     1      -0.371  -0.429  -0.234  1.00  0.00     0.103 C 
HETATM    8  S1  UNL     1      -1.170   0.644  -1.459  1.00  0.00    -0.149 SA
HETATM    9  C9  UNL     1      -2.920   0.338  -0.987  1.00  0.00     0.015 C 
HETATM   10  C10 UNL     1      -3.592   1.577  -0.535  1.00  0.00     0.027 C 
HETATM   11  C11 UNL     1      -3.584  -0.200  -2.258  1.00  0.00     0.027 C 
HETATM   12  C12 UNL     1      -2.765  -0.762  -0.016  1.00  0.00     0.116 C 
ENDROOT
BRANCH   1  13
HETATM   13  N2  UNL     1       1.662   0.937  -0.228  1.00  0.00    -0.329 N 
HETATM   14  C4  UNL     1       3.030   0.602  -0.045  1.00  0.00     0.317 C 
HETATM   15  N1  UNL     1       4.060   1.200  -0.808  1.00  0.00    -0.340 N 
HETATM   16  O1  UNL     1       3.351  -0.258   0.824  1.00  0.00    -0.247 OA
ATOM     17  H1  UNL     1       3.825   1.896  -1.515  1.00  0.00     0.164 HD
ATOM     18  H2  UNL     1       1.396   1.630  -0.928  1.00  0.00     0.165 HD
BRANCH  15  19
HETATM   19  C3  UNL     1       5.435   0.837  -0.597  1.00  0.00     0.150 C 
BRANCH  19  20
HETATM   20  C2  UNL     1       5.682  -0.630  -0.845  1.00  0.00    -0.018 C 
HETATM   21  C1  UNL     1       6.149  -1.393   0.134  1.00  0.00     0.008 C 
ENDBRANCH  19  20
ENDBRANCH  15  19
ENDBRANCH   1  13
BRANCH  12  22
HETATM   22  C13 UNL     1      -3.875  -1.026   0.881  1.00  0.00     0.238 C 
HETATM   23  N4  UNL     1      -3.851  -2.154   1.736  1.00  0.00    -0.062 NA
HETATM   24  O3  UNL     1      -4.866  -0.270   0.918  1.00  0.00    -0.276 OA
ENDBRANCH  12  22
TORSDOF 4
