REMARK  7 active torsions:
REMARK  status: ('A' for Active; 'I' for Inactive)
REMARK    1  A    between atoms: C1_2  and  C2_4 
REMARK    2  A    between atoms: C2_4  and  C3_5 
REMARK    3  A    between atoms: C3_5  and  C4_7 
REMARK       I    between atoms: C4_7  and  N1_9 
REMARK    4  A    between atoms: N1_9  and  N2_11 
REMARK    5  A    between atoms: N2_11  and  C5_13 
REMARK    6  A    between atoms: C5_13  and  N3_15 
REMARK       I    between atoms: N3_15  and  C6_17 
REMARK    7  A    between atoms: C6_17  and  C7_19 
ROOT
HETATM    1  N2  UNL     1       0.903  -0.648  -0.883  1.00  0.00    -0.273 N 
ATOM      2  H2  UNL     1       0.687  -1.645  -0.863  1.00  0.00     0.189 HD
ENDROOT
BRANCH   1   3
HETATM    3  N1  UNL     1       2.188  -0.200  -1.168  1.00  0.00    -0.261 N 
HETATM    4  C4  UNL     1       3.298  -0.825  -0.548  1.00  0.00     0.306 C 
HETATM    5  O4  UNL     1       3.137  -1.774   0.237  1.00  0.00    -0.263 OA
ATOM      6  H1  UNL     1       2.330   0.573  -1.818  1.00  0.00     0.190 HD
BRANCH   4   7
HETATM    7  C3  UNL     1       4.637  -0.343  -0.836  1.00  0.00     0.228 C 
HETATM    8  O3  UNL     1       4.850   0.633  -1.614  1.00  0.00    -0.287 OA
BRANCH   7   9
HETATM    9  C2  UNL     1       5.793  -1.006  -0.198  1.00  0.00     0.202 C 
BRANCH   9  10
HETATM   10  C1  UNL     1       6.700  -0.039   0.486  1.00  0.00     0.180 C 
HETATM   11  O1  UNL     1       7.769  -0.491   0.958  1.00  0.00    -0.648 OA
HETATM   12  O2  UNL     1       6.427   1.305   0.622  1.00  0.00    -0.648 OA
ENDBRANCH   9  10
ENDBRANCH   7   9
ENDBRANCH   4   7
ENDBRANCH   1   3
BRANCH   1  13
HETATM   13  C5  UNL     1      -0.113   0.336  -0.617  1.00  0.00     0.193 C 
HETATM   14  S1  UNL     1       0.267   1.935  -0.666  1.00  0.00    -0.039 SA
BRANCH  13  15
HETATM   15  N3  UNL     1      -1.442  -0.033  -0.312  1.00  0.00    -0.298 N 
HETATM   16  C6  UNL     1      -2.449   0.901  -0.049  1.00  0.00     0.257 C 
HETATM   17  O5  UNL     1      -2.180   2.147  -0.084  1.00  0.00    -0.267 OA
ATOM     18  H3  UNL     1      -1.678  -1.025  -0.282  1.00  0.00     0.171 HD
BRANCH  16  19
HETATM   19  C7  UNL     1      -3.840   0.519   0.277  1.00  0.00     0.032 A 
HETATM   20  C8  UNL     1      -4.248  -0.785   0.414  1.00  0.00     0.017 A 
HETATM   21  C9  UNL     1      -5.568  -1.123   0.719  1.00  0.00     0.001 A 
HETATM   22  C10 UNL     1      -6.494  -0.112   0.888  1.00  0.00     0.000 A 
HETATM   23  C11 UNL     1      -6.112   1.206   0.755  1.00  0.00     0.001 A 
HETATM   24  C12 UNL     1      -4.805   1.508   0.454  1.00  0.00     0.017 A 
ENDBRANCH  16  19
ENDBRANCH  13  15
ENDBRANCH   1  13
TORSDOF 7
