REMARK  4 active torsions:
REMARK  status: ('A' for Active; 'I' for Inactive)
REMARK    1  A    between atoms: C2_2  and  N2_6 
REMARK    2  A    between atoms: N2_6  and  C3_8 
REMARK    3  A    between atoms: N3_11  and  C6_12 
REMARK    4  A    between atoms: C6_12  and  C7_13 
REMARK       I    between atoms: N6_20  and  C10_21 
ROOT
HETATM    1  C6  UNL     1      -1.071  -1.292   0.075  1.00  0.00     0.086 C 
HETATM    2  C8  UNL     1      -1.477  -0.338   1.168  1.00  0.00     0.058 C 
HETATM    3  C9  UNL     1      -1.958   0.944   0.460  1.00  0.00     0.128 C 
HETATM    4  N6  UNL     1      -3.258   0.587  -0.046  1.00  0.00    -0.352 N 
HETATM    5  C10 UNL     1      -4.278   1.545  -0.113  1.00  0.00     0.215 C 
HETATM    6  C11 UNL     1      -4.058   2.937   0.328  1.00  0.00     0.117 C 
HETATM    7  O1  UNL     1      -5.409   1.222  -0.556  1.00  0.00    -0.274 OA
HETATM    8  C12 UNL     1      -3.432  -0.786  -0.466  1.00  0.00     0.128 C 
HETATM    9  C13 UNL     1      -2.085  -1.215  -1.017  1.00  0.00     0.058 C 
ENDROOT
BRANCH   1  10
HETATM   10  N3  UNL     1       0.257  -1.085  -0.268  1.00  0.00    -0.397 N 
HETATM   11  C5  UNL     1       1.227  -1.124   0.765  1.00  0.00     0.120 C 
HETATM   12  C4  UNL     1       1.897   0.242   0.798  1.00  0.00     0.044 C 
HETATM   13  C3  UNL     1       2.658   0.299  -0.537  1.00  0.00     0.085 C 
HETATM   14  C15 UNL     1       1.636   0.281  -1.621  1.00  0.00     0.044 C 
HETATM   15  C14 UNL     1       0.730  -0.962  -1.566  1.00  0.00     0.120 C 
BRANCH  13  16
HETATM   16  N2  UNL     1       3.380   1.530  -0.580  1.00  0.00    -0.376 N 
ATOM     17  H2  UNL     1       3.216   2.221  -1.312  1.00  0.00     0.161 HD
BRANCH  16  18
HETATM   18  C2  UNL     1       4.350   1.749   0.459  1.00  0.00     0.066 C 
HETATM   19  C1  UNL     1       5.596   0.978   0.469  1.00  0.00     0.088 C 
HETATM   20  N1  UNL     1       4.114   2.622   1.374  1.00  0.00    -0.389 N 
ATOM     21  H12 UNL     1       4.802   2.777   2.111  1.00  0.00     0.157 HD
ATOM     22  H11 UNL     1       3.247   3.159   1.367  1.00  0.00     0.157 HD
ENDBRANCH  16  18
ENDBRANCH  13  16
ENDBRANCH   1  10
BRANCH   1  23
HETATM   23  C7  UNL     1      -1.206  -2.684   0.642  1.00  0.00     0.115 C 
HETATM   24  N4  UNL     1      -0.319  -3.546   0.329  1.00  0.00    -0.389 N 
ATOM     25  H42 UNL     1       0.461  -3.270  -0.268  1.00  0.00     0.157 HD
ATOM     26  H41 UNL     1      -0.410  -4.487   0.712  1.00  0.00     0.157 HD
HETATM   27  N5  UNL     1      -2.294  -3.069   1.475  1.00  0.00    -0.085 NA
ENDBRANCH   1  23
TORSDOF 4
