REMARK  6 active torsions:
REMARK  status: ('A' for Active; 'I' for Inactive)
REMARK    1  A    between atoms: C2_2  and  N1_3 
REMARK    2  A    between atoms: C3_4  and  O1_5 
REMARK    3  A    between atoms: C6_9  and  O2_10 
REMARK    4  A    between atoms: C7_12  and  O3_13 
REMARK    5  A    between atoms: C12_20  and  C13_21 
REMARK    6  A    between atoms: C13_21  and  C14_22 
ROOT
HETATM    1  N1  UNL     1       2.691  -1.059   0.179  1.00  0.00    -0.308 N 
HETATM    2  C3  UNL     1       1.455  -1.605   0.074  1.00  0.00     0.153 A 
HETATM    3  C4  UNL     1       0.563  -0.616  -0.281  1.00  0.00     0.042 A 
HETATM    4  C5  UNL     1       1.324   0.538  -0.382  1.00  0.00     0.071 A 
HETATM    5  C6  UNL     1       2.648   0.257  -0.095  1.00  0.00     0.156 A 
HETATM    6  C7  UNL     1       0.368   1.622  -0.768  1.00  0.00     0.292 C 
HETATM    7  C8  UNL     1       0.765   2.955  -0.287  1.00  0.00     0.077 C 
HETATM    8  C9  UNL     1       0.225   3.394   1.019  1.00  0.00     0.007 C 
HETATM    9  C10 UNL     1      -1.142   2.842   1.318  1.00  0.00     0.030 C 
HETATM   10  C11 UNL     1      -1.016   1.338   1.168  1.00  0.00     0.278 C 
HETATM   11  N2  UNL     1      -0.881   1.113  -0.250  1.00  0.00     0.137 N 
HETATM   12  C12 UNL     1      -0.874  -0.292  -0.597  1.00  0.00     0.265 C 
ENDROOT
BRANCH  12  13
HETATM   13  C13 UNL     1      -1.829  -1.143   0.155  1.00  0.00     0.045 C 
BRANCH  13  14
HETATM   14  C14 UNL     1      -3.270  -0.850  -0.151  1.00  0.00    -0.020 C 
HETATM   15  C15 UNL     1      -4.218  -1.723   0.625  1.00  0.00     0.009 C 
HETATM   16  C16 UNL     1      -3.581  -1.134  -1.629  1.00  0.00     0.009 C 
ENDBRANCH  13  14
ENDBRANCH  12  13
BRANCH   2  17
HETATM   17  O1  UNL     1       1.100  -2.922   0.279  1.00  0.00    -0.345 OA
ATOM     18  H1  UNL     1       0.234  -3.305   0.205  1.00  0.00     0.219 HD
ENDBRANCH   2  17
BRANCH   6  19
HETATM   19  O3  UNL     1       0.263   1.636  -2.157  1.00  0.00    -0.359 OA
ATOM     20  H3  UNL     1      -0.344   2.324  -2.402  1.00  0.00     0.213 HD
ENDBRANCH   6  19
BRANCH   1  21
HETATM   21  C2  UNL     1       3.888  -1.775   0.532  1.00  0.00     0.129 C 
HETATM   22  C1  UNL     1       4.600  -2.333  -0.679  1.00  0.00     0.027 C 
ENDBRANCH   1  21
BRANCH   5  23
HETATM   23  O2  UNL     1       3.713   1.163  -0.093  1.00  0.00    -0.345 OA
ATOM     24  H2  UNL     1       3.683   2.093  -0.287  1.00  0.00     0.219 HD
ENDBRANCH   5  23
TORSDOF 6
