REMARK  5 active torsions:
REMARK  status: ('A' for Active; 'I' for Inactive)
REMARK    1  A    between atoms: C2_2  and  C3_3 
REMARK    2  A    between atoms: C3_3  and  N1_4 
REMARK    3  A    between atoms: N1_4  and  C4_7 
REMARK    4  A    between atoms: C6_9  and  C8_11 
REMARK    5  A    between atoms: C9_12  and  C10_13 
ROOT
HETATM    1  C8  UNL     1       0.457  -0.368  -0.325  1.00  0.00    -0.090 C 
HETATM    2  C9  UNL     1       1.428  -0.010  -0.962  1.00  0.00    -0.074 C 
ENDROOT
BRANCH   2   3
HETATM    3  C10 UNL     1       2.599   0.414  -1.700  1.00  0.00     0.109 C 
HETATM    4  C11 UNL     1       3.791   0.405  -1.191  1.00  0.00     0.131 C 
HETATM    5  O1  UNL     1       4.008  -0.013   0.094  1.00  0.00    -0.276 OA
HETATM    6  S2  UNL     1       5.187   0.940  -2.153  1.00  0.00    -0.028 SA
HETATM    7  C12 UNL     1       5.149   0.056   0.831  1.00  0.00     0.222 C 
HETATM    8  S1  UNL     1       5.068  -0.552   2.377  1.00  0.00    -0.032 SA
HETATM    9  N2  UNL     1       6.347   0.595   0.363  1.00  0.00    -0.308 N 
HETATM   10  C13 UNL     1       6.519   1.143  -0.955  1.00  0.00     0.147 C 
ATOM     11  H2  UNL     1       7.149   0.601   0.993  1.00  0.00     0.171 HD
HETATM   12  N3  UNL     1       7.543   1.738  -1.263  1.00  0.00    -0.379 N 
ATOM     13  H32 UNL     1       8.297   1.853  -0.585  1.00  0.00     0.158 HD
ATOM     14  H31 UNL     1       7.665   2.127  -2.198  1.00  0.00     0.158 HD
ENDBRANCH   2   3
BRANCH   1  15
HETATM   15  C6  UNL     1      -0.704  -0.797   0.470  1.00  0.00     0.050 A 
HETATM   16  C4  UNL     1      -1.977  -0.069   0.145  1.00  0.00     0.207 A 
HETATM   17  C5  UNL     1      -1.253   0.220   1.402  1.00  0.00     0.059 A 
HETATM   18  C7  UNL     1      -0.731  -2.216   0.942  1.00  0.00     0.031 C 
BRANCH  16  19
HETATM   19  N1  UNL     1      -3.154  -0.905   0.130  1.00  0.00    -0.069 N 
ATOM     20  H12 UNL     1      -2.934  -1.852   0.439  1.00  0.00     0.277 HD
ATOM     21  H11 UNL     1      -3.447  -1.107  -0.826  1.00  0.00     0.277 HD
BRANCH  19  22
HETATM   22  C3  UNL     1      -4.244  -0.348   0.900  1.00  0.00     0.232 C 
BRANCH  22  23
HETATM   23  C2  UNL     1      -4.727   0.905   0.157  1.00  0.00     0.023 C 
HETATM   24  C1  UNL     1      -5.181   0.433  -1.231  1.00  0.00     0.007 C 
ENDBRANCH  22  23
ENDBRANCH  19  22
ENDBRANCH  16  19
ENDBRANCH   1  15
TORSDOF 5
