REMARK  6 active torsions:
REMARK  status: ('A' for Active; 'I' for Inactive)
REMARK    1  A    between atoms: C3_3  and  C5_5 
REMARK    2  A    between atoms: C5_5  and  O2_7 
REMARK    3  A    between atoms: O2_7  and  C6_8 
REMARK    4  A    between atoms: C9_11  and  C10_12 
REMARK    5  A    between atoms: C11_13  and  O3_14 
REMARK    6  A    between atoms: C13_19  and  O4_20 
ROOT
HETATM    1  C6  UNL     1       0.066   0.722  -0.051  1.00  0.00     0.161 C 
HETATM    2  C7  UNL     1      -0.487   1.511   1.101  1.00  0.00     0.038 C 
HETATM    3  C8  UNL     1      -1.552   0.804   1.883  1.00  0.00     0.040 C 
HETATM    4  C9  UNL     1      -2.164  -0.367   1.251  1.00  0.00     0.162 C 
HETATM    5  O5  UNL     1      -1.251  -1.125   0.479  1.00  0.00    -0.373 OA
HETATM    6  C14 UNL     1      -0.872  -0.324  -0.572  1.00  0.00     0.147 C 
HETATM    7  C15 UNL     1      -0.169  -1.082  -1.674  1.00  0.00     0.042 C 
ENDROOT
BRANCH   4   8
HETATM    8  C10 UNL     1      -3.346  -0.150   0.420  1.00  0.00     0.056 A 
HETATM    9  C11 UNL     1      -4.005  -1.219  -0.200  1.00  0.00     0.094 A 
HETATM   10  C12 UNL     1      -5.074  -0.718  -0.912  1.00  0.00     0.127 A 
HETATM   11  N1  UNL     1      -5.087   0.612  -0.747  1.00  0.00    -0.344 N 
HETATM   12  C13 UNL     1      -4.045   0.967   0.058  1.00  0.00     0.151 A 
ATOM     13  H1  UNL     1      -5.766   1.254  -1.157  1.00  0.00     0.167 HD
BRANCH   9  14
HETATM   14  O3  UNL     1      -3.663  -2.559  -0.126  1.00  0.00    -0.359 OA
ATOM     15  H3  UNL     1      -4.110  -3.284  -0.547  1.00  0.00     0.217 HD
ENDBRANCH   9  14
BRANCH  12  16
HETATM   16  O4  UNL     1      -3.741   2.238   0.445  1.00  0.00    -0.346 OA
ATOM     17  H4  UNL     1      -4.227   3.015   0.193  1.00  0.00     0.219 HD
ENDBRANCH  12  16
ENDBRANCH   4   8
BRANCH   1  18
HETATM   18  O2  UNL     1       1.321   0.156   0.284  1.00  0.00    -0.310 OA
BRANCH  18  19
HETATM   19  C5  UNL     1       2.477   0.531  -0.384  1.00  0.00     0.289 C 
HETATM   20  O1  UNL     1       2.318   1.407  -1.302  1.00  0.00    -0.260 OA
BRANCH  19  21
HETATM   21  C3  UNL     1       3.787  -0.005  -0.093  1.00  0.00     0.009 C 
HETATM   22  C2  UNL     1       4.823   0.408  -0.774  1.00  0.00    -0.018 C 
HETATM   23  C1  UNL     1       6.169  -0.144  -0.474  1.00  0.00     0.036 C 
HETATM   24  C4  UNL     1       3.949  -1.010   0.966  1.00  0.00     0.054 C 
ENDBRANCH  19  21
ENDBRANCH  18  19
ENDBRANCH   1  18
TORSDOF 6
