REMARK  8 active torsions:
REMARK  status: ('A' for Active; 'I' for Inactive)
REMARK       I    between atoms: N1_2  and  C2_4 
REMARK       I    between atoms: C2_4  and  N2_6 
REMARK    1  A    between atoms: N2_6  and  C3_8 
REMARK    2  A    between atoms: C3_8  and  C9_25 
REMARK    3  A    between atoms: N3_9  and  C4_11 
REMARK    4  A    between atoms: C6_13  and  C7_14 
REMARK    5  A    between atoms: C7_14  and  O2_15 
REMARK    6  A    between atoms: O2_15  and  S1_16 
REMARK    7  A    between atoms: S1_16  and  N4_17 
REMARK    8  A    between atoms: C8_22  and  O5_23 
ROOT
HETATM    1  C4  UNL     1       0.992   0.461   0.291  1.00  0.00     0.112 C 
HETATM    2  C5  UNL     1       0.721  -0.189  -1.063  1.00  0.00     0.037 C 
HETATM    3  C6  UNL     1       1.530  -1.397  -0.560  1.00  0.00     0.044 C 
HETATM    4  C8  UNL     1       2.145  -0.523   0.492  1.00  0.00     0.147 C 
ENDROOT
BRANCH   1   5
HETATM    5  N3  UNL     1       0.000   0.231   1.286  1.00  0.00    -0.372 N 
HETATM    6  C3  UNL     1      -1.189   0.801   1.329  1.00  0.00     0.084 C 
ATOM      7  H3  UNL     1       0.228  -0.430   2.028  1.00  0.00     0.161 HD
BRANCH   6   8
HETATM    8  N2  UNL     1      -1.497   1.712   0.307  1.00  0.00    -0.298 N 
HETATM    9  C2  UNL     1      -2.716   2.408   0.215  1.00  0.00     0.321 C 
HETATM   10  N1  UNL     1      -2.915   3.300  -0.881  1.00  0.00    -0.347 N 
HETATM   11  O1  UNL     1      -3.618   2.273   1.044  1.00  0.00    -0.247 OA
HETATM   12  C1  UNL     1      -4.171   4.007  -0.973  1.00  0.00     0.151 C 
ATOM     13  H1  UNL     1      -2.187   3.435  -1.583  1.00  0.00     0.163 HD
ATOM     14  H2  UNL     1      -0.794   1.880  -0.413  1.00  0.00     0.172 HD
ENDBRANCH   6   8
BRANCH   6  15
HETATM   15  C9  UNL     1      -2.100   0.404   2.439  1.00  0.00     0.045 C 
HETATM   16  C10 UNL     1      -1.286  -0.345   3.513  1.00  0.00     0.017 C 
HETATM   17  C11 UNL     1      -3.199  -0.528   1.989  1.00  0.00     0.017 C 
ENDBRANCH   6  15
ENDBRANCH   1   5
BRANCH   4  18
HETATM   18  O5  UNL     1       3.377   0.035   0.198  1.00  0.00    -0.393 OA
ATOM     19  H5  UNL     1       4.093  -0.576   0.323  1.00  0.00     0.210 HD
ENDBRANCH   4  18
BRANCH   3  20
HETATM   20  C7  UNL     1       2.471  -1.871  -1.641  1.00  0.00     0.199 C 
BRANCH  20  21
HETATM   21  O2  UNL     1       3.245  -2.947  -1.297  1.00  0.00    -0.259 OA
BRANCH  21  22
HETATM   22  S1  UNL     1       4.254  -3.434  -2.548  1.00  0.00     0.355 S 
HETATM   23  O3  UNL     1       3.851  -4.840  -2.928  1.00  0.00    -0.176 OA
HETATM   24  O4  UNL     1       5.663  -3.475  -2.076  1.00  0.00    -0.176 OA
BRANCH  22  25
HETATM   25  N4  UNL     1       4.031  -2.453  -3.952  1.00  0.00    -0.306 N 
ATOM     26  H42 UNL     1       3.367  -1.680  -3.999  1.00  0.00     0.171 HD
ATOM     27  H41 UNL     1       4.644  -2.749  -4.712  1.00  0.00     0.171 HD
ENDBRANCH  22  25
ENDBRANCH  21  22
ENDBRANCH  20  21
ENDBRANCH   3  20
TORSDOF 8
