REMARK  7 active torsions:
REMARK  status: ('A' for Active; 'I' for Inactive)
REMARK    1  A    between atoms: C2_2  and  C5_5 
REMARK    2  A    between atoms: C5_5  and  C6_7 
REMARK    3  A    between atoms: C6_7  and  O3_9 
REMARK    4  A    between atoms: O3_9  and  C7_10 
REMARK    5  A    between atoms: C7_10  and  C8_11 
REMARK    6  A    between atoms: C13_17  and  N2_18 
REMARK    7  A    between atoms: C15_23  and  O4_24 
ROOT
HETATM    1  C8  UNL     1       0.890  -0.313   0.385  1.00  0.00     0.062 C 
HETATM    2  C9  UNL     1       0.862  -1.448  -0.602  1.00  0.00     0.124 C 
HETATM    3  C10 UNL     1       0.421  -2.679   0.055  1.00  0.00     0.068 C 
HETATM    4  N1  UNL     1       0.064  -3.655   0.560  1.00  0.00    -0.197 NA
HETATM    5  C11 UNL     1       2.141  -1.735  -1.261  1.00  0.00    -0.009 C 
HETATM    6  C12 UNL     1       3.275  -1.558  -0.603  1.00  0.00    -0.002 C 
HETATM    7  C13 UNL     1       3.276  -1.073   0.788  1.00  0.00     0.136 C 
HETATM    8  C15 UNL     1       2.182  -0.082   1.073  1.00  0.00     0.152 C 
ENDROOT
BRANCH   1   9
HETATM    9  C7  UNL     1       0.425   0.948  -0.296  1.00  0.00     0.188 C 
BRANCH   9  10
HETATM   10  O3  UNL     1      -0.864   0.912  -0.816  1.00  0.00    -0.315 OA
BRANCH  10  11
HETATM   11  C6  UNL     1      -2.050   0.734  -0.166  1.00  0.00     0.330 C 
HETATM   12  O2  UNL     1      -2.021   0.580   1.081  1.00  0.00    -0.256 OA
BRANCH  11  13
HETATM   13  C5  UNL     1      -3.338   0.719  -0.889  1.00  0.00     0.231 C 
HETATM   14  O1  UNL     1      -3.317   0.879  -2.135  1.00  0.00    -0.286 OA
BRANCH  13  15
HETATM   15  C2  UNL     1      -4.607   0.527  -0.195  1.00  0.00     0.020 C 
HETATM   16  C1  UNL     1      -4.880   1.587   0.852  1.00  0.00     0.023 C 
HETATM   17  C3  UNL     1      -5.785   0.609  -1.175  1.00  0.00     0.023 C 
HETATM   18  C4  UNL     1      -4.596  -0.815   0.495  1.00  0.00     0.023 C 
ENDBRANCH  13  15
ENDBRANCH  11  13
ENDBRANCH  10  11
ENDBRANCH   9  10
ENDBRANCH   1   9
BRANCH   8  19
HETATM   19  O4  UNL     1       2.687   1.210   0.947  1.00  0.00    -0.393 OA
ATOM     20  H4  UNL     1       3.515   1.358   1.388  1.00  0.00     0.210 HD
ENDBRANCH   8  19
BRANCH   7  21
HETATM   21  N2  UNL     1       4.538  -0.493   1.105  1.00  0.00    -0.357 N 
HETATM   22  C14 UNL     1       5.351   0.165   0.421  1.00  0.00     0.197 C 
HETATM   23  N3  UNL     1       6.555   0.598   1.097  1.00  0.00    -0.067 NA
HETATM   24  N4  UNL     1       5.268   0.557  -0.937  1.00  0.00    -0.067 NA
ATOM     25  H2  UNL     1       4.833  -0.643   2.070  1.00  0.00     0.162 HD
ENDBRANCH   7  21
TORSDOF 7
