REMARK  5 active torsions:
REMARK  status: ('A' for Active; 'I' for Inactive)
REMARK    1  A    between atoms: C2_2  and  N1_3 
REMARK    2  A    between atoms: C2_2  and  C12_22 
REMARK       I    between atoms: N1_3  and  C3_5 
REMARK       I    between atoms: C3_5  and  N2_7 
REMARK    3  A    between atoms: N2_7  and  C4_9 
REMARK    4  A    between atoms: N3_16  and  C9_17 
REMARK    5  A    between atoms: C9_17  and  O3_20 
ROOT
HETATM    1  C4  UNL     1       0.073   0.794   0.333  1.00  0.00     0.111 C 
HETATM    2  C5  UNL     1      -0.161   2.199  -0.201  1.00  0.00     0.102 C 
HETATM    3  S1  UNL     1      -1.534   1.999  -1.361  1.00  0.00    -0.141 SA
HETATM    4  C6  UNL     1      -1.941   0.310  -1.023  1.00  0.00     0.167 C 
HETATM    5  C7  UNL     1      -1.171   0.053   0.277  1.00  0.00     0.134 C 
HETATM    6  C8  UNL     1      -2.301   0.859   0.808  1.00  0.00     0.232 C 
HETATM    7  O2  UNL     1      -2.545   1.739   1.675  1.00  0.00    -0.273 OA
HETATM    8  N3  UNL     1      -3.108   0.178  -0.153  1.00  0.00    -0.306 N 
ENDROOT
BRANCH   1   9
HETATM    9  N2  UNL     1       1.210   0.242  -0.295  1.00  0.00    -0.337 N 
HETATM   10  C3  UNL     1       2.437  -0.003   0.504  1.00  0.00     0.321 C 
HETATM   11  N1  UNL     1       3.562  -0.377  -0.171  1.00  0.00    -0.307 N 
HETATM   12  O1  UNL     1       2.353   0.167   1.722  1.00  0.00    -0.247 OA
ATOM     13  H1  UNL     1       3.477  -0.419  -1.187  1.00  0.00     0.170 HD
ATOM     14  H2  UNL     1       1.189   0.013  -1.289  1.00  0.00     0.164 HD
BRANCH  11  15
HETATM   15  C2  UNL     1       4.846  -0.718   0.361  1.00  0.00     0.086 C 
HETATM   16  C1  UNL     1       5.531  -1.717  -0.481  1.00  0.00     0.076 C 
BRANCH  15  17
HETATM   17  C12 UNL     1       5.589   0.401   0.950  1.00  0.00     0.222 C 
HETATM   18  O4  UNL     1       5.787   0.655   2.138  1.00  0.00    -0.643 OA
HETATM   19  O5  UNL     1       6.175   1.350   0.017  1.00  0.00    -0.643 OA
ENDBRANCH  15  17
ENDBRANCH  11  15
ENDBRANCH   1   9
BRANCH   8  20
HETATM   20  C9  UNL     1      -4.387  -0.400  -0.076  1.00  0.00     0.129 C 
HETATM   21  C10 UNL     1      -5.341   0.423   0.746  1.00  0.00     0.070 C 
HETATM   22  C11 UNL     1      -4.359  -1.822   0.459  1.00  0.00     0.070 C 
BRANCH  20  23
HETATM   23  O3  UNL     1      -4.982  -0.462  -1.357  1.00  0.00    -0.371 OA
ATOM     24  H3  UNL     1      -5.846  -0.853  -1.305  1.00  0.00     0.212 HD
ENDBRANCH  20  23
ENDBRANCH   8  20
TORSDOF 5
