REMARK  7 active torsions:
REMARK  status: ('A' for Active; 'I' for Inactive)
REMARK    1  A    between atoms: C2_2  and  C3_3 
REMARK    2  A    between atoms: C3_3  and  C4_4 
REMARK    3  A    between atoms: C5_5  and  C6_6 
REMARK    4  A    between atoms: C6_6  and  O1_7 
REMARK    5  A    between atoms: C9_11  and  O2_12 
REMARK    6  A    between atoms: C12_16  and  N1_17 
REMARK    7  A    between atoms: C13_21  and  O3_22 
ROOT
HETATM    1  C6  UNL     1      -0.249  -1.066  -0.656  1.00  0.00     0.157 C 
HETATM    2  C7  UNL     1      -0.856  -0.019  -1.526  1.00  0.00     0.064 C 
HETATM    3  C8  UNL     1      -2.279   0.100  -1.017  1.00  0.00     0.050 C 
HETATM    4  C9  UNL     1      -2.411   1.457  -0.373  1.00  0.00     0.125 C 
HETATM    5  C10 UNL     1      -1.556   1.620   0.819  1.00  0.00     0.035 C 
HETATM    6  C11 UNL     1      -0.622   0.533   1.154  1.00  0.00     0.048 C 
HETATM    7  C12 UNL     1      -0.973  -0.833   0.664  1.00  0.00     0.191 C 
HETATM    8  C13 UNL     1      -2.405  -0.904   0.121  1.00  0.00     0.164 C 
ENDROOT
BRANCH   1   9
HETATM    9  C5  UNL     1       1.184  -0.954  -0.523  1.00  0.00    -0.065 C 
HETATM   10  C4  UNL     1       2.377  -0.879  -0.402  1.00  0.00    -0.100 C 
BRANCH  10  11
HETATM   11  C3  UNL     1       3.848  -0.806  -0.237  1.00  0.00     0.120 C 
BRANCH  11  12
HETATM   12  C2  UNL     1       4.255   0.560  -0.619  1.00  0.00    -0.025 C 
HETATM   13  C1  UNL     1       4.860   1.316   0.279  1.00  0.00     0.008 C 
ENDBRANCH  11  12
ENDBRANCH  10  11
ENDBRANCH   1   9
BRANCH   1  14
HETATM   14  O1  UNL     1      -0.668  -2.311  -1.119  1.00  0.00    -0.375 OA
ATOM     15  H1  UNL     1      -1.611  -2.385  -1.207  1.00  0.00     0.211 HD
ENDBRANCH   1  14
BRANCH   7  16
HETATM   16  N1  UNL     1      -0.707  -1.850   1.633  1.00  0.00    -0.064 N 
ATOM     17  H13 UNL     1      -0.920  -2.775   1.259  1.00  0.00     0.275 HD
ATOM     18  H12 UNL     1       0.296  -1.958   1.782  1.00  0.00     0.275 HD
ATOM     19  H11 UNL     1      -1.192  -1.694   2.517  1.00  0.00     0.275 HD
ENDBRANCH   7  16
BRANCH   8  20
HETATM   20  O3  UNL     1      -3.331  -0.531   1.063  1.00  0.00    -0.392 OA
ATOM     21  H3  UNL     1      -3.410  -1.157   1.773  1.00  0.00     0.210 HD
ENDBRANCH   8  20
BRANCH   4  22
HETATM   22  O2  UNL     1      -3.767   1.750  -0.094  1.00  0.00    -0.395 OA
ATOM     23  H2  UNL     1      -3.850   2.605   0.312  1.00  0.00     0.210 HD
ENDBRANCH   4  22
TORSDOF 7
