REMARK  6 active torsions:
REMARK  status: ('A' for Active; 'I' for Inactive)
REMARK    1  A    between atoms: C4_5  and  O1_6 
REMARK    2  A    between atoms: O1_6  and  C5_7 
REMARK    3  A    between atoms: C5_7  and  C6_8 
REMARK    4  A    between atoms: C6_8  and  O2_9 
REMARK    5  A    between atoms: C6_8  and  C7_11 
REMARK    6  A    between atoms: C7_11  and  N1_12 
ROOT
HETATM    1  N1  UNL     1      -0.147  -0.555  -1.337  1.00  0.00     0.091 N 
HETATM    2  C8  UNL     1      -1.516  -0.488  -1.856  1.00  0.00     0.273 C 
HETATM    3  C9  UNL     1      -2.252   0.561  -1.111  1.00  0.00     0.040 C 
HETATM    4  C10 UNL     1      -2.606   0.042   0.279  1.00  0.00    -0.034 C 
HETATM    5  C11 UNL     1      -3.052   1.234   1.073  1.00  0.00     0.037 C 
HETATM    6  C12 UNL     1      -4.477   1.295   1.454  1.00  0.00     0.233 C 
HETATM    7  N2  UNL     1      -5.366   0.529   0.595  1.00  0.00    -0.075 N 
ATOM      8  H21 UNL     1      -5.384   0.841  -0.376  1.00  0.00     0.277 HD
ATOM      9  H22 UNL     1      -6.358   0.679   0.777  1.00  0.00     0.277 HD
HETATM   10  C13 UNL     1      -4.922  -0.855   0.776  1.00  0.00     0.233 C 
HETATM   11  C14 UNL     1      -3.579  -1.057   0.128  1.00  0.00     0.037 C 
HETATM   12  C15 UNL     1      -1.310  -0.511   0.843  1.00  0.00     0.040 C 
HETATM   13  C16 UNL     1      -0.103  -0.134   0.054  1.00  0.00     0.273 C 
ENDROOT
BRANCH   1  14
HETATM   14  C7  UNL     1       0.603   0.428  -2.103  1.00  0.00     0.306 C 
BRANCH  14  15
HETATM   15  C6  UNL     1       2.082   0.346  -1.761  1.00  0.00     0.170 C 
BRANCH  15  16
HETATM   16  C5  UNL     1       2.585  -1.047  -2.158  1.00  0.00     0.211 C 
BRANCH  16  17
HETATM   17  O1  UNL     1       3.936  -1.186  -1.900  1.00  0.00    -0.328 OA
BRANCH  17  18
HETATM   18  C4  UNL     1       4.543  -1.078  -0.629  1.00  0.00     0.186 A 
HETATM   19  S1  UNL     1       4.928  -2.321   0.488  1.00  0.00    -0.057 SA
HETATM   20  C3  UNL     1       5.614  -1.355   1.720  1.00  0.00     0.078 A 
HETATM   21  C2  UNL     1       5.503  -0.097   1.179  1.00  0.00     0.014 A 
HETATM   22  C1  UNL     1       6.015   1.099   1.969  1.00  0.00     0.068 C 
HETATM   23  N3  UNL     1       4.961  -0.000   0.002  1.00  0.00    -0.335 N 
ATOM     24  H3  UNL     1       4.859   0.916  -0.436  1.00  0.00     0.168 HD
ENDBRANCH  17  18
ENDBRANCH  16  17
ENDBRANCH  15  16
BRANCH  15  25
HETATM   25  O2  UNL     1       2.790   1.297  -2.485  1.00  0.00    -0.392 OA
ATOM     26  H2  UNL     1       2.478   2.160  -2.239  1.00  0.00     0.210 HD
ENDBRANCH  15  25
ENDBRANCH  14  15
ENDBRANCH   1  14
TORSDOF 6
