REMARK  9 active torsions:
REMARK  status: ('A' for Active; 'I' for Inactive)
REMARK    1  A    between atoms: C3_3  and  C4_4 
REMARK    2  A    between atoms: C5_5  and  O1_6 
REMARK    3  A    between atoms: C6_8  and  O2_9 
REMARK    4  A    between atoms: O2_9  and  C7_10 
REMARK    5  A    between atoms: C7_10  and  C8_12 
REMARK    6  A    between atoms: C9_15  and  C10_16 
REMARK    7  A    between atoms: C10_16  and  O7_18 
REMARK    8  A    between atoms: O7_18  and  C11_19 
REMARK    9  A    between atoms: C11_19  and  C12_20 
ROOT
HETATM    1  C4  UNL     1       1.138  -1.274   0.068  1.00  0.00     0.055 C 
HETATM    2  C5  UNL     1       2.163  -0.721   0.984  1.00  0.00     0.157 C 
HETATM    3  C6  UNL     1       2.400   0.416   0.011  1.00  0.00     0.176 C 
HETATM    4  C9  UNL     1       1.094   0.072  -0.662  1.00  0.00     0.128 C 
ENDROOT
BRANCH   4   5
HETATM    5  C10 UNL     1      -0.083   0.836  -0.180  1.00  0.00     0.266 C 
HETATM    6  O6  UNL     1       0.084   1.957   0.364  1.00  0.00    -0.265 OA
BRANCH   5   7
HETATM    7  O7  UNL     1      -1.380   0.367  -0.304  1.00  0.00    -0.320 OA
BRANCH   7   8
HETATM    8  C11 UNL     1      -2.503   1.124   0.169  1.00  0.00     0.187 C 
BRANCH   8   9
HETATM    9  C12 UNL     1      -3.774   0.354  -0.106  1.00  0.00    -0.029 C 
HETATM   10  C13 UNL     1      -4.969   1.117   0.376  1.00  0.00     0.016 C 
HETATM   11  C14 UNL     1      -3.914  -0.009  -1.562  1.00  0.00     0.016 C 
HETATM   12  C15 UNL     1      -3.700  -0.955   0.669  1.00  0.00     0.016 C 
ENDBRANCH   8   9
ENDBRANCH   7   8
ENDBRANCH   5   7
ENDBRANCH   4   5
BRANCH   1  13
HETATM   13  C3  UNL     1       1.505  -2.321  -0.894  1.00  0.00    -0.023 C 
HETATM   14  C2  UNL     1       2.562  -3.073  -0.767  1.00  0.00    -0.034 C 
HETATM   15  C1  UNL     1       2.858  -4.114  -1.795  1.00  0.00     0.036 C 
ENDBRANCH   1  13
BRANCH   3  16
HETATM   16  O2  UNL     1       2.439   1.697   0.560  1.00  0.00    -0.304 OA
BRANCH  16  17
HETATM   17  C7  UNL     1       3.450   2.618   0.322  1.00  0.00     0.360 C 
HETATM   18  O3  UNL     1       4.382   2.257  -0.439  1.00  0.00    -0.252 OA
BRANCH  17  19
HETATM   19  C8  UNL     1       3.430   3.959   0.935  1.00  0.00     0.277 C 
HETATM   20  O4  UNL     1       2.523   4.337   1.689  1.00  0.00    -0.640 OA
HETATM   21  O5  UNL     1       4.478   4.808   0.642  1.00  0.00    -0.640 OA
ENDBRANCH  17  19
ENDBRANCH  16  17
ENDBRANCH   3  16
BRANCH   2  22
HETATM   22  O1  UNL     1       1.666  -0.311   2.223  1.00  0.00    -0.392 OA
ATOM     23  H1  UNL     1       2.323   0.044   2.810  1.00  0.00     0.210 HD
ENDBRANCH   2  22
TORSDOF 9
