REMARK  6 active torsions:
REMARK  status: ('A' for Active; 'I' for Inactive)
REMARK    1  A    between atoms: C6_6  and  C7_8 
REMARK    2  A    between atoms: C18_22  and  C20_24 
REMARK    3  A    between atoms: C20_24  and  C21_25 
REMARK    4  A    between atoms: C21_25  and  C22_26 
REMARK    5  A    between atoms: C22_26  and  O5_28 
REMARK    6  A    between atoms: C24_30  and  C25_31 
ROOT
HETATM    1  C1  UNL     1      -3.364   0.423  -2.853  1.00  0.00     0.020 C 
HETATM    2  C2  UNL     1      -2.330   0.521  -1.991  1.00  0.00    -0.052 C 
HETATM    3  C3  UNL     1      -1.225  -0.318  -2.352  1.00  0.00     0.007 C 
HETATM    4  C4  UNL     1       0.074  -0.520  -1.779  1.00  0.00     0.007 C 
HETATM    5  C5  UNL     1       0.362  -0.932  -0.394  1.00  0.00    -0.037 C 
HETATM    6  C6  UNL     1       0.394  -2.371  -0.136  1.00  0.00     0.149 C 
HETATM    7 CL1  UNL     1       1.002  -3.319  -1.582  1.00  0.00    -0.102 Cl
HETATM    8  C8  UNL     1      -1.065  -2.929  -0.097  1.00  0.00     0.049 C 
HETATM    9  C9  UNL     1      -1.919  -2.277   0.934  1.00  0.00     0.086 C 
HETATM   10  C10 UNL     1      -3.089  -1.513   0.424  1.00  0.00     0.155 C 
HETATM   11  O3  UNL     1      -3.689  -2.163  -0.429  1.00  0.00    -0.293 OA
HETATM   12  C11 UNL     1      -3.594  -0.208   0.761  1.00  0.00    -0.009 C 
HETATM   13  C12 UNL     1      -5.122  -0.108   0.509  1.00  0.00     0.052 C 
HETATM   14  C13 UNL     1      -2.911   1.075   0.448  1.00  0.00    -0.034 C 
HETATM   15  C14 UNL     1      -1.763   1.284   1.422  1.00  0.00     0.005 C 
HETATM   16  C15 UNL     1      -0.478   1.774   1.076  1.00  0.00    -0.021 C 
HETATM   17  C16 UNL     1       0.610   1.380   0.219  1.00  0.00     0.016 C 
HETATM   18  C17 UNL     1       1.583   2.546   0.253  1.00  0.00     0.015 C 
HETATM   19  C18 UNL     1       1.296   0.023   0.378  1.00  0.00    -0.011 C 
HETATM   20  C19 UNL     1       1.423  -0.173   1.815  1.00  0.00     0.021 C 
HETATM   21  C24 UNL     1      -2.613   1.481  -0.932  1.00  0.00     0.112 C 
ENDROOT
BRANCH  19  22
HETATM   22  C20 UNL     1       2.607  -0.092  -0.320  1.00  0.00     0.024 C 
BRANCH  22  23
HETATM   23  C21 UNL     1       3.808   0.567   0.238  1.00  0.00     0.112 C 
BRANCH  23  24
HETATM   24  C22 UNL     1       4.968   0.272  -0.697  1.00  0.00     0.258 C 
HETATM   25  O4  UNL     1       4.863  -0.407  -1.728  1.00  0.00    -0.265 OA
BRANCH  24  26
HETATM   26  O5  UNL     1       6.180   0.810  -0.336  1.00  0.00    -0.326 OA
HETATM   27  C23 UNL     1       7.368   0.643  -1.079  1.00  0.00     0.213 C 
ENDBRANCH  24  26
ENDBRANCH  23  24
ENDBRANCH  22  23
ENDBRANCH  19  22
BRANCH   6  28
HETATM   28  C7  UNL     1       1.143  -3.000   0.926  1.00  0.00     0.202 C 
HETATM   29  O1  UNL     1       0.500  -3.377   1.979  1.00  0.00    -0.646 OA
HETATM   30  O2  UNL     1       2.484  -3.290   1.030  1.00  0.00    -0.646 OA
ENDBRANCH   6  28
BRANCH  21  31
HETATM   31  C25 UNL     1      -3.615   2.551  -1.427  1.00  0.00     0.245 C 
HETATM   32  O6  UNL     1      -4.412   3.050  -0.686  1.00  0.00    -0.306 OA
ENDBRANCH  21  31
TORSDOF 6
