REMARK  5 active torsions:
REMARK  status: ('A' for Active; 'I' for Inactive)
REMARK    1  A    between atoms: O1_2  and  C2_3 
REMARK    2  A    between atoms: C2_3  and  C3_5 
REMARK    3  A    between atoms: C4_6  and  C5_7 
REMARK    4  A    between atoms: C11_13  and  C13_15 
REMARK    5  A    between atoms: C21_24  and  N1_25 
ROOT
HETATM    1  C5  UNL     1       2.054  -0.242   0.357  1.00  0.00     0.025 C 
HETATM    2  C6  UNL     1       1.037   0.841   0.047  1.00  0.00     0.026 C 
HETATM    3  C7  UNL     1      -0.190   0.374  -0.646  1.00  0.00     0.007 C 
HETATM    4  C8  UNL     1      -0.262   1.129  -1.982  1.00  0.00     0.023 C 
HETATM    5  C9  UNL     1      -0.272  -1.081  -0.847  1.00  0.00    -0.072 C 
HETATM    6  C10 UNL     1       0.786  -1.886  -0.861  1.00  0.00    -0.009 C 
HETATM    7  C11 UNL     1       2.150  -1.306  -0.662  1.00  0.00    -0.001 C 
HETATM    8  C12 UNL     1       2.685  -0.927  -1.991  1.00  0.00     0.025 C 
HETATM    9  C15 UNL     1      -1.598  -1.747  -1.050  1.00  0.00     0.035 C 
HETATM   10  C16 UNL     1      -2.668  -0.794  -1.454  1.00  0.00     0.016 C 
HETATM   11  C17 UNL     1      -2.658   0.524  -0.752  1.00  0.00     0.049 C 
HETATM   12  C18 UNL     1      -3.901   0.611   0.070  1.00  0.00    -0.043 A 
HETATM   13  C19 UNL     1      -5.095   0.644  -0.636  1.00  0.00     0.011 A 
HETATM   14  C20 UNL     1      -6.277   0.725   0.065  1.00  0.00     0.037 A 
HETATM   15  C21 UNL     1      -6.258   0.771   1.442  1.00  0.00     0.103 A 
HETATM   16  C22 UNL     1      -5.033   0.736   2.116  1.00  0.00     0.046 A 
HETATM   17  C23 UNL     1      -3.861   0.657   1.437  1.00  0.00    -0.025 A 
HETATM   18  C24 UNL     1      -2.523   0.615   2.086  1.00  0.00     0.207 C 
HETATM   19  O5  UNL     1      -1.603  -0.015   1.261  1.00  0.00    -0.380 OA
HETATM   20  C25 UNL     1      -1.466   0.775   0.107  1.00  0.00     0.142 C 
ENDROOT
BRANCH   1  21
HETATM   21  C4  UNL     1       3.294   0.412   0.772  1.00  0.00    -0.015 C 
HETATM   22  C3  UNL     1       4.514   0.183   0.342  1.00  0.00     0.078 C 
BRANCH  22  23
HETATM   23  C2  UNL     1       5.663   0.940   0.872  1.00  0.00     0.282 C 
HETATM   24  O2  UNL     1       5.437   1.805   1.743  1.00  0.00    -0.260 OA
BRANCH  23  25
HETATM   25  O1  UNL     1       6.963   0.739   0.455  1.00  0.00    -0.323 OA
HETATM   26  C1  UNL     1       8.060   1.466   0.964  1.00  0.00     0.213 C 
ENDBRANCH  23  25
ENDBRANCH  22  23
ENDBRANCH   1  21
BRANCH   7  27
HETATM   27  C13 UNL     1       2.982  -2.423  -0.095  1.00  0.00    -0.001 C 
HETATM   28  C14 UNL     1       2.654  -3.028   1.036  1.00  0.00     0.081 C 
HETATM   29 CL1  UNL     1       3.647  -4.324   1.664  1.00  0.00    -0.097 Cl
ENDBRANCH   7  27
BRANCH  15  30
HETATM   30  N1  UNL     1      -7.476   0.854   2.169  1.00  0.00    -0.116 N 
HETATM   31  O3  UNL     1      -7.508   0.898   3.412  1.00  0.00    -0.532 OA
HETATM   32  O4  UNL     1      -8.656   0.886   1.475  1.00  0.00    -0.532 OA
ENDBRANCH  15  30
TORSDOF 5
