REMARK  6 active torsions:
REMARK  status: ('A' for Active; 'I' for Inactive)
REMARK    1  A    between atoms: C11_11  and  O1_12 
REMARK    2  A    between atoms: O1_12  and  C12_13 
REMARK    3  A    between atoms: C19_22  and  O4_23 
REMARK    4  A    between atoms: C21_25  and  O5_26 
REMARK    5  A    between atoms: O5_26  and  C22_27 
REMARK    6  A    between atoms: C22_27  and  C23_29 
ROOT
HETATM    1  C1  UNL     1       0.879   1.090  -1.256  1.00  0.00     0.015 C 
HETATM    2  C2  UNL     1       0.758   1.077   0.053  1.00  0.00    -0.075 C 
HETATM    3  C3  UNL     1      -0.122   2.185   0.527  1.00  0.00     0.039 C 
HETATM    4  C4  UNL     1      -1.544   2.077   0.408  1.00  0.00    -0.004 C 
HETATM    5  C5  UNL     1      -2.000   3.241  -0.510  1.00  0.00     0.005 C 
HETATM    6  C6  UNL     1      -3.440   3.535  -0.378  1.00  0.00     0.001 C 
HETATM    7  C7  UNL     1      -4.250   2.283  -0.670  1.00  0.00     0.005 C 
HETATM    8  C8  UNL     1      -3.722   1.261   0.337  1.00  0.00    -0.012 C 
HETATM    9  C9  UNL     1      -4.735   0.231   0.522  1.00  0.00     0.010 C 
HETATM   10  C10 UNL     1      -2.303   0.891  -0.042  1.00  0.00     0.023 C 
HETATM   11  C11 UNL     1      -1.888  -0.440   0.371  1.00  0.00     0.139 C 
HETATM   12  C14 UNL     1      -0.806  -0.647   1.363  1.00  0.00     0.071 C 
HETATM   13  C15 UNL     1       0.528  -1.111   0.970  1.00  0.00     0.074 C 
HETATM   14  C16 UNL     1       1.135  -1.913   2.148  1.00  0.00     0.047 C 
HETATM   15  O3  UNL     1       0.609  -1.917  -0.104  1.00  0.00    -0.368 OA
HETATM   16  C17 UNL     1       1.806  -2.396  -0.482  1.00  0.00     0.177 C 
HETATM   17  C18 UNL     1       2.039  -3.788   0.074  1.00  0.00     0.046 C 
HETATM   18  C19 UNL     1       2.935  -1.494  -0.326  1.00  0.00     0.104 C 
HETATM   19  C21 UNL     1       2.808  -0.315   0.293  1.00  0.00     0.099 C 
HETATM   20  C24 UNL     1       1.486   0.041   0.810  1.00  0.00     0.108 C 
ENDROOT
BRANCH  19  21
HETATM   21  O5  UNL     1       3.954   0.431   0.369  1.00  0.00    -0.279 OA
BRANCH  21  22
HETATM   22  C22 UNL     1       4.171   1.618   0.978  1.00  0.00     0.277 C 
HETATM   23  O6  UNL     1       3.235   2.175   1.588  1.00  0.00    -0.264 OA
BRANCH  22  24
HETATM   24  C23 UNL     1       5.536   2.280   0.930  1.00  0.00     0.226 C 
HETATM   25 CL1  UNL     1       5.424   3.797   1.830  1.00  0.00    -0.120 Cl
ENDBRANCH  22  24
ENDBRANCH  21  22
ENDBRANCH  19  21
BRANCH  18  26
HETATM   26  O4  UNL     1       4.169  -1.901  -0.848  1.00  0.00    -0.355 OA
HETATM   27  C20 UNL     1       4.518  -1.342  -2.108  1.00  0.00     0.209 C 
ENDBRANCH  18  26
BRANCH  11  28
HETATM   28  O1  UNL     1      -1.717  -1.393  -0.626  1.00  0.00    -0.316 OA
BRANCH  28  29
HETATM   29  C12 UNL     1      -2.326  -2.538  -0.933  1.00  0.00     0.255 C 
HETATM   30  C13 UNL     1      -1.979  -3.410  -2.082  1.00  0.00     0.126 C 
HETATM   31  O2  UNL     1      -3.250  -2.893  -0.206  1.00  0.00    -0.266 OA
ENDBRANCH  28  29
ENDBRANCH  11  28
TORSDOF 6
