REMARK  0 active torsions:
REMARK  status: ('A' for Active; 'I' for Inactive)
ROOT
HETATM    1  N1  UNL     1      -4.015  -0.698   0.056  1.00  0.00    -0.195 NA
HETATM    2  C1  UNL     1      -2.865  -0.593  -0.021  1.00  0.00     0.092 C 
HETATM    3  C2  UNL     1      -1.391  -0.451  -0.097  1.00  0.00     0.291 C 
HETATM    4  C3  UNL     1      -0.891   0.634   0.816  1.00  0.00     0.048 C 
HETATM    5  C4  UNL     1      -0.319   1.814   0.084  1.00  0.00     0.003 C 
HETATM    6  C5  UNL     1       0.913   1.521  -0.689  1.00  0.00     0.000 C 
HETATM    7  C6  UNL     1       1.715   0.366  -0.202  1.00  0.00     0.002 C 
HETATM    8  C7  UNL     1       1.252  -0.966  -0.743  1.00  0.00     0.027 C 
HETATM    9  C8  UNL     1       0.572  -1.787   0.321  1.00  0.00     0.234 C 
HETATM   10  N2  UNL     1      -0.852  -1.748   0.269  1.00  0.00    -0.059 N 
ATOM     11  H21 UNL     1      -1.208  -2.473  -0.353  1.00  0.00     0.278 HD
ATOM     12  H22 UNL     1      -1.252  -2.067   1.151  1.00  0.00     0.278 HD
ENDROOT
TORSDOF 0
