REMARK  1 active torsions:
REMARK  status: ('A' for Active; 'I' for Inactive)
REMARK    1  A    between atoms: N2_3  and  C2_5 
ROOT
HETATM    1  N1  UNL     1       3.798  -0.104   1.550  1.00  0.00    -0.172 NA
HETATM    2  C1  UNL     1       3.176   0.181   0.623  1.00  0.00     0.183 C 
HETATM    3  N2  UNL     1       2.432   0.519  -0.504  1.00  0.00    -0.283 N 
ATOM      4  H2  UNL     1       2.905   0.898  -1.324  1.00  0.00     0.179 HD
ENDROOT
BRANCH   3   5
HETATM    5  C2  UNL     1       1.017   0.343  -0.527  1.00  0.00     0.086 C 
HETATM    6  N3  UNL     1       0.385   1.440  -0.264  1.00  0.00    -0.379 N 
HETATM    7  C3  UNL     1      -1.052   1.579  -0.213  1.00  0.00     0.121 C 
ATOM      8  H3  UNL     1       0.945   2.272  -0.078  1.00  0.00     0.160 HD
HETATM    9  C4  UNL     1      -1.595   0.694   0.879  1.00  0.00     0.020 C 
HETATM   10  C5  UNL     1      -1.195  -0.728   0.790  1.00  0.00     0.002 C 
HETATM   11  C6  UNL     1      -0.889  -1.226  -0.580  1.00  0.00     0.007 C 
HETATM   12  C7  UNL     1       0.586  -1.028  -0.841  1.00  0.00     0.077 C 
ENDBRANCH   3   5
TORSDOF 1
