REMARK  1 active torsions:
REMARK  status: ('A' for Active; 'I' for Inactive)
REMARK    1  A    between atoms: O1_1  and  C1_3 
ROOT
HETATM    1  C1  UNL     1      -1.228   1.108  -0.046  1.00  0.00     0.269 C 
HETATM    2  C2  UNL     1      -2.073  -0.024  -0.512  1.00  0.00     0.062 C 
HETATM    3  C3  UNL     1      -1.536  -1.376  -0.302  1.00  0.00     0.015 C 
HETATM    4  C4  UNL     1      -0.130  -1.503   0.138  1.00  0.00     0.081 C 
HETATM    5  S1  UNL     1       1.054  -0.059  -0.335  1.00  0.00    -0.141 SA
HETATM    6  C5  UNL     1       2.908   0.032  -0.436  1.00  0.00     0.091 A 
HETATM    7  C6  UNL     1       2.462   0.625   0.892  1.00  0.00     0.091 A 
HETATM    8  O2  UNL     1      -0.159   1.249  -0.962  1.00  0.00    -0.310 OA
ENDROOT
BRANCH   1   9
HETATM    9  O1  UNL     1      -1.963   2.286  -0.002  1.00  0.00    -0.370 OA
ATOM     10  H1  UNL     1      -1.423   3.009   0.296  1.00  0.00     0.212 HD
ENDBRANCH   1   9
TORSDOF 1
