REMARK  1 active torsions:
REMARK  status: ('A' for Active; 'I' for Inactive)
REMARK    1  A    between atoms: N1_1  and  C1_5 
ROOT
HETATM    1  C1  UNL     1       1.161   0.051  -0.789  1.00  0.00     0.265 A 
HETATM    2  C2  UNL     1       0.238  -1.084  -0.193  1.00  0.00     0.125 A 
HETATM    3  C3  UNL     1      -0.903  -0.375   0.183  1.00  0.00    -0.169 A 
HETATM    4  C4  UNL     1      -2.075   0.283   0.583  1.00  0.00     0.166 A 
HETATM    5  S1  UNL     1      -1.559   2.040   0.059  1.00  0.00    -0.084 SA
HETATM    6  S2  UNL     1       0.399   1.663  -0.768  1.00  0.00    -0.063 SA
ENDROOT
BRANCH   1   7
HETATM    7  N1  UNL     1       2.345   0.099   0.055  1.00  0.00    -0.065 N 
ATOM      8  H13 UNL     1       2.132   0.227   1.044  1.00  0.00     0.275 HD
ATOM      9  H12 UNL     1       2.816  -0.801   0.144  1.00  0.00     0.275 HD
ATOM     10  H11 UNL     1       2.941   0.832  -0.330  1.00  0.00     0.275 HD
ENDBRANCH   1   7
TORSDOF 1
