REMARK  0 active torsions:
REMARK  status: ('A' for Active; 'I' for Inactive)
ROOT
HETATM    1  N1  UNL     1       1.537   1.951   1.804  1.00  0.00    -0.195 NA
HETATM    2  C1  UNL     1       1.287   1.300   0.899  1.00  0.00     0.092 C 
HETATM    3  C2  UNL     1       0.989   0.489  -0.257  1.00  0.00     0.154 C 
HETATM    4  S1  UNL     1       2.438   0.083  -1.237  1.00  0.00    -0.058 SA
HETATM    5  C3  UNL     1       0.265  -0.795   0.078  1.00  0.00     0.049 C 
HETATM    6  C4  UNL     1      -1.154  -0.419   0.435  1.00  0.00     0.014 C 
HETATM    7  C5  UNL     1      -1.733   0.305  -0.755  1.00  0.00     0.076 C 
HETATM    8  S2  UNL     1      -0.293   1.316  -1.277  1.00  0.00    -0.132 SA
ENDROOT
TORSDOF 0
