REMARK  2 active torsions:
REMARK  status: ('A' for Active; 'I' for Inactive)
REMARK    1  A    between atoms: N1_1  and  C1_5 
REMARK    2  A    between atoms: C1_5  and  N2_6 
ROOT
HETATM    1  C1  UNL     1      -0.845  -0.676   0.052  1.00  0.00     0.318 C 
HETATM    2  C6  UNL     1      -1.257   0.262  -1.050  1.00  0.00     0.072 C 
HETATM    3  C7  UNL     1      -2.166   1.027  -0.097  1.00  0.00     0.009 C 
HETATM    4  C8  UNL     1      -1.906  -0.056   0.910  1.00  0.00     0.072 C 
ENDROOT
BRANCH   1   5
HETATM    5  N1  UNL     1      -1.109  -2.048  -0.378  1.00  0.00    -0.042 N 
ATOM      6  H13 UNL     1      -0.434  -2.378  -1.068  1.00  0.00     0.277 HD
ATOM      7  H12 UNL     1      -0.909  -2.732   0.352  1.00  0.00     0.277 HD
ATOM      8  H11 UNL     1      -2.071  -2.105  -0.713  1.00  0.00     0.277 HD
ENDBRANCH   1   5
BRANCH   1   9
HETATM    9  N2  UNL     1       0.500  -0.596   0.521  1.00  0.00     0.125 N 
HETATM   10  C2  UNL     1       1.442  -0.935  -0.506  1.00  0.00     0.276 C 
HETATM   11  C3  UNL     1       2.560   0.074  -0.414  1.00  0.00     0.032 C 
HETATM   12  C4  UNL     1       1.923   1.290   0.237  1.00  0.00     0.032 C 
HETATM   13  C5  UNL     1       0.887   0.631   1.129  1.00  0.00     0.276 C 
ENDBRANCH   1   9
TORSDOF 2
