REMARK  0 active torsions:
REMARK  status: ('A' for Active; 'I' for Inactive)
ROOT
HETATM    1  C1  UNL     1      -0.794  -1.778  -0.256  1.00  0.00     0.000 C 
HETATM    2  C2  UNL     1      -1.013  -0.356  -0.164  1.00  0.00     0.002 C 
HETATM    3  C3  UNL     1      -2.258   0.401  -0.066  1.00  0.00     0.021 C 
HETATM    4  C4  UNL     1      -1.723   1.831   0.232  1.00  0.00     0.141 C 
HETATM    5  N1  UNL     1      -0.574   2.209  -0.509  1.00  0.00    -0.322 N 
ATOM      6  H1  UNL     1      -0.872   2.758  -1.315  1.00  0.00     0.181 HD
HETATM    7  N2  UNL     1       0.597   2.117  -0.528  1.00  0.00    -0.252 N 
ATOM      8  H2  UNL     1       0.904   2.625  -1.357  1.00  0.00     0.207 HD
HETATM    9  N3  UNL     1       1.719   1.642   0.053  1.00  0.00    -0.322 N 
ATOM     10  H3  UNL     1       2.432   2.333   0.284  1.00  0.00     0.181 HD
HETATM   11  C5  UNL     1       2.036   0.243   0.393  1.00  0.00     0.141 C 
HETATM   12  C6  UNL     1       1.561  -0.785  -0.570  1.00  0.00     0.021 C 
HETATM   13  C7  UNL     1       0.737  -1.910  -0.063  1.00  0.00     0.002 C 
ENDROOT
TORSDOF 0
