REMARK  0 active torsions:
REMARK  status: ('A' for Active; 'I' for Inactive)
ROOT
HETATM    1  N1  UNL     1       3.081   0.220  -0.561  1.00  0.00    -0.088 NA
HETATM    2  C1  UNL     1       1.827   0.284   0.109  1.00  0.00     0.088 C 
HETATM    3  N2  UNL     1       1.183   1.390   0.022  1.00  0.00    -0.382 N 
ATOM      4  H2  UNL     1       1.623   2.133  -0.520  1.00  0.00     0.160 HD
HETATM    5  C2  UNL     1      -0.083   1.688   0.604  1.00  0.00     0.120 C 
HETATM    6  C3  UNL     1      -1.142   1.696  -0.455  1.00  0.00     0.020 C 
HETATM    7  C4  UNL     1      -2.208   0.687  -0.136  1.00  0.00     0.002 C 
HETATM    8  C5  UNL     1      -1.714  -0.694   0.114  1.00  0.00     0.000 C 
HETATM    9  C6  UNL     1      -0.581  -1.135  -0.755  1.00  0.00     0.000 C 
HETATM   10  C7  UNL     1       0.507  -1.826   0.011  1.00  0.00     0.007 C 
HETATM   11  C8  UNL     1       1.333  -0.899   0.858  1.00  0.00     0.073 C 
ENDROOT
TORSDOF 0
