REMARK  0 active torsions:
REMARK  status: ('A' for Active; 'I' for Inactive)
ROOT
HETATM    1  S1  UNL     1       2.512  -0.045   0.136  1.00  0.00    -0.080 SA
HETATM    2  C1  UNL     1       0.800  -0.662   0.387  1.00  0.00     0.132 C 
HETATM    3  C2  UNL     1      -0.066   0.039  -0.561  1.00  0.00     0.038 C 
HETATM    4  C3  UNL     1      -1.496   0.081  -0.185  1.00  0.00     0.088 C 
HETATM    5  S2  UNL     1      -1.634   0.455   1.582  1.00  0.00    -0.096 SA
HETATM    6  S3  UNL     1       0.370  -0.174   2.079  1.00  0.00    -0.081 SA
ENDROOT
TORSDOF 0
