REMARK  3 active torsions:
REMARK  status: ('A' for Active; 'I' for Inactive)
REMARK    1  A    between atoms: O1_2  and  C2_3 
REMARK    2  A    between atoms: N1_5  and  O2_7 
REMARK    3  A    between atoms: O2_7  and  C4_8 
ROOT
HETATM    1  C2  UNL     1       1.906  -0.357   0.635  1.00  0.00     0.133 C 
HETATM    2  C3  UNL     1       1.748  -1.472   1.612  1.00  0.00     0.099 C 
HETATM    3  N1  UNL     1       0.928   0.373   0.231  1.00  0.00    -0.248 N 
ATOM      4  H1  UNL     1       1.138   1.112  -0.440  1.00  0.00     0.196 HD
ENDROOT
BRANCH   3   5
HETATM    5  O2  UNL     1      -0.357   0.237   0.627  1.00  0.00    -0.269 OA
BRANCH   5   6
HETATM    6  C4  UNL     1      -1.479   0.142  -0.195  1.00  0.00     0.078 C 
HETATM    7  C5  UNL     1      -2.704   0.001   0.719  1.00  0.00     0.048 C 
HETATM    8  C6  UNL     1      -1.462  -1.063  -1.083  1.00  0.00     0.048 C 
HETATM    9  C7  UNL     1      -1.723   1.376  -1.032  1.00  0.00     0.048 C 
ENDBRANCH   5   6
ENDBRANCH   3   5
BRANCH   1  10
HETATM   10  O1  UNL     1       3.164  -0.075   0.121  1.00  0.00    -0.343 OA
HETATM   11  C1  UNL     1       3.393   1.051  -0.690  1.00  0.00     0.211 C 
ENDBRANCH   1  10
TORSDOF 3
