REMARK  0 active torsions:
REMARK  status: ('A' for Active; 'I' for Inactive)
ROOT
HETATM    1  N1  UNL     1       3.843   1.628  -0.927  1.00  0.00    -0.190 NA
HETATM    2  C1  UNL     1       2.790   1.286  -0.557  1.00  0.00     0.113 C 
HETATM    3  C2  UNL     1       1.485   0.879  -0.097  1.00  0.00     0.086 C 
HETATM    4  N2  UNL     1       0.591   1.811  -0.149  1.00  0.00    -0.385 N 
ATOM      5  H2  UNL     1       0.960   2.690  -0.511  1.00  0.00     0.160 HD
HETATM    6  C3  UNL     1      -0.820   1.894   0.190  1.00  0.00     0.120 C 
HETATM    7  C4  UNL     1      -1.499   0.653  -0.396  1.00  0.00     0.020 C 
HETATM    8  C5  UNL     1      -1.493  -0.484   0.564  1.00  0.00     0.002 C 
HETATM    9  C6  UNL     1      -0.718  -1.679   0.120  1.00  0.00     0.000 C 
HETATM   10  C7  UNL     1       0.575  -1.348  -0.578  1.00  0.00     0.007 C 
HETATM   11  C8  UNL     1       1.419  -0.537   0.349  1.00  0.00     0.068 C 
ENDROOT
TORSDOF 0
