REMARK  2 active torsions:
REMARK  status: ('A' for Active; 'I' for Inactive)
REMARK    1  A    between atoms: O1_1  and  N1_3 
REMARK    2  A    between atoms: C1_5  and  C2_6 
ROOT
HETATM    1  C2  UNL     1       0.425   0.017  -0.023  1.00  0.00     0.027 C 
HETATM    2  C3  UNL     1      -0.110   0.485  -1.313  1.00  0.00     0.020 C 
HETATM    3  C4  UNL     1      -1.559   0.795  -1.358  1.00  0.00     0.074 C 
HETATM    4  S1  UNL     1      -2.194   1.259   0.294  1.00  0.00    -0.169 SA
HETATM    5  C5  UNL     1      -1.642  -0.092   1.403  1.00  0.00     0.074 C 
HETATM    6  C6  UNL     1      -0.489  -0.821   0.807  1.00  0.00     0.020 C 
ENDROOT
BRANCH   1   7
HETATM    7  C1  UNL     1       1.641  -0.803  -0.287  1.00  0.00     0.091 C 
HETATM    8  N1  UNL     1       2.801  -0.531   0.146  1.00  0.00    -0.284 N 
ATOM      9  H1  UNL     1       3.589  -1.140  -0.074  1.00  0.00     0.192 HD
BRANCH   8  10
HETATM   10  O1  UNL     1       2.985   0.586   0.911  1.00  0.00    -0.291 OA
ATOM     11  H1  UNL     1       3.854   0.790   1.235  1.00  0.00     0.244 HD
ENDBRANCH   8  10
ENDBRANCH   1   7
TORSDOF 2
