REMARK  0 active torsions:
REMARK  status: ('A' for Active; 'I' for Inactive)
ROOT
HETATM    1  C1  UNL     1      -1.086  -1.468   0.391  1.00  0.00     0.002 C 
HETATM    2  C2  UNL     1      -1.658  -0.355  -0.413  1.00  0.00     0.001 C 
HETATM    3  C3  UNL     1      -1.556   0.936   0.342  1.00  0.00     0.010 C 
HETATM    4  C4  UNL     1      -0.774   1.997  -0.365  1.00  0.00     0.075 C 
HETATM    5  S1  UNL     1       0.740   2.457   0.531  1.00  0.00    -0.142 SA
HETATM    6  C5  UNL     1       2.072   1.264   0.234  1.00  0.00     0.305 C 
HETATM    7  N1  UNL     1       1.604  -0.038   0.604  1.00  0.00    -0.067 N 
ATOM      8  H11 UNL     1       0.869   0.028   1.308  1.00  0.00     0.278 HD
ATOM      9  H12 UNL     1       2.311  -0.537   1.145  1.00  0.00     0.278 HD
HETATM   10  C6  UNL     1       1.165  -0.832  -0.527  1.00  0.00     0.233 C 
HETATM   11  C7  UNL     1       0.272  -1.915  -0.004  1.00  0.00     0.027 C 
ENDROOT
TORSDOF 0
