REMARK  0 active torsions:
REMARK  status: ('A' for Active; 'I' for Inactive)
ROOT
HETATM    1  N1  UNL     1      -3.525   1.113   1.079  1.00  0.00    -0.190 NA
HETATM    2  C1  UNL     1      -2.856   0.742   0.195  1.00  0.00     0.114 C 
HETATM    3  C2  UNL     1      -1.981   0.269  -0.916  1.00  0.00     0.105 C 
HETATM    4  C3  UNL     1      -1.427  -1.087  -0.629  1.00  0.00     0.070 C 
HETATM    5  C4  UNL     1      -1.226  -1.498   0.778  1.00  0.00     0.007 C 
HETATM    6  C5  UNL     1       0.243  -1.553   1.276  1.00  0.00     0.000 C 
HETATM    7  C6  UNL     1       0.798  -0.341   0.728  1.00  0.00     0.000 C 
HETATM    8  C7  UNL     1       2.112   0.264   0.838  1.00  0.00     0.005 C 
HETATM    9  C8  UNL     1       1.946   1.514  -0.070  1.00  0.00     0.046 C 
HETATM   10  C9  UNL     1       1.267   1.291  -1.371  1.00  0.00     0.080 C 
HETATM   11  N2  UNL     1      -0.063   1.588  -1.560  1.00  0.00    -0.315 N 
ATOM     12  H2  UNL     1      -0.078   2.491  -2.034  1.00  0.00     0.185 HD
HETATM   13  N3  UNL     1      -1.174   1.285  -1.429  1.00  0.00    -0.295 N 
ATOM     14  H3  UNL     1      -1.767   2.013  -1.826  1.00  0.00     0.187 HD
ENDROOT
TORSDOF 0
