REMARK  0 active torsions:
REMARK  status: ('A' for Active; 'I' for Inactive)
ROOT
HETATM    1  C1  UNL     1       3.921   0.121   0.224  1.00  0.00     0.064 C 
HETATM    2  C2  UNL     1       2.637  -0.123   0.454  1.00  0.00     0.107 A 
HETATM    3  N1  UNL     1       2.036  -0.908   1.465  1.00  0.00    -0.288 N 
ATOM      4  H1  UNL     1       2.563  -1.409   2.181  1.00  0.00     0.188 HD
HETATM    5  N2  UNL     1       0.790  -0.921   1.386  1.00  0.00    -0.306 N 
ATOM      6  H2  UNL     1       0.173  -1.428   2.020  1.00  0.00     0.183 HD
HETATM    7  C3  UNL     1       0.351  -0.132   0.291  1.00  0.00     0.119 A 
HETATM    8  C4  UNL     1      -0.543   1.015   0.675  1.00  0.00     0.055 C 
HETATM    9  C5  UNL     1      -1.962   0.584   0.939  1.00  0.00     0.004 C 
HETATM   10  C6  UNL     1      -2.578  -0.132  -0.235  1.00  0.00     0.000 C 
HETATM   11  C7  UNL     1      -1.560  -0.447  -1.308  1.00  0.00     0.004 C 
HETATM   12  C8  UNL     1      -0.308  -1.048  -0.728  1.00  0.00     0.055 C 
HETATM   13  N3  UNL     1       1.555   0.379  -0.305  1.00  0.00    -0.348 N 
ATOM     14  H3  UNL     1       1.617   0.988  -1.121  1.00  0.00     0.163 HD
ENDROOT
TORSDOF 0
