REMARK  0 active torsions:
REMARK  status: ('A' for Active; 'I' for Inactive)
ROOT
HETATM    1  N1  UNL     1      -1.995   0.132   0.068  1.00  0.00    -0.096 NA
HETATM    2  C1  UNL     1      -0.588   0.037   0.021  1.00  0.00     0.123 A 
HETATM    3  C2  UNL     1       0.201   1.180  -0.052  1.00  0.00     0.133 A 
HETATM    4 CL1  UNL     1      -0.626   2.712  -0.080  1.00  0.00    -0.062 Cl
HETATM    5  N2  UNL     1       1.527   1.057  -0.095  1.00  0.00    -0.321 N 
ATOM      6  H2  UNL     1       2.094   1.903  -0.148  1.00  0.00     0.169 HD
HETATM    7  C3  UNL     1       2.153  -0.138  -0.071  1.00  0.00     0.181 A 
HETATM    8 CL2  UNL     1       3.903  -0.250  -0.130  1.00  0.00    -0.045 Cl
HETATM    9  N3  UNL     1       1.377  -1.236  -0.001  1.00  0.00    -0.321 N 
ATOM     10  H3  UNL     1       1.829  -2.150   0.018  1.00  0.00     0.169 HD
HETATM   11  C4  UNL     1       0.048  -1.186   0.045  1.00  0.00     0.133 A 
HETATM   12 CL3  UNL     1      -0.960  -2.629   0.137  1.00  0.00    -0.062 Cl
ENDROOT
TORSDOF 0
