REMARK  0 active torsions:
REMARK  status: ('A' for Active; 'I' for Inactive)
ROOT
HETATM    1 CL1  UNL     1       3.294  -0.967  -0.299  1.00  0.00    -0.035 Cl
HETATM    2  C1  UNL     1       1.609  -0.463  -0.147  1.00  0.00     0.243 A 
HETATM    3  N1  UNL     1       0.649  -1.300   0.001  1.00  0.00    -0.313 N 
ATOM      4  H1  UNL     1       0.875  -2.294   0.030  1.00  0.00     0.170 HD
HETATM    5  C2  UNL     1      -0.701  -0.920   0.125  1.00  0.00     0.146 A 
HETATM    6 CL2  UNL     1      -2.006  -2.085   0.327  1.00  0.00    -0.061 Cl
HETATM    7  C3  UNL     1      -1.045   0.357   0.092  1.00  0.00     0.162 A 
HETATM    8 CL3  UNL     1      -2.748   0.825   0.249  1.00  0.00    -0.059 Cl
HETATM    9  N2  UNL     1      -0.030   1.332  -0.069  1.00  0.00    -0.244 N 
ATOM     10  H2  UNL     1      -0.251   2.327  -0.100  1.00  0.00     0.196 HD
HETATM   11  O1  UNL     1       1.263   0.884  -0.182  1.00  0.00    -0.205 OA
ENDROOT
TORSDOF 0
