REMARK  0 active torsions:
REMARK  status: ('A' for Active; 'I' for Inactive)
ROOT
HETATM    1  N1  UNL     1      -2.050  -0.587  -0.016  1.00  0.00    -0.073 NA
HETATM    2  C1  UNL     1      -0.650  -0.316   0.001  1.00  0.00     0.182 A 
HETATM    3  O1  UNL     1       0.275  -1.251   0.077  1.00  0.00    -0.280 OA
HETATM    4  C2  UNL     1       1.471  -0.713   0.074  1.00  0.00     0.170 A 
HETATM    5 CL1  UNL     1       2.974  -1.584   0.160  1.00  0.00    -0.054 Cl
HETATM    6  C3  UNL     1       1.341   0.659  -0.008  1.00  0.00     0.105 A 
HETATM    7 CL2  UNL     1       2.596   1.868  -0.048  1.00  0.00    -0.078 Cl
HETATM    8  C4  UNL     1      -0.013   0.893  -0.054  1.00  0.00     0.107 A 
HETATM    9 CL3  UNL     1      -0.807   2.440  -0.162  1.00  0.00    -0.078 Cl
ENDROOT
TORSDOF 0
