REMARK  1 active torsions:
REMARK  status: ('A' for Active; 'I' for Inactive)
REMARK    1  A    between atoms: C4_8  and  O1_9 
ROOT
HETATM    1  N1  UNL     1      -2.250  -0.482  -0.019  1.00  0.00    -0.091 NA
HETATM    2  C1  UNL     1      -0.809  -0.384   0.029  1.00  0.00     0.123 A 
HETATM    3  S1  UNL     1       0.357  -1.598   0.283  1.00  0.00    -0.059 SA
HETATM    4  C2  UNL     1       1.767  -0.654   0.188  1.00  0.00     0.101 A 
HETATM    5 CL1  UNL     1       3.442  -1.195   0.353  1.00  0.00    -0.074 Cl
HETATM    6  C3  UNL     1       1.286   0.602  -0.042  1.00  0.00     0.098 A 
HETATM    7 CL2  UNL     1       2.423   1.969  -0.220  1.00  0.00    -0.079 Cl
HETATM    8  C4  UNL     1      -0.046   0.753  -0.127  1.00  0.00     0.121 A 
ENDROOT
BRANCH   8   9
HETATM    9  O1  UNL     1      -0.691   2.009  -0.365  1.00  0.00    -0.357 OA
ATOM     10  H1  UNL     1      -0.165   2.793  -0.473  1.00  0.00     0.218 HD
ENDBRANCH   8   9
TORSDOF 1
