REMARK  1 active torsions:
REMARK  status: ('A' for Active; 'I' for Inactive)
REMARK    1  A    between atoms: O1_2  and  C1_3 
ROOT
HETATM    1  C1  UNL     1      -0.447  -0.378   0.245  1.00  0.00     0.193 A 
HETATM    2  N1  UNL     1       0.707  -0.890  -0.049  1.00  0.00    -0.319 N 
ATOM      3  H1  UNL     1       0.784  -1.883  -0.271  1.00  0.00     0.169 HD
HETATM    4  C2  UNL     1       1.785  -0.124  -0.061  1.00  0.00     0.149 A 
HETATM    5 CL2  UNL     1       3.453  -0.603  -0.429  1.00  0.00    -0.056 Cl
HETATM    6  S1  UNL     1       1.155   1.404   0.364  1.00  0.00    -0.043 SA
HETATM    7  C3  UNL     1      -0.486   0.966   0.537  1.00  0.00     0.130 A 
HETATM    8 CL3  UNL     1      -1.901   1.935   0.971  1.00  0.00    -0.071 Cl
ENDROOT
BRANCH   1   9
HETATM    9  O1  UNL     1      -1.645  -1.150   0.275  1.00  0.00    -0.220 OA
HETATM   10 CL1  UNL     1      -2.623  -1.161  -1.121  1.00  0.00     0.069 Cl
ENDBRANCH   1   9
TORSDOF 1
