REMARK  0 active torsions:
REMARK  status: ('A' for Active; 'I' for Inactive)
ROOT
HETATM    1  C1  UNL     1      -1.732  -1.167   0.328  1.00  0.00     0.072 C 
HETATM    2  C2  UNL     1      -0.958   0.079   0.008  1.00  0.00     0.051 A 
HETATM    3  N1  UNL     1      -1.525   1.240  -0.266  1.00  0.00    -0.302 N 
ATOM      4  H1  UNL     1      -2.530   1.411  -0.289  1.00  0.00     0.186 HD
HETATM    5  N2  UNL     1      -0.602   2.139  -0.504  1.00  0.00    -0.292 N 
ATOM      6  H2  UNL     1      -0.765   3.118  -0.741  1.00  0.00     0.187 HD
HETATM    7  C3  UNL     1       0.612   1.538  -0.380  1.00  0.00     0.120 A 
HETATM    8  S1  UNL     1       2.323   1.660  -0.442  1.00  0.00    -0.039 SA
HETATM    9  C4  UNL     1       2.703   0.046  -0.053  1.00  0.00     0.145 A 
HETATM   10  S2  UNL     1       4.186  -0.680   0.097  1.00  0.00    -0.052 SA
HETATM   11  N3  UNL     1       1.505  -0.514   0.107  1.00  0.00    -0.338 N 
ATOM     12  H3  UNL     1       1.421  -1.501   0.351  1.00  0.00     0.167 HD
HETATM   13  C5  UNL     1       0.435   0.229  -0.055  1.00  0.00     0.093 A 
ENDROOT
TORSDOF 0
