REMARK  1 active torsions:
REMARK  status: ('A' for Active; 'I' for Inactive)
REMARK    1  A    between atoms: C9_10  and  C10_11 
ROOT
HETATM    1  C1  UNL     1       1.163  -0.595   2.448  1.00  0.00     0.080 C 
HETATM    2  C2  UNL     1       0.695  -0.306   1.080  1.00  0.00     0.171 C 
HETATM    3  O1  UNL     1      -0.038   0.881   0.960  1.00  0.00    -0.342 OA
HETATM    4  C3  UNL     1      -1.083   0.614   0.081  1.00  0.00     0.088 C 
HETATM    5  C4  UNL     1      -2.268   0.208   0.931  1.00  0.00     0.049 C 
HETATM    6  C5  UNL     1      -1.410   1.725  -0.841  1.00  0.00     0.049 C 
HETATM    7  C6  UNL     1      -0.526  -0.615  -0.617  1.00  0.00     0.092 C 
HETATM    8  C7  UNL     1      -1.481  -1.333  -1.461  1.00  0.00     0.049 C 
HETATM    9  C8  UNL     1       0.825  -0.363  -1.223  1.00  0.00     0.056 C 
HETATM   10  C9  UNL     1       1.739  -0.331   0.013  1.00  0.00     0.088 C 
HETATM   11  O2  UNL     1      -0.163  -1.314   0.563  1.00  0.00    -0.341 OA
ENDROOT
BRANCH  10  12
HETATM   12  C10 UNL     1       2.643   0.803  -0.012  1.00  0.00     0.063 C 
HETATM   13  N1  UNL     1       3.366   1.026  -1.036  1.00  0.00    -0.410 N 
ATOM     14  H12 UNL     1       3.297   0.395  -1.834  1.00  0.00     0.155 HD
ATOM     15  H11 UNL     1       4.002   1.823  -1.054  1.00  0.00     0.155 HD
ENDBRANCH  10  12
TORSDOF 1
