REMARK  0 active torsions:
REMARK  status: ('A' for Active; 'I' for Inactive)
ROOT
HETATM    1  C1  UNL     1      -2.031  -0.609  -0.003  1.00  0.00     0.053 C 
HETATM    2  C2  UNL     1      -0.575  -0.317  -0.019  1.00  0.00     0.001 A 
HETATM    3  C3  UNL     1      -0.066   0.968   0.065  1.00  0.00     0.092 A 
HETATM    4  C4  UNL     1      -0.964   2.083   0.172  1.00  0.00     0.103 C 
HETATM    5  N1  UNL     1      -1.703   2.994   0.272  1.00  0.00    -0.191 NA
HETATM    6  C5  UNL     1       1.316   1.144   0.042  1.00  0.00     0.136 A 
HETATM    7  S1  UNL     1       1.845   2.695   0.145  1.00  0.00    -0.057 SA
HETATM    8  N2  UNL     1       2.166   0.107  -0.058  1.00  0.00    -0.288 N 
ATOM      9  H2  UNL     1       3.175   0.254  -0.073  1.00  0.00     0.188 HD
HETATM   10  N3  UNL     1       1.657  -1.099  -0.136  1.00  0.00    -0.289 N 
ATOM     11  H3  UNL     1       2.297  -1.889  -0.213  1.00  0.00     0.188 HD
HETATM   12  C6  UNL     1       0.328  -1.350  -0.120  1.00  0.00     0.122 A 
HETATM   13  S2  UNL     1      -0.267  -2.878  -0.220  1.00  0.00    -0.059 SA
ENDROOT
TORSDOF 0
