REMARK  0 active torsions:
REMARK  status: ('A' for Active; 'I' for Inactive)
ROOT
HETATM    1  C1  UNL     1      -2.649  -1.049  -0.081  1.00  0.00     0.070 C 
HETATM    2  C2  UNL     1      -1.174  -1.385   0.100  1.00  0.00     0.025 A 
HETATM    3  N1  UNL     1      -0.834  -2.653   0.315  1.00  0.00    -0.329 N 
ATOM      4  H1  UNL     1      -1.452  -3.462   0.378  1.00  0.00     0.174 HD
HETATM    5  S1  UNL     1       0.840  -2.624   0.459  1.00  0.00    -0.010 SA
HETATM    6  C3  UNL     1       1.094  -0.954   0.237  1.00  0.00     0.076 A 
HETATM    7  C4  UNL     1       2.048   0.057   0.174  1.00  0.00     0.136 A 
HETATM    8  N2  UNL     1       3.434  -0.170   0.329  1.00  0.00    -0.081 NA
HETATM    9  N3  UNL     1       1.363   1.160  -0.048  1.00  0.00    -0.346 N 
ATOM     10  H3  UNL     1       1.782   2.085  -0.147  1.00  0.00     0.167 HD
HETATM   11  C5  UNL     1       0.037   0.915  -0.129  1.00  0.00     0.020 A 
HETATM   12  C6  UNL     1      -1.003   1.946  -0.372  1.00  0.00     0.069 C 
HETATM   13  C7  UNL     1      -0.162  -0.472   0.056  1.00  0.00     0.031 A 
ENDROOT
TORSDOF 0
