REMARK  1 active torsions:
REMARK  status: ('A' for Active; 'I' for Inactive)
REMARK    1  A    between atoms: O1_1  and  C1_3 
ROOT
HETATM    1  C1  UNL     1      -1.469   0.304   0.544  1.00  0.00     0.118 C 
HETATM    2  C2  UNL     1      -1.109  -1.040  -0.035  1.00  0.00     0.032 C 
HETATM    3  C3  UNL     1       0.248  -1.521   0.431  1.00  0.00     0.002 C 
HETATM    4  C4  UNL     1       1.260  -1.061  -0.575  1.00  0.00     0.000 C 
HETATM    5  C5  UNL     1       1.745   0.327  -0.379  1.00  0.00     0.000 C 
HETATM    6  C6  UNL     1       0.850   1.189   0.464  1.00  0.00     0.002 C 
HETATM    7  C7  UNL     1      -0.540   1.327  -0.069  1.00  0.00     0.032 C 
ENDROOT
BRANCH   1   8
HETATM    8  O1  UNL     1      -2.767   0.598   0.137  1.00  0.00    -0.396 OA
ATOM      9  H1  UNL     1      -2.994   1.445   0.502  1.00  0.00     0.210 HD
ENDBRANCH   1   8
TORSDOF 1
