REMARK  5 active torsions:
REMARK  status: ('A' for Active; 'I' for Inactive)
REMARK    1  A    between atoms: C2_2  and  N1_4 
REMARK       I    between atoms: N1_4  and  C4_6 
REMARK       I    between atoms: C4_6  and  N3_10 
REMARK    2  A    between atoms: N4_12  and  C5_14 
REMARK    3  A    between atoms: C5_14  and  C6_19 
REMARK    4  A    between atoms: N5_15  and  O1_17 
REMARK    5  A    between atoms: C6_19  and  C8_21 
ROOT
HETATM    1  N1  UNL     1       2.991  -0.113  -0.334  1.00  0.00    -0.221 N 
ATOM      2  H1  UNL     1       3.570  -0.425  -1.114  1.00  0.00     0.178 HD
HETATM    3  C4  UNL     1       2.119  -1.049   0.257  1.00  0.00     0.686 C 
HETATM    4  N2  UNL     1       2.526  -1.756   1.242  1.00  0.00    -0.234 N 
ATOM      5  H21 UNL     1       1.895  -2.434   1.670  1.00  0.00     0.174 HD
ATOM      6  H22 UNL     1       3.476  -1.641   1.595  1.00  0.00     0.174 HD
HETATM    7  N3  UNL     1       0.810  -1.208  -0.230  1.00  0.00    -0.131 N 
ATOM      8  H3  UNL     1       0.571  -0.751  -1.110  1.00  0.00     0.205 HD
HETATM    9  N4  UNL     1      -0.090  -1.879   0.350  1.00  0.00    -0.273 N 
ATOM     10  H4  UNL     1       0.072  -2.364   1.233  1.00  0.00     0.189 HD
ENDROOT
BRANCH   9  11
HETATM   11  C5  UNL     1      -1.381  -1.909  -0.337  1.00  0.00     0.120 C 
HETATM   12  N5  UNL     1      -1.416  -2.650  -1.343  1.00  0.00    -0.255 N 
ATOM     13  H5  UNL     1      -0.557  -3.148  -1.577  1.00  0.00     0.195 HD
BRANCH  12  14
HETATM   14  O1  UNL     1      -2.469  -2.856  -2.145  1.00  0.00    -0.288 OA
ATOM     15  H1  UNL     1      -2.496  -3.419  -2.910  1.00  0.00     0.244 HD
ENDBRANCH  12  14
BRANCH  11  16
HETATM   16  C6  UNL     1      -2.497  -1.113   0.164  1.00  0.00     0.056 C 
HETATM   17  C7  UNL     1      -3.759  -1.198  -0.611  1.00  0.00     0.018 C 
BRANCH  16  18
HETATM   18  C8  UNL     1      -2.094   0.325   0.458  1.00  0.00    -0.012 C 
HETATM   19  C9  UNL     1      -1.581   1.043  -0.745  1.00  0.00     0.010 C 
HETATM   20  C10 UNL     1      -3.308   1.003   1.067  1.00  0.00     0.010 C 
ENDBRANCH  16  18
ENDBRANCH  11  16
ENDBRANCH   9  11
BRANCH   1  21
HETATM   21  C2  UNL     1       3.116   1.258   0.095  1.00  0.00     0.091 C 
HETATM   22  C1  UNL     1       3.563   1.308   1.561  1.00  0.00     0.032 C 
HETATM   23  C3  UNL     1       4.188   1.974  -0.696  1.00  0.00     0.032 C 
ENDBRANCH   1  21
TORSDOF 5
