REMARK  2 active torsions:
REMARK  status: ('A' for Active; 'I' for Inactive)
REMARK    1  A    between atoms: C4_10  and  N4_11 
REMARK    2  A    between atoms: N4_11  and  C5_13 
ROOT
HETATM    1  N1  UNL     1      -3.509  -3.456   0.377  1.00  0.00    -0.190 NA
HETATM    2  C1  UNL     1      -3.373  -2.316   0.213  1.00  0.00     0.121 C 
HETATM    3  C2  UNL     1      -3.213  -0.898  -0.011  1.00  0.00     0.160 A 
HETATM    4  N2  UNL     1      -4.175  -0.007  -0.286  1.00  0.00    -0.321 N 
ATOM      5  H2  UNL     1      -5.170  -0.213  -0.376  1.00  0.00     0.169 HD
HETATM    6  C3  UNL     1      -3.610   1.202  -0.423  1.00  0.00     0.178 A 
HETATM    7  S1  UNL     1      -4.403   2.589  -0.762  1.00  0.00    -0.040 SA
HETATM    8  N3  UNL     1      -2.268   1.052  -0.227  1.00  0.00    -0.317 N 
ATOM      9  H3  UNL     1      -1.581   1.805  -0.269  1.00  0.00     0.170 HD
HETATM   10  C4  UNL     1      -1.989  -0.228   0.028  1.00  0.00     0.142 A 
ENDROOT
BRANCH  10  11
HETATM   11  N4  UNL     1      -0.735  -0.831   0.301  1.00  0.00    -0.369 N 
ATOM     12  H4  UNL     1      -0.723  -1.832   0.494  1.00  0.00     0.161 HD
BRANCH  11  13
HETATM   13  C5  UNL     1       0.516  -0.135   0.325  1.00  0.00     0.083 C 
HETATM   14  C6  UNL     1       0.957   0.423  -0.995  1.00  0.00     0.025 C 
HETATM   15  C7  UNL     1       2.049   1.442  -0.666  1.00  0.00     0.002 C 
HETATM   16  C8  UNL     1       3.213   0.701  -0.108  1.00  0.00     0.000 C 
HETATM   17  C9  UNL     1       2.958  -0.690   0.338  1.00  0.00     0.002 C 
HETATM   18  C10 UNL     1       1.617  -0.927   0.983  1.00  0.00     0.025 C 
ENDBRANCH  11  13
ENDBRANCH  10  11
TORSDOF 2
