REMARK  6 active torsions:
REMARK  status: ('A' for Active; 'I' for Inactive)
REMARK    1  A    between atoms: C2_2  and  C3_3 
REMARK    2  A    between atoms: C3_3  and  C4_4 
REMARK    3  A    between atoms: C4_4  and  N1_5 
REMARK    4  A    between atoms: C9_13  and  O1_14 
REMARK    5  A    between atoms: C9_13  and  O2_16 
REMARK    6  A    between atoms: O2_16  and  C10_17 
ROOT
HETATM    1  C4  UNL     1      -1.860  -0.575   0.259  1.00  0.00     0.151 C 
HETATM    2  C5  UNL     1      -2.055  -1.882  -0.589  1.00  0.00     0.044 C 
HETATM    3  C6  UNL     1      -1.275  -2.868   0.236  1.00  0.00     0.007 C 
HETATM    4  C7  UNL     1      -0.239  -2.066   0.989  1.00  0.00     0.042 C 
HETATM    5  C8  UNL     1      -0.420  -0.644   0.428  1.00  0.00     0.013 C 
HETATM    6  C9  UNL     1       0.633   0.094   0.206  1.00  0.00     0.183 C 
ENDROOT
BRANCH   1   7
HETATM    7  C3  UNL     1      -2.481   0.489  -0.534  1.00  0.00     0.043 C 
BRANCH   7   8
HETATM    8  C2  UNL     1      -2.666   1.820   0.157  1.00  0.00    -0.002 C 
HETATM    9  C1  UNL     1      -3.292   2.751  -0.861  1.00  0.00     0.005 C 
ENDBRANCH   7   8
ENDBRANCH   1   7
BRANCH   1  10
HETATM   10  N1  UNL     1      -2.639  -0.807   1.484  1.00  0.00    -0.066 N 
ATOM     11  H13 UNL     1      -2.766   0.049   2.025  1.00  0.00     0.275 HD
ATOM     12  H12 UNL     1      -3.620  -1.002   1.283  1.00  0.00     0.275 HD
ATOM     13  H11 UNL     1      -2.207  -1.548   2.036  1.00  0.00     0.275 HD
ENDBRANCH   1  10
BRANCH   6  14
HETATM   14  O1  UNL     1       0.559   1.356  -0.360  1.00  0.00    -0.341 OA
ATOM     15  H1  UNL     1       1.326   1.893  -0.522  1.00  0.00     0.220 HD
ENDBRANCH   6  14
BRANCH   6  16
HETATM   16  O2  UNL     1       1.917  -0.361   0.534  1.00  0.00    -0.320 OA
BRANCH  16  17
HETATM   17  C10 UNL     1       3.076   0.161  -0.082  1.00  0.00     0.059 C 
HETATM   18  C11 UNL     1       3.068  -0.042  -1.579  1.00  0.00     0.045 C 
HETATM   19  C12 UNL     1       3.246   1.646   0.183  1.00  0.00     0.045 C 
HETATM   20  C13 UNL     1       4.266  -0.605   0.463  1.00  0.00     0.045 C 
ENDBRANCH  16  17
ENDBRANCH   6  16
TORSDOF 6
