REMARK  2 active torsions:
REMARK  status: ('A' for Active; 'I' for Inactive)
REMARK    1  A    between atoms: C2_7  and  C3_8 
REMARK    2  A    between atoms: C3_8  and  C4_9 
ROOT
HETATM    1  S1  UNL     1       4.973   2.672  -0.542  1.00  0.00    -0.039 SA
HETATM    2  C1  UNL     1       4.156   1.266  -0.312  1.00  0.00     0.192 A 
HETATM    3  N1  UNL     1       4.553   0.195   0.394  1.00  0.00    -0.275 N 
ATOM      4  H1  UNL     1       5.440   0.120   0.892  1.00  0.00     0.189 HD
HETATM    5  N2  UNL     1       3.632  -0.744   0.351  1.00  0.00    -0.287 N 
ATOM      6  H2  UNL     1       3.687  -1.656   0.803  1.00  0.00     0.188 HD
HETATM    7  C2  UNL     1       2.590  -0.286  -0.404  1.00  0.00     0.098 A 
HETATM    8  N3  UNL     1       2.944   0.938  -0.791  1.00  0.00    -0.321 N 
ATOM      9  H3  UNL     1       2.370   1.547  -1.375  1.00  0.00     0.169 HD
ENDROOT
BRANCH   7  10
HETATM   10  C3  UNL     1       1.357  -1.061  -0.703  1.00  0.00     0.082 C 
BRANCH  10  11
HETATM   11  C4  UNL     1       0.335  -0.831   0.375  1.00  0.00    -0.007 C 
HETATM   12  C5  UNL     1      -0.879  -1.652   0.006  1.00  0.00     0.005 C 
HETATM   13  C6  UNL     1      -1.987  -1.470   1.011  1.00  0.00     0.000 C 
HETATM   14  C7  UNL     1      -3.145  -0.785   0.333  1.00  0.00     0.000 C 
HETATM   15  C8  UNL     1      -2.893   0.728   0.409  1.00  0.00     0.000 C 
HETATM   16  C9  UNL     1      -2.066   1.211  -0.710  1.00  0.00     0.000 C 
HETATM   17  C10 UNL     1      -0.614   1.311  -0.534  1.00  0.00     0.000 C 
HETATM   18  C11 UNL     1       0.022   0.609   0.609  1.00  0.00     0.005 C 
ENDBRANCH  10  11
ENDBRANCH   7  10
TORSDOF 2
