REMARK  4 active torsions:
REMARK  status: ('A' for Active; 'I' for Inactive)
REMARK    1  A    between atoms: C10_10  and  C12_12 
REMARK    2  A    between atoms: C12_12  and  C13_13 
REMARK    3  A    between atoms: C13_13  and  O1_14 
REMARK    4  A    between atoms: N1_16  and  O2_18 
ROOT
HETATM    1  C1  UNL     1      -3.639   0.300  -0.967  1.00  0.00     0.014 C 
HETATM    2  C2  UNL     1      -2.552   0.180  -0.233  1.00  0.00    -0.085 C 
HETATM    3  C3  UNL     1      -2.229   1.320   0.655  1.00  0.00     0.034 C 
HETATM    4  C4  UNL     1      -0.776   1.700   0.608  1.00  0.00     0.009 C 
HETATM    5  C5  UNL     1       0.179   0.540   0.737  1.00  0.00    -0.006 C 
HETATM    6  C6  UNL     1      -0.391  -0.482   1.672  1.00  0.00     0.006 C 
HETATM    7  C7  UNL     1      -1.277  -1.504   1.026  1.00  0.00     0.009 C 
HETATM    8  C8  UNL     1      -1.728  -1.060  -0.331  1.00  0.00     0.014 C 
HETATM    9  C9  UNL     1      -0.562  -0.825  -1.225  1.00  0.00     0.019 C 
HETATM   10  C10 UNL     1       0.585  -0.058  -0.558  1.00  0.00    -0.033 C 
HETATM   11  C11 UNL     1       0.990   1.020  -1.547  1.00  0.00     0.016 C 
ENDROOT
BRANCH  10  12
HETATM   12  C12 UNL     1       1.706  -1.020  -0.427  1.00  0.00     0.095 C 
BRANCH  12  13
HETATM   13  C13 UNL     1       2.973  -0.543   0.101  1.00  0.00     0.135 C 
HETATM   14  N1  UNL     1       3.992  -0.465  -0.683  1.00  0.00    -0.251 N 
ATOM     15  H1  UNL     1       3.892  -0.739  -1.660  1.00  0.00     0.196 HD
BRANCH  13  16
HETATM   16  O1  UNL     1       3.164  -0.160   1.415  1.00  0.00    -0.348 OA
ATOM     17  H1  UNL     1       3.992   0.152   1.760  1.00  0.00     0.219 HD
ENDBRANCH  13  16
BRANCH  14  18
HETATM   18  O2  UNL     1       5.189  -0.028  -0.238  1.00  0.00    -0.288 OA
ATOM     19  H2  UNL     1       5.941   0.030  -0.816  1.00  0.00     0.244 HD
ENDBRANCH  14  18
ENDBRANCH  12  13
ENDBRANCH  10  12
TORSDOF 4
