REMARK  0 active torsions:
REMARK  status: ('A' for Active; 'I' for Inactive)
ROOT
HETATM    1  C1  UNL     1       1.245   0.874   0.108  1.00  0.00     0.002 C 
HETATM    2  C2  UNL     1       1.609  -0.548  -0.313  1.00  0.00     0.001 C 
HETATM    3  C3  UNL     1       0.875  -1.479   0.600  1.00  0.00     0.016 C 
HETATM    4  C4  UNL     1      -0.584  -1.389   0.358  1.00  0.00     0.066 C 
HETATM    5  C5  UNL     1      -1.171  -0.155   0.971  1.00  0.00     0.038 C 
HETATM    6  C6  UNL     1      -1.262   0.904  -0.074  1.00  0.00     0.089 C 
HETATM    7  C7  UNL     1       0.043   1.381  -0.605  1.00  0.00     0.022 C 
HETATM    8  N1  UNL     1      -2.001   0.323  -1.195  1.00  0.00    -0.174 NA
HETATM    9  S1  UNL     1      -0.987  -1.136  -1.414  1.00  0.00    -0.061 SA
ENDROOT
TORSDOF 0
