REMARK  0 active torsions:
REMARK  status: ('A' for Active; 'I' for Inactive)
ROOT
HETATM    1  C1  UNL     1       1.722  -0.157   0.784  1.00  0.00     0.004 C 
HETATM    2  C2  UNL     1       1.579   0.996  -0.119  1.00  0.00     0.025 C 
HETATM    3  C3  UNL     1       0.187   1.230  -0.666  1.00  0.00     0.082 C 
HETATM    4  C4  UNL     1      -0.284   0.178  -1.594  1.00  0.00     0.027 C 
HETATM    5  C5  UNL     1      -0.938  -1.002  -0.995  1.00  0.00     0.027 C 
HETATM    6  C6  UNL     1      -0.461  -1.335   0.398  1.00  0.00     0.082 C 
HETATM    7  C7  UNL     1       1.044  -1.419   0.337  1.00  0.00     0.025 C 
HETATM    8  N1  UNL     1      -0.945  -0.459   1.404  1.00  0.00    -0.382 N 
ATOM      9  H1  UNL     1      -0.847  -0.659   2.399  1.00  0.00     0.160 HD
HETATM   10  C8  UNL     1      -1.585   0.734   0.914  1.00  0.00     0.172 C 
HETATM   11  N2  UNL     1      -0.687   1.650   0.349  1.00  0.00    -0.382 N 
ATOM     12  H2  UNL     1      -0.669   2.617   0.674  1.00  0.00     0.160 HD
ENDROOT
TORSDOF 0
