REMARK  1 active torsions:
REMARK  status: ('A' for Active; 'I' for Inactive)
REMARK    1  A    between atoms: N1_1  and  C1_5 
ROOT
HETATM    1  C1  UNL     1       1.442  -0.268   0.235  1.00  0.00     0.207 C 
HETATM    2  S1  UNL     1       2.968  -0.345  -0.745  1.00  0.00    -0.050 SA
HETATM    3  C2  UNL     1       0.697   0.984  -0.213  1.00  0.00     0.020 C 
HETATM    4  C3  UNL     1      -0.598   1.359   0.272  1.00  0.00    -0.026 C 
HETATM    5  C4  UNL     1      -1.905   0.919  -0.364  1.00  0.00     0.038 C 
HETATM    6  C5  UNL     1      -2.019  -0.643  -0.439  1.00  0.00     0.083 C 
HETATM    7  C6  UNL     1      -0.715  -1.130  -0.239  1.00  0.00    -0.179 C 
HETATM    8  C7  UNL     1       0.602  -1.566  -0.047  1.00  0.00     0.135 C 
ENDROOT
BRANCH   1   9
HETATM    9  N1  UNL     1       1.666  -0.234   1.629  1.00  0.00    -0.056 N 
ATOM     10  H13 UNL     1       2.242  -1.023   1.921  1.00  0.00     0.276 HD
ATOM     11  H12 UNL     1       2.291   0.533   1.875  1.00  0.00     0.276 HD
ATOM     12  H11 UNL     1       0.809  -0.191   2.180  1.00  0.00     0.276 HD
ENDBRANCH   1   9
TORSDOF 1
