REMARK  18 active torsions:
REMARK  status: ('A' for Active; 'I' for Inactive)
REMARK    1  A    between atoms: C2_2  and  O2_4 
REMARK    2  A    between atoms: O2_4  and  C3_5 
REMARK    3  A    between atoms: C3_5  and  C4_6 
REMARK    4  A    between atoms: C4_6  and  O3_7 
REMARK    5  A    between atoms: C6_10  and  O4_11 
REMARK    6  A    between atoms: O4_11  and  C7_12 
REMARK    7  A    between atoms: C10_15  and  C11_16 
REMARK    8  A    between atoms: C14_21  and  O7_22 
REMARK    9  A    between atoms: O7_22  and  N1_23 
REMARK   10  A    between atoms: C20_32  and  N2_33 
REMARK   11  A    between atoms: C20_32  and  C22_37 
REMARK   12  A    between atoms: N4_41  and  O10_43 
REMARK   13  A    between atoms: C24_45  and  O11_46 
REMARK   14  A    between atoms: C24_45  and  C25_48 
REMARK   15  A    between atoms: C25_48  and  O12_49 
REMARK   16  A    between atoms: C25_48  and  C26_51 
REMARK   17  A    between atoms: C26_51  and  O13_52 
REMARK   18  A    between atoms: C26_51  and  O14_54 
ROOT
HETATM    1  N2  UNL     1       2.255   1.286   1.373  1.00  0.00    -0.303 N 
ATOM      2  H2  UNL     1       1.254   1.406   1.215  1.00  0.00     0.173 HD
HETATM    3  C21 UNL     1       2.778   1.093   2.651  1.00  0.00     0.178 C 
HETATM    4  N3  UNL     1       3.224   0.931   3.703  1.00  0.00    -0.172 NA
ENDROOT
BRANCH   1   5
HETATM    5  C20 UNL     1       3.222   1.308   0.265  1.00  0.00     0.179 C 
HETATM    6  C15 UNL     1       2.576   1.313  -1.051  1.00  0.00     0.069 C 
HETATM    7  N1  UNL     1       1.429   0.787  -1.306  1.00  0.00    -0.269 N 
HETATM    8  C16 UNL     1       3.227   1.911  -2.263  1.00  0.00     0.055 C 
ATOM      9  H1  UNL     1       1.137   0.858  -2.281  1.00  0.00     0.194 HD
HETATM   10  C17 UNL     1       3.230   3.399  -2.241  1.00  0.00     0.034 C 
HETATM   11  C18 UNL     1       2.426   1.513  -3.533  1.00  0.00     0.034 C 
HETATM   12  S1  UNL     1       4.852   1.144  -2.498  1.00  0.00    -0.082 SA
HETATM   13  S2  UNL     1       5.195  -0.222  -0.919  1.00  0.00    -0.093 SA
HETATM   14  C19 UNL     1       4.060   0.026   0.440  1.00  0.00     0.135 C 
BRANCH   7  15
HETATM   15  O7  UNL     1       0.574   0.176  -0.523  1.00  0.00    -0.262 OA
BRANCH  15  16
HETATM   16  C14 UNL     1      -0.390  -0.795  -0.887  1.00  0.00     0.259 C 
HETATM   17  C6  UNL     1      -1.707  -0.204  -0.528  1.00  0.00     0.090 C 
HETATM   18  C5  UNL     1      -2.577  -0.741   0.274  1.00  0.00     0.052 C 
HETATM   19  C4  UNL     1      -2.291  -2.042   0.909  1.00  0.00     0.139 C 
HETATM   20  C24 UNL     1      -0.805  -2.120   1.179  1.00  0.00     0.168 C 
HETATM   21  C23 UNL     1      -0.090  -1.996  -0.061  1.00  0.00     0.088 C 
HETATM   22  N4  UNL     1       0.774  -2.783  -0.556  1.00  0.00    -0.271 N 
ATOM     23  H4  UNL     1       0.996  -3.613  -0.007  1.00  0.00     0.193 HD
BRANCH  17  24
HETATM   24  O4  UNL     1      -1.973   1.010  -1.122  1.00  0.00    -0.312 OA
BRANCH  24  25
HETATM   25  C7  UNL     1      -2.186   2.210  -0.515  1.00  0.00     0.075 A 
HETATM   26  C8  UNL     1      -2.165   2.389   0.840  1.00  0.00     0.038 A 
HETATM   27  C9  UNL     1      -2.382   3.606   1.427  1.00  0.00     0.021 A 
HETATM   28  C10 UNL     1      -2.633   4.701   0.626  1.00  0.00     0.041 A 
HETATM   29  C12 UNL     1      -2.662   4.559  -0.749  1.00  0.00     0.021 A 
HETATM   30  C13 UNL     1      -2.442   3.330  -1.306  1.00  0.00     0.038 A 
BRANCH  28  31
HETATM   31  C11 UNL     1      -2.865   6.000   1.239  1.00  0.00     0.209 C 
HETATM   32  O5  UNL     1      -3.096   7.020   0.523  1.00  0.00    -0.644 OA
HETATM   33  O6  UNL     1      -2.837   6.140   2.618  1.00  0.00    -0.644 OA
ENDBRANCH  28  31
ENDBRANCH  24  25
ENDBRANCH  17  24
BRANCH  19  34
HETATM   34  C3  UNL     1      -2.851  -3.098   0.024  1.00  0.00     0.224 C 
BRANCH  34  35
HETATM   35  O2  UNL     1      -2.271  -3.224  -1.224  1.00  0.00    -0.318 OA
BRANCH  35  36
HETATM   36  C2  UNL     1      -2.758  -4.197  -2.087  1.00  0.00     0.254 C 
HETATM   37  C1  UNL     1      -2.196  -4.403  -3.446  1.00  0.00     0.126 C 
HETATM   38  O1  UNL     1      -3.708  -4.942  -1.730  1.00  0.00    -0.266 OA
ENDBRANCH  35  36
ENDBRANCH  34  35
ENDBRANCH  19  34
BRANCH  19  39
HETATM   39  O3  UNL     1      -2.984  -2.072   2.146  1.00  0.00    -0.380 OA
ATOM     40  H3  UNL     1      -2.626  -1.397   2.711  1.00  0.00     0.211 HD
ENDBRANCH  19  39
BRANCH  20  41
HETATM   41  O11 UNL     1      -0.549  -0.909   1.900  1.00  0.00    -0.377 OA
ATOM     42  H11 UNL     1       0.384  -0.958   2.070  1.00  0.00     0.211 HD
ENDBRANCH  20  41
BRANCH  20  43
HETATM   43  C25 UNL     1      -0.536  -3.219   2.098  1.00  0.00     0.216 C 
BRANCH  43  44
HETATM   44  O12 UNL     1      -0.717  -4.463   1.505  1.00  0.00    -0.387 OA
ATOM     45  H12 UNL     1      -0.542  -5.179   2.104  1.00  0.00     0.210 HD
ENDBRANCH  43  44
BRANCH  43  46
HETATM   46  C26 UNL     1       0.740  -3.245   2.852  1.00  0.00     0.285 C 
BRANCH  46  47
HETATM   47  O13 UNL     1       0.610  -4.269   3.829  1.00  0.00    -0.369 OA
ATOM     48  H13 UNL     1       1.428  -4.286   4.312  1.00  0.00     0.212 HD
ENDBRANCH  46  47
BRANCH  46  49
HETATM   49  O14 UNL     1       1.854  -3.643   2.107  1.00  0.00    -0.369 OA
ATOM     50  H14 UNL     1       2.672  -3.660   2.590  1.00  0.00     0.212 HD
ENDBRANCH  46  49
ENDBRANCH  43  46
ENDBRANCH  20  43
BRANCH  22  51
HETATM   51  O10 UNL     1       1.430  -2.647  -1.722  1.00  0.00    -0.290 OA
ATOM     52  H10 UNL     1       2.077  -3.236  -2.093  1.00  0.00     0.244 HD
ENDBRANCH  22  51
ENDBRANCH  15  16
ENDBRANCH   7  15
BRANCH   5  53
HETATM   53  C22 UNL     1       4.126   2.435   0.576  1.00  0.00     0.210 C 
HETATM   54  O8  UNL     1       3.846   3.206   1.572  1.00  0.00    -0.646 OA
HETATM   55  O9  UNL     1       5.281   2.792  -0.073  1.00  0.00    -0.646 OA
ENDBRANCH   5  53
ENDBRANCH   1   5
TORSDOF 18
