REMARK  17 active torsions:
REMARK  status: ('A' for Active; 'I' for Inactive)
REMARK    1  A    between atoms: O1_2  and  C2_3 
REMARK    2  A    between atoms: C2_3  and  C3_5 
REMARK    3  A    between atoms: C3_5  and  O3_6 
REMARK    4  A    between atoms: C3_5  and  C4_8 
REMARK    5  A    between atoms: C3_5  and  O4_10 
REMARK    6  A    between atoms: O4_10  and  N1_11 
REMARK    7  A    between atoms: C5_13  and  C6_14 
REMARK    8  A    between atoms: C5_13  and  N8_41 
REMARK    9  A    between atoms: C6_14  and  C7_15 
REMARK       I    between atoms: C7_15  and  N2_17 
REMARK   10  A    between atoms: C11_22  and  N3_23 
REMARK   11  A    between atoms: C11_22  and  C12_27 
REMARK   12  A    between atoms: C14_32  and  C15_33 
REMARK       I    between atoms: N8_41  and  C17_43 
REMARK   13  A    between atoms: C17_43  and  C18_45 
REMARK   14  A    between atoms: C19_48  and  O9_49 
REMARK   15  A    between atoms: C20_51  and  N10_52 
REMARK   16  A    between atoms: N10_52  and  O10_53 
REMARK   17  A    between atoms: N10_52  and  O11_55 
ROOT
HETATM    1  N1  UNL     1      -1.633   1.502  -0.044  1.00  0.00    -0.250 N 
ATOM      2  H1  UNL     1      -0.679   1.812   0.142  1.00  0.00     0.196 HD
HETATM    3  C5  UNL     1      -1.889   0.315  -0.055  1.00  0.00     0.113 C 
ENDROOT
BRANCH   3   4
HETATM    4  C6  UNL     1      -0.110   0.071   0.324  1.00  0.00     0.181 C 
BRANCH   4   5
HETATM    5  C7  UNL     1       0.395   0.018  -1.010  1.00  0.00     0.232 C 
HETATM    6  O5  UNL     1      -0.330  -0.049  -2.016  1.00  0.00    -0.273 OA
HETATM    7  N2  UNL     1       1.835   0.034  -1.229  1.00  0.00    -0.301 N 
HETATM    8  C8  UNL     1       2.528  -0.125  -2.468  1.00  0.00     0.170 C 
HETATM    9  C13 UNL     1       2.852   0.263  -0.206  1.00  0.00     0.115 C 
HETATM   10  C9  UNL     1       3.949  -0.454  -2.060  1.00  0.00     0.169 C 
HETATM   11  S2  UNL     1       4.451  -2.116  -2.584  1.00  0.00    -0.137 SA
HETATM   12  N4  UNL     1       3.914  -0.633  -0.588  1.00  0.00    -0.309 N 
HETATM   13  C10 UNL     1       4.672  -2.832  -0.935  1.00  0.00     0.149 C 
HETATM   14  C11 UNL     1       4.932  -1.553  -0.146  1.00  0.00     0.296 C 
HETATM   15  C14 UNL     1       2.710   1.143   0.733  1.00  0.00     0.098 C 
BRANCH  14  16
HETATM   16  N3  UNL     1       4.764  -1.910   1.230  1.00  0.00    -0.041 N 
ATOM     17  H33 UNL     1       3.863  -2.341   1.434  1.00  0.00     0.278 HD
ATOM     18  H32 UNL     1       5.343  -2.697   1.523  1.00  0.00     0.278 HD
ATOM     19  H31 UNL     1       4.938  -1.055   1.758  1.00  0.00     0.278 HD
ENDBRANCH  14  16
BRANCH  14  20
HETATM   20  C12 UNL     1       6.240  -1.019  -0.355  1.00  0.00     0.233 C 
HETATM   21  O6  UNL     1       7.109  -0.572   0.287  1.00  0.00    -0.645 OA
HETATM   22  O7  UNL     1       6.660  -1.023  -1.812  1.00  0.00    -0.645 OA
ENDBRANCH  14  20
BRANCH  15  23
HETATM   23  C15 UNL     1       3.520   1.560   1.852  1.00  0.00     0.124 A 
HETATM   24  N5  UNL     1       4.888   1.738   1.978  1.00  0.00    -0.336 N 
HETATM   25  C16 UNL     1       5.047   2.178   3.302  1.00  0.00     0.199 A 
ATOM     26  H5  UNL     1       5.610   1.585   1.274  1.00  0.00     0.168 HD
HETATM   27  N6  UNL     1       3.871   2.241   3.876  1.00  0.00    -0.295 N 
HETATM   28  N7  UNL     1       2.990   1.870   2.998  1.00  0.00    -0.284 N 
ATOM     29  H6  UNL     1       3.682   2.529   4.836  1.00  0.00     0.187 HD
ATOM     30  H7  UNL     1       1.989   1.826   3.187  1.00  0.00     0.188 HD
ENDBRANCH  15  23
ENDBRANCH   4   5
ENDBRANCH   3   4
BRANCH   3  31
HETATM   31  N8  UNL     1      -2.163  -0.990  -0.070  1.00  0.00    -0.309 N 
HETATM   32  C17 UNL     1      -3.346  -1.450   0.676  1.00  0.00     0.280 C 
HETATM   33  O8  UNL     1      -3.981  -0.618   1.425  1.00  0.00    -0.265 OA
ATOM     34  H8  UNL     1      -1.573  -1.647  -0.581  1.00  0.00     0.170 HD
BRANCH  32  35
HETATM   35  C18 UNL     1      -3.770  -2.827   0.537  1.00  0.00     0.146 A 
HETATM   36  N9  UNL     1      -3.410  -3.542  -0.583  1.00  0.00    -0.325 N 
HETATM   37  C19 UNL     1      -3.977  -4.675  -0.720  1.00  0.00     0.174 A 
ATOM     38  H9  UNL     1      -2.733  -3.188  -1.259  1.00  0.00     0.169 HD
HETATM   39  C20 UNL     1      -4.840  -5.190   0.133  1.00  0.00     0.159 A 
HETATM   40  S3  UNL     1      -4.879  -3.886   1.288  1.00  0.00    -0.046 SA
BRANCH  37  41
HETATM   41  O9  UNL     1      -3.656  -5.490  -1.909  1.00  0.00    -0.344 OA
ATOM     42  H9  UNL     1      -4.079  -6.335  -2.011  1.00  0.00     0.219 HD
ENDBRANCH  37  41
BRANCH  39  43
HETATM   43  N10 UNL     1      -5.534  -6.441   0.178  1.00  0.00    -0.025 NA
BRANCH  43  44
HETATM   44  O10 UNL     1      -5.783  -6.731   1.459  1.00  0.00    -0.284 OA
ATOM     45  H10 UNL     1      -6.244  -7.561   1.489  1.00  0.00     0.240 HD
ENDBRANCH  43  44
BRANCH  43  46
HETATM   46  O11 UNL     1      -4.816  -7.446  -0.389  1.00  0.00    -0.284 OA
ATOM     47  H11 UNL     1      -5.277  -8.276  -0.359  1.00  0.00     0.240 HD
ENDBRANCH  43  46
ENDBRANCH  39  43
ENDBRANCH  32  35
ENDBRANCH   3  31
BRANCH   1  48
HETATM   48  O4  UNL     1      -2.641   2.453  -0.285  1.00  0.00    -0.227 OA
BRANCH  48  49
HETATM   49  C3  UNL     1      -2.438   3.829  -0.094  1.00  0.00     0.285 C 
BRANCH  49  50
HETATM   50  C2  UNL     1      -3.725   4.512  -0.365  1.00  0.00     0.324 C 
HETATM   51  O2  UNL     1      -4.791   4.145   0.171  1.00  0.00    -0.259 OA
BRANCH  50  52
HETATM   52  O1  UNL     1      -3.818   5.622  -1.258  1.00  0.00    -0.322 OA
HETATM   53  C1  UNL     1      -5.141   6.185  -1.444  1.00  0.00     0.213 C 
ENDBRANCH  50  52
ENDBRANCH  49  50
BRANCH  49  54
HETATM   54  O3  UNL     1      -1.395   4.262  -0.920  1.00  0.00    -0.355 OA
ATOM     55  H3  UNL     1      -0.570   3.824  -0.746  1.00  0.00     0.213 HD
ENDBRANCH  49  54
BRANCH  49  56
HETATM   56  C4  UNL     1      -2.004   4.005   1.363  1.00  0.00     0.168 C 
HETATM   57  S1  UNL     1      -3.292   3.260   2.430  1.00  0.00    -0.091 SA
ENDBRANCH  49  56
ENDBRANCH  48  49
ENDBRANCH   1  48
TORSDOF 17
