REMARK  18 active torsions:
REMARK  status: ('A' for Active; 'I' for Inactive)
REMARK    1  A    between atoms: C3_3  and  N1_4 
REMARK    2  A    between atoms: N1_4  and  C4_6 
REMARK    3  A    between atoms: C5_9  and  N3_10 
REMARK    4  A    between atoms: N6_18  and  O1_19 
REMARK    5  A    between atoms: O1_19  and  C7_20 
REMARK    6  A    between atoms: C7_20  and  O3_22 
REMARK    7  A    between atoms: O3_22  and  C8_23 
REMARK    8  A    between atoms: C12_29  and  N8_30 
REMARK    9  A    between atoms: C13_34  and  O4_35 
REMARK   10  A    between atoms: O4_35  and  C14_36 
REMARK   11  A    between atoms: C15_38  and  N9_39 
REMARK   12  A    between atoms: C17_43  and  O6_44 
REMARK   13  A    between atoms: O6_44  and  C18_45 
REMARK   14  A    between atoms: N10_47  and  C20_48 
REMARK   15  A    between atoms: C23_52  and  O7_53 
REMARK   16  A    between atoms: C25_55  and  N12_56 
REMARK   17  A    between atoms: C26_60  and  N13_61 
REMARK   18  A    between atoms: C28_66  and  N14_67 
ROOT
HETATM    1  C20 UNL     1      -7.218   2.715   0.154  1.00  0.00     0.241 C 
HETATM    2  C21 UNL     1      -6.218   2.601   1.212  1.00  0.00     0.078 C 
HETATM    3  N11 UNL     1      -5.421   2.531   2.063  1.00  0.00    -0.196 NA
ENDROOT
BRANCH   1   4
HETATM    4  N10 UNL     1      -7.489   1.461  -0.444  1.00  0.00    -0.396 N 
HETATM    5  C19 UNL     1      -6.427   0.878  -1.220  1.00  0.00     0.152 C 
HETATM    6  C18 UNL     1      -5.962  -0.384  -0.456  1.00  0.00     0.172 C 
HETATM    7  C25 UNL     1      -7.060  -1.382  -0.682  1.00  0.00     0.244 C 
HETATM    8  C23 UNL     1      -8.431  -0.781  -0.433  1.00  0.00     0.171 C 
HETATM    9  C22 UNL     1      -8.284   0.543   0.297  1.00  0.00     0.152 C 
BRANCH   6  10
HETATM   10  O6  UNL     1      -4.794  -0.899  -0.951  1.00  0.00    -0.370 OA
BRANCH  10  11
HETATM   11  C17 UNL     1      -3.654  -0.845  -0.233  1.00  0.00     0.208 C 
HETATM   12  C15 UNL     1      -2.579  -0.186  -1.070  1.00  0.00     0.354 C 
HETATM   13  O5  UNL     1      -1.824   0.752  -0.420  1.00  0.00    -0.324 OA
HETATM   14  C14 UNL     1      -0.675   0.142   0.163  1.00  0.00     0.293 C 
HETATM   15  C28 UNL     1      -1.203  -0.782   1.199  1.00  0.00     0.240 C 
HETATM   16  C27 UNL     1      -1.614  -2.076   0.520  1.00  0.00     0.073 C 
HETATM   17  C26 UNL     1      -3.120  -2.165   0.302  1.00  0.00     0.218 C 
BRANCH  12  18
HETATM   18  N9  UNL     1      -3.136   0.432  -2.271  1.00  0.00    -0.050 N 
HETATM   19  C16 UNL     1      -2.125   1.076  -3.057  1.00  0.00     0.270 C 
ATOM     20  H92 UNL     1      -3.663  -0.243  -2.825  1.00  0.00     0.279 HD
ATOM     21  H91 UNL     1      -3.893   1.076  -2.040  1.00  0.00     0.279 HD
ENDBRANCH  12  18
BRANCH  14  22
HETATM   22  O4  UNL     1       0.218   1.108   0.585  1.00  0.00    -0.347 OA
BRANCH  22  23
HETATM   23  C13 UNL     1       1.399   1.052  -0.085  1.00  0.00     0.185 C 
HETATM   24  C2  UNL     1       2.612   1.012   0.769  1.00  0.00    -0.035 C 
HETATM   25  C1  UNL     1       2.817   0.879   2.055  1.00  0.00     0.019 C 
HETATM   26  C3  UNL     1       3.692   1.205  -0.300  1.00  0.00     0.132 C 
HETATM   27  C11 UNL     1       3.197   2.526  -0.850  1.00  0.00     0.066 C 
HETATM   28  C12 UNL     1       1.687   2.277  -0.961  1.00  0.00     0.218 C 
BRANCH  26  29
HETATM   29  N1  UNL     1       4.999   1.234   0.242  1.00  0.00    -0.217 N 
ATOM     30  H1  UNL     1       5.478   2.126   0.367  1.00  0.00     0.178 HD
BRANCH  29  31
HETATM   31  C4  UNL     1       5.586   0.139   0.578  1.00  0.00     0.682 A 
HETATM   32  N2  UNL     1       5.043  -1.084   0.454  1.00  0.00    -0.175 N 
HETATM   33  C5  UNL     1       5.673  -2.228   0.820  1.00  0.00     0.147 A 
ATOM     34  H2  UNL     1       4.104  -1.156   0.062  1.00  0.00     0.186 HD
HETATM   35  C6  UNL     1       6.943  -2.099   1.344  1.00  0.00     0.142 A 
HETATM   36  N4  UNL     1       7.861  -2.987   1.809  1.00  0.00    -0.277 N 
HETATM   37  C10 UNL     1       7.539  -0.861   1.488  1.00  0.00     0.201 A 
HETATM   38  N5  UNL     1       8.931  -2.313   2.201  1.00  0.00    -0.213 N 
ATOM     39  H4  UNL     1       7.745  -4.000   1.849  1.00  0.00     0.189 HD
HETATM   40  N6  UNL     1       8.770  -1.028   2.022  1.00  0.00    -0.116 N 
ATOM     41  H5  UNL     1       9.771  -2.740   2.591  1.00  0.00     0.211 HD
HETATM   42  N7  UNL     1       6.842   0.232   1.099  1.00  0.00    -0.170 N 
ATOM     43  H7  UNL     1       7.269   1.153   1.199  1.00  0.00     0.186 HD
BRANCH  33  44
HETATM   44  N3  UNL     1       5.119  -3.384   0.686  1.00  0.00    -0.383 N 
ATOM     45  H32 UNL     1       4.180  -3.479   0.299  1.00  0.00     0.157 HD
ATOM     46  H31 UNL     1       5.593  -4.244   0.961  1.00  0.00     0.157 HD
ENDBRANCH  33  44
BRANCH  40  47
HETATM   47  O1  UNL     1       9.636  -0.002   2.295  1.00  0.00    -0.149 OA
BRANCH  47  48
HETATM   48  C7  UNL     1      10.768   0.225   1.491  1.00  0.00     0.430 C 
HETATM   49  O2  UNL     1      10.920  -0.567   0.530  1.00  0.00    -0.227 OA
BRANCH  48  50
HETATM   50  O3  UNL     1      11.676   1.223   1.694  1.00  0.00    -0.297 OA
BRANCH  50  51
HETATM   51  C8  UNL     1      12.818   1.418   0.847  1.00  0.00     0.177 C 
HETATM   52  C9  UNL     1      12.292   1.671  -0.544  1.00  0.00     0.034 C 
ENDBRANCH  50  51
ENDBRANCH  48  50
ENDBRANCH  47  48
ENDBRANCH  40  47
ENDBRANCH  29  31
ENDBRANCH  26  29
BRANCH  28  53
HETATM   53  N8  UNL     1       1.467   1.986  -2.362  1.00  0.00    -0.072 N 
ATOM     54  H83 UNL     1       1.817   2.704  -2.996  1.00  0.00     0.274 HD
ATOM     55  H82 UNL     1       2.041   1.225  -2.724  1.00  0.00     0.274 HD
ATOM     56  H81 UNL     1       0.463   1.820  -2.436  1.00  0.00     0.274 HD
ENDBRANCH  28  53
ENDBRANCH  22  23
ENDBRANCH  14  22
BRANCH  15  57
HETATM   57  N14 UNL     1      -0.327  -1.113   2.276  1.00  0.00    -0.070 N 
ATOM     58 3H14 UNL     1       0.547  -1.483   1.903  1.00  0.00     0.274 HD
ATOM     59 2H14 UNL     1       0.005  -0.257   2.720  1.00  0.00     0.274 HD
ATOM     60 1H14 UNL     1      -0.690  -1.748   2.987  1.00  0.00     0.274 HD
ENDBRANCH  15  57
BRANCH  17  61
HETATM   61  N13 UNL     1      -3.644  -2.426   1.652  1.00  0.00    -0.072 N 
ATOM     62 3H13 UNL     1      -3.451  -1.653   2.289  1.00  0.00     0.274 HD
ATOM     63 2H13 UNL     1      -4.663  -2.392   1.676  1.00  0.00     0.274 HD
ATOM     64 1H13 UNL     1      -3.286  -3.311   2.011  1.00  0.00     0.274 HD
ENDBRANCH  17  61
ENDBRANCH  10  11
ENDBRANCH   6  10
BRANCH   7  65
HETATM   65  N12 UNL     1      -6.840  -2.549   0.112  1.00  0.00    -0.070 N 
ATOM     66 3H12 UNL     1      -5.918  -2.953  -0.053  1.00  0.00     0.274 HD
ATOM     67 2H12 UNL     1      -6.730  -2.322   1.100  1.00  0.00     0.274 HD
ATOM     68 1H12 UNL     1      -7.586  -3.227  -0.042  1.00  0.00     0.274 HD
ENDBRANCH   7  65
BRANCH   8  69
HETATM   69  O7  UNL     1      -9.066  -0.624  -1.639  1.00  0.00    -0.387 OA
HETATM   70  C24 UNL     1     -10.232  -1.350  -1.774  1.00  0.00     0.202 C 
ENDBRANCH   8  69
ENDBRANCH   1   4
TORSDOF 18
