REMARK  17 active torsions:
REMARK  status: ('A' for Active; 'I' for Inactive)
REMARK    1  A    between atoms: O1_2  and  C2_3 
REMARK    2  A    between atoms: C2_3  and  C3_5 
REMARK    3  A    between atoms: C3_5  and  O3_6 
REMARK    4  A    between atoms: C3_5  and  C6_10 
REMARK    5  A    between atoms: O3_6  and  C4_7 
REMARK    6  A    between atoms: C7_11  and  O5_12 
REMARK    7  A    between atoms: O5_12  and  C8_13 
REMARK    8  A    between atoms: C8_13  and  C9_15 
REMARK    9  A    between atoms: C11_17  and  O7_18 
REMARK   10  A    between atoms: C12_20  and  O8_21 
REMARK   11  A    between atoms: C13_23  and  O9_24 
REMARK   12  A    between atoms: C16_28  and  C17_29 
REMARK       I    between atoms: C17_29  and  N1_31 
REMARK   13  A    between atoms: N1_31  and  C18_33 
REMARK   14  A    between atoms: C18_33  and  C19_34 
REMARK   15  A    between atoms: C18_33  and  C26_49 
REMARK   16  A    between atoms: C19_34  and  N2_35 
REMARK   17  A    between atoms: C21_39  and  N3_40 
REMARK       I    between atoms: N3_40  and  C22_42 
ROOT
HETATM    1  C6  UNL     1      -2.579   1.300   0.492  1.00  0.00     0.057 C 
HETATM    2  C7  UNL     1      -2.591  -0.013   0.636  1.00  0.00     0.071 C 
HETATM    3  C15 UNL     1      -1.260  -0.491   1.106  1.00  0.00     0.088 C 
HETATM    4  C16 UNL     1      -0.604   0.745   1.683  1.00  0.00     0.158 C 
HETATM    5  C27 UNL     1      -1.254   1.803   0.854  1.00  0.00     0.174 C 
HETATM    6  O17 UNL     1      -0.693   2.887   0.571  1.00  0.00    -0.292 OA
ENDROOT
BRANCH   4   7
HETATM    7  C17 UNL     1       0.870   0.661   1.416  1.00  0.00     0.230 C 
HETATM    8  O10 UNL     1       1.352   1.600   0.744  1.00  0.00    -0.273 OA
HETATM    9  N1  UNL     1       1.642  -0.408   1.894  1.00  0.00    -0.344 N 
ATOM     10  H1  UNL     1       1.190  -1.147   2.433  1.00  0.00     0.163 HD
BRANCH   9  11
HETATM   11  C18 UNL     1       3.061  -0.487   1.640  1.00  0.00     0.206 C 
BRANCH  11  12
HETATM   12  C19 UNL     1       3.241  -0.757   0.176  1.00  0.00     0.196 C 
BRANCH  12  13
HETATM   13  N2  UNL     1       4.620  -0.831  -0.227  1.00  0.00    -0.209 N 
HETATM   14  O11 UNL     1       5.300  -1.940  -0.030  1.00  0.00    -0.188 OA
HETATM   15  C20 UNL     1       6.562  -2.048  -0.353  1.00  0.00     0.334 A 
HETATM   16  O12 UNL     1       7.150  -3.139  -0.136  1.00  0.00    -0.256 OA
HETATM   17  C21 UNL     1       7.274  -1.013  -0.920  1.00  0.00     0.142 A 
HETATM   18  C24 UNL     1       6.597   0.183  -1.149  1.00  0.00     0.149 A 
HETATM   19  N4  UNL     1       7.277   1.285  -1.731  1.00  0.00    -0.094 NA
HETATM   20  C25 UNL     1       5.279   0.216  -0.785  1.00  0.00     0.294 A 
HETATM   21  O14 UNL     1       4.612   1.279  -0.975  1.00  0.00    -0.264 OA
BRANCH  17  22
HETATM   22  N3  UNL     1       8.648  -1.110  -1.277  1.00  0.00    -0.321 N 
HETATM   23  C22 UNL     1       9.686  -0.785  -0.390  1.00  0.00     0.218 C 
HETATM   24  C23 UNL     1      11.085  -0.902  -0.808  1.00  0.00     0.117 C 
HETATM   25  O13 UNL     1       9.393  -0.390   0.770  1.00  0.00    -0.274 OA
ATOM     26  H3  UNL     1       8.888  -1.429  -2.216  1.00  0.00     0.169 HD
ENDBRANCH  17  22
ENDBRANCH  12  13
ENDBRANCH  11  12
BRANCH  11  27
HETATM   27  C26 UNL     1       3.827   0.613   2.212  1.00  0.00     0.198 C 
HETATM   28  O15 UNL     1       3.274   1.609   2.782  1.00  0.00    -0.646 OA
HETATM   29  O16 UNL     1       5.214   0.671   2.195  1.00  0.00    -0.646 OA
ENDBRANCH  11  27
ENDBRANCH   9  11
ENDBRANCH   4   7
BRANCH   2  30
HETATM   30  O5  UNL     1      -3.658  -0.845   0.395  1.00  0.00    -0.279 OA
BRANCH  30  31
HETATM   31  C8  UNL     1      -3.949  -1.445  -0.796  1.00  0.00     0.298 C 
HETATM   32  O6  UNL     1      -3.219  -1.254  -1.773  1.00  0.00    -0.259 OA
BRANCH  31  33
HETATM   33  C9  UNL     1      -5.127  -2.304  -0.882  1.00  0.00     0.045 A 
HETATM   34  C10 UNL     1      -5.944  -2.520   0.216  1.00  0.00     0.057 A 
HETATM   35  C11 UNL     1      -7.058  -3.324   0.154  1.00  0.00     0.102 A 
HETATM   36  C12 UNL     1      -7.394  -3.946  -1.025  1.00  0.00     0.132 A 
HETATM   37  C13 UNL     1      -6.601  -3.748  -2.128  1.00  0.00     0.102 A 
HETATM   38  C14 UNL     1      -5.471  -2.930  -2.057  1.00  0.00     0.057 A 
BRANCH  35  39
HETATM   39  O7  UNL     1      -7.862  -3.528   1.258  1.00  0.00    -0.358 OA
ATOM     40  H7  UNL     1      -8.632  -4.083   1.215  1.00  0.00     0.217 HD
ENDBRANCH  35  39
BRANCH  36  41
HETATM   41  O8  UNL     1      -8.523  -4.774  -1.127  1.00  0.00    -0.356 OA
ATOM     42  H8  UNL     1      -8.755  -5.204  -1.942  1.00  0.00     0.218 HD
ENDBRANCH  36  41
BRANCH  37  43
HETATM   43  O9  UNL     1      -6.944  -4.378  -3.314  1.00  0.00    -0.358 OA
ATOM     44  H9  UNL     1      -6.395  -4.241  -4.077  1.00  0.00     0.217 HD
ENDBRANCH  37  43
ENDBRANCH  31  33
ENDBRANCH  30  31
ENDBRANCH   2  30
BRANCH   1  45
HETATM   45  C3  UNL     1      -3.702   2.142   0.046  1.00  0.00     0.270 C 
BRANCH  45  46
HETATM   46  C2  UNL     1      -3.401   2.894  -1.185  1.00  0.00     0.293 C 
HETATM   47  O2  UNL     1      -2.975   2.297  -2.185  1.00  0.00    -0.262 OA
BRANCH  46  48
HETATM   48  O1  UNL     1      -3.592   4.250  -1.220  1.00  0.00    -0.324 OA
HETATM   49  C1  UNL     1      -3.318   5.039  -2.388  1.00  0.00     0.213 C 
ENDBRANCH  46  48
ENDBRANCH  45  46
BRANCH  45  50
HETATM   50  O3  UNL     1      -4.177   2.977   1.084  1.00  0.00    -0.301 OA
BRANCH  50  51
HETATM   51  C4  UNL     1      -5.447   2.875   1.573  1.00  0.00     0.255 C 
HETATM   52  C5  UNL     1      -5.920   3.756   2.654  1.00  0.00     0.126 C 
HETATM   53  O4  UNL     1      -6.218   2.011   1.085  1.00  0.00    -0.266 OA
ENDBRANCH  50  51
ENDBRANCH  45  50
ENDBRANCH   1  45
TORSDOF 17
