REMARK  15 active torsions:
REMARK  status: ('A' for Active; 'I' for Inactive)
REMARK    1  A    between atoms: O1_2  and  C2_3 
REMARK    2  A    between atoms: C3_4  and  N1_5 
REMARK    3  A    between atoms: N2_10  and  C5_11 
REMARK    4  A    between atoms: C6_14  and  N4_15 
REMARK    5  A    between atoms: C10_21  and  N5_22 
REMARK    6  A    between atoms: N5_22  and  C11_24 
REMARK    7  A    between atoms: C12_27  and  N7_28 
REMARK    8  A    between atoms: C17_36  and  N9_37 
REMARK    9  A    between atoms: C22_56  and  O4_57 
REMARK   10  A    between atoms: O4_57  and  C23_58 
REMARK   11  A    between atoms: C23_58  and  C24_59 
REMARK   12  A    between atoms: C24_59  and  N15_60 
REMARK   13  A    between atoms: N15_60  and  C26_62 
REMARK   14  A    between atoms: C26_62  and  C27_63 
REMARK   15  A    between atoms: C27_63  and  C28_64 
ROOT
HETATM    1  C5  UNL     1       1.030   1.009   1.096  1.00  0.00     0.683 A 
HETATM    2  N3  UNL     1       0.138   1.848   0.479  1.00  0.00    -0.176 N 
ATOM      3  H3  UNL     1       0.434   2.796   0.245  1.00  0.00     0.186 HD
HETATM    4  C6  UNL     1      -1.111   1.464   0.173  1.00  0.00     0.128 A 
HETATM    5  C7  UNL     1      -1.533   0.186   0.482  1.00  0.00     0.054 A 
HETATM    6  C8  UNL     1      -2.823  -0.237   0.181  1.00  0.00     0.039 A 
HETATM    7  C9  UNL     1      -3.227  -1.519   0.505  1.00  0.00     0.061 A 
HETATM    8  C10 UNL     1      -4.513  -1.989   0.223  1.00  0.00     0.138 A 
HETATM    9  N11 UNL     1      -4.856  -3.238   0.561  1.00  0.00    -0.307 N 
ATOM     10  H11 UNL     1      -5.788  -3.605   0.369  1.00  0.00     0.171 HD
HETATM   11  C18 UNL     1      -3.905  -3.996   1.173  1.00  0.00     0.225 A 
HETATM   12  N12 UNL     1      -4.269  -5.209   1.490  1.00  0.00    -0.365 N 
ATOM     13 1H12 UNL     1      -3.557  -5.777   1.949  1.00  0.00     0.159 HD
ATOM     14 2H12 UNL     1      -5.207  -5.555   1.287  1.00  0.00     0.159 HD
HETATM   15  O3  UNL     1      -2.701  -3.552   1.433  1.00  0.00    -0.261 OA
HETATM   16  C19 UNL     1      -2.313  -2.326   1.121  1.00  0.00     0.167 A 
HETATM   17  N13 UNL     1      -1.054  -1.908   1.412  1.00  0.00    -0.321 N 
ATOM     18  H13 UNL     1      -0.404  -2.545   1.872  1.00  0.00     0.169 HD
HETATM   19  C20 UNL     1      -0.658  -0.670   1.101  1.00  0.00     0.137 A 
HETATM   20  N14 UNL     1       0.591  -0.219   1.382  1.00  0.00    -0.175 N 
ATOM     21  H14 UNL     1       1.237  -0.861   1.842  1.00  0.00     0.186 HD
ENDROOT
BRANCH   1  22
HETATM   22  N2  UNL     1       2.323   1.515   1.387  1.00  0.00    -0.213 N 
HETATM   23  C4  UNL     1       2.613   2.948   1.175  1.00  0.00     0.177 C 
HETATM   24  C3  UNL     1       3.669   3.061   0.111  1.00  0.00     0.233 C 
HETATM   25  C2  UNL     1       4.868   2.183   0.394  1.00  0.00     0.183 C 
HETATM   26  C22 UNL     1       4.491   0.791   0.768  1.00  0.00     0.171 C 
HETATM   27  C21 UNL     1       3.447   0.746   1.865  1.00  0.00     0.175 C 
BRANCH  24  28
HETATM   28  N1  UNL     1       3.109   2.785  -1.193  1.00  0.00    -0.071 N 
ATOM     29  H13 UNL     1       3.813   2.866  -1.927  1.00  0.00     0.274 HD
ATOM     30  H12 UNL     1       2.882   1.796  -1.301  1.00  0.00     0.274 HD
ATOM     31  H11 UNL     1       2.301   3.377  -1.384  1.00  0.00     0.274 HD
ENDBRANCH  24  28
BRANCH  25  32
HETATM   32  O1  UNL     1       5.612   2.783   1.409  1.00  0.00    -0.386 OA
HETATM   33  C1  UNL     1       6.852   3.215   1.019  1.00  0.00     0.202 C 
ENDBRANCH  25  32
BRANCH  26  34
HETATM   34  O4  UNL     1       5.598   0.046   0.950  1.00  0.00    -0.380 OA
BRANCH  34  35
HETATM   35  C23 UNL     1       5.784  -1.019   0.104  1.00  0.00     0.188 C 
BRANCH  35  36
HETATM   36  C24 UNL     1       7.063  -1.776   0.432  1.00  0.00     0.147 C 
BRANCH  36  37
HETATM   37  N15 UNL     1       8.246  -1.005   0.330  1.00  0.00    -0.395 N 
HETATM   38  C25 UNL     1       9.403  -1.702   0.725  1.00  0.00     0.148 C 
BRANCH  37  39
HETATM   39  C26 UNL     1       8.405  -0.170  -0.783  1.00  0.00     0.068 C 
BRANCH  39  40
HETATM   40  C27 UNL     1       8.556  -0.826  -2.110  1.00  0.00     0.157 C 
BRANCH  40  41
HETATM   41  C28 UNL     1       9.697  -1.717  -2.291  1.00  0.00     0.177 C 
HETATM   42  O5  UNL     1       9.551  -2.977  -2.131  1.00  0.00    -0.648 OA
HETATM   43  O6  UNL     1      10.989  -1.292  -2.636  1.00  0.00    -0.648 OA
ENDBRANCH  40  41
ENDBRANCH  39  40
ENDBRANCH  37  39
ENDBRANCH  36  37
ENDBRANCH  35  36
ENDBRANCH  34  35
ENDBRANCH  26  34
ENDBRANCH   1  22
BRANCH   4  44
HETATM   44  N4  UNL     1      -1.949   2.244  -0.406  1.00  0.00    -0.384 N 
ATOM     45  H42 UNL     1      -1.637   3.188  -0.634  1.00  0.00     0.157 HD
ATOM     46  H41 UNL     1      -2.898   1.952  -0.639  1.00  0.00     0.157 HD
ENDBRANCH   4  44
BRANCH   8  47
HETATM   47  N5  UNL     1      -5.324  -1.217  -0.360  1.00  0.00    -0.174 N 
ATOM     48  H5  UNL     1      -4.935  -0.297  -0.569  1.00  0.00     0.186 HD
BRANCH  47  49
HETATM   49  C11 UNL     1      -6.637  -1.372  -0.772  1.00  0.00     0.713 A 
HETATM   50  N6  UNL     1      -7.531  -0.418  -0.427  1.00  0.00    -0.021 N 
HETATM   51  C12 UNL     1      -8.801  -0.487  -0.794  1.00  0.00     0.709 A 
ATOM     52  H6  UNL     1      -7.218   0.376   0.131  1.00  0.00     0.203 HD
HETATM   53  N8  UNL     1      -9.247  -1.535  -1.540  1.00  0.00    -0.022 N 
HETATM   54  C17 UNL     1      -8.393  -2.501  -1.903  1.00  0.00     0.705 A 
ATOM     55  H8  UNL     1     -10.226  -1.584  -1.821  1.00  0.00     0.203 HD
HETATM   56  N10 UNL     1      -7.110  -2.383  -1.503  1.00  0.00    -0.021 N 
ATOM     57  H10 UNL     1      -6.457  -3.117  -1.778  1.00  0.00     0.203 HD
BRANCH  51  58
HETATM   58  N7  UNL     1      -9.715   0.566  -0.427  1.00  0.00    -0.213 N 
HETATM   59  C13 UNL     1      -9.168   1.740   0.206  1.00  0.00     0.167 C 
HETATM   60  C14 UNL     1     -10.276   2.517   0.858  1.00  0.00     0.188 C 
HETATM   61  O2  UNL     1     -11.338   2.606  -0.033  1.00  0.00    -0.388 OA
HETATM   62  C15 UNL     1     -11.997   1.356   0.047  1.00  0.00     0.188 C 
HETATM   63  C16 UNL     1     -11.105   0.376  -0.721  1.00  0.00     0.167 C 
ENDBRANCH  51  58
BRANCH  54  64
HETATM   64  N9  UNL     1      -8.768  -3.523  -2.619  1.00  0.00    -0.234 N 
ATOM     65  H92 UNL     1      -9.738  -3.612  -2.921  1.00  0.00     0.174 HD
ATOM     66  H91 UNL     1      -8.118  -4.259  -2.895  1.00  0.00     0.174 HD
ENDBRANCH  54  64
ENDBRANCH  47  49
ENDBRANCH   8  47
TORSDOF 15
