REMARK  20 active torsions:
REMARK  status: ('A' for Active; 'I' for Inactive)
REMARK    1  A    between atoms: O1_2  and  C2_3 
REMARK    2  A    between atoms: C2_3  and  C5_6 
REMARK    3  A    between atoms: C5_6  and  O3_8 
REMARK    4  A    between atoms: O3_8  and  C6_9 
REMARK    5  A    between atoms: C6_9  and  C7_10 
REMARK    6  A    between atoms: C6_9  and  C8_15 
REMARK    7  A    between atoms: C7_10  and  O4_11 
REMARK    8  A    between atoms: C7_10  and  O5_13 
REMARK    9  A    between atoms: C10_17  and  N1_18 
REMARK   10  A    between atoms: C12_20  and  O6_21 
REMARK   11  A    between atoms: C15_26  and  C16_27 
REMARK       I    between atoms: C16_27  and  N2_29 
REMARK   12  A    between atoms: N2_29  and  C17_31 
REMARK   13  A    between atoms: C17_31  and  O9_32 
REMARK   14  A    between atoms: C17_31  and  C18_34 
REMARK   15  A    between atoms: C18_34  and  N3_35 
REMARK   16  A    between atoms: C18_34  and  O10_39 
REMARK   17  A    between atoms: C19_41  and  O11_42 
REMARK   18  A    between atoms: C22_50  and  O13_51 
REMARK   19  A    between atoms: O13_51  and  C23_52 
REMARK   20  A    between atoms: C23_52  and  C24_54 
ROOT
HETATM    1  C8  UNL     1      -0.307  -0.574   0.730  1.00  0.00     0.086 C 
HETATM    2  C9  UNL     1       1.021   0.015   0.625  1.00  0.00    -0.010 C 
HETATM    3  C10 UNL     1       1.975   0.022   1.527  1.00  0.00     0.104 C 
HETATM    4  C19 UNL     1       1.147   0.694  -0.669  1.00  0.00     0.176 C 
HETATM    5  C20 UNL     1       1.364  -0.008  -1.911  1.00  0.00     0.154 C 
HETATM    6  N4  UNL     1       2.053  -0.905  -2.552  1.00  0.00    -0.381 N 
ATOM      7  H41 UNL     1       2.206  -1.401  -3.430  1.00  0.00     0.158 HD
ATOM      8  H42 UNL     1       2.808  -1.439  -2.122  1.00  0.00     0.158 HD
HETATM    9  O12 UNL     1       0.297   0.746  -2.518  1.00  0.00    -0.325 OA
HETATM   10  C21 UNL     1      -0.281   0.713  -1.226  1.00  0.00     0.207 C 
HETATM   11  C22 UNL     1      -0.730  -0.645  -0.748  1.00  0.00     0.176 C 
ENDROOT
BRANCH   1  12
HETATM   12  C6  UNL     1      -1.339   0.059   1.550  1.00  0.00     0.197 C 
BRANCH  12  13
HETATM   13  O3  UNL     1      -1.806   1.326   1.335  1.00  0.00    -0.308 OA
BRANCH  13  14
HETATM   14  C5  UNL     1      -3.098   1.736   1.156  1.00  0.00     0.293 C 
HETATM   15  O2  UNL     1      -3.935   0.788   1.207  1.00  0.00    -0.262 OA
BRANCH  14  16
HETATM   16  C2  UNL     1      -3.579   3.114   0.926  1.00  0.00     0.140 C 
HETATM   17  C3  UNL     1      -3.112   3.952   2.122  1.00  0.00     0.057 C 
HETATM   18  C4  UNL     1      -3.029   3.766  -0.309  1.00  0.00     0.057 C 
BRANCH  16  19
HETATM   19  O1  UNL     1      -4.961   3.104   0.840  1.00  0.00    -0.376 OA
HETATM   20  C1  UNL     1      -5.570   4.314   0.686  1.00  0.00     0.203 C 
ENDBRANCH  16  19
ENDBRANCH  14  16
ENDBRANCH  13  14
ENDBRANCH  12  13
BRANCH  12  21
HETATM   21  C7  UNL     1      -1.160  -0.236   3.047  1.00  0.00     0.284 C 
BRANCH  21  22
HETATM   22  O4  UNL     1      -2.424  -0.191   3.684  1.00  0.00    -0.369 OA
ATOM     23  H4  UNL     1      -2.313  -0.373   4.610  1.00  0.00     0.212 HD
ENDBRANCH  21  22
BRANCH  21  24
HETATM   24  O5  UNL     1      -0.303   0.661   3.677  1.00  0.00    -0.369 OA
ATOM     25  H5  UNL     1      -0.192   0.479   4.603  1.00  0.00     0.212 HD
ENDBRANCH  21  24
ENDBRANCH  12  21
ENDBRANCH   1  12
BRANCH   3  26
HETATM   26  N1  UNL     1       3.239   0.521   1.571  1.00  0.00    -0.325 N 
HETATM   27  C11 UNL     1       3.416   1.688   2.274  1.00  0.00     0.137 A 
HETATM   28  C12 UNL     1       4.616   2.316   2.455  1.00  0.00     0.132 A 
HETATM   29  C13 UNL     1       5.725   1.757   1.902  1.00  0.00     0.208 A 
HETATM   30  O7  UNL     1       6.835   2.319   2.057  1.00  0.00    -0.285 OA
HETATM   31  C14 UNL     1       5.587   0.584   1.186  1.00  0.00     0.093 A 
HETATM   32  C15 UNL     1       4.328   0.006   1.048  1.00  0.00     0.110 A 
BRANCH  28  33
HETATM   33  O6  UNL     1       4.693   3.517   3.202  1.00  0.00    -0.356 OA
ATOM     34  H6  UNL     1       5.527   3.954   3.328  1.00  0.00     0.218 HD
ENDBRANCH  28  33
BRANCH  32  35
HETATM   35  C16 UNL     1       4.294  -1.278   0.318  1.00  0.00     0.270 C 
HETATM   36  O8  UNL     1       3.312  -2.082   0.516  1.00  0.00    -0.266 OA
HETATM   37  N2  UNL     1       5.331  -1.574  -0.575  1.00  0.00    -0.326 N 
ATOM     38  H2  UNL     1       6.062  -0.868  -0.658  1.00  0.00     0.165 HD
BRANCH  37  39
HETATM   39  C17 UNL     1       5.498  -2.760  -1.398  1.00  0.00     0.277 C 
BRANCH  39  40
HETATM   40  O9  UNL     1       5.442  -2.235  -2.727  1.00  0.00    -0.372 OA
ATOM     41  H9  UNL     1       5.551  -3.010  -3.265  1.00  0.00     0.212 HD
ENDBRANCH  39  40
BRANCH  39  42
HETATM   42  C18 UNL     1       6.914  -3.318  -1.242  1.00  0.00     0.365 C 
BRANCH  42  43
HETATM   43  N3  UNL     1       7.059  -3.918   0.077  1.00  0.00    -0.049 N 
ATOM     44  H33 UNL     1       6.817  -3.268   0.825  1.00  0.00     0.277 HD
ATOM     45  H32 UNL     1       6.345  -4.623   0.260  1.00  0.00     0.277 HD
ATOM     46  H31 UNL     1       8.003  -4.290   0.181  1.00  0.00     0.277 HD
ENDBRANCH  42  43
BRANCH  42  47
HETATM   47  O10 UNL     1       7.888  -2.334  -1.424  1.00  0.00    -0.367 OA
ATOM     48  H10 UNL     1       8.767  -2.680  -1.327  1.00  0.00     0.212 HD
ENDBRANCH  42  47
ENDBRANCH  39  42
ENDBRANCH  37  39
ENDBRANCH  32  35
ENDBRANCH   3  26
BRANCH   4  49
HETATM   49  O11 UNL     1       1.737   1.950  -0.645  1.00  0.00    -0.374 OA
ATOM     50  H11 UNL     1       1.819   2.390  -1.483  1.00  0.00     0.211 HD
ENDBRANCH   4  49
BRANCH  11  51
HETATM   51  O13 UNL     1      -2.080  -0.845  -0.952  1.00  0.00    -0.307 OA
BRANCH  51  52
HETATM   52  C23 UNL     1      -2.600  -1.916  -1.648  1.00  0.00     0.313 C 
HETATM   53  O14 UNL     1      -1.826  -2.779  -2.136  1.00  0.00    -0.258 OA
BRANCH  52  54
HETATM   54  C24 UNL     1      -4.031  -2.101  -1.847  1.00  0.00     0.139 A 
HETATM   55  N5  UNL     1      -5.029  -1.313  -1.418  1.00  0.00    -0.334 N 
HETATM   56  C25 UNL     1      -6.173  -1.904  -1.847  1.00  0.00     0.120 A 
ATOM     57  H5  UNL     1      -4.945  -0.450  -0.881  1.00  0.00     0.168 HD
HETATM   58  C26 UNL     1      -7.520  -1.305  -1.553  1.00  0.00     0.098 C 
HETATM   59  O15 UNL     1      -5.878  -2.999  -2.506  1.00  0.00    -0.300 OA
HETATM   60  C27 UNL     1      -4.587  -3.159  -2.531  1.00  0.00     0.084 A 
HETATM   61  C28 UNL     1      -3.871  -4.304  -3.199  1.00  0.00     0.079 C 
ENDBRANCH  52  54
ENDBRANCH  51  52
ENDBRANCH  11  51
TORSDOF 20
