REMARK  19 active torsions:
REMARK  status: ('A' for Active; 'I' for Inactive)
REMARK    1  A    between atoms: C2_2  and  C3_3 
REMARK    2  A    between atoms: C3_3  and  O2_5 
REMARK    3  A    between atoms: O2_5  and  C4_6 
REMARK    4  A    between atoms: N1_8  and  O3_9 
REMARK    5  A    between atoms: O3_9  and  C6_10 
REMARK    6  A    between atoms: C6_10  and  C7_11 
REMARK    7  A    between atoms: C6_10  and  C8_14 
REMARK    8  A    between atoms: C7_11  and  O4_12 
REMARK    9  A    between atoms: C8_14  and  O6_16 
REMARK   10  A    between atoms: O6_16  and  C9_17 
REMARK   11  A    between atoms: C9_17  and  N2_19 
REMARK   12  A    between atoms: C17_36  and  N7_37 
REMARK       I    between atoms: N7_37  and  C18_39 
REMARK   13  A    between atoms: C18_39  and  C19_41 
REMARK   14  A    between atoms: C20_45  and  O10_46 
REMARK   15  A    between atoms: O10_46  and  C21_47 
REMARK   16  A    between atoms: C21_47  and  O12_49 
REMARK   17  A    between atoms: O12_49  and  C22_50 
REMARK   18  A    between atoms: C22_50  and  O13_53 
REMARK   19  A    between atoms: C25_55  and  O14_56 
ROOT
HETATM    1  C4  UNL     1      -0.110  -2.648   0.522  1.00  0.00     0.171 C 
HETATM    2  C5  UNL     1      -0.798  -1.988   1.663  1.00  0.00     0.155 C 
HETATM    3  N1  UNL     1      -1.478  -0.905   1.053  1.00  0.00    -0.191 NA
HETATM    4  C16 UNL     1      -0.727  -0.453  -0.056  1.00  0.00     0.148 C 
HETATM    5  C17 UNL     1       0.402  -1.477  -0.262  1.00  0.00     0.131 C 
ENDROOT
BRANCH   3   6
HETATM    6  O3  UNL     1      -2.729  -1.006   0.910  1.00  0.00    -0.286 OA
BRANCH   6   7
HETATM    7  C6  UNL     1      -3.362  -1.491  -0.177  1.00  0.00     0.268 C 
BRANCH   7   8
HETATM    8  C7  UNL     1      -4.269  -2.697   0.113  1.00  0.00     0.208 C 
BRANCH   8   9
HETATM    9  O4  UNL     1      -3.594  -3.768   0.632  1.00  0.00    -0.398 OA
ATOM     10  H4  UNL     1      -4.155  -4.514   0.811  1.00  0.00     0.209 HD
ENDBRANCH   8   9
ENDBRANCH   7   8
BRANCH   7  11
HETATM   11  C8  UNL     1      -4.146  -0.452  -0.920  1.00  0.00     0.294 C 
HETATM   12  O5  UNL     1      -4.770  -0.823  -1.946  1.00  0.00    -0.262 OA
BRANCH  11  13
HETATM   13  O6  UNL     1      -4.237   0.862  -0.576  1.00  0.00    -0.293 OA
BRANCH  13  14
HETATM   14  C9  UNL     1      -4.956   1.852  -1.243  1.00  0.00     0.237 C 
HETATM   15  C10 UNL     1      -4.151   2.998  -1.750  1.00  0.00     0.064 C 
BRANCH  14  16
HETATM   16  N2  UNL     1      -6.010   2.379  -0.381  1.00  0.00    -0.281 N 
HETATM   17  C11 UNL     1      -5.728   3.358   0.511  1.00  0.00     0.190 A 
HETATM   18  N3  UNL     1      -6.664   3.876   1.327  1.00  0.00    -0.336 N 
HETATM   19  C12 UNL     1      -7.935   3.443   1.297  1.00  0.00     0.155 A 
ATOM     20  H3  UNL     1      -6.403   4.613   1.982  1.00  0.00     0.168 HD
HETATM   21  N4  UNL     1      -9.060   3.780   1.993  1.00  0.00    -0.174 N 
HETATM   22  C14 UNL     1      -8.257   2.445   0.401  1.00  0.00     0.161 A 
HETATM   23  C13 UNL     1     -10.061   3.007   1.537  1.00  0.00     0.678 A 
ATOM     24  H4  UNL     1      -9.128   4.488   2.724  1.00  0.00     0.186 HD
HETATM   25  N5  UNL     1     -11.305   3.004   1.930  1.00  0.00    -0.234 N 
HETATM   26  N6  UNL     1      -9.575   2.202   0.576  1.00  0.00    -0.183 N 
ATOM     27  H52 UNL     1     -11.674   3.615   2.659  1.00  0.00     0.174 HD
ATOM     28  H51 UNL     1     -12.064   2.418   1.584  1.00  0.00     0.174 HD
ATOM     29  H6  UNL     1     -10.119   1.512   0.057  1.00  0.00     0.184 HD
HETATM   30  C15 UNL     1      -7.278   1.932  -0.425  1.00  0.00     0.281 A 
HETATM   31  O7  UNL     1      -7.592   1.030  -1.229  1.00  0.00    -0.265 OA
ENDBRANCH  14  16
ENDBRANCH  13  14
ENDBRANCH  11  13
ENDBRANCH   7  11
ENDBRANCH   6   7
ENDBRANCH   3   6
BRANCH   1  32
HETATM   32  O2  UNL     1       0.884  -3.562   0.879  1.00  0.00    -0.313 OA
BRANCH  32  33
HETATM   33  C3  UNL     1       0.818  -4.872   0.461  1.00  0.00     0.258 C 
HETATM   34  O1  UNL     1      -0.167  -5.186  -0.244  1.00  0.00    -0.265 OA
BRANCH  33  35
HETATM   35  C2  UNL     1       1.843  -5.896   0.806  1.00  0.00     0.106 C 
HETATM   36  C1  UNL     1       1.518  -7.236   0.216  1.00  0.00     0.015 C 
ENDBRANCH  33  35
ENDBRANCH  32  33
ENDBRANCH   1  32
BRANCH   5  37
HETATM   37  N7  UNL     1       1.626  -1.040   0.382  1.00  0.00    -0.347 N 
HETATM   38  C18 UNL     1       2.864  -0.924  -0.336  1.00  0.00     0.280 C 
HETATM   39  O8  UNL     1       2.839  -1.215  -1.537  1.00  0.00    -0.265 OA
ATOM     40  H7  UNL     1       1.607  -0.808   1.375  1.00  0.00     0.163 HD
BRANCH  38  41
HETATM   41  C19 UNL     1       4.082  -0.485   0.326  1.00  0.00     0.203 A 
HETATM   42  O9  UNL     1       4.235  -0.149   1.589  1.00  0.00    -0.227 OA
HETATM   43  N8  UNL     1       5.448   0.189   1.832  1.00  0.00    -0.236 N 
HETATM   44  C20 UNL     1       6.178   0.092   0.718  1.00  0.00     0.210 A 
ATOM     45  H8  UNL     1       5.802   0.487   2.741  1.00  0.00     0.197 HD
HETATM   46  C25 UNL     1       5.302  -0.346  -0.275  1.00  0.00     0.161 A 
BRANCH  44  47
HETATM   47  O10 UNL     1       7.523   0.354   0.510  1.00  0.00    -0.233 OA
BRANCH  47  48
HETATM   48  C21 UNL     1       7.970   1.592   0.133  1.00  0.00     0.415 C 
HETATM   49  O11 UNL     1       7.107   2.516  -0.026  1.00  0.00    -0.229 OA
BRANCH  48  50
HETATM   50  O12 UNL     1       9.309   1.896  -0.084  1.00  0.00    -0.261 OA
BRANCH  50  51
HETATM   51  C22 UNL     1       9.722   3.200  -0.476  1.00  0.00     0.165 C 
HETATM   52  C23 UNL     1       9.072   3.564  -1.788  1.00  0.00     0.079 C 
HETATM   53  C24 UNL     1      11.229   3.227  -0.542  1.00  0.00     0.079 C 
BRANCH  51  54
HETATM   54  O13 UNL     1       9.326   4.147   0.493  1.00  0.00    -0.365 OA
ATOM     55  H13 UNL     1       9.602   5.018   0.231  1.00  0.00     0.213 HD
ENDBRANCH  51  54
ENDBRANCH  50  51
ENDBRANCH  48  50
ENDBRANCH  47  48
ENDBRANCH  44  47
BRANCH  46  56
HETATM   56  O14 UNL     1       5.678  -0.569  -1.579  1.00  0.00    -0.354 OA
ATOM     57  H14 UNL     1       6.526  -0.472  -1.997  1.00  0.00     0.218 HD
ENDBRANCH  46  56
ENDBRANCH  38  41
ENDBRANCH   5  37
TORSDOF 19
