REMARK  17 active torsions:
REMARK  status: ('A' for Active; 'I' for Inactive)
REMARK    1  A    between atoms: N1_1  and  N2_4 
REMARK    2  A    between atoms: N2_4  and  S1_6 
REMARK    3  A    between atoms: S1_6  and  C1_9 
REMARK    4  A    between atoms: C2_14  and  N5_15 
REMARK       I    between atoms: N5_15  and  C3_17 
REMARK    5  A    between atoms: C3_17  and  C4_19 
REMARK    6  A    between atoms: C4_19  and  N6_20 
REMARK    7  A    between atoms: C4_19  and  C12_38 
REMARK       I    between atoms: N6_20  and  C5_22 
REMARK    8  A    between atoms: C5_22  and  C6_24 
REMARK    9  A    between atoms: N7_28  and  C8_29 
REMARK   10  A    between atoms: C8_29  and  O5_30 
REMARK   11  A    between atoms: O5_30  and  C9_31 
REMARK   12  A    between atoms: C9_31  and  C10_32 
REMARK   13  A    between atoms: C10_32  and  O6_33 
REMARK   14  A    between atoms: C11_35  and  O7_36 
REMARK   15  A    between atoms: C16_42  and  O8_43 
REMARK   16  A    between atoms: O8_43  and  S4_44 
REMARK   17  A    between atoms: N8_49  and  N9_50 
ROOT
HETATM    1  C4  UNL     1      -0.173  -0.082   0.817  1.00  0.00     0.211 C 
ENDROOT
BRANCH   1   2
HETATM    2  C3  UNL     1      -1.143   0.594   1.692  1.00  0.00     0.263 C 
HETATM    3  N5  UNL     1      -2.485   0.225   1.684  1.00  0.00    -0.154 N 
ATOM      4  H5  UNL     1      -2.699  -0.638   2.183  1.00  0.00     0.187 HD
HETATM    5  O3  UNL     1      -0.770   1.531   2.478  1.00  0.00    -0.270 OA
BRANCH   3   6
HETATM    6  C2  UNL     1      -3.480   0.798   1.151  1.00  0.00     0.722 A 
HETATM    7  N4  UNL     1      -3.426   1.949   0.444  1.00  0.00    -0.128 N 
HETATM    8  N3  UNL     1      -4.645   2.225   0.053  1.00  0.00    -0.258 N 
ATOM      9  H4  UNL     1      -2.590   2.501   0.251  1.00  0.00     0.205 HD
HETATM   10  C1  UNL     1      -5.495   1.272   0.494  1.00  0.00     0.278 A 
ATOM     11  H3  UNL     1      -4.913   3.038  -0.502  1.00  0.00     0.190 HD
HETATM   12  N8  UNL     1      -4.757   0.403   1.168  1.00  0.00    -0.060 N 
BRANCH  10  13
HETATM   13  S1  UNL     1      -7.226   1.256   0.188  1.00  0.00     0.311 S 
HETATM   14  O1  UNL     1      -7.564   1.831  -1.150  1.00  0.00    -0.196 OA
HETATM   15  O2  UNL     1      -7.675  -0.198   0.172  1.00  0.00    -0.196 OA
BRANCH  13  16
HETATM   16  N2  UNL     1      -8.098   2.105   1.392  1.00  0.00    -0.227 N 
ATOM     17  H2  UNL     1      -8.463   1.710   2.259  1.00  0.00     0.199 HD
BRANCH  16  18
HETATM   18  N1  UNL     1      -8.223   3.452   0.973  1.00  0.00    -0.336 N 
ATOM     19  H12 UNL     1      -7.853   3.834   0.103  1.00  0.00     0.177 HD
ATOM     20  H11 UNL     1      -8.743   3.958   1.690  1.00  0.00     0.177 HD
ENDBRANCH  16  18
ENDBRANCH  13  16
ENDBRANCH  10  13
BRANCH  12  21
HETATM   21  N9  UNL     1      -5.231  -0.749   1.802  1.00  0.00    -0.322 N 
ATOM     22  H92 UNL     1      -6.205  -1.050   1.815  1.00  0.00     0.178 HD
ATOM     23  H91 UNL     1      -4.663  -1.418   2.321  1.00  0.00     0.178 HD
ENDBRANCH  12  21
ENDBRANCH   3   6
ENDBRANCH   1   2
BRANCH   1  24
HETATM   24  N6  UNL     1       1.155   0.442   1.003  1.00  0.00    -0.339 N 
HETATM   25  C5  UNL     1       2.221  -0.426   1.276  1.00  0.00     0.264 C 
HETATM   26  O4  UNL     1       2.036  -1.662   1.361  1.00  0.00    -0.267 OA
ATOM     27  H6  UNL     1       1.320   1.446   0.936  1.00  0.00     0.164 HD
BRANCH  25  28
HETATM   28  C6  UNL     1       3.598   0.095   1.472  1.00  0.00     0.126 A 
HETATM   29  S2  UNL     1       4.151   1.710   1.435  1.00  0.00    -0.050 SA
HETATM   30  C7  UNL     1       5.797   1.410   1.755  1.00  0.00     0.149 A 
HETATM   31  S3  UNL     1       7.044   2.498   1.886  1.00  0.00    -0.052 SA
HETATM   32  N7  UNL     1       5.848   0.078   1.876  1.00  0.00    -0.289 N 
HETATM   33  C11 UNL     1       4.745  -0.599   1.736  1.00  0.00     0.168 A 
BRANCH  32  34
HETATM   34  C8  UNL     1       7.165  -0.547   2.179  1.00  0.00     0.302 C 
BRANCH  34  35
HETATM   35  O5  UNL     1       7.891  -0.824   1.058  1.00  0.00    -0.369 OA
BRANCH  35  36
HETATM   36  C9  UNL     1       7.343  -1.687   0.150  1.00  0.00     0.196 C 
BRANCH  36  37
HETATM   37  C10 UNL     1       8.350  -1.832  -0.994  1.00  0.00     0.190 C 
BRANCH  37  38
HETATM   38  O6  UNL     1       7.871  -2.703  -1.974  1.00  0.00    -0.399 OA
ATOM     39  H6  UNL     1       8.496  -2.793  -2.684  1.00  0.00     0.209 HD
ENDBRANCH  37  38
ENDBRANCH  36  37
ENDBRANCH  35  36
ENDBRANCH  34  35
ENDBRANCH  32  34
BRANCH  33  40
HETATM   40  O7  UNL     1       4.681  -2.022   1.846  1.00  0.00    -0.345 OA
ATOM     41  H7  UNL     1       5.478  -2.505   2.030  1.00  0.00     0.219 HD
ENDBRANCH  33  40
ENDBRANCH  25  28
ENDBRANCH   1  24
BRANCH   1  42
HETATM   42  C12 UNL     1      -0.550   0.023  -0.640  1.00  0.00    -0.024 A 
HETATM   43  C13 UNL     1      -0.191   1.157  -1.323  1.00  0.00     0.010 A 
HETATM   44  C14 UNL     1      -0.548   1.245  -2.657  1.00  0.00     0.003 A 
HETATM   45  C15 UNL     1      -1.241   0.238  -3.293  1.00  0.00     0.038 A 
HETATM   46  C16 UNL     1      -1.593  -0.898  -2.579  1.00  0.00     0.092 A 
HETATM   47  C17 UNL     1      -1.243  -0.988  -1.269  1.00  0.00     0.048 A 
BRANCH  46  48
HETATM   48  O8  UNL     1      -2.289  -1.869  -3.280  1.00  0.00    -0.214 OA
BRANCH  48  49
HETATM   49  S4  UNL     1      -4.009  -1.807  -3.320  1.00  0.00     0.256 S 
HETATM   50  O9  UNL     1      -4.461  -0.627  -4.135  1.00  0.00    -0.572 OA
HETATM   51  O10 UNL     1      -4.573  -3.064  -3.890  1.00  0.00    -0.572 OA
HETATM   52  O11 UNL     1      -4.561  -1.583  -1.760  1.00  0.00    -0.572 OA
ENDBRANCH  48  49
ENDBRANCH  46  48
ENDBRANCH   1  42
TORSDOF 17
