REMARK  5 active torsions:
REMARK  status: ('A' for Active; 'I' for Inactive)
REMARK    1  A    between atoms: C2_2  and  O1_3 
REMARK    2  A    between atoms: O1_3  and  C3_4 
REMARK    3  A    between atoms: C3_4  and  C4_6 
REMARK    4  A    between atoms: C10_12  and  C11_13 
REMARK    5  A    between atoms: C11_13  and  C12_14 
ROOT
HETATM    1  C4  UNL     1       2.123   0.428   0.328  1.00  0.00     0.048 C 
HETATM    2  C5  UNL     1       2.078   1.604  -0.657  1.00  0.00     0.026 C 
HETATM    3  C6  UNL     1       1.972   0.929   1.748  1.00  0.00     0.020 C 
HETATM    4  C7  UNL     1       0.780   1.839   1.705  1.00  0.00     0.002 C 
HETATM    5  C8  UNL     1      -0.489   1.122   1.307  1.00  0.00     0.005 C 
HETATM    6  C9  UNL     1      -0.322  -0.205   0.697  1.00  0.00    -0.005 C 
HETATM    7  C10 UNL     1      -1.353  -0.644  -0.298  1.00  0.00    -0.002 C 
HETATM    8  C18 UNL     1      -0.862  -1.966  -0.869  1.00  0.00    -0.014 C 
HETATM    9  C19 UNL     1      -2.006  -2.925  -1.130  1.00  0.00     0.010 C 
HETATM   10  C20 UNL     1       0.072  -2.702   0.061  1.00  0.00     0.005 C 
HETATM   11  C21 UNL     1       1.335  -1.941   0.325  1.00  0.00     0.007 C 
HETATM   12  C22 UNL     1       1.003  -0.472   0.011  1.00  0.00     0.008 C 
ENDROOT
BRANCH   7  13
HETATM   13  C11 UNL     1      -2.772  -0.671   0.034  1.00  0.00     0.046 C 
BRANCH  13  14
HETATM   14  C12 UNL     1      -3.502   0.538   0.392  1.00  0.00    -0.031 A 
HETATM   15  C13 UNL     1      -3.938   0.818   1.662  1.00  0.00     0.051 A 
HETATM   16  C14 UNL     1      -4.659   1.921   2.005  1.00  0.00     0.117 A 
HETATM   17  F1  UNL     1      -5.070   2.156   3.286  1.00  0.00    -0.206 F 
HETATM   18  C15 UNL     1      -4.992   2.834   1.046  1.00  0.00     0.044 A 
HETATM   19  C16 UNL     1      -4.582   2.606  -0.249  1.00  0.00     0.030 A 
HETATM   20  C17 UNL     1      -3.852   1.485  -0.583  1.00  0.00     0.052 A 
HETATM   21  N1  UNL     1      -3.471   1.324  -1.925  1.00  0.00    -0.102 NA
ENDBRANCH  13  14
ENDBRANCH   7  13
BRANCH   1  22
HETATM   22  C3  UNL     1       3.462  -0.180   0.215  1.00  0.00     0.267 C 
HETATM   23  O2  UNL     1       4.264  -0.261   1.181  1.00  0.00    -0.264 OA
BRANCH  22  24
HETATM   24  O1  UNL     1       3.948  -0.716  -0.978  1.00  0.00    -0.321 OA
BRANCH  24  25
HETATM   25  C2  UNL     1       5.233  -1.303  -1.096  1.00  0.00     0.174 C 
HETATM   26  C1  UNL     1       6.244  -0.236  -0.739  1.00  0.00     0.034 C 
ENDBRANCH  24  25
ENDBRANCH  22  24
ENDBRANCH   1  22
TORSDOF 5
