REMARK  4 active torsions:
REMARK  status: ('A' for Active; 'I' for Inactive)
REMARK    1  A    between atoms: C2_2  and  C3_3 
REMARK    2  A    between atoms: C3_3  and  C4_4 
REMARK    3  A    between atoms: C4_4  and  N1_5 
REMARK    4  A    between atoms: N1_5  and  C5_7 
ROOT
HETATM    1  C5  UNL     1      -0.556   0.505  -0.393  1.00  0.00     0.059 A 
HETATM    2  C6  UNL     1      -1.496  -0.427  -0.787  1.00  0.00     0.050 A 
HETATM    3  C7  UNL     1      -2.846  -0.266  -0.530  1.00  0.00     0.029 A 
HETATM    4  N2  UNL     1      -3.286   0.804   0.112  1.00  0.00    -0.358 N 
ATOM      5  H2  UNL     1      -4.284   0.911   0.295  1.00  0.00     0.166 HD
HETATM    6  C8  UNL     1      -2.428   1.749   0.524  1.00  0.00     0.045 A 
HETATM    7  C9  UNL     1      -2.875   2.887   1.204  1.00  0.00     0.032 A 
HETATM    8  C10 UNL     1      -1.960   3.828   1.607  1.00  0.00     0.021 A 
HETATM    9  C11 UNL     1      -0.601   3.710   1.372  1.00  0.00     0.011 A 
HETATM   10 BR1  UNL     1       0.621   5.048   1.954  1.00  0.00    -0.051 Br
HETATM   11  C12 UNL     1      -0.200   2.575   0.699  1.00  0.00     0.035 A 
HETATM   12  C13 UNL     1      -1.069   1.612   0.279  1.00  0.00     0.020 A 
HETATM   13  C14 UNL     1      -3.740  -1.362  -1.019  1.00  0.00     0.059 C 
HETATM   14  C15 UNL     1      -3.307  -2.712  -0.527  1.00  0.00     0.017 C 
HETATM   15  C16 UNL     1      -2.163  -3.218  -1.388  1.00  0.00     0.080 C 
HETATM   16  S1  UNL     1      -0.971  -1.875  -1.647  1.00  0.00    -0.126 SA
ENDROOT
BRANCH   1  17
HETATM   17  N1  UNL     1       0.820   0.384  -0.631  1.00  0.00    -0.388 N 
ATOM     18  H1  UNL     1       1.173   0.779  -1.503  1.00  0.00     0.159 HD
BRANCH  17  19
HETATM   19  C4  UNL     1       1.776  -0.239   0.229  1.00  0.00     0.120 C 
BRANCH  19  20
HETATM   20  C3  UNL     1       3.177  -0.202  -0.315  1.00  0.00     0.019 C 
BRANCH  20  21
HETATM   21  C2  UNL     1       4.121  -0.893   0.677  1.00  0.00    -0.003 C 
HETATM   22  C1  UNL     1       5.511  -0.830   0.087  1.00  0.00     0.005 C 
ENDBRANCH  20  21
ENDBRANCH  19  20
ENDBRANCH  17  19
ENDBRANCH   1  17
TORSDOF 4
