REMARK  0 active torsions:
REMARK  status: ('A' for Active; 'I' for Inactive)
ROOT
HETATM    1  C1  UNL     1      -1.846   0.999   0.114  1.00  0.00     0.000 C 
HETATM    2  C2  UNL     1      -1.518  -0.322   0.726  1.00  0.00     0.000 C 
HETATM    3  C3  UNL     1      -0.916  -1.310  -0.230  1.00  0.00     0.002 C 
HETATM    4  C4  UNL     1       0.310  -1.962   0.379  1.00  0.00     0.027 C 
HETATM    5  C5  UNL     1       1.524  -1.524  -0.441  1.00  0.00     0.232 C 
HETATM    6  N1  UNL     1       1.318  -0.164  -0.857  1.00  0.00    -0.075 N 
ATOM      7  H11 UNL     1       0.420  -0.042  -1.324  1.00  0.00     0.277 HD
ATOM      8  H12 UNL     1       1.929   0.092  -1.633  1.00  0.00     0.277 HD
HETATM    9  C6  UNL     1       1.468   0.738   0.269  1.00  0.00     0.232 C 
HETATM   10  C7  UNL     1       0.502   1.875   0.256  1.00  0.00     0.027 C 
HETATM   11  C8  UNL     1      -0.704   1.654  -0.602  1.00  0.00     0.002 C 
ENDROOT
TORSDOF 0
