REMARK  0 active torsions:
REMARK  status: ('A' for Active; 'I' for Inactive)
ROOT
HETATM    1  C1  UNL     1       2.114   0.055  -0.119  1.00  0.00     0.004 C 
HETATM    2  C2  UNL     1       1.056  -0.897  -0.697  1.00  0.00     0.033 C 
HETATM    3  C3  UNL     1       0.146  -1.236   0.438  1.00  0.00     0.186 C 
HETATM    4  C4  UNL     1      -1.299  -1.350   0.051  1.00  0.00     0.033 C 
HETATM    5  C5  UNL     1      -1.997  -0.041  -0.070  1.00  0.00     0.004 C 
HETATM    6  C6  UNL     1      -1.116   1.155  -0.028  1.00  0.00     0.033 C 
HETATM    7  C7  UNL     1       0.056   1.053   0.879  1.00  0.00     0.186 C 
HETATM    8  C8  UNL     1       1.379   1.357   0.187  1.00  0.00     0.033 C 
HETATM    9  N1  UNL     1       0.207  -0.236   1.513  1.00  0.00    -0.067 N 
ATOM     10  H11 UNL     1       1.047  -0.309   2.086  1.00  0.00     0.278 HD
ATOM     11  H12 UNL     1      -0.469  -0.402   2.259  1.00  0.00     0.278 HD
ENDROOT
TORSDOF 0
