REMARK  3 active torsions:
REMARK  status: ('A' for Active; 'I' for Inactive)
REMARK    1  A    between atoms: C2_2  and  C3_3 
REMARK    2  A    between atoms: C4_7  and  O2_8 
REMARK    3  A    between atoms: C4_7  and  C5_10 
ROOT
HETATM    1  C3  UNL     1       2.200   0.068   0.141  1.00  0.00     0.033 C 
HETATM    2  N1  UNL     1       2.003  -1.190   0.099  1.00  0.00    -0.270 N 
ATOM      3  H1  UNL     1       2.758  -1.869   0.197  1.00  0.00     0.194 HD
HETATM    4  O1  UNL     1       0.719  -1.551  -0.085  1.00  0.00    -0.233 OA
HETATM    5  C4  UNL     1      -0.028  -0.393  -0.423  1.00  0.00     0.239 C 
HETATM    6  C12 UNL     1       0.898   0.743  -0.039  1.00  0.00     0.209 C 
HETATM    7  C13 UNL     1       0.996   1.740  -1.146  1.00  0.00     0.076 C 
HETATM    8  N2  UNL     1       1.078   2.499  -2.017  1.00  0.00    -0.196 NA
ENDROOT
BRANCH   1   9
HETATM    9  C2  UNL     1       3.489   0.743   0.330  1.00  0.00     0.051 C 
HETATM   10  C1  UNL     1       4.599  -0.270   0.481  1.00  0.00     0.011 C 
ENDBRANCH   1   9
BRANCH   5  11
HETATM   11  O2  UNL     1      -0.124  -0.320  -1.812  1.00  0.00    -0.359 OA
ATOM     12  H2  UNL     1      -0.624   0.455  -2.038  1.00  0.00     0.213 HD
ENDBRANCH   5  11
BRANCH   5  13
HETATM   13  C5  UNL     1      -1.337  -0.373   0.212  1.00  0.00     0.036 A 
HETATM   14  C6  UNL     1      -1.378  -0.412   1.613  1.00  0.00     0.048 A 
HETATM   15 CL1  UNL     1       0.061  -0.530   2.603  1.00  0.00    -0.084 Cl
HETATM   16  C7  UNL     1      -2.574  -0.379   2.288  1.00  0.00     0.050 A 
HETATM   17  C8  UNL     1      -3.735  -0.306   1.555  1.00  0.00     0.058 A 
HETATM   18 CL2  UNL     1      -5.275  -0.261   2.397  1.00  0.00    -0.082 Cl
HETATM   19  C9  UNL     1      -3.730  -0.267   0.180  1.00  0.00     0.062 A 
HETATM   20 CL3  UNL     1      -5.237  -0.173  -0.728  1.00  0.00    -0.082 Cl
HETATM   21  C10 UNL     1      -2.508  -0.301  -0.506  1.00  0.00    -0.025 A 
HETATM   22  C11 UNL     1      -2.577  -0.259  -1.983  1.00  0.00     0.050 C 
ENDBRANCH   5  13
TORSDOF 3
