REMARK  3 active torsions:
REMARK  status: ('A' for Active; 'I' for Inactive)
REMARK    1  A    between atoms: C5_7  and  N2_8 
REMARK    2  A    between atoms: C6_11  and  N3_12 
REMARK    3  A    between atoms: N3_12  and  C7_14 
ROOT
HETATM    1  C1  UNL     1      -2.305  -2.387   1.146  1.00  0.00     0.070 C 
HETATM    2  C2  UNL     1      -1.836  -1.044   0.682  1.00  0.00     0.029 A 
HETATM    3  N1  UNL     1      -2.691  -0.025   0.559  1.00  0.00    -0.360 N 
ATOM      4  H1  UNL     1      -3.674  -0.172   0.788  1.00  0.00     0.165 HD
HETATM    5  C3  UNL     1      -2.291   1.190   0.142  1.00  0.00     0.041 A 
HETATM    6  C4  UNL     1      -3.307   2.277   0.030  1.00  0.00     0.071 C 
HETATM    7  C5  UNL     1      -0.969   1.415  -0.172  1.00  0.00     0.153 A 
HETATM    8  C6  UNL     1      -0.022   0.386  -0.062  1.00  0.00     0.092 A 
HETATM    9  C12 UNL     1      -0.509  -0.819   0.368  1.00  0.00     0.085 A 
HETATM   10 CL2  UNL     1       0.577  -2.167   0.526  1.00  0.00    -0.080 Cl
ENDROOT
BRANCH   8  11
HETATM   11  N3  UNL     1       1.151   0.662  -0.376  1.00  0.00    -0.350 N 
ATOM     12  H3  UNL     1       1.267   1.628  -0.683  1.00  0.00     0.166 HD
BRANCH  11  13
HETATM   13  C7  UNL     1       2.337  -0.065  -0.398  1.00  0.00     0.076 A 
HETATM   14  C8  UNL     1       3.190  -0.211   0.669  1.00  0.00     0.075 A 
HETATM   15  C9  UNL     1       4.345  -0.938   0.559  1.00  0.00     0.105 A 
HETATM   16 CL1  UNL     1       5.452  -1.137   1.923  1.00  0.00    -0.064 Cl
HETATM   17  N4  UNL     1       4.648  -1.524  -0.627  1.00  0.00    -0.353 N 
HETATM   18  C10 UNL     1       3.826  -1.397  -1.691  1.00  0.00     0.133 A 
ATOM     19  H4  UNL     1       5.507  -2.067  -0.716  1.00  0.00     0.166 HD
HETATM   20  C11 UNL     1       2.677  -0.676  -1.589  1.00  0.00     0.158 A 
HETATM   21  F1  UNL     1       1.876  -0.572  -2.693  1.00  0.00    -0.202 F 
ENDBRANCH  11  13
ENDBRANCH   8  11
BRANCH   7  22
HETATM   22  N2  UNL     1      -0.622   2.723  -0.600  1.00  0.00    -0.111 N 
HETATM   23  O1  UNL     1      -0.576   3.665   0.216  1.00  0.00    -0.532 OA
HETATM   24  O2  UNL     1      -0.337   2.967  -1.901  1.00  0.00    -0.532 OA
ENDBRANCH   7  22
TORSDOF 3
