REMARK  4 active torsions:
REMARK  status: ('A' for Active; 'I' for Inactive)
REMARK    1  A    between atoms: O1_2  and  C2_3 
REMARK    2  A    between atoms: C2_3  and  C3_5 
REMARK    3  A    between atoms: C5_9  and  N2_10 
REMARK    4  A    between atoms: N2_10  and  C6_12 
ROOT
HETATM    1  N2  UNL     1       1.199   0.854   1.984  1.00  0.00    -0.335 N 
ATOM      2  H2  UNL     1       1.241   1.322   2.889  1.00  0.00     0.168 HD
ENDROOT
BRANCH   1   3
HETATM    3  C5  UNL     1       0.029   0.642   1.414  1.00  0.00     0.149 A 
HETATM    4  N1  UNL     1      -1.176   0.971   1.881  1.00  0.00    -0.345 N 
HETATM    5  C4  UNL     1      -2.221   0.677   1.170  1.00  0.00     0.115 A 
ATOM      6  H1  UNL     1      -1.274   1.444   2.779  1.00  0.00     0.167 HD
HETATM    7  C3  UNL     1      -2.034   0.042  -0.027  1.00  0.00     0.099 A 
HETATM    8  S1  UNL     1      -0.335  -0.106  -0.077  1.00  0.00    -0.046 SA
BRANCH   7   9
HETATM    9  C2  UNL     1      -3.035  -0.392  -1.001  1.00  0.00     0.301 C 
HETATM   10  O2  UNL     1      -2.662  -0.964  -2.053  1.00  0.00    -0.259 OA
BRANCH   9  11
HETATM   11  O1  UNL     1      -4.386  -0.195  -0.811  1.00  0.00    -0.322 OA
HETATM   12  C1  UNL     1      -5.391  -0.580  -1.692  1.00  0.00     0.213 C 
ENDBRANCH   9  11
ENDBRANCH   7   9
ENDBRANCH   1   3
BRANCH   1  13
HETATM   13  C6  UNL     1       2.393   0.442   1.357  1.00  0.00     0.057 A 
HETATM   14  C7  UNL     1       3.256   1.354   0.797  1.00  0.00     0.057 A 
HETATM   15  C8  UNL     1       4.409   0.865   0.199  1.00  0.00     0.058 A 
HETATM   16 CL1  UNL     1       5.518   2.021  -0.519  1.00  0.00    -0.082 Cl
HETATM   17  C9  UNL     1       4.698  -0.485   0.158  1.00  0.00     0.057 A 
HETATM   18 CL2  UNL     1       6.175  -1.074  -0.611  1.00  0.00    -0.082 Cl
HETATM   19  C10 UNL     1       3.829  -1.389   0.720  1.00  0.00     0.051 A 
HETATM   20  C11 UNL     1       2.679  -0.906   1.316  1.00  0.00     0.062 A 
HETATM   21 CL3  UNL     1       1.595  -2.084   2.023  1.00  0.00    -0.082 Cl
ENDBRANCH   1  13
TORSDOF 4
