REMARK  6 active torsions:
REMARK  status: ('A' for Active; 'I' for Inactive)
REMARK    1  A    between atoms: C2_2  and  O1_4 
REMARK    2  A    between atoms: C2_2  and  C4_6 
REMARK    3  A    between atoms: C4_6  and  S1_7 
REMARK    4  A    between atoms: S1_7  and  C5_8 
REMARK    5  A    between atoms: C5_8  and  N1_10 
REMARK    6  A    between atoms: N1_10  and  C6_12 
ROOT
HETATM    1  C5  UNL     1       0.310  -0.436   1.586  1.00  0.00     0.141 C 
HETATM    2  S2  UNL     1       1.203   0.322   2.758  1.00  0.00    -0.052 SA
ENDROOT
BRANCH   1   3
HETATM    3  S1  UNL     1      -1.308  -0.903   1.967  1.00  0.00    -0.097 SA
BRANCH   3   4
HETATM    4  C4  UNL     1      -2.306  -1.293   0.555  1.00  0.00     0.118 C 
BRANCH   4   5
HETATM    5  C2  UNL     1      -2.811  -0.099  -0.165  1.00  0.00     0.059 C 
HETATM    6  C1  UNL     1      -3.634  -0.598  -1.348  1.00  0.00     0.046 C 
HETATM    7  C3  UNL     1      -1.826   0.914  -0.574  1.00  0.00     0.046 C 
BRANCH   5   8
HETATM    8  O1  UNL     1      -3.708   0.536   0.722  1.00  0.00    -0.390 OA
ATOM      9  H1  UNL     1      -3.195   0.847   1.459  1.00  0.00     0.210 HD
ENDBRANCH   5   8
ENDBRANCH   4   5
ENDBRANCH   3   4
ENDBRANCH   1   3
BRANCH   1  10
HETATM   10  N1  UNL     1       0.952  -0.642   0.348  1.00  0.00    -0.314 N 
ATOM     11  H1  UNL     1       0.443  -1.109  -0.402  1.00  0.00     0.170 HD
BRANCH  10  12
HETATM   12  C6  UNL     1       2.319  -0.208   0.110  1.00  0.00     0.176 C 
HETATM   13  N2  UNL     1       3.362  -0.939   0.136  1.00  0.00    -0.361 N 
HETATM   14  C7  UNL     1       4.581  -0.215  -0.142  1.00  0.00     0.142 C 
ATOM     15  H2  UNL     1       3.339  -1.939   0.334  1.00  0.00     0.162 HD
HETATM   16  C8  UNL     1       4.153   1.232  -0.125  1.00  0.00     0.142 C 
HETATM   17  N3  UNL     1       2.714   1.117  -0.196  1.00  0.00    -0.361 N 
ATOM     18  H3  UNL     1       2.077   1.878  -0.432  1.00  0.00     0.162 HD
ENDBRANCH  10  12
ENDBRANCH   1  10
TORSDOF 6
