REMARK  3 active torsions:
REMARK  status: ('A' for Active; 'I' for Inactive)
REMARK    1  A    between atoms: N1_2  and  C2_4 
REMARK    2  A    between atoms: C6_13  and  N5_14 
REMARK    3  A    between atoms: N5_14  and  C7_16 
ROOT
HETATM    1  C2  UNL     1       2.368  -0.122  -0.342  1.00  0.00     0.110 A 
HETATM    2  C3  UNL     1       3.241  -1.149  -0.065  1.00  0.00     0.145 A 
HETATM    3  C4  UNL     1       4.634  -0.934  -0.357  1.00  0.00     0.120 C 
HETATM    4  N2  UNL     1       5.767  -0.780  -0.593  1.00  0.00    -0.190 NA
HETATM    5  N3  UNL     1       2.852  -2.325   0.456  1.00  0.00    -0.342 N 
ATOM      6  H3  UNL     1       3.538  -3.056   0.642  1.00  0.00     0.167 HD
HETATM    7  C5  UNL     1       1.553  -2.531   0.730  1.00  0.00     0.183 A 
HETATM    8  N4  UNL     1       0.664  -1.526   0.465  1.00  0.00    -0.337 N 
ATOM      9  H4  UNL     1      -0.321  -1.686   0.674  1.00  0.00     0.168 HD
HETATM   10  C6  UNL     1       1.014  -0.350  -0.051  1.00  0.00     0.132 A 
ENDROOT
BRANCH   1  11
HETATM   11  N1  UNL     1       2.826   1.105  -0.894  1.00  0.00    -0.389 N 
HETATM   12  C1  UNL     1       3.245   2.225  -0.092  1.00  0.00     0.146 C 
ATOM     13  H1  UNL     1       2.860   1.197  -1.909  1.00  0.00     0.159 HD
ENDBRANCH   1  11
BRANCH  10  14
HETATM   14  N5  UNL     1       0.192   0.563  -0.290  1.00  0.00    -0.370 N 
ATOM     15  H5  UNL     1       0.626   1.398  -0.685  1.00  0.00     0.161 HD
BRANCH  14  16
HETATM   16  C7  UNL     1      -1.202   0.688  -0.132  1.00  0.00     0.086 C 
HETATM   17  C8  UNL     1      -1.738   0.539   1.254  1.00  0.00     0.052 C 
HETATM   18  C9  UNL     1      -3.022  -0.273   1.246  1.00  0.00     0.234 C 
HETATM   19  N6  UNL     1      -3.952   0.245   0.281  1.00  0.00    -0.075 N 
HETATM   20  C10 UNL     1      -3.448   0.170  -1.054  1.00  0.00     0.234 C 
ATOM     21  H62 UNL     1      -4.858  -0.217   0.359  1.00  0.00     0.277 HD
ATOM     22  H61 UNL     1      -4.233   1.197   0.515  1.00  0.00     0.277 HD
HETATM   23  C11 UNL     1      -1.977  -0.167  -1.134  1.00  0.00     0.052 C 
ENDBRANCH  14  16
ENDBRANCH  10  14
TORSDOF 3
