REMARK  3 active torsions:
REMARK  status: ('A' for Active; 'I' for Inactive)
REMARK    1  A    between atoms: N1_2  and  C2_4 
REMARK    2  A    between atoms: C4_8  and  N3_9 
REMARK    3  A    between atoms: C5_14  and  N5_15 
ROOT
HETATM    1  C2  UNL     1       1.966  -0.257  -0.417  1.00  0.00     0.088 A 
HETATM    2  C3  UNL     1       3.298  -0.141   0.012  1.00  0.00     0.139 A 
HETATM    3  N2  UNL     1       3.561   0.640   1.063  1.00  0.00    -0.200 N 
ATOM      4  H2  UNL     1       4.523   0.736   1.388  1.00  0.00     0.183 HD
HETATM    5  C4  UNL     1       2.578   1.302   1.701  1.00  0.00     0.677 A 
HETATM    6  N4  UNL     1       1.307   1.180   1.280  1.00  0.00    -0.175 N 
ATOM      7  H4  UNL     1       0.579   1.690   1.780  1.00  0.00     0.186 HD
HETATM    8  C5  UNL     1       0.945   0.408   0.218  1.00  0.00     0.147 A 
ENDROOT
BRANCH   8   9
HETATM    9  N5  UNL     1      -0.407   0.311  -0.157  1.00  0.00    -0.356 N 
HETATM   10  C6  UNL     1      -0.910   1.271  -1.158  1.00  0.00     0.125 C 
HETATM   11  C7  UNL     1      -2.317   1.696  -0.783  1.00  0.00     0.020 C 
HETATM   12  C8  UNL     1      -2.557   1.567   0.693  1.00  0.00     0.004 C 
HETATM   13  C9  UNL     1      -2.468   0.139   1.086  1.00  0.00     0.030 C 
HETATM   14  C10 UNL     1      -1.384  -0.625   0.333  1.00  0.00     0.027 C 
HETATM   15  C11 UNL     1      -2.095  -1.406  -0.752  1.00  0.00     0.038 C 
HETATM   16  C12 UNL     1      -0.732  -1.564   1.327  1.00  0.00     0.038 C 
ENDBRANCH   8   9
BRANCH   1  17
HETATM   17  N1  UNL     1       1.713  -1.061  -1.530  1.00  0.00    -0.390 N 
HETATM   18  C1  UNL     1       2.778  -1.780  -2.188  1.00  0.00     0.146 C 
ATOM     19  H1  UNL     1       0.760  -1.142  -1.884  1.00  0.00     0.159 HD
ENDBRANCH   1  17
BRANCH   5  20
HETATM   20  N3  UNL     1       2.836   2.062   2.724  1.00  0.00    -0.234 N 
ATOM     21  H32 UNL     1       3.800   2.155   3.043  1.00  0.00     0.174 HD
ATOM     22  H31 UNL     1       2.091   2.564   3.207  1.00  0.00     0.174 HD
ENDBRANCH   5  20
TORSDOF 3
