REMARK  3 active torsions:
REMARK  status: ('A' for Active; 'I' for Inactive)
REMARK    1  A    between atoms: C2_2  and  C4_4 
REMARK    2  A    between atoms: C4_4  and  O1_5 
REMARK    3  A    between atoms: N1_9  and  C7_10 
ROOT
HETATM    1  C4  UNL     1      -0.958   0.270  -0.009  1.00  0.00     0.193 C 
HETATM    2  C5  UNL     1      -0.581   1.614   0.572  1.00  0.00     0.094 C 
HETATM    3  C6  UNL     1       0.914   1.487   0.731  1.00  0.00     0.181 C 
HETATM    4  N1  UNL     1       1.116   0.063   0.585  1.00  0.00    -0.083 N 
HETATM    5  O2  UNL     1      -0.086  -0.578   0.703  1.00  0.00    -0.224 OA
ENDROOT
BRANCH   4   6
HETATM    6  C7  UNL     1       2.377  -0.544   0.351  1.00  0.00     0.721 A 
HETATM    7  N2  UNL     1       3.273  -1.046   1.217  1.00  0.00    -0.128 N 
HETATM    8  N3  UNL     1       4.332  -1.527   0.574  1.00  0.00    -0.261 N 
ATOM      9  H2  UNL     1       3.156  -1.057   2.230  1.00  0.00     0.205 HD
HETATM   10  C8  UNL     1       4.139  -1.345  -0.742  1.00  0.00     0.205 A 
ATOM     11  H3  UNL     1       5.149  -1.959   1.005  1.00  0.00     0.190 HD
HETATM   12  S1  UNL     1       5.133  -1.755  -1.972  1.00  0.00    -0.039 SA
HETATM   13  N4  UNL     1       2.950  -0.748  -0.873  1.00  0.00    -0.162 N 
ATOM     14  H4  UNL     1       2.529  -0.482  -1.763  1.00  0.00     0.187 HD
ENDBRANCH   4   6
BRANCH   1  15
HETATM   15  C2  UNL     1      -2.399   0.017   0.269  1.00  0.00     0.042 C 
HETATM   16  C1  UNL     1      -3.179   1.091  -0.487  1.00  0.00     0.015 C 
HETATM   17  C3  UNL     1      -2.890  -1.335  -0.158  1.00  0.00     0.015 C 
ENDBRANCH   1  15
BRANCH   1  18
HETATM   18  O1  UNL     1      -0.652   0.198  -1.367  1.00  0.00    -0.363 OA
ATOM     19  H1  UNL     1       0.267   0.359  -1.544  1.00  0.00     0.213 HD
ENDBRANCH   1  18
TORSDOF 3
