REMARK  3 active torsions:
REMARK  status: ('A' for Active; 'I' for Inactive)
REMARK    1  A    between atoms: C2_3  and  S1_4 
REMARK    2  A    between atoms: S1_4  and  C3_5 
REMARK    3  A    between atoms: C9_18  and  N5_19 
ROOT
HETATM    1  C1  UNL     1      -3.291  -1.177   1.709  1.00  0.00     0.177 C 
HETATM    2  N1  UNL     1      -3.184  -0.320   0.535  1.00  0.00    -0.164 N 
HETATM    3  C2  UNL     1      -2.060   0.278   0.100  1.00  0.00     0.176 A 
HETATM    4  N3  UNL     1      -2.415   0.966  -1.007  1.00  0.00    -0.265 N 
ATOM      5  H3  UNL     1      -1.789   1.532  -1.580  1.00  0.00     0.189 HD
HETATM    6  N4  UNL     1      -3.707   0.787  -1.227  1.00  0.00    -0.130 N 
ATOM      7  H4  UNL     1      -4.236   1.194  -1.998  1.00  0.00     0.205 HD
HETATM    8  C9  UNL     1      -4.219  -0.022  -0.268  1.00  0.00     0.694 A 
ENDROOT
BRANCH   3   9
HETATM    9  S1  UNL     1      -0.435   0.163   0.871  1.00  0.00    -0.085 SA
BRANCH   9  10
HETATM   10  C3  UNL     1       0.698   1.155  -0.154  1.00  0.00     0.083 C 
HETATM   11  C4  UNL     1       0.818   0.451  -1.490  1.00  0.00     0.248 C 
HETATM   12  N2  UNL     1       1.810  -0.554  -1.219  1.00  0.00    -0.066 N 
HETATM   13  C5  UNL     1       2.714  -0.056  -0.225  1.00  0.00     0.119 C 
ATOM     14  H22 UNL     1       1.396  -1.448  -0.956  1.00  0.00     0.278 HD
ATOM     15  H21 UNL     1       2.292  -0.863  -2.063  1.00  0.00     0.278 HD
HETATM   16  C6  UNL     1       4.017   0.305  -0.937  1.00  0.00     0.046 C 
HETATM   17  C7  UNL     1       2.966  -1.036   0.899  1.00  0.00     0.046 C 
HETATM   18  C8  UNL     1       2.096   1.174   0.376  1.00  0.00     0.055 C 
ENDBRANCH   9  10
ENDBRANCH   3   9
BRANCH   8  19
HETATM   19  N5  UNL     1      -5.455  -0.411  -0.174  1.00  0.00    -0.233 N 
ATOM     20  H52 UNL     1      -5.840  -1.020   0.548  1.00  0.00     0.174 HD
ATOM     21  H51 UNL     1      -6.241  -0.185  -0.784  1.00  0.00     0.174 HD
ENDBRANCH   8  19
TORSDOF 3
