REMARK  5 active torsions:
REMARK  status: ('A' for Active; 'I' for Inactive)
REMARK    1  A    between atoms: C2_2  and  C4_4 
REMARK    2  A    between atoms: C4_4  and  N1_5 
REMARK    3  A    between atoms: C4_4  and  C10_14 
REMARK       I    between atoms: N1_5  and  C5_7 
REMARK    4  A    between atoms: C5_7  and  C6_9 
REMARK       I    between atoms: C10_14  and  N2_16 
REMARK    5  A    between atoms: N2_16  and  C11_18 
ROOT
HETATM    1  C4  UNL     1      -0.894  -1.205   0.085  1.00  0.00     0.180 C 
ENDROOT
BRANCH   1   2
HETATM    2  C2  UNL     1      -0.378  -2.040  -1.038  1.00  0.00     0.009 C 
HETATM    3  C1  UNL     1       0.086  -1.247  -2.217  1.00  0.00     0.012 C 
HETATM    4  C3  UNL     1      -1.448  -2.998  -1.566  1.00  0.00     0.012 C 
ENDBRANCH   1   2
BRANCH   1   5
HETATM    5  N1  UNL     1      -2.031  -0.401  -0.266  1.00  0.00    -0.345 N 
HETATM    6  C5  UNL     1      -3.254  -0.384   0.419  1.00  0.00     0.247 C 
HETATM    7  O1  UNL     1      -3.434  -1.099   1.423  1.00  0.00    -0.271 OA
ATOM      8  H1  UNL     1      -1.941   0.207  -1.080  1.00  0.00     0.163 HD
BRANCH   6   9
HETATM    9  C6  UNL     1      -4.396   0.487  -0.020  1.00  0.00     0.213 C 
HETATM   10  C7  UNL     1      -4.015   1.928  -0.125  1.00  0.00     0.043 C 
HETATM   11  C8  UNL     1      -4.579   2.503   1.141  1.00  0.00     0.029 C 
HETATM   12  C9  UNL     1      -5.586   1.488   1.563  1.00  0.00     0.168 C 
HETATM   13  O2  UNL     1      -5.491   0.379   0.786  1.00  0.00    -0.376 OA
ENDBRANCH   6   9
ENDBRANCH   1   5
BRANCH   1  14
HETATM   14  C10 UNL     1       0.193  -0.290   0.549  1.00  0.00     0.241 C 
HETATM   15  O3  UNL     1      -0.154   0.842   1.051  1.00  0.00    -0.271 OA
HETATM   16  N2  UNL     1       1.544  -0.632   0.443  1.00  0.00    -0.355 N 
ATOM     17  H2  UNL     1       1.761  -1.540   0.031  1.00  0.00     0.162 HD
BRANCH  16  18
HETATM   18  C11 UNL     1       2.671   0.188   0.866  1.00  0.00     0.084 C 
HETATM   19  C12 UNL     1       3.293   0.666  -0.455  1.00  0.00     0.025 C 
HETATM   20  C13 UNL     1       4.479   1.550  -0.201  1.00  0.00     0.002 C 
HETATM   21  C14 UNL     1       5.398   1.066   0.864  1.00  0.00     0.000 C 
HETATM   22  C15 UNL     1       5.094  -0.287   1.418  1.00  0.00     0.002 C 
HETATM   23  C16 UNL     1       3.681  -0.698   1.505  1.00  0.00     0.025 C 
ENDBRANCH  16  18
ENDBRANCH   1  14
TORSDOF 5
