REMARK  9 active torsions:
REMARK  status: ('A' for Active; 'I' for Inactive)
REMARK    1  A    between atoms: C2_2  and  N1_3 
REMARK    2  A    between atoms: N1_3  and  C3_4 
REMARK    3  A    between atoms: N1_3  and  C5_6 
REMARK    4  A    between atoms: C5_6  and  C6_7 
REMARK    5  A    between atoms: C7_8  and  C8_9 
REMARK    6  A    between atoms: C9_10  and  C10_11 
REMARK    7  A    between atoms: C11_12  and  C12_13 
REMARK    8  A    between atoms: C12_13  and  C15_16 
REMARK    9  A    between atoms: C17_20  and  N3_21 
ROOT
HETATM    1  C12 UNL     1      -4.277  -0.703   0.769  1.00  0.00     0.046 C 
HETATM    2  C13 UNL     1      -4.718  -2.168   0.566  1.00  0.00     0.034 C 
HETATM    3  C14 UNL     1      -4.616  -0.410   2.227  1.00  0.00     0.034 C 
ENDROOT
BRANCH   1   4
HETATM    4  C11 UNL     1      -2.846  -0.576   0.516  1.00  0.00    -0.087 C 
HETATM    5  C10 UNL     1      -1.637  -0.487   0.321  1.00  0.00    -0.077 C 
BRANCH   5   6
HETATM    6  C9  UNL     1      -0.210  -0.408   0.114  1.00  0.00     0.073 C 
HETATM    7  C8  UNL     1       0.655  -1.098   0.817  1.00  0.00     0.073 C 
BRANCH   7   8
HETATM    8  C7  UNL     1       2.060  -1.057   0.654  1.00  0.00    -0.076 C 
HETATM    9  C6  UNL     1       3.274  -1.058   0.541  1.00  0.00    -0.072 C 
BRANCH   9  10
HETATM   10  C5  UNL     1       4.718  -1.101   0.454  1.00  0.00     0.366 C 
BRANCH  10  11
HETATM   11  N1  UNL     1       5.255  -0.074  -0.408  1.00  0.00     0.098 N 
BRANCH  11  12
HETATM   12  C2  UNL     1       5.047   1.250   0.219  1.00  0.00     0.269 C 
HETATM   13  C1  UNL     1       5.565   2.335  -0.713  1.00  0.00     0.037 C 
ENDBRANCH  11  12
BRANCH  11  14
HETATM   14  C3  UNL     1       6.712  -0.288  -0.502  1.00  0.00     0.269 C 
HETATM   15  C4  UNL     1       6.921  -1.620  -1.195  1.00  0.00     0.037 C 
ENDBRANCH  11  14
ENDBRANCH  10  11
ENDBRANCH   9  10
ENDBRANCH   7   8
ENDBRANCH   5   6
ENDBRANCH   1   4
BRANCH   1  16
HETATM   16  C15 UNL     1      -4.999   0.185  -0.144  1.00  0.00    -0.006 A 
HETATM   17  C16 UNL     1      -5.141  -0.121  -1.481  1.00  0.00     0.116 A 
HETATM   18  N2  UNL     1      -5.831   0.692  -2.297  1.00  0.00    -0.202 N 
HETATM   19  C17 UNL     1      -6.409   1.825  -1.876  1.00  0.00     0.675 A 
ATOM     20  H2  UNL     1      -5.919   0.436  -3.280  1.00  0.00     0.183 HD
HETATM   21  N4  UNL     1      -6.285   2.148  -0.580  1.00  0.00    -0.202 N 
HETATM   22  C18 UNL     1      -5.594   1.348   0.274  1.00  0.00     0.116 A 
ATOM     23  H4  UNL     1      -6.715   3.005  -0.231  1.00  0.00     0.183 HD
BRANCH  19  24
HETATM   24  N3  UNL     1      -7.062   2.539  -2.734  1.00  0.00    -0.234 N 
ATOM     25  H32 UNL     1      -7.156   2.293  -3.719  1.00  0.00     0.174 HD
ATOM     26  H31 UNL     1      -7.502   3.402  -2.413  1.00  0.00     0.174 HD
ENDBRANCH  19  24
ENDBRANCH   1  16
TORSDOF 9
