REMARK  10 active torsions:
REMARK  status: ('A' for Active; 'I' for Inactive)
REMARK    1  A    between atoms: N1_2  and  C2_3 
REMARK    2  A    between atoms: N1_2  and  C5_10 
REMARK    3  A    between atoms: C2_3  and  C3_4 
REMARK    4  A    between atoms: C3_4  and  O1_5 
REMARK    5  A    between atoms: C3_4  and  C4_7 
REMARK    6  A    between atoms: C4_7  and  O2_8 
REMARK    7  A    between atoms: C10_18  and  N3_19 
REMARK    8  A    between atoms: N3_19  and  C11_21 
REMARK    9  A    between atoms: C11_21  and  C14_24 
REMARK   10  A    between atoms: C14_24  and  O4_25 
ROOT
HETATM    1  C5  UNL     1      -0.736  -1.835   0.148  1.00  0.00     0.050 A 
HETATM    2  C6  UNL     1      -0.513  -3.218  -0.082  1.00  0.00     0.104 A 
HETATM    3  C7  UNL     1       0.699  -3.701  -0.353  1.00  0.00     0.247 A 
HETATM    4  O3  UNL     1       0.895  -4.935  -0.560  1.00  0.00    -0.268 OA
HETATM    5  N2  UNL     1       1.784  -2.889  -0.421  1.00  0.00    -0.322 N 
ATOM      6  H2  UNL     1       2.704  -3.277  -0.628  1.00  0.00     0.169 HD
HETATM    7  C8  UNL     1       1.640  -1.593  -0.217  1.00  0.00     0.068 A 
HETATM    8  C9  UNL     1       0.352  -1.010   0.076  1.00  0.00     0.045 A 
HETATM    9  C10 UNL     1       0.233   0.331   0.322  1.00  0.00     0.045 A 
HETATM   10  C15 UNL     1       1.408   1.096   0.292  1.00  0.00     0.061 A 
HETATM   11  C16 UNL     1       2.642   0.580   0.025  1.00  0.00     0.058 A 
HETATM   12  C17 UNL     1       2.761  -0.791  -0.237  1.00  0.00     0.087 A 
HETATM   13  C18 UNL     1       3.999  -1.305  -0.509  1.00  0.00     0.266 A 
HETATM   14  O5  UNL     1       4.267  -2.477  -0.757  1.00  0.00    -0.267 OA
HETATM   15  N4  UNL     1       5.057  -0.429  -0.508  1.00  0.00    -0.270 N 
HETATM   16  C19 UNL     1       6.392  -0.937  -0.792  1.00  0.00     0.164 C 
HETATM   17  C20 UNL     1       4.912   0.883  -0.254  1.00  0.00     0.331 A 
HETATM   18  O6  UNL     1       5.920   1.656  -0.265  1.00  0.00    -0.246 OA
HETATM   19  N5  UNL     1       3.712   1.407   0.015  1.00  0.00    -0.303 N 
HETATM   20  C21 UNL     1       3.514   2.836   0.296  1.00  0.00     0.161 C 
ENDROOT
BRANCH   1  21
HETATM   21  N1  UNL     1      -2.021  -1.521   0.582  1.00  0.00    -0.382 N 
HETATM   22  C1  UNL     1      -2.222  -1.317   2.019  1.00  0.00     0.150 C 
BRANCH  21  23
HETATM   23  C2  UNL     1      -3.206  -1.514  -0.198  1.00  0.00     0.156 C 
BRANCH  23  24
HETATM   24  C3  UNL     1      -3.132  -1.592  -1.665  1.00  0.00     0.159 C 
BRANCH  24  25
HETATM   25  O1  UNL     1      -2.576  -2.679  -2.252  1.00  0.00    -0.392 OA
ATOM     26  H1  UNL     1      -2.528  -2.729  -3.199  1.00  0.00     0.210 HD
ENDBRANCH  24  25
BRANCH  24  27
HETATM   27  C4  UNL     1      -4.588  -1.524  -2.167  1.00  0.00     0.197 C 
BRANCH  27  28
HETATM   28  O2  UNL     1      -5.201  -2.707  -1.769  1.00  0.00    -0.398 OA
ATOM     29  H2  UNL     1      -6.098  -2.665  -2.078  1.00  0.00     0.209 HD
ENDBRANCH  27  28
ENDBRANCH  24  27
ENDBRANCH  23  24
ENDBRANCH  21  23
ENDBRANCH   1  21
BRANCH   9  30
HETATM   30  N3  UNL     1      -0.989   1.015   0.395  1.00  0.00    -0.378 N 
ATOM     31  H3  UNL     1      -1.808   0.561  -0.010  1.00  0.00     0.160 HD
BRANCH  30  32
HETATM   32  C11 UNL     1      -1.181   2.336   1.010  1.00  0.00     0.044 C 
HETATM   33  C12 UNL     1      -2.715   2.419   1.297  1.00  0.00     0.040 C 
HETATM   34  C13 UNL     1      -0.506   2.552   2.294  1.00  0.00     0.040 C 
BRANCH  32  35
HETATM   35  C14 UNL     1      -0.994   3.423  -0.015  1.00  0.00     0.194 C 
BRANCH  35  36
HETATM   36  O4  UNL     1      -1.924   3.264  -1.073  1.00  0.00    -0.398 OA
ATOM     37  H4  UNL     1      -1.806   3.950  -1.720  1.00  0.00     0.209 HD
ENDBRANCH  35  36
ENDBRANCH  32  35
ENDBRANCH  30  32
ENDBRANCH   9  30
TORSDOF 10
