REMARK  9 active torsions:
REMARK  status: ('A' for Active; 'I' for Inactive)
REMARK    1  A    between atoms: O1_2  and  N1_3 
REMARK    2  A    between atoms: C2_5  and  C4_7 
REMARK       I    between atoms: C4_7  and  N2_9 
REMARK    3  A    between atoms: N2_9  and  C5_11 
REMARK    4  A    between atoms: C8_15  and  C9_16 
REMARK    5  A    between atoms: C10_19  and  S1_20 
REMARK    6  A    between atoms: S1_20  and  C11_21 
REMARK    7  A    between atoms: C13_23  and  N4_24 
REMARK    8  A    between atoms: C13_23  and  C14_28 
REMARK    9  A    between atoms: C14_28  and  O6_30 
ROOT
HETATM    1  C5  UNL     1       3.183  -1.578   0.377  1.00  0.00     0.078 C 
HETATM    2  C6  UNL     1       2.505  -2.679   0.680  1.00  0.00     0.037 C 
HETATM    3  C7  UNL     1       2.904  -4.100   1.015  1.00  0.00     0.070 C 
HETATM    4  N3  UNL     1       1.242  -2.127   0.497  1.00  0.00    -0.313 N 
HETATM    5  C8  UNL     1      -0.139  -1.733   0.325  1.00  0.00     0.148 C 
HETATM    6  C10 UNL     1      -0.196  -0.680  -0.479  1.00  0.00     0.103 C 
HETATM    7  N6  UNL     1       1.260  -0.452  -0.825  1.00  0.00    -0.356 N 
ATOM      8  H6  UNL     1       1.648  -0.108  -1.703  1.00  0.00     0.162 HD
HETATM    9  C17 UNL     1       1.964  -0.826   0.350  1.00  0.00     0.243 C 
ENDROOT
BRANCH   6  10
HETATM   10  S1  UNL     1      -1.441   0.279  -1.096  1.00  0.00    -0.077 SA
BRANCH  10  11
HETATM   11  C11 UNL     1      -3.073   0.482  -0.910  1.00  0.00     0.256 C 
HETATM   12  C12 UNL     1      -3.569   0.996   0.436  1.00  0.00     0.095 C 
HETATM   13  C13 UNL     1      -5.010   0.596   0.500  1.00  0.00     0.236 C 
HETATM   14  C16 UNL     1      -5.238  -0.375  -0.635  1.00  0.00     0.283 C 
HETATM   15  N5  UNL     1      -4.055  -0.464  -1.410  1.00  0.00    -0.059 N 
ATOM     16  H52 UNL     1      -4.237  -0.339  -2.406  1.00  0.00     0.278 HD
ATOM     17  H51 UNL     1      -3.689  -1.415  -1.446  1.00  0.00     0.278 HD
BRANCH  13  18
HETATM   18  N4  UNL     1      -5.301  -0.101   1.763  1.00  0.00    -0.059 N 
ATOM     19  H43 UNL     1      -4.681  -0.898   1.906  1.00  0.00     0.275 HD
ATOM     20  H42 UNL     1      -5.027   0.455   2.573  1.00  0.00     0.275 HD
ATOM     21  H41 UNL     1      -6.283  -0.374   1.807  1.00  0.00     0.275 HD
ENDBRANCH  13  18
BRANCH  13  22
HETATM   22  C14 UNL     1      -5.917   1.752   0.424  1.00  0.00     0.296 C 
HETATM   23  O5  UNL     1      -6.734   1.976   1.332  1.00  0.00    -0.262 OA
BRANCH  22  24
HETATM   24  O6  UNL     1      -5.861   2.594  -0.664  1.00  0.00    -0.324 OA
HETATM   25  C15 UNL     1      -6.759   3.704  -0.698  1.00  0.00     0.213 C 
ENDBRANCH  22  24
ENDBRANCH  13  22
ENDBRANCH  10  11
ENDBRANCH   6  10
BRANCH   5  26
HETATM   26  C9  UNL     1      -1.168  -2.499   0.970  1.00  0.00     0.230 C 
HETATM   27  O3  UNL     1      -0.795  -3.500   1.722  1.00  0.00    -0.643 OA
HETATM   28  O4  UNL     1      -2.494  -2.257   0.853  1.00  0.00    -0.643 OA
ENDBRANCH   5  26
BRANCH   1  29
HETATM   29  N2  UNL     1       4.556  -1.326   0.244  1.00  0.00    -0.320 N 
HETATM   30  C4  UNL     1       4.994  -0.015  -0.099  1.00  0.00     0.270 C 
HETATM   31  O2  UNL     1       4.145   0.921  -0.282  1.00  0.00    -0.266 OA
ATOM     32  H2  UNL     1       5.234  -2.074   0.391  1.00  0.00     0.169 HD
BRANCH  30  33
HETATM   33  C2  UNL     1       6.393   0.324  -0.254  1.00  0.00     0.096 C 
HETATM   34  N1  UNL     1       6.755   1.503  -0.561  1.00  0.00    -0.266 N 
ATOM     35  H1  UNL     1       7.747   1.716  -0.663  1.00  0.00     0.194 HD
HETATM   36  C3  UNL     1       7.413  -0.735  -0.047  1.00  0.00     0.076 C 
BRANCH  34  37
HETATM   37  O1  UNL     1       5.830   2.486  -0.755  1.00  0.00    -0.285 OA
HETATM   38  C1  UNL     1       6.140   3.723  -1.369  1.00  0.00     0.237 C 
ENDBRANCH  34  37
ENDBRANCH  30  33
ENDBRANCH   1  29
TORSDOF 9
