REMARK  14 active torsions:
REMARK  status: ('A' for Active; 'I' for Inactive)
REMARK    1  A    between atoms: C2_2  and  C3_4 
REMARK    2  A    between atoms: C3_4  and  O2_5 
REMARK    3  A    between atoms: C3_4  and  C4_7 
REMARK    4  A    between atoms: C4_7  and  O3_9 
REMARK    5  A    between atoms: C4_7  and  C6_11 
REMARK    6  A    between atoms: C10_17  and  O6_18 
REMARK    7  A    between atoms: O6_18  and  C11_19 
REMARK    8  A    between atoms: C13_21  and  C14_22 
REMARK    9  A    between atoms: C14_22  and  N2_25 
REMARK   10  A    between atoms: N2_25  and  N3_27 
REMARK   11  A    between atoms: N3_27  and  N4_28 
REMARK   12  A    between atoms: C16_31  and  O7_32 
REMARK   13  A    between atoms: C17_34  and  O8_35 
REMARK   14  A    between atoms: C18_37  and  O9_38 
ROOT
HETATM    1  C14 UNL     1       4.936  -0.753   1.298  1.00  0.00     0.227 C 
HETATM    2  C15 UNL     1       4.560  -1.177   2.647  1.00  0.00     0.087 C 
HETATM    3  N1  UNL     1       4.254  -1.527   3.720  1.00  0.00    -0.195 NA
ENDROOT
BRANCH   1   4
HETATM    4  C13 UNL     1       3.772  -0.109   0.584  1.00  0.00     0.059 C 
HETATM    5  C12 UNL     1       2.599  -1.061   0.450  1.00  0.00     0.045 C 
HETATM    6  C11 UNL     1       1.452  -0.268  -0.098  1.00  0.00     0.156 C 
HETATM    7  C18 UNL     1       1.785   0.094  -1.529  1.00  0.00     0.178 C 
HETATM    8  C17 UNL     1       3.258  -0.073  -1.834  1.00  0.00     0.178 C 
HETATM    9  C16 UNL     1       4.137   0.484  -0.731  1.00  0.00     0.156 C 
BRANCH   6  10
HETATM   10  O6  UNL     1       0.229  -0.797  -0.014  1.00  0.00    -0.350 OA
BRANCH  10  11
HETATM   11  C10 UNL     1      -0.769  -0.188   0.679  1.00  0.00     0.296 C 
HETATM   12  C6  UNL     1      -1.957   0.070  -0.180  1.00  0.00     0.217 C 
HETATM   13  O4  UNL     1      -3.012  -0.534   0.464  1.00  0.00    -0.343 OA
HETATM   14  C7  UNL     1      -2.454  -1.524   1.226  1.00  0.00     0.160 C 
HETATM   15  C8  UNL     1      -2.262  -2.749   0.384  1.00  0.00     0.078 C 
HETATM   16  C9  UNL     1      -3.287  -1.876   2.445  1.00  0.00     0.078 C 
HETATM   17  O5  UNL     1      -1.253  -0.993   1.702  1.00  0.00    -0.323 OA
BRANCH  12  18
HETATM   18  C4  UNL     1      -2.212   1.548  -0.419  1.00  0.00     0.117 C 
HETATM   19  C5  UNL     1      -2.460   2.252   0.875  1.00  0.00     0.052 C 
BRANCH  18  20
HETATM   20  C3  UNL     1      -3.415   1.657  -1.361  1.00  0.00     0.223 C 
BRANCH  20  21
HETATM   21  C2  UNL     1      -4.636   1.097  -0.793  1.00  0.00     0.154 C 
HETATM   22  C1  UNL     1      -5.382   0.032  -1.504  1.00  0.00     0.094 C 
HETATM   23  O1  UNL     1      -5.050   1.503   0.271  1.00  0.00    -0.295 OA
ENDBRANCH  20  21
BRANCH  20  24
HETATM   24  O2  UNL     1      -3.149   1.038  -2.573  1.00  0.00    -0.385 OA
ATOM     25  H2  UNL     1      -2.354   1.403  -2.943  1.00  0.00     0.210 HD
ENDBRANCH  20  24
ENDBRANCH  18  20
BRANCH  18  26
HETATM   26  O3  UNL     1      -1.162   2.180  -1.069  1.00  0.00    -0.384 OA
ATOM     27  H3  UNL     1      -0.416   2.112  -0.485  1.00  0.00     0.210 HD
ENDBRANCH  18  26
ENDBRANCH  12  18
ENDBRANCH  10  11
ENDBRANCH   6  10
BRANCH   7  28
HETATM   28  O9  UNL     1       1.058  -0.814  -2.332  1.00  0.00    -0.390 OA
ATOM     29  H9  UNL     1       1.267  -0.587  -3.230  1.00  0.00     0.210 HD
ENDBRANCH   7  28
BRANCH   8  30
HETATM   30  O8  UNL     1       3.521   0.736  -2.964  1.00  0.00    -0.390 OA
ATOM     31  H8  UNL     1       2.970   0.387  -3.655  1.00  0.00     0.210 HD
ENDBRANCH   8  30
BRANCH   9  32
HETATM   32  O7  UNL     1       5.452   0.164  -1.038  1.00  0.00    -0.392 OA
ATOM     33  H7  UNL     1       5.685   0.543  -1.878  1.00  0.00     0.210 HD
ENDBRANCH   9  32
ENDBRANCH   1   4
BRANCH   1  34
HETATM   34  N2  UNL     1       6.018   0.200   1.446  1.00  0.00    -0.234 N 
ATOM     35  H2  UNL     1       6.902   0.013   0.973  1.00  0.00     0.198 HD
BRANCH  34  36
HETATM   36  N3  UNL     1       5.916   1.207   2.106  1.00  0.00    -0.247 NA
BRANCH  36  37
HETATM   37  N4  UNL     1       5.752   2.281   2.672  1.00  0.00    -0.261 N 
ATOM     38  H42 UNL     1       5.308   2.529   1.788  1.00  0.00     0.193 HD
ATOM     39  H41 UNL     1       5.666   3.131   3.229  1.00  0.00     0.193 HD
ENDBRANCH  36  37
ENDBRANCH  34  36
ENDBRANCH   1  34
TORSDOF 14
