REMARK  12 active torsions:
REMARK  status: ('A' for Active; 'I' for Inactive)
REMARK    1  A    between atoms: O1_2  and  C2_3 
REMARK    2  A    between atoms: C3_4  and  C4_5 
REMARK    3  A    between atoms: C4_5  and  C5_7 
REMARK    4  A    between atoms: C6_8  and  O3_9 
REMARK    5  A    between atoms: C7_11  and  C8_12 
REMARK    6  A    between atoms: C8_12  and  C9_13 
REMARK    7  A    between atoms: C13_17  and  O4_18 
REMARK    8  A    between atoms: C14_20  and  C15_21 
REMARK    9  A    between atoms: C17_24  and  O6_25 
REMARK   10  A    between atoms: C18_29  and  C19_30 
REMARK   11  A    between atoms: C23_34  and  C24_35 
REMARK   12  A    between atoms: C24_35  and  C25_36 
ROOT
HETATM    1  C25 UNL     1      -5.011  -0.915   1.477  1.00  0.00    -0.004 C 
HETATM    2  C26 UNL     1      -5.062  -1.724   2.506  1.00  0.00     0.015 C 
HETATM    3  C27 UNL     1      -5.812  -1.336   3.717  1.00  0.00     0.060 C 
HETATM    4  C28 UNL     1      -4.400  -3.019   2.482  1.00  0.00     0.094 C 
HETATM    5  N2  UNL     1      -3.890  -4.068   2.459  1.00  0.00    -0.192 NA
ENDROOT
BRANCH   1   6
HETATM    6  C24 UNL     1      -4.272  -1.239   0.227  1.00  0.00     0.072 C 
BRANCH   6   7
HETATM    7  C23 UNL     1      -3.227  -0.229  -0.073  1.00  0.00     0.004 A 
HETATM    8  C2  UNL     1      -2.007  -0.148   0.578  1.00  0.00     0.107 A 
HETATM    9  C3  UNL     1      -1.348   0.923   0.014  1.00  0.00     0.118 A 
HETATM   10  N1  UNL     1      -2.145   1.454  -0.932  1.00  0.00    -0.353 N 
HETATM   11  C18 UNL     1      -3.295   0.774  -1.008  1.00  0.00     0.027 A 
ATOM     12  H1  UNL     1      -1.906   2.260  -1.509  1.00  0.00     0.166 HD
BRANCH   8  13
HETATM   13  O1  UNL     1      -1.524  -0.956   1.587  1.00  0.00    -0.353 OA
HETATM   14  C1  UNL     1      -0.799  -2.123   1.299  1.00  0.00     0.210 C 
ENDBRANCH   8  13
BRANCH   9  15
HETATM   15  C4  UNL     1      -0.038   1.447   0.349  1.00  0.00     0.217 C 
HETATM   16  O2  UNL     1      -0.049   2.606   0.931  1.00  0.00    -0.285 OA
BRANCH  15  17
HETATM   17  C5  UNL     1       1.266   0.856   0.127  1.00  0.00     0.084 A 
HETATM   18  C6  UNL     1       2.348   1.267   0.888  1.00  0.00     0.092 A 
HETATM   19  C7  UNL     1       3.648   0.789   0.631  1.00  0.00     0.014 A 
HETATM   20  C13 UNL     1       3.876  -0.103  -0.385  1.00  0.00     0.091 A 
HETATM   21  C14 UNL     1       2.791  -0.512  -1.141  1.00  0.00     0.077 A 
HETATM   22  C17 UNL     1       1.487  -0.047  -0.903  1.00  0.00     0.099 A 
BRANCH  18  23
HETATM   23  O3  UNL     1       2.267   2.147   1.940  1.00  0.00    -0.359 OA
ATOM     24  H3  UNL     1       3.009   2.429   2.462  1.00  0.00     0.217 HD
ENDBRANCH  18  23
BRANCH  19  25
HETATM   25  C8  UNL     1       4.752   1.261   1.507  1.00  0.00     0.072 C 
BRANCH  25  26
HETATM   26  C9  UNL     1       5.858   0.310   1.606  1.00  0.00    -0.020 C 
HETATM   27  C10 UNL     1       7.104   0.676   1.351  1.00  0.00    -0.091 C 
HETATM   28  C11 UNL     1       7.514   2.045   0.950  1.00  0.00     0.042 C 
HETATM   29  C12 UNL     1       8.220  -0.334   1.456  1.00  0.00     0.042 C 
ENDBRANCH  25  26
ENDBRANCH  19  25
BRANCH  20  30
HETATM   30  O4  UNL     1       5.160  -0.506  -0.559  1.00  0.00    -0.359 OA
ATOM     31  H4  UNL     1       5.318  -1.124  -1.263  1.00  0.00     0.217 HD
ENDBRANCH  20  30
BRANCH  21  32
HETATM   32  C15 UNL     1       3.010  -1.471  -2.220  1.00  0.00     0.161 C 
HETATM   33  C16 UNL     1       1.959  -2.000  -3.122  1.00  0.00     0.097 C 
HETATM   34  O5  UNL     1       4.177  -1.914  -2.437  1.00  0.00    -0.293 OA
ENDBRANCH  21  32
BRANCH  22  35
HETATM   35  O6  UNL     1       0.529  -0.518  -1.704  1.00  0.00    -0.359 OA
ATOM     36  H6  UNL     1       0.680  -1.136  -2.409  1.00  0.00     0.217 HD
ENDBRANCH  22  35
ENDBRANCH  15  17
ENDBRANCH   9  15
BRANCH  11  37
HETATM   37  C19 UNL     1      -4.421   1.078  -1.946  1.00  0.00    -0.008 C 
HETATM   38  C20 UNL     1      -4.034   2.278  -2.789  1.00  0.00     0.021 C 
HETATM   39  C21 UNL     1      -5.701   1.417  -1.252  1.00  0.00     0.021 C 
HETATM   40  C22 UNL     1      -4.630  -0.079  -2.927  1.00  0.00     0.021 C 
ENDBRANCH  11  37
ENDBRANCH   6   7
ENDBRANCH   1   6
TORSDOF 12
