REMARK  11 active torsions:
REMARK  status: ('A' for Active; 'I' for Inactive)
REMARK    1  A    between atoms: C2_2  and  C3_3 
REMARK    2  A    between atoms: C2_2  and  C23_26 
REMARK    3  A    between atoms: C3_3  and  C4_4 
REMARK    4  A    between atoms: C4_4  and  C5_5 
REMARK    5  A    between atoms: C15_17  and  C16_18 
REMARK    6  A    between atoms: C23_26  and  O4_27 
REMARK    7  A    between atoms: C23_26  and  C24_29 
REMARK    8  A    between atoms: C23_26  and  C26_37 
REMARK    9  A    between atoms: C24_29  and  C25_30 
REMARK   10  A    between atoms: C25_30  and  O5_31 
REMARK   11  A    between atoms: N1_33  and  O6_35 
ROOT
HETATM    1  C5  UNL     1       0.208  -0.237   0.554  1.00  0.00     0.023 C 
HETATM    2  C6  UNL     1       0.410  -0.776  -0.834  1.00  0.00     0.013 C 
HETATM    3  C7  UNL     1       1.619  -1.553  -1.082  1.00  0.00    -0.005 C 
HETATM    4  C8  UNL     1       1.625  -2.956  -0.539  1.00  0.00     0.008 C 
HETATM    5  C9  UNL     1       1.939  -3.026   0.962  1.00  0.00     0.042 C 
HETATM    6  C10 UNL     1       1.924  -1.634   1.431  1.00  0.00     0.099 A 
HETATM    7  O1  UNL     1       1.549  -1.036   2.550  1.00  0.00    -0.362 OA
HETATM    8  C11 UNL     1       0.629  -1.205   1.551  1.00  0.00     0.093 A 
HETATM    9  C12 UNL     1      -0.440  -2.185   2.020  1.00  0.00     0.050 C 
HETATM   10  C13 UNL     1       3.064  -0.926   0.752  1.00  0.00     0.056 C 
HETATM   11  C14 UNL     1       3.531   0.315   1.432  1.00  0.00     0.177 C 
HETATM   12  O2  UNL     1       3.758   1.428   0.751  1.00  0.00    -0.381 OA
HETATM   13  C15 UNL     1       3.717   1.534  -0.582  1.00  0.00     0.157 C 
HETATM   14  C20 UNL     1       3.128   0.444  -1.376  1.00  0.00     0.047 C 
HETATM   15  C21 UNL     1       2.943  -0.884  -0.723  1.00  0.00    -0.029 C 
HETATM   16  C22 UNL     1       3.959  -1.828  -1.416  1.00  0.00     0.016 C 
ENDROOT
BRANCH   1  17
HETATM   17  C4  UNL     1      -1.068   0.504   0.690  1.00  0.00     0.008 C 
BRANCH  17  18
HETATM   18  C3  UNL     1      -2.334  -0.188   0.393  1.00  0.00     0.008 C 
BRANCH  18  19
HETATM   19  C2  UNL     1      -3.513   0.745   0.588  1.00  0.00     0.027 C 
HETATM   20  C1  UNL     1      -3.633   1.276   1.970  1.00  0.00     0.014 C 
BRANCH  19  21
HETATM   21  C23 UNL     1      -4.762   0.032   0.168  1.00  0.00     0.156 C 
BRANCH  21  22
HETATM   22  O4  UNL     1      -4.926  -1.032   1.109  1.00  0.00    -0.378 OA
ATOM     23  H4  UNL     1      -5.718  -1.484   0.843  1.00  0.00     0.211 HD
ENDBRANCH  21  22
BRANCH  21  24
HETATM   24  C24 UNL     1      -6.012   0.812   0.217  1.00  0.00     0.135 C 
BRANCH  24  25
HETATM   25  C25 UNL     1      -6.074   2.039  -0.604  1.00  0.00     0.138 C 
HETATM   26  N1  UNL     1      -6.099   3.188   0.023  1.00  0.00    -0.251 N 
ATOM     27  H1  UNL     1      -6.076   3.227   1.042  1.00  0.00     0.196 HD
BRANCH  25  28
HETATM   28  O5  UNL     1      -6.108   2.084  -1.985  1.00  0.00    -0.348 OA
ATOM     29  H5  UNL     1      -6.148   2.873  -2.513  1.00  0.00     0.219 HD
ENDBRANCH  25  28
BRANCH  26  30
HETATM   30  O6  UNL     1      -6.157   4.331  -0.717  1.00  0.00    -0.288 OA
ATOM     31  H6  UNL     1      -6.175   5.165  -0.262  1.00  0.00     0.244 HD
ENDBRANCH  26  30
ENDBRANCH  24  25
ENDBRANCH  21  24
BRANCH  21  32
HETATM   32  C26 UNL     1      -4.579  -0.596  -1.161  1.00  0.00     0.209 C 
HETATM   33  O7  UNL     1      -4.300  -0.010  -2.221  1.00  0.00    -0.646 OA
HETATM   34  O8  UNL     1      -4.724  -1.998  -1.302  1.00  0.00    -0.646 OA
ENDBRANCH  21  32
ENDBRANCH  19  21
ENDBRANCH  18  19
ENDBRANCH  17  18
ENDBRANCH   1  17
BRANCH  13  35
HETATM   35  C16 UNL     1       5.052   2.016  -1.039  1.00  0.00    -0.005 A 
HETATM   36  C17 UNL     1       5.699   3.054  -0.390  1.00  0.00     0.036 A 
HETATM   37  C18 UNL     1       6.892   3.254  -1.052  1.00  0.00     0.142 A 
HETATM   38  O3  UNL     1       6.950   2.399  -2.020  1.00  0.00    -0.334 OA
HETATM   39  C19 UNL     1       5.873   1.641  -2.049  1.00  0.00     0.151 A 
ENDBRANCH  13  35
TORSDOF 11
