REMARK  10 active torsions:
REMARK  status: ('A' for Active; 'I' for Inactive)
REMARK    1  A    between atoms: C2_2  and  C3_3 
REMARK    2  A    between atoms: C9_9  and  C10_10 
REMARK    3  A    between atoms: C10_10  and  C11_11 
REMARK    4  A    between atoms: C11_11  and  C12_12 
REMARK    5  A    between atoms: C16_16  and  C17_17 
REMARK    6  A    between atoms: C20_24  and  O1_25 
REMARK    7  A    between atoms: C22_28  and  O2_29 
REMARK    8  A    between atoms: C23_32  and  C25_34 
REMARK    9  A    between atoms: C25_34  and  O4_35 
REMARK   10  A    between atoms: O4_35  and  C26_36 
ROOT
HETATM    1  C3  UNL     1      -3.030  -1.559  -0.779  1.00  0.00     0.078 C 
HETATM    2  C4  UNL     1      -2.700  -1.344  -2.220  1.00  0.00     0.051 C 
HETATM    3  C5  UNL     1      -2.261  -2.815  -0.403  1.00  0.00     0.012 C 
HETATM    4  C6  UNL     1      -1.043  -2.984   0.118  1.00  0.00     0.016 C 
HETATM    5  C7  UNL     1      -0.004  -2.053   0.518  1.00  0.00     0.032 A 
HETATM    6  C8  UNL     1       0.097  -0.701   0.606  1.00  0.00     0.092 A 
HETATM    7  C9  UNL     1       1.237  -0.001   1.043  1.00  0.00    -0.011 A 
HETATM    8  C15 UNL     1       2.330  -0.814   1.420  1.00  0.00     0.002 A 
HETATM    9  C16 UNL     1       3.478  -0.190   1.796  1.00  0.00     0.017 A 
HETATM   10  C18 UNL     1       4.638  -1.023   2.066  1.00  0.00     0.018 A 
HETATM   11  C19 UNL     1       4.573  -2.360   1.966  1.00  0.00     0.038 A 
HETATM   12  C20 UNL     1       3.356  -2.990   1.593  1.00  0.00     0.079 A 
HETATM   13  C21 UNL     1       2.248  -2.211   1.326  1.00  0.00     0.043 A 
HETATM   14  C22 UNL     1       1.068  -2.818   0.873  1.00  0.00     0.092 A 
HETATM   15  O3  UNL     1      -0.802   0.350   0.330  1.00  0.00    -0.311 OA
HETATM   16  C23 UNL     1      -2.217   0.505   0.188  1.00  0.00     0.189 C 
HETATM   17  C24 UNL     1      -2.660   1.091   1.527  1.00  0.00     0.082 C 
HETATM   18  O6  UNL     1      -2.912  -0.617   0.110  1.00  0.00    -0.338 OA
ENDROOT
BRANCH  16  19
HETATM   19  C25 UNL     1      -2.478   1.529  -0.870  1.00  0.00     0.247 C 
BRANCH  19  20
HETATM   20  O4  UNL     1      -2.041   2.803  -0.780  1.00  0.00    -0.316 OA
BRANCH  20  21
HETATM   21  C26 UNL     1      -2.260   3.933  -0.116  1.00  0.00     0.254 C 
HETATM   22  C27 UNL     1      -1.485   5.210  -0.310  1.00  0.00     0.126 C 
HETATM   23  O5  UNL     1      -3.169   3.979   0.741  1.00  0.00    -0.266 OA
ENDBRANCH  20  21
ENDBRANCH  19  20
ENDBRANCH  16  19
BRANCH   1  24
HETATM   24  C2  UNL     1      -4.487  -1.999  -0.708  1.00  0.00     0.037 C 
HETATM   25  C1  UNL     1      -4.834  -3.242  -1.415  1.00  0.00     0.008 C 
ENDBRANCH   1  24
BRANCH   7  26
HETATM   26  C10 UNL     1       1.416   1.410   0.834  1.00  0.00     0.043 C 
BRANCH  26  27
HETATM   27  C11 UNL     1       2.077   1.941  -0.395  1.00  0.00     0.008 C 
BRANCH  27  28
HETATM   28  C12 UNL     1       1.569   1.702  -1.750  1.00  0.00    -0.023 C 
HETATM   29  C13 UNL     1       2.474   2.485  -2.757  1.00  0.00     0.009 C 
HETATM   30  C14 UNL     1       1.592   0.265  -2.240  1.00  0.00     0.009 C 
ENDBRANCH  27  28
ENDBRANCH  26  27
ENDBRANCH   7  26
BRANCH  14  31
HETATM   31  O2  UNL     1       1.078  -4.154   0.819  1.00  0.00    -0.359 OA
ATOM     32  H2  UNL     1       1.825  -4.687   1.066  1.00  0.00     0.217 HD
ENDBRANCH  14  31
BRANCH   9  33
HETATM   33  C17 UNL     1       3.588   1.088   2.417  1.00  0.00     0.121 C 
HETATM   34  N1  UNL     1       4.703   1.729   2.396  1.00  0.00    -0.387 N 
ATOM     35  H12 UNL     1       5.365   1.368   1.710  1.00  0.00     0.157 HD
ATOM     36  H11 UNL     1       4.782   2.644   2.840  1.00  0.00     0.157 HD
HETATM   37  N2  UNL     1       2.683   1.582   3.355  1.00  0.00    -0.082 NA
ENDBRANCH   9  33
BRANCH  12  38
HETATM   38  O1  UNL     1       3.412  -4.328   1.537  1.00  0.00    -0.360 OA
ATOM     39  H1  UNL     1       2.598  -4.749   1.288  1.00  0.00     0.217 HD
ENDBRANCH  12  38
TORSDOF 10
