REMARK  12 active torsions:
REMARK  status: ('A' for Active; 'I' for Inactive)
REMARK    1  A    between atoms: C2_2  and  C4_4 
REMARK    2  A    between atoms: C4_4  and  C5_5 
REMARK    3  A    between atoms: C6_6  and  C7_7 
REMARK    4  A    between atoms: C7_7  and  C17_24 
REMARK    5  A    between atoms: C8_8  and  C9_9 
REMARK    6  A    between atoms: C11_11  and  C12_12 
REMARK    7  A    between atoms: C12_12  and  O1_13 
REMARK    8  A    between atoms: C15_18  and  O3_19 
REMARK    9  A    between atoms: C15_18  and  C16_21 
REMARK   10  A    between atoms: C16_21  and  O4_22 
REMARK   11  A    between atoms: C22_31  and  C23_32 
REMARK   12  A    between atoms: C23_32  and  C24_33 
ROOT
HETATM    1  C7  UNL     1      -0.909   0.634   0.569  1.00  0.00    -0.042 C 
HETATM    2  C8  UNL     1      -1.594  -0.408   0.534  1.00  0.00     0.018 C 
ENDROOT
BRANCH   1   3
HETATM    3  C6  UNL     1      -0.171   1.758   0.608  1.00  0.00     0.016 C 
HETATM    4  C5  UNL     1      -0.254   2.810  -0.309  1.00  0.00     0.051 C 
BRANCH   4   5
HETATM    5  C4  UNL     1       0.555   3.911  -0.214  1.00  0.00    -0.152 C 
BRANCH   5   6
HETATM    6  C2  UNL     1       1.295   4.960  -0.167  1.00  0.00     0.048 C 
HETATM    7  C1  UNL     1       1.466   6.127  -1.008  1.00  0.00     0.022 C 
HETATM    8  C3  UNL     1       2.214   4.937   1.075  1.00  0.00     0.022 C 
ENDBRANCH   5   6
ENDBRANCH   4   5
ENDBRANCH   1   3
BRANCH   1   9
HETATM    9  C17 UNL     1       0.238  -0.270   1.645  1.00  0.00     0.119 C 
HETATM   10  C18 UNL     1       0.000   0.535   2.829  1.00  0.00     0.142 C 
HETATM   11  O5  UNL     1      -1.059   1.092   3.020  1.00  0.00    -0.297 OA
HETATM   12  C19 UNL     1       1.091   0.690   3.860  1.00  0.00     0.107 C 
HETATM   13  C20 UNL     1       2.405   0.809   3.111  1.00  0.00    -0.001 C 
HETATM   14  C21 UNL     1       2.566   0.395   1.908  1.00  0.00     0.002 C 
HETATM   15  S1  UNL     1       4.009   0.435   0.851  1.00  0.00    -0.124 SA
HETATM   16  C28 UNL     1       1.527  -0.329   1.119  1.00  0.00    -0.039 C 
HETATM   17  C22 UNL     1       3.496  -1.015  -0.149  1.00  0.00     0.069 C 
HETATM   18  C25 UNL     1       1.996  -0.699  -0.213  1.00  0.00    -0.009 C 
HETATM   19  C26 UNL     1       1.883   0.204  -1.378  1.00  0.00     0.021 C 
HETATM   20  C27 UNL     1       1.394  -2.058  -0.632  1.00  0.00     0.021 C 
BRANCH  17  21
HETATM   21  C23 UNL     1       3.864  -2.307   0.438  1.00  0.00     0.060 C 
BRANCH  21  22
HETATM   22  C24 UNL     1       5.359  -2.345   0.576  1.00  0.00     0.054 C 
HETATM   23  N1  UNL     1       6.026  -2.452  -0.536  1.00  0.00    -0.411 N 
ATOM     24  H12 UNL     1       5.549  -2.506  -1.436  1.00  0.00     0.155 HD
ATOM     25  H11 UNL     1       7.041  -2.478  -0.442  1.00  0.00     0.155 HD
ENDBRANCH  21  22
ENDBRANCH  17  21
ENDBRANCH   1   9
BRANCH   2  26
HETATM   26  C9  UNL     1      -2.588  -0.992  -0.352  1.00  0.00    -0.017 C 
HETATM   27  C10 UNL     1      -3.176  -2.149  -0.058  1.00  0.00    -0.009 C 
HETATM   28  C11 UNL     1      -4.182  -2.836  -0.852  1.00  0.00     0.039 C 
HETATM   29  C13 UNL     1      -4.340  -2.433  -2.265  1.00  0.00     0.092 C 
HETATM   30  C14 UNL     1      -3.451  -1.322  -2.635  1.00  0.00     0.168 C 
HETATM   31  O2  UNL     1      -3.151  -1.201  -3.811  1.00  0.00    -0.294 OA
HETATM   32  C15 UNL     1      -2.918  -0.363  -1.647  1.00  0.00     0.166 C 
BRANCH  28  33
HETATM   33  C12 UNL     1      -3.970  -4.343  -0.682  1.00  0.00     0.173 C 
BRANCH  33  34
HETATM   34  O1  UNL     1      -4.918  -4.978  -1.431  1.00  0.00    -0.400 OA
ATOM     35  H1  UNL     1      -4.786  -5.913  -1.326  1.00  0.00     0.209 HD
ENDBRANCH  33  34
ENDBRANCH  28  33
BRANCH  32  36
HETATM   36  O3  UNL     1      -1.772   0.222  -2.191  1.00  0.00    -0.375 OA
ATOM     37  H3  UNL     1      -1.984   0.627  -3.024  1.00  0.00     0.211 HD
ENDBRANCH  32  36
BRANCH  32  38
HETATM   38  C16 UNL     1      -3.944   0.733  -1.307  1.00  0.00     0.215 C 
BRANCH  38  39
HETATM   39  O4  UNL     1      -5.124   0.135  -0.900  1.00  0.00    -0.397 OA
ATOM     40  H4  UNL     1      -5.757   0.811  -0.690  1.00  0.00     0.209 HD
ENDBRANCH  38  39
ENDBRANCH  32  38
ENDBRANCH   2  26
TORSDOF 12
