REMARK  12 active torsions:
REMARK  status: ('A' for Active; 'I' for Inactive)
REMARK    1  A    between atoms: C2_2  and  C3_3 
REMARK    2  A    between atoms: C4_4  and  C5_5 
REMARK    3  A    between atoms: C6_6  and  C8_8 
REMARK    4  A    between atoms: C8_8  and  C9_9 
REMARK    5  A    between atoms: C8_8  and  C10_11 
REMARK    6  A    between atoms: C15_16  and  O2_17 
REMARK    7  A    between atoms: N1_23  and  O3_25 
REMARK    8  A    between atoms: C22_29  and  O4_30 
REMARK    9  A    between atoms: C23_33  and  C24_34 
REMARK   10  A    between atoms: C24_34  and  C25_35 
REMARK   11  A    between atoms: C25_35  and  C26_36 
REMARK   12  A    between atoms: C26_36  and  O6_39 
ROOT
HETATM    1  C10 UNL     1      -2.530   0.941   0.473  1.00  0.00     0.086 C 
HETATM    2  C11 UNL     1      -1.772  -0.271   0.907  1.00  0.00    -0.013 C 
HETATM    3  C12 UNL     1      -1.871  -1.573   1.048  1.00  0.00    -0.084 C 
HETATM    4  C13 UNL     1      -0.612  -2.172   1.577  1.00  0.00     0.043 C 
HETATM    5  C14 UNL     1      -2.881  -2.592   0.826  1.00  0.00     0.067 C 
HETATM    6  C15 UNL     1      -4.129  -2.440   1.702  1.00  0.00     0.151 C 
HETATM    7  C16 UNL     1      -4.799  -1.098   1.430  1.00  0.00     0.154 C 
HETATM    8  C17 UNL     1      -6.248  -1.239   1.034  1.00  0.00     0.040 C 
HETATM    9  C18 UNL     1      -6.526  -0.803  -0.379  1.00  0.00     0.058 C 
HETATM   10  C19 UNL     1      -6.080   0.573  -0.679  1.00  0.00     0.019 C 
HETATM   11  N1  UNL     1      -7.042   1.432  -0.706  1.00  0.00    -0.277 N 
ATOM     12  H1  UNL     1      -8.005   1.144  -0.531  1.00  0.00     0.193 HD
HETATM   13  C20 UNL     1      -4.678   1.111  -0.955  1.00  0.00     0.092 C 
HETATM   14  C21 UNL     1      -4.198   0.278  -2.143  1.00  0.00     0.022 C 
HETATM   15  C22 UNL     1      -3.958   0.759   0.301  1.00  0.00     0.178 C 
HETATM   16  O5  UNL     1      -4.164  -0.631   0.316  1.00  0.00    -0.346 OA
ENDROOT
BRANCH   1  17
HETATM   17  C8  UNL     1      -1.744   1.589  -0.642  1.00  0.00     0.088 C 
BRANCH  17  18
HETATM   18  C6  UNL     1      -0.380   1.936  -0.097  1.00  0.00    -0.072 C 
HETATM   19  C5  UNL     1       0.711   1.406  -0.640  1.00  0.00     0.003 C 
HETATM   20  C7  UNL     1      -0.180   2.863   1.037  1.00  0.00     0.044 C 
BRANCH  19  21
HETATM   21  C4  UNL     1       2.040   1.707  -0.163  1.00  0.00     0.001 C 
HETATM   22  C3  UNL     1       3.108   1.144  -0.746  1.00  0.00     0.006 C 
BRANCH  22  23
HETATM   23  C2  UNL     1       4.431   1.446  -0.267  1.00  0.00    -0.066 C 
HETATM   24  C1  UNL     1       4.541   2.409   0.906  1.00  0.00     0.048 C 
HETATM   25  C23 UNL     1       5.554   0.968  -0.743  1.00  0.00    -0.020 C 
BRANCH  25  26
HETATM   26  C24 UNL     1       5.614   0.034  -1.867  1.00  0.00     0.030 C 
BRANCH  26  27
HETATM   27  C25 UNL     1       6.129  -1.325  -1.569  1.00  0.00     0.040 C 
BRANCH  27  28
HETATM   28  C26 UNL     1       7.508  -1.470  -1.056  1.00  0.00     0.051 C 
HETATM   29  C27 UNL     1       7.835  -0.816   0.237  1.00  0.00     0.045 C 
HETATM   30  C28 UNL     1       7.746  -2.986  -0.885  1.00  0.00     0.045 C 
BRANCH  28  31
HETATM   31  O6  UNL     1       8.460  -1.020  -1.997  1.00  0.00    -0.391 OA
ATOM     32  H6  UNL     1       9.346  -1.113  -1.667  1.00  0.00     0.210 HD
ENDBRANCH  28  31
ENDBRANCH  27  28
ENDBRANCH  26  27
ENDBRANCH  25  26
ENDBRANCH  22  23
ENDBRANCH  19  21
ENDBRANCH  17  18
BRANCH  17  33
HETATM   33  C9  UNL     1      -2.312   2.922  -1.014  1.00  0.00     0.240 C 
HETATM   34  O1  UNL     1      -2.609   3.756  -0.210  1.00  0.00    -0.306 OA
ENDBRANCH  17  33
ENDBRANCH   1  17
BRANCH  15  35
HETATM   35  O4  UNL     1      -4.715   1.361   1.342  1.00  0.00    -0.364 OA
ATOM     36  H4  UNL     1      -5.651   1.242   1.229  1.00  0.00     0.213 HD
ENDBRANCH  15  35
BRANCH   6  37
HETATM   37  O2  UNL     1      -4.996  -3.444   1.327  1.00  0.00    -0.393 OA
ATOM     38  H2  UNL     1      -5.770  -3.350   1.870  1.00  0.00     0.210 HD
ENDBRANCH   6  37
BRANCH  11  39
HETATM   39  O3  UNL     1      -6.741   2.733  -0.974  1.00  0.00    -0.290 OA
ATOM     40  H3  UNL     1      -7.449   3.366  -0.994  1.00  0.00     0.244 HD
ENDBRANCH  11  39
TORSDOF 12
