REMARK  12 active torsions:
REMARK  status: ('A' for Active; 'I' for Inactive)
REMARK    1  A    between atoms: C2_2  and  C3_3 
REMARK    2  A    between atoms: C3_3  and  C4_4 
REMARK    3  A    between atoms: C4_4  and  O2_6 
REMARK    4  A    between atoms: O2_6  and  C5_7 
REMARK    5  A    between atoms: C8_10  and  C9_11 
REMARK    6  A    between atoms: C9_11  and  C10_12 
REMARK    7  A    between atoms: C10_12  and  C11_13 
REMARK    8  A    between atoms: C11_13  and  O3_16 
REMARK    9  A    between atoms: C14_18  and  O4_20 
REMARK   10  A    between atoms: C18_24  and  O5_25 
REMARK   11  A    between atoms: C20_28  and  C21_29 
REMARK   12  A    between atoms: C24_32  and  O6_33 
ROOT
HETATM    1  C5  UNL     1      -0.184   2.348   0.238  1.00  0.00     0.147 C 
HETATM    2  C6  UNL     1       1.184   2.143  -0.316  1.00  0.00     0.070 C 
HETATM    3  C7  UNL     1       1.726   0.783  -0.325  1.00  0.00    -0.047 C 
HETATM    4  C8  UNL     1       3.010   0.695  -0.557  1.00  0.00    -0.021 C 
HETATM    5  C14 UNL     1       0.888  -0.449  -0.028  1.00  0.00     0.086 C 
HETATM    6  C15 UNL     1       0.699  -1.259  -1.237  1.00  0.00     0.051 C 
HETATM    7  C16 UNL     1      -0.416  -0.113   0.632  1.00  0.00     0.075 C 
HETATM    8  C17 UNL     1      -1.465  -1.175   0.651  1.00  0.00     0.019 A 
HETATM    9  C18 UNL     1      -1.184  -2.498   0.899  1.00  0.00     0.076 A 
HETATM   10  C19 UNL     1      -2.197  -3.432   0.803  1.00  0.00     0.051 A 
HETATM   11  C20 UNL     1      -3.516  -3.149   0.472  1.00  0.00     0.004 A 
HETATM   12  C24 UNL     1      -3.821  -1.836   0.234  1.00  0.00     0.110 A 
HETATM   13  C25 UNL     1      -2.792  -0.889   0.328  1.00  0.00     0.112 A 
HETATM   14  O7  UNL     1      -3.208   0.443   0.076  1.00  0.00    -0.347 OA
HETATM   15  C26 UNL     1      -2.344   1.393   0.757  1.00  0.00     0.188 C 
HETATM   16  C27 UNL     1      -1.012   1.134   0.029  1.00  0.00     0.016 C 
HETATM   17  C28 UNL     1      -1.312   1.055  -1.434  1.00  0.00     0.021 C 
ENDROOT
BRANCH   4  18
HETATM   18  C9  UNL     1       3.992  -0.348  -0.678  1.00  0.00     0.030 C 
BRANCH  18  19
HETATM   19  C10 UNL     1       4.981  -0.445   0.458  1.00  0.00     0.040 C 
BRANCH  19  20
HETATM   20  C11 UNL     1       5.978  -1.523   0.130  1.00  0.00     0.051 C 
HETATM   21  C12 UNL     1       6.810  -1.267  -1.085  1.00  0.00     0.045 C 
HETATM   22  C13 UNL     1       6.860  -1.864   1.303  1.00  0.00     0.045 C 
BRANCH  20  23
HETATM   23  O3  UNL     1       5.284  -2.741  -0.176  1.00  0.00    -0.391 OA
ATOM     24  H3  UNL     1       5.914  -3.422  -0.383  1.00  0.00     0.210 HD
ENDBRANCH  20  23
ENDBRANCH  19  20
ENDBRANCH  18  19
ENDBRANCH   4  18
BRANCH   5  25
HETATM   25  O4  UNL     1       1.730  -1.047   0.948  1.00  0.00    -0.385 OA
ATOM     26  H4  UNL     1       1.206  -1.817   1.134  1.00  0.00     0.211 HD
ENDBRANCH   5  25
BRANCH   1  27
HETATM   27  O2  UNL     1      -0.814   3.388  -0.536  1.00  0.00    -0.315 OA
BRANCH  27  28
HETATM   28  C4  UNL     1      -1.075   4.660   0.028  1.00  0.00     0.259 C 
HETATM   29  O1  UNL     1      -0.727   4.763   1.201  1.00  0.00    -0.265 OA
BRANCH  28  30
HETATM   30  C3  UNL     1      -1.710   5.685  -0.832  1.00  0.00     0.111 C 
BRANCH  30  31
HETATM   31  C2  UNL     1      -1.861   7.009  -0.152  1.00  0.00     0.005 C 
HETATM   32  C1  UNL     1      -2.712   6.947   1.077  1.00  0.00     0.005 C 
ENDBRANCH  30  31
ENDBRANCH  28  30
ENDBRANCH  27  28
ENDBRANCH   1  27
BRANCH   9  33
HETATM   33  O5  UNL     1       0.103  -2.940   1.248  1.00  0.00    -0.360 OA
ATOM     34  H5  UNL     1       0.297  -3.854   1.419  1.00  0.00     0.217 HD
ENDBRANCH   9  33
BRANCH  12  35
HETATM   35  O6  UNL     1      -5.100  -1.395  -0.080  1.00  0.00    -0.357 OA
ATOM     36  H6  UNL     1      -5.312  -0.484  -0.245  1.00  0.00     0.217 HD
ENDBRANCH  12  35
BRANCH  11  37
HETATM   37  C21 UNL     1      -4.360  -4.293   0.077  1.00  0.00    -0.074 C 
HETATM   38  C22 UNL     1      -4.645  -5.312   1.130  1.00  0.00     0.044 C 
HETATM   39  C23 UNL     1      -5.294  -4.239  -1.042  1.00  0.00     0.044 C 
ENDBRANCH  11  37
TORSDOF 12
