REMARK  12 active torsions:
REMARK  status: ('A' for Active; 'I' for Inactive)
REMARK    1  A    between atoms: C3_3  and  O1_4 
REMARK    2  A    between atoms: C5_7  and  O2_8 
REMARK    3  A    between atoms: C9_13  and  C10_14 
REMARK    4  A    between atoms: C12_16  and  O3_17 
REMARK    5  A    between atoms: O3_17  and  C13_18 
REMARK    6  A    between atoms: C15_21  and  C16_22 
REMARK    7  A    between atoms: C17_23  and  C18_24 
REMARK    8  A    between atoms: C18_24  and  C19_25 
REMARK    9  A    between atoms: C19_25  and  C20_26 
REMARK   10  A    between atoms: C25_32  and  C26_33 
REMARK   11  A    between atoms: C26_33  and  O6_35 
REMARK   12  A    between atoms: C28_37  and  O7_38 
ROOT
HETATM    1  C1  UNL     1      -4.440  -2.338   2.255  1.00  0.00     0.019 C 
HETATM    2  C2  UNL     1      -3.991  -1.501   1.324  1.00  0.00    -0.032 C 
HETATM    3  C3  UNL     1      -3.576  -2.094   0.026  1.00  0.00     0.151 C 
HETATM    4  C4  UNL     1      -2.138  -2.536   0.183  1.00  0.00     0.068 C 
HETATM    5  C5  UNL     1      -1.409  -2.720  -1.106  1.00  0.00     0.128 C 
HETATM    6  C6  UNL     1      -1.289  -1.481  -1.947  1.00  0.00     0.033 C 
HETATM    7  C7  UNL     1      -1.263  -1.974  -3.404  1.00  0.00     0.017 C 
HETATM    8  C8  UNL     1      -0.035  -0.722  -1.695  1.00  0.00    -0.015 C 
HETATM    9  C9  UNL     1       0.073   0.506  -1.254  1.00  0.00    -0.054 C 
HETATM   10  C22 UNL     1      -1.061   1.396  -0.911  1.00  0.00     0.036 C 
HETATM   11  C23 UNL     1      -1.380   1.385   0.564  1.00  0.00     0.005 C 
HETATM   12  C24 UNL     1      -2.764   1.914   0.858  1.00  0.00     0.010 C 
HETATM   13  C25 UNL     1      -3.846   0.883   0.538  1.00  0.00     0.047 C 
HETATM   14  C28 UNL     1      -3.946  -0.068   1.671  1.00  0.00     0.155 C 
ENDROOT
BRANCH   9  15
HETATM   15  C10 UNL     1       1.476   1.049  -1.082  1.00  0.00     0.153 C 
HETATM   16  C11 UNL     1       1.702   2.266  -1.938  1.00  0.00     0.069 C 
HETATM   17  C12 UNL     1       2.322   3.321  -1.083  1.00  0.00     0.136 C 
HETATM   18  C14 UNL     1       3.493   2.647  -0.354  1.00  0.00     0.068 C 
HETATM   19  C15 UNL     1       2.876   1.681   0.622  1.00  0.00     0.147 C 
HETATM   20  O5  UNL     1       1.556   1.369   0.294  1.00  0.00    -0.372 OA
BRANCH  17  21
HETATM   21  O3  UNL     1       2.665   4.497  -1.702  1.00  0.00    -0.323 OA
BRANCH  21  22
HETATM   22  C13 UNL     1       2.226   5.764  -1.427  1.00  0.00     0.398 C 
HETATM   23  O4  UNL     1       1.400   5.876  -0.486  1.00  0.00    -0.276 OA
ENDBRANCH  21  22
ENDBRANCH  17  21
BRANCH  19  24
HETATM   24  C16 UNL     1       3.624   0.428   0.779  1.00  0.00     0.001 C 
HETATM   25  C17 UNL     1       4.870   0.231   0.440  1.00  0.00    -0.028 C 
BRANCH  25  26
HETATM   26  C18 UNL     1       5.559  -1.060   0.628  1.00  0.00     0.027 C 
BRANCH  26  27
HETATM   27  C19 UNL     1       4.647  -2.098   1.252  1.00  0.00     0.003 C 
BRANCH  27  28
HETATM   28  C20 UNL     1       5.480  -3.373   1.390  1.00  0.00    -0.004 C 
HETATM   29  C21 UNL     1       6.687  -3.098   2.279  1.00  0.00     0.005 C 
ENDBRANCH  27  28
ENDBRANCH  26  27
ENDBRANCH  25  26
ENDBRANCH  19  24
ENDBRANCH   9  15
BRANCH   5  30
HETATM   30  O2  UNL     1      -0.120  -3.152  -0.803  1.00  0.00    -0.395 OA
ATOM     31  H2  UNL     1       0.344  -3.269  -1.624  1.00  0.00     0.210 HD
ENDBRANCH   5  30
BRANCH  13  32
HETATM   32  C26 UNL     1      -5.176   1.564   0.280  1.00  0.00     0.120 C 
HETATM   33  C27 UNL     1      -5.098   2.522  -0.885  1.00  0.00     0.040 C 
BRANCH  32  34
HETATM   34  O6  UNL     1      -6.077   0.558  -0.076  1.00  0.00    -0.395 OA
ATOM     35  H6  UNL     1      -6.910   0.985  -0.238  1.00  0.00     0.210 HD
ENDBRANCH  32  34
ENDBRANCH  13  32
BRANCH   3  36
HETATM   36  O1  UNL     1      -4.348  -3.267  -0.177  1.00  0.00    -0.391 OA
ATOM     37  H1  UNL     1      -4.083  -3.646  -1.007  1.00  0.00     0.210 HD
ENDBRANCH   3  36
BRANCH  14  38
HETATM   38  O7  UNL     1      -2.995   0.180   2.680  1.00  0.00    -0.391 OA
ATOM     39  H7  UNL     1      -2.966   1.103   2.903  1.00  0.00     0.210 HD
ENDBRANCH  14  38
TORSDOF 12
