REMARK  9 active torsions:
REMARK  status: ('A' for Active; 'I' for Inactive)
REMARK    1  A    between atoms: N1_2  and  C2_5 
REMARK    2  A    between atoms: C2_5  and  C3_6 
REMARK    3  A    between atoms: C3_6  and  C4_7 
REMARK    4  A    between atoms: C4_7  and  N2_8 
REMARK    5  A    between atoms: N2_8  and  C5_10 
REMARK    6  A    between atoms: C6_13  and  N4_14 
REMARK    7  A    between atoms: N4_14  and  N5_16 
REMARK    8  A    between atoms: N5_16  and  C7_18 
REMARK    9  A    between atoms: C9_24  and  C10_25 
ROOT
HETATM    1  C5  UNL     1       0.526  -0.741   0.752  1.00  0.00     0.136 A 
HETATM    2  N3  UNL     1       1.195  -1.838   0.371  1.00  0.00    -0.174 N 
ATOM      3  H3  UNL     1       2.199  -1.758   0.213  1.00  0.00     0.186 HD
HETATM    4  C6  UNL     1       0.609  -3.055   0.183  1.00  0.00     0.699 A 
HETATM    5  N6  UNL     1      -0.691  -3.199   0.377  1.00  0.00    -0.176 N 
ATOM      6  H6  UNL     1      -1.141  -4.104   0.239  1.00  0.00     0.185 HD
HETATM    7  C8  UNL     1      -1.407  -2.129   0.760  1.00  0.00     0.148 A 
HETATM    8  N7  UNL     1      -2.808  -2.326   0.962  1.00  0.00    -0.081 NA
HETATM    9  C9  UNL     1      -0.875  -0.892   0.963  1.00  0.00     0.080 A 
ENDROOT
BRANCH   9  10
HETATM   10  C10 UNL     1      -1.663   0.264   1.374  1.00  0.00     0.093 A 
HETATM   11  N8  UNL     1      -1.913   0.642   2.634  1.00  0.00    -0.283 N 
HETATM   12  N9  UNL     1      -2.642   1.712   2.597  1.00  0.00    -0.238 N 
ATOM     13  H8  UNL     1      -1.586   0.169   3.477  1.00  0.00     0.188 HD
HETATM   14  N10 UNL     1      -2.880   2.048   1.345  1.00  0.00    -0.254 N 
ATOM     15  H9  UNL     1      -2.981   2.219   3.415  1.00  0.00     0.208 HD
HETATM   16  C11 UNL     1      -2.287   1.170   0.547  1.00  0.00     0.085 A 
HETATM   17  C15 UNL     1      -3.697   3.247   1.185  1.00  0.00     0.318 C 
HETATM   18  C12 UNL     1      -2.175   0.990  -0.941  1.00  0.00     0.229 C 
HETATM   19  O2  UNL     1      -2.641   2.113  -1.589  1.00  0.00    -0.383 OA
HETATM   20  C13 UNL     1      -4.035   2.103  -1.663  1.00  0.00     0.194 C 
HETATM   21  C14 UNL     1      -4.566   3.343  -0.933  1.00  0.00     0.196 C 
HETATM   22  O3  UNL     1      -4.792   2.953   0.378  1.00  0.00    -0.368 OA
ENDBRANCH   9  10
BRANCH   1  23
HETATM   23  N2  UNL     1       1.015   0.385   0.938  1.00  0.00    -0.355 N 
ATOM     24  H2  UNL     1       0.259   1.009   1.221  1.00  0.00     0.166 HD
BRANCH  23  25
HETATM   25  C4  UNL     1       2.169   1.116   0.912  1.00  0.00     0.064 C 
BRANCH  25  26
HETATM   26  C3  UNL     1       3.441   0.518   0.374  1.00  0.00     0.072 C 
BRANCH  26  27
HETATM   27  C2  UNL     1       4.506   1.619   0.487  1.00  0.00     0.237 C 
BRANCH  27  28
HETATM   28  N1  UNL     1       5.781   1.181   0.002  1.00  0.00    -0.079 N 
HETATM   29  C1  UNL     1       5.794   0.968  -1.430  1.00  0.00     0.267 C 
ATOM     30  H12 UNL     1       6.093   0.346   0.498  1.00  0.00     0.276 HD
ATOM     31  H11 UNL     1       6.520   1.826   0.282  1.00  0.00     0.276 HD
ENDBRANCH  27  28
ENDBRANCH  26  27
ENDBRANCH  25  26
ENDBRANCH  23  25
ENDBRANCH   1  23
BRANCH   4  32
HETATM   32  N4  UNL     1       1.325  -4.072  -0.189  1.00  0.00    -0.130 N 
ATOM     33  H4  UNL     1       2.328  -3.966  -0.342  1.00  0.00     0.205 HD
BRANCH  32  34
HETATM   34  N5  UNL     1       0.715  -5.307  -0.377  1.00  0.00    -0.263 N 
ATOM     35  H5  UNL     1       0.261  -5.755   0.419  1.00  0.00     0.190 HD
BRANCH  34  36
HETATM   36  C7  UNL     1       0.698  -5.968  -1.628  1.00  0.00     0.369 C 
HETATM   37  O1  UNL     1       1.259  -5.409  -2.604  1.00  0.00    -0.282 OA
ENDBRANCH  34  36
ENDBRANCH  32  34
ENDBRANCH   4  32
TORSDOF 9
