REMARK  11 active torsions:
REMARK  status: ('A' for Active; 'I' for Inactive)
REMARK       I    between atoms: N1_2  and  C2_4 
REMARK    1  A    between atoms: C2_4  and  C3_6 
REMARK    2  A    between atoms: C4_7  and  O2_8 
REMARK    3  A    between atoms: C5_10  and  N2_11 
REMARK    4  A    between atoms: N3_16  and  C9_17 
REMARK    5  A    between atoms: C9_17  and  O3_18 
REMARK    6  A    between atoms: C10_20  and  N4_21 
REMARK    7  A    between atoms: N4_21  and  C11_23 
REMARK    8  A    between atoms: C11_23  and  C12_24 
REMARK    9  A    between atoms: C12_24  and  N5_25 
REMARK   10  A    between atoms: N5_25  and  S2_27 
REMARK   11  A    between atoms: S2_27  and  N6_28 
ROOT
HETATM    1  C3  UNL     1      -0.667  -0.335   0.738  1.00  0.00     0.111 A 
HETATM    2  C4  UNL     1      -1.869  -0.013   1.309  1.00  0.00     0.115 A 
HETATM    3  C5  UNL     1      -2.350   1.289   1.246  1.00  0.00     0.103 A 
HETATM    4  C8  UNL     1      -1.597   2.216   0.607  1.00  0.00     0.139 A 
HETATM    5  S1  UNL     1      -2.210   3.758   0.552  1.00  0.00    -0.057 SA
HETATM    6  N3  UNL     1      -0.386   1.934   0.023  1.00  0.00    -0.276 N 
HETATM    7  C10 UNL     1       0.097   0.677   0.077  1.00  0.00     0.129 A 
ENDROOT
BRANCH   7   8
HETATM    8  N4  UNL     1       1.373   0.354  -0.400  1.00  0.00    -0.373 N 
ATOM      9  H4  UNL     1       1.705  -0.562  -0.098  1.00  0.00     0.161 HD
BRANCH   8  10
HETATM   10  C11 UNL     1       2.300   1.058  -1.227  1.00  0.00     0.141 C 
BRANCH  10  11
HETATM   11  C12 UNL     1       3.500   0.131  -1.598  1.00  0.00     0.153 C 
BRANCH  11  12
HETATM   12  N5  UNL     1       2.997  -1.018  -2.325  1.00  0.00    -0.301 N 
ATOM     13  H5  UNL     1       2.016  -1.182  -2.550  1.00  0.00     0.173 HD
BRANCH  12  14
HETATM   14  S2  UNL     1       4.280  -2.054  -2.749  1.00  0.00     0.312 S 
HETATM   15  O4  UNL     1       3.728  -3.463  -2.859  1.00  0.00    -0.183 OA
HETATM   16  O5  UNL     1       5.363  -2.113  -1.706  1.00  0.00    -0.183 OA
BRANCH  14  17
HETATM   17  N6  UNL     1       4.960  -1.665  -4.289  1.00  0.00    -0.312 N 
ATOM     18  H62 UNL     1       4.620  -0.897  -4.868  1.00  0.00     0.170 HD
ATOM     19  H61 UNL     1       5.729  -2.286  -4.543  1.00  0.00     0.170 HD
ENDBRANCH  14  17
ENDBRANCH  12  14
ENDBRANCH  11  12
ENDBRANCH  10  11
ENDBRANCH   8  10
ENDBRANCH   7   8
BRANCH   1  20
HETATM   20  C2  UNL     1      -0.235  -1.723   0.776  1.00  0.00     0.257 C 
HETATM   21  N1  UNL     1      -1.005  -2.739   1.398  1.00  0.00    -0.361 N 
HETATM   22  C1  UNL     1      -0.427  -4.133   1.357  1.00  0.00     0.149 C 
ATOM     23  H1  UNL     1      -1.899  -2.539   1.847  1.00  0.00     0.162 HD
HETATM   24  O1  UNL     1       0.870  -2.131   0.250  1.00  0.00    -0.267 OA
ENDBRANCH   1  20
BRANCH   6  25
HETATM   25  C9  UNL     1       0.244   3.028  -0.591  1.00  0.00     0.233 C 
BRANCH  25  26
HETATM   26  O3  UNL     1      -0.372   4.179  -0.525  1.00  0.00    -0.356 OA
ATOM     27  H3  UNL     1       0.054   4.919  -0.941  1.00  0.00     0.218 HD
ENDBRANCH  25  26
ENDBRANCH   6  25
BRANCH   2  28
HETATM   28  O2  UNL     1      -2.686  -0.912   1.977  1.00  0.00    -0.357 OA
ATOM     29  H2  UNL     1      -3.520  -0.689   2.373  1.00  0.00     0.217 HD
ENDBRANCH   2  28
BRANCH   3  30
HETATM   30  N2  UNL     1      -3.605   1.641   1.838  1.00  0.00    -0.385 N 
HETATM   31  C6  UNL     1      -3.596   2.080   3.216  1.00  0.00     0.149 C 
HETATM   32  C7  UNL     1      -4.870   1.582   1.141  1.00  0.00     0.149 C 
ENDBRANCH   3  30
TORSDOF 11
