REMARK  8 active torsions:
REMARK  status: ('A' for Active; 'I' for Inactive)
REMARK    1  A    between atoms: N1_1  and  C1_4 
REMARK    2  A    between atoms: C2_7  and  N3_8 
REMARK    3  A    between atoms: N4_11  and  C5_12 
REMARK    4  A    between atoms: C5_12  and  N5_13 
REMARK    5  A    between atoms: N5_13  and  C6_16 
REMARK    6  A    between atoms: C6_16  and  C7_17 
REMARK    7  A    between atoms: C7_17  and  N6_18 
REMARK    8  A    between atoms: C14_30  and  N9_31 
ROOT
HETATM    1  N3  UNL     1      -2.964   0.016  -0.183  1.00  0.00    -0.362 N 
HETATM    2  C3  UNL     1      -2.115  -1.160  -0.219  1.00  0.00     0.144 C 
HETATM    3  C4  UNL     1      -0.653  -0.825  -0.315  1.00  0.00     0.138 C 
HETATM    4  N4  UNL     1      -0.237   0.234   0.526  1.00  0.00    -0.388 N 
HETATM    5  C12 UNL     1      -1.095   1.390   0.578  1.00  0.00     0.138 C 
HETATM    6  C13 UNL     1      -2.325   1.283  -0.308  1.00  0.00     0.144 C 
ENDROOT
BRANCH   4   7
HETATM    7  C5  UNL     1       1.157   0.578   0.440  1.00  0.00     0.352 C 
BRANCH   7   8
HETATM    8  N5  UNL     1       1.932  -0.621   0.710  1.00  0.00    -0.058 N 
ATOM      9  H52 UNL     1       1.616  -1.074   1.568  1.00  0.00     0.279 HD
ATOM     10  H51 UNL     1       1.708  -1.358   0.041  1.00  0.00     0.279 HD
BRANCH   8  11
HETATM   11  C6  UNL     1       3.356  -0.374   0.750  1.00  0.00     0.255 C 
BRANCH  11  12
HETATM   12  C7  UNL     1       3.871  -0.025  -0.624  1.00  0.00     0.174 C 
BRANCH  12  13
HETATM   13  N6  UNL     1       5.311   0.199  -0.556  1.00  0.00    -0.192 N 
HETATM   14  C8  UNL     1       5.773   1.449  -0.332  1.00  0.00     0.110 A 
HETATM   15  C9  UNL     1       7.133   1.707  -0.258  1.00  0.00     0.035 A 
HETATM   16  C10 UNL     1       7.998   0.658  -0.419  1.00  0.00     0.107 A 
HETATM   17  N7  UNL     1       7.555  -0.579  -0.641  1.00  0.00    -0.202 N 
HETATM   18  C11 UNL     1       6.206  -0.788  -0.706  1.00  0.00     0.677 A 
ATOM     19  H7  UNL     1       8.209  -1.353  -0.760  1.00  0.00     0.183 HD
HETATM   20  N8  UNL     1       5.796  -2.004  -0.913  1.00  0.00    -0.234 N 
ATOM     21  H82 UNL     1       4.789  -2.160  -0.962  1.00  0.00     0.174 HD
ATOM     22  H81 UNL     1       6.477  -2.755  -1.027  1.00  0.00     0.174 HD
ENDBRANCH  12  13
ENDBRANCH  11  12
ENDBRANCH   8  11
ENDBRANCH   7   8
ENDBRANCH   4   7
BRANCH   1  23
HETATM   23  C2  UNL     1      -4.342  -0.232  -0.019  1.00  0.00     0.158 A 
HETATM   24  N2  UNL     1      -4.810  -0.682   1.199  1.00  0.00    -0.174 N 
HETATM   25  C1  UNL     1      -6.072  -0.960   1.447  1.00  0.00     0.680 A 
ATOM     26  H2  UNL     1      -4.136  -0.807   1.954  1.00  0.00     0.186 HD
HETATM   27  N10 UNL     1      -7.006  -0.813   0.496  1.00  0.00    -0.154 N 
HETATM   28  C15 UNL     1      -6.615  -0.377  -0.713  1.00  0.00     0.296 A 
ATOM     29  H10 UNL     1      -7.985  -1.026   0.685  1.00  0.00     0.187 HD
HETATM   30  C14 UNL     1      -5.290  -0.080  -0.993  1.00  0.00     0.215 A 
HETATM   31  O3  UNL     1      -7.493  -0.242  -1.605  1.00  0.00    -0.265 OA
BRANCH  25  32
HETATM   32  N1  UNL     1      -6.372  -1.396   2.638  1.00  0.00    -0.234 N 
ATOM     33  H12 UNL     1      -5.662  -1.508   3.361  1.00  0.00     0.174 HD
ATOM     34  H11 UNL     1      -7.350  -1.611   2.830  1.00  0.00     0.174 HD
ENDBRANCH  25  32
BRANCH  30  35
HETATM   35  N9  UNL     1      -4.935   0.376  -2.279  1.00  0.00    -0.106 N 
HETATM   36  O1  UNL     1      -4.704   1.604  -2.419  1.00  0.00    -0.531 OA
HETATM   37  O2  UNL     1      -4.852  -0.457  -3.364  1.00  0.00    -0.531 OA
ENDBRANCH  30  35
ENDBRANCH   1  23
TORSDOF 8
