REMARK  8 active torsions:
REMARK  status: ('A' for Active; 'I' for Inactive)
REMARK    1  A    between atoms: C5_9  and  N3_10 
REMARK    2  A    between atoms: N4_13  and  C6_14 
REMARK    3  A    between atoms: C6_14  and  C7_15 
REMARK    4  A    between atoms: C7_15  and  N5_16 
REMARK    5  A    between atoms: N5_16  and  C8_18 
REMARK    6  A    between atoms: C8_18  and  C9_19 
REMARK    7  A    between atoms: C9_19  and  O2_20 
REMARK    8  A    between atoms: O2_20  and  C10_21 
ROOT
HETATM    1  C1  UNL     1      -5.204   1.693   3.052  1.00  0.00     0.164 C 
HETATM    2  N1  UNL     1      -4.588   1.505   1.744  1.00  0.00    -0.269 N 
HETATM    3  C2  UNL     1      -3.299   1.116   1.646  1.00  0.00     0.282 A 
HETATM    4  O1  UNL     1      -2.622   0.916   2.687  1.00  0.00    -0.265 OA
HETATM    5  C3  UNL     1      -2.731   0.942   0.400  1.00  0.00     0.164 A 
HETATM    6  C4  UNL     1      -3.483   1.165  -0.751  1.00  0.00     0.160 A 
HETATM    7  N2  UNL     1      -2.702   0.927  -1.827  1.00  0.00    -0.174 N 
ATOM      8  H2  UNL     1      -2.991   1.012  -2.801  1.00  0.00     0.186 HD
HETATM    9  C5  UNL     1      -1.482   0.560  -1.402  1.00  0.00     0.680 A 
HETATM   10  N4  UNL     1      -1.506   0.571  -0.059  1.00  0.00    -0.173 N 
HETATM   11  N8  UNL     1      -4.755   1.549  -0.604  1.00  0.00    -0.287 N 
HETATM   12  C15 UNL     1      -5.579   1.792  -1.781  1.00  0.00     0.163 C 
HETATM   13  C16 UNL     1      -5.296   1.716   0.622  1.00  0.00     0.332 A 
HETATM   14  O4  UNL     1      -6.506   2.080   0.700  1.00  0.00    -0.246 OA
ENDROOT
BRANCH  10  15
HETATM   15  C6  UNL     1      -0.407   0.241   0.843  1.00  0.00     0.167 C 
BRANCH  15  16
HETATM   16  C7  UNL     1      -0.444  -1.224   1.150  1.00  0.00     0.134 C 
BRANCH  16  17
HETATM   17  N5  UNL     1       0.563  -1.685   2.036  1.00  0.00    -0.418 N 
ATOM     18  H5  UNL     1       0.336  -2.014   2.974  1.00  0.00     0.153 HD
BRANCH  17  19
HETATM   19  C8  UNL     1       1.908  -1.669   1.559  1.00  0.00     0.140 C 
BRANCH  19  20
HETATM   20  C9  UNL     1       2.176  -2.667   0.456  1.00  0.00     0.196 C 
BRANCH  20  21
HETATM   21  O2  UNL     1       3.443  -2.692  -0.032  1.00  0.00    -0.334 OA
BRANCH  21  22
HETATM   22  C10 UNL     1       4.240  -1.813  -0.683  1.00  0.00     0.144 A 
HETATM   23  C11 UNL     1       3.824  -0.552  -1.024  1.00  0.00     0.058 A 
HETATM   24  C12 UNL     1       4.644   0.365  -1.694  1.00  0.00     0.036 A 
HETATM   25  C13 UNL     1       5.905  -0.024  -2.015  1.00  0.00     0.114 A 
HETATM   26  N6  UNL     1       6.798   0.851  -2.694  1.00  0.00    -0.097 NA
HETATM   27  C14 UNL     1       6.323  -1.283  -1.677  1.00  0.00     0.271 A 
HETATM   28  O3  UNL     1       7.512  -1.617  -1.993  1.00  0.00    -0.266 OA
HETATM   29  N7  UNL     1       5.523  -2.139  -1.037  1.00  0.00    -0.302 N 
ATOM     30  H7  UNL     1       5.879  -3.066  -0.804  1.00  0.00     0.171 HD
ENDBRANCH  21  22
ENDBRANCH  20  21
ENDBRANCH  19  20
ENDBRANCH  17  19
ENDBRANCH  16  17
ENDBRANCH  15  16
ENDBRANCH  10  15
BRANCH   9  31
HETATM   31  N3  UNL     1      -0.470   0.249  -2.169  1.00  0.00    -0.234 N 
ATOM     32  H32 UNL     1      -0.452   0.241  -3.189  1.00  0.00     0.174 HD
ATOM     33  H31 UNL     1       0.457  -0.030  -1.846  1.00  0.00     0.174 HD
ENDBRANCH   9  31
TORSDOF 8
