REMARK  2 active torsions:
REMARK  status: ('A' for Active; 'I' for Inactive)
REMARK    1  A    between atoms: C2_2  and  C3_3 
REMARK    2  A    between atoms: C3_3  and  C4_4 
ROOT
HETATM    1  C3  UNL     1      -0.493   0.251   0.045  1.00  0.00     0.151 C 
HETATM    2  C6  UNL     1       0.369   0.664   1.218  1.00  0.00     0.274 C 
HETATM    3  N1  UNL     1       1.331  -0.410   1.275  1.00  0.00    -0.039 N 
ATOM      4  H11 UNL     1       1.012  -1.243   1.770  1.00  0.00     0.280 HD
ATOM      5  H12 UNL     1       2.133  -0.233   1.879  1.00  0.00     0.280 HD
HETATM    6  C7  UNL     1       1.659  -0.623  -0.124  1.00  0.00     0.280 C 
HETATM    7  C8  UNL     1       2.625   0.424  -0.604  1.00  0.00     0.078 C 
HETATM    8  C9  UNL     1       2.213  -1.994  -0.384  1.00  0.00     0.078 C 
HETATM    9  N2  UNL     1       0.412  -0.427  -0.847  1.00  0.00    -0.031 N 
ATOM     10  H21 UNL     1       0.537   0.058  -1.735  1.00  0.00     0.281 HD
ATOM     11  H22 UNL     1       0.028  -1.293  -1.224  1.00  0.00     0.281 HD
ENDROOT
BRANCH   1  12
HETATM   12  C2  UNL     1      -1.091   1.453  -0.626  1.00  0.00     0.036 C 
HETATM   13  C1  UNL     1      -1.993   2.239   0.300  1.00  0.00     0.007 C 
ENDBRANCH   1  12
BRANCH   1  14
HETATM   14  C4  UNL     1      -1.512  -0.728   0.548  1.00  0.00     0.036 C 
HETATM   15  C5  UNL     1      -2.403  -1.298  -0.503  1.00  0.00     0.007 C 
ENDBRANCH   1  14
TORSDOF 2
