REMARK  4 active torsions:
REMARK  status: ('A' for Active; 'I' for Inactive)
REMARK    1  A    between atoms: C4_4  and  C6_6 
REMARK    2  A    between atoms: C6_6  and  C7_7 
REMARK    3  A    between atoms: C7_7  and  N1_8 
REMARK    4  A    between atoms: C10_14  and  N2_15 
ROOT
HETATM    1  C1  UNL     1      -1.246   1.876   0.218  1.00  0.00     0.012 C 
HETATM    2  C2  UNL     1      -1.375   0.686  -0.664  1.00  0.00     0.013 C 
HETATM    3  C3  UNL     1      -0.082   0.061  -1.110  1.00  0.00     0.015 C 
HETATM    4  C4  UNL     1       0.654  -0.705  -0.116  1.00  0.00    -0.042 C 
HETATM    5  C5  UNL     1       1.503  -1.739  -0.904  1.00  0.00     0.015 C 
HETATM    6  C8  UNL     1      -0.197  -1.578   0.787  1.00  0.00     0.011 C 
HETATM    7  C9  UNL     1      -1.546  -0.986   1.075  1.00  0.00     0.034 C 
HETATM    8  C10 UNL     1      -2.243  -0.409  -0.108  1.00  0.00     0.187 C 
ENDROOT
BRANCH   4   9
HETATM    9  C6  UNL     1       1.646  -0.011   0.750  1.00  0.00     0.036 C 
BRANCH   9  10
HETATM   10  C7  UNL     1       2.809   0.656   0.155  1.00  0.00     0.230 C 
BRANCH  10  11
HETATM   11  N1  UNL     1       2.569   1.740  -0.745  1.00  0.00    -0.079 N 
ATOM     12  H13 UNL     1       1.946   1.426  -1.489  1.00  0.00     0.274 HD
ATOM     13  H12 UNL     1       1.984   2.436  -0.283  1.00  0.00     0.274 HD
ATOM     14  H11 UNL     1       3.378   2.204  -1.159  1.00  0.00     0.274 HD
ENDBRANCH  10  11
ENDBRANCH   9  10
ENDBRANCH   4   9
BRANCH   8  15
HETATM   15  N2  UNL     1      -3.488   0.181   0.343  1.00  0.00    -0.075 N 
ATOM     16  H23 UNL     1      -3.344   0.943   1.006  1.00  0.00     0.274 HD
ATOM     17  H22 UNL     1      -3.955   0.719  -0.387  1.00  0.00     0.274 HD
ATOM     18  H21 UNL     1      -4.077  -0.562   0.720  1.00  0.00     0.274 HD
ENDBRANCH   8  15
TORSDOF 4
