REMARK  2 active torsions:
REMARK  status: ('A' for Active; 'I' for Inactive)
REMARK    1  A    between atoms: C6_7  and  N1_8 
REMARK    2  A    between atoms: N1_8  and  C7_10 
ROOT
HETATM    1  C1  UNL     1      -5.032   0.575  -0.319  1.00  0.00     0.077 C 
HETATM    2  C2  UNL     1      -3.558   0.321  -0.159  1.00  0.00     0.057 A 
HETATM    3  O1  UNL     1      -2.607   1.217  -0.257  1.00  0.00    -0.313 OA
HETATM    4  C3  UNL     1      -1.426   0.677  -0.065  1.00  0.00     0.100 A 
HETATM    5  C4  UNL     1      -0.125   1.182  -0.062  1.00  0.00     0.017 A 
HETATM    6  C5  UNL     1       0.060   2.617  -0.322  1.00  0.00     0.055 C 
HETATM    7  C6  UNL     1       0.966   0.382   0.172  1.00  0.00     0.111 A 
HETATM    8  N2  UNL     1       0.722  -0.920   0.402  1.00  0.00    -0.328 N 
ATOM      9  H2  UNL     1       1.511  -1.541   0.581  1.00  0.00     0.169 HD
HETATM   10  C10 UNL     1      -0.528  -1.442   0.406  1.00  0.00     0.114 A 
HETATM   11  N3  UNL     1      -0.722  -2.705   0.632  1.00  0.00    -0.385 N 
ATOM     12  H31 UNL     1      -1.663  -3.098   0.635  1.00  0.00     0.157 HD
ATOM     13  H32 UNL     1       0.095  -3.290   0.805  1.00  0.00     0.157 HD
HETATM   14  C11 UNL     1      -1.624  -0.657   0.174  1.00  0.00     0.050 A 
HETATM   15  C12 UNL     1      -2.991  -0.906   0.117  1.00  0.00    -0.016 A 
HETATM   16  C13 UNL     1      -3.652  -2.201   0.314  1.00  0.00     0.052 C 
ENDROOT
BRANCH   7  17
HETATM   17  N1  UNL     1       2.277   0.929   0.172  1.00  0.00    -0.372 N 
ATOM     18  H1  UNL     1       2.367   1.930  -0.003  1.00  0.00     0.161 HD
BRANCH  17  19
HETATM   19  C7  UNL     1       3.482   0.191   0.398  1.00  0.00     0.075 C 
HETATM   20  C8  UNL     1       3.716  -0.873  -0.652  1.00  0.00     0.031 C 
HETATM   21  C9  UNL     1       4.686   1.089   0.401  1.00  0.00     0.031 C 
ENDBRANCH  17  19
ENDBRANCH   7  17
TORSDOF 2
