REMARK  5 active torsions:
REMARK  status: ('A' for Active; 'I' for Inactive)
REMARK    1  A    between atoms: O1_1  and  N1_3 
REMARK    2  A    between atoms: C1_5  and  O2_6 
REMARK    3  A    between atoms: C1_5  and  C2_8 
REMARK    4  A    between atoms: C2_8  and  C3_9 
REMARK    5  A    between atoms: C3_9  and  O3_10 
ROOT
HETATM    1  C3  UNL     1       1.822   0.216  -0.795  1.00  0.00     0.053 C 
HETATM    2  C4  UNL     1       0.634   0.166  -0.246  1.00  0.00    -0.050 C 
HETATM    3  C5  UNL     1       0.200  -0.910   0.695  1.00  0.00     0.037 C 
HETATM    4  C6  UNL     1      -1.125  -0.427   1.226  1.00  0.00     0.014 C 
HETATM    5  C7  UNL     1      -1.670   0.328   0.034  1.00  0.00    -0.036 C 
HETATM    6  C8  UNL     1      -2.222  -0.593  -1.018  1.00  0.00     0.010 C 
HETATM    7  C9  UNL     1      -3.503  -1.076  -0.372  1.00  0.00     0.001 C 
HETATM    8  C10 UNL     1      -3.928   0.030   0.563  1.00  0.00     0.001 C 
HETATM    9  C11 UNL     1      -2.868   1.108   0.453  1.00  0.00     0.010 C 
HETATM   10  C12 UNL     1      -0.512   1.130  -0.427  1.00  0.00     0.046 C 
ENDROOT
BRANCH   1  11
HETATM   11  C2  UNL     1       2.841  -0.808  -0.518  1.00  0.00     0.150 C 
BRANCH  11  12
HETATM   12  C1  UNL     1       4.061  -0.212   0.089  1.00  0.00     0.141 C 
HETATM   13  N1  UNL     1       4.152   1.053   0.320  1.00  0.00    -0.251 N 
ATOM     14  H1  UNL     1       3.377   1.674   0.087  1.00  0.00     0.196 HD
BRANCH  13  15
HETATM   15  O1  UNL     1       5.294   1.558   0.880  1.00  0.00    -0.288 OA
ATOM     16  H1  UNL     1       5.361   2.490   1.050  1.00  0.00     0.244 HD
ENDBRANCH  13  15
BRANCH  12  17
HETATM   17  O2  UNL     1       5.100  -1.055   0.402  1.00  0.00    -0.348 OA
ATOM     18  H2  UNL     1       5.033  -1.987   0.232  1.00  0.00     0.219 HD
ENDBRANCH  12  17
ENDBRANCH  11  12
ENDBRANCH   1  11
BRANCH   1  19
HETATM   19  O3  UNL     1       2.138   1.247  -1.654  1.00  0.00    -0.364 OA
ATOM     20  H3  UNL     1       1.480   1.908  -1.833  1.00  0.00     0.217 HD
ENDBRANCH   1  19
TORSDOF 5
