REMARK  3 active torsions:
REMARK  status: ('A' for Active; 'I' for Inactive)
REMARK    1  A    between atoms: O1_1  and  N1_3 
REMARK    2  A    between atoms: C6_10  and  N2_11 
REMARK    3  A    between atoms: N2_11  and  C7_13 
ROOT
HETATM    1  N1  UNL     1       4.205  -0.263  -1.374  1.00  0.00    -0.277 N 
ATOM      2  H1  UNL     1       3.930  -0.747  -2.229  1.00  0.00     0.193 HD
HETATM    3  C1  UNL     1       3.265   0.143  -0.558  1.00  0.00     0.014 C 
HETATM    4  C2  UNL     1       3.426   0.865   0.731  1.00  0.00     0.055 C 
HETATM    5  C3  UNL     1       2.071   0.683   1.366  1.00  0.00     0.011 C 
HETATM    6  C4  UNL     1       1.149   0.802   0.174  1.00  0.00    -0.003 C 
HETATM    7  C5  UNL     1      -0.211   0.291   0.573  1.00  0.00     0.030 C 
HETATM    8  C6  UNL     1      -0.811  -0.640  -0.424  1.00  0.00     0.082 C 
HETATM    9  C11 UNL     1       0.047  -1.850  -0.698  1.00  0.00     0.026 C 
HETATM   10  C12 UNL     1       1.522  -1.542  -0.596  1.00  0.00     0.013 C 
HETATM   11  C13 UNL     1       1.824  -0.083  -0.844  1.00  0.00     0.037 C 
ENDROOT
BRANCH   8  12
HETATM   12  N2  UNL     1      -2.122  -1.034   0.025  1.00  0.00    -0.384 N 
ATOM     13  H2  UNL     1      -2.261  -2.010   0.288  1.00  0.00     0.160 HD
BRANCH  12  14
HETATM   14  C7  UNL     1      -3.237  -0.153   0.126  1.00  0.00     0.045 A 
HETATM   15  C8  UNL     1      -3.331   1.144  -0.306  1.00  0.00     0.047 A 
HETATM   16  C9  UNL     1      -4.612   1.586   0.024  1.00  0.00     0.090 A 
HETATM   17  N3  UNL     1      -5.283   0.575   0.646  1.00  0.00    -0.373 N 
HETATM   18  C10 UNL     1      -4.462  -0.481   0.713  1.00  0.00     0.116 A 
ATOM     19  H3  UNL     1      -6.240   0.616   0.998  1.00  0.00     0.164 HD
ENDBRANCH  12  14
ENDBRANCH   8  12
BRANCH   1  20
HETATM   20  O1  UNL     1       5.530  -0.070  -1.137  1.00  0.00    -0.290 OA
ATOM     21  H1  UNL     1       6.212  -0.365  -1.729  1.00  0.00     0.244 HD
ENDBRANCH   1  20
TORSDOF 3
