REMARK  2 active torsions:
REMARK  status: ('A' for Active; 'I' for Inactive)
REMARK       I    between atoms: N1_2  and  C2_4 
REMARK    1  A    between atoms: C2_4  and  C3_6 
REMARK    2  A    between atoms: C3_6  and  C4_7 
ROOT
HETATM    1  C4  UNL     1       0.603  -0.351  -0.600  1.00  0.00    -0.068 C 
HETATM    2  C5  UNL     1       0.878  -1.822  -0.753  1.00  0.00     0.044 C 
HETATM    3  C6  UNL     1      -0.628   0.039  -0.317  1.00  0.00    -0.040 C 
HETATM    4  C7  UNL     1      -0.986   1.454  -0.164  1.00  0.00     0.010 C 
HETATM    5  C8  UNL     1      -2.082   1.860   0.459  1.00  0.00     0.025 C 
HETATM    6  C9  UNL     1      -2.946   0.821   1.002  1.00  0.00     0.008 C 
HETATM    7  N2  UNL     1      -3.580   0.972   2.113  1.00  0.00    -0.402 N 
ATOM      8  H21 UNL     1      -4.185   0.244   2.493  1.00  0.00     0.156 HD
ATOM      9  H22 UNL     1      -3.512   1.820   2.676  1.00  0.00     0.156 HD
HETATM   10  C10 UNL     1      -3.045  -0.414   0.181  1.00  0.00     0.050 C 
HETATM   11  C11 UNL     1      -3.792  -0.065  -1.091  1.00  0.00     0.018 C 
HETATM   12  C12 UNL     1      -1.700  -1.001  -0.134  1.00  0.00     0.101 C 
HETATM   13  S1  UNL     1      -1.229  -2.129   1.224  1.00  0.00    -0.086 SA
ENDROOT
BRANCH   1  14
HETATM   14  C3  UNL     1       1.766   0.539  -0.796  1.00  0.00     0.137 C 
BRANCH  14  15
HETATM   15  C2  UNL     1       2.864   0.256   0.175  1.00  0.00     0.221 C 
HETATM   16  N1  UNL     1       4.058   1.019   0.108  1.00  0.00    -0.365 N 
HETATM   17  C1  UNL     1       5.171   0.807   1.015  1.00  0.00     0.149 C 
ATOM     18  H1  UNL     1       4.137   1.744  -0.605  1.00  0.00     0.161 HD
HETATM   19  O1  UNL     1       2.798  -0.626   1.060  1.00  0.00    -0.273 OA
ENDBRANCH  14  15
ENDBRANCH   1  14
TORSDOF 2
