REMARK  4 active torsions:
REMARK  status: ('A' for Active; 'I' for Inactive)
REMARK    1  A    between atoms: C2_2  and  C4_5 
REMARK    2  A    between atoms: C5_8  and  N2_9 
REMARK    3  A    between atoms: N3_14  and  C10_15 
REMARK    4  A    between atoms: C10_15  and  C11_16 
ROOT
HETATM    1  N2  UNL     1      -2.191   0.395  -0.050  1.00  0.00    -0.214 N 
HETATM    2  C6  UNL     1      -1.348  -0.768   0.066  1.00  0.00     0.152 C 
HETATM    3  C7  UNL     1      -0.091   0.055  -0.118  1.00  0.00    -0.004 C 
HETATM    4  C8  UNL     1       0.778   0.213   1.088  1.00  0.00     0.043 C 
HETATM    5  C9  UNL     1       2.087  -0.501   0.889  1.00  0.00     0.273 C 
HETATM    6  N3  UNL     1       2.804   0.072  -0.209  1.00  0.00     0.088 N 
HETATM    7  C16 UNL     1       1.991   0.530  -1.300  1.00  0.00     0.273 C 
HETATM    8  C17 UNL     1       0.710  -0.274  -1.338  1.00  0.00     0.043 C 
HETATM    9  C18 UNL     1      -1.038   1.203  -0.382  1.00  0.00     0.152 C 
ENDROOT
BRANCH   1  10
HETATM   10  C5  UNL     1      -3.575   0.653   0.096  1.00  0.00     0.703 A 
HETATM   11  N1  UNL     1      -4.503  -0.299   0.408  1.00  0.00    -0.189 N 
HETATM   12  C4  UNL     1      -5.715   0.214   0.485  1.00  0.00     0.086 A 
ATOM     13  H1  UNL     1      -4.286  -1.284   0.562  1.00  0.00     0.184 HD
HETATM   14  C20 UNL     1      -5.529   1.579   0.202  1.00  0.00     0.141 A 
HETATM   15  N4  UNL     1      -4.246   1.847  -0.031  1.00  0.00    -0.077 N 
HETATM   16  S1  UNL     1      -6.238   3.122   0.013  1.00  0.00    -0.061 SA
HETATM   17  N5  UNL     1      -3.912   3.055  -0.307  1.00  0.00    -0.283 N 
HETATM   18  C19 UNL     1      -4.822   4.008  -0.357  1.00  0.00     0.160 A 
ATOM     19  H5  UNL     1      -2.934   3.280  -0.489  1.00  0.00     0.187 HD
BRANCH  12  20
HETATM   20  C2  UNL     1      -7.052  -0.334   0.782  1.00  0.00     0.075 C 
HETATM   21  C1  UNL     1      -7.923  -0.052  -0.450  1.00  0.00     0.039 C 
HETATM   22  C3  UNL     1      -6.971  -1.839   0.913  1.00  0.00     0.039 C 
HETATM   23 CL1  UNL     1      -7.796   0.370   2.215  1.00  0.00    -0.113 Cl
ENDBRANCH  12  20
ENDBRANCH   1  10
BRANCH   6  24
HETATM   24  C10 UNL     1       3.876  -0.730  -0.712  1.00  0.00     0.277 C 
BRANCH  24  25
HETATM   25  C11 UNL     1       5.030  -0.834   0.267  1.00  0.00     0.018 C 
HETATM   26  C12 UNL     1       6.126  -1.702  -0.325  1.00  0.00     0.032 C 
HETATM   27  C13 UNL     1       7.259  -1.818   0.660  1.00  0.00     0.168 C 
HETATM   28  O1  UNL     1       7.582  -0.606   1.249  1.00  0.00    -0.391 OA
HETATM   29  C14 UNL     1       7.158   0.463   0.439  1.00  0.00     0.168 C 
HETATM   30  C15 UNL     1       5.651   0.556   0.471  1.00  0.00     0.032 C 
ENDBRANCH  24  25
ENDBRANCH   6  24
TORSDOF 4
