REMARK  4 active torsions:
REMARK  status: ('A' for Active; 'I' for Inactive)
REMARK    1  A    between atoms: C3_6  and  C4_7 
REMARK       I    between atoms: N2_11  and  C8_12 
REMARK    2  A    between atoms: C8_12  and  C9_14 
REMARK    3  A    between atoms: C9_14  and  C10_15 
REMARK    4  A    between atoms: C15_22  and  C16_23 
ROOT
HETATM    1  C10 UNL     1      -0.617  -1.596  -0.457  1.00  0.00     0.143 C 
HETATM    2  O3  UNL     1      -0.159  -1.929  -1.717  1.00  0.00    -0.349 OA
HETATM    3  C11 UNL     1      -0.953  -2.796  -2.415  1.00  0.00     0.157 C 
HETATM    4  C12 UNL     1      -0.653  -4.224  -1.998  1.00  0.00     0.078 C 
HETATM    5  C13 UNL     1      -0.520  -2.705  -3.887  1.00  0.00     0.078 C 
HETATM    6  O4  UNL     1      -2.308  -2.524  -2.402  1.00  0.00    -0.355 OA
HETATM    7  C14 UNL     1      -2.799  -2.294  -1.119  1.00  0.00     0.182 C 
HETATM    8  C15 UNL     1      -2.027  -1.049  -0.635  1.00  0.00     0.062 C 
ENDROOT
BRANCH   1   9
HETATM    9  C9  UNL     1       0.295  -0.664   0.244  1.00  0.00     0.135 C 
BRANCH   9  10
HETATM   10  C8  UNL     1       1.628  -1.285   0.397  1.00  0.00     0.223 C 
HETATM   11  N2  UNL     1       2.714  -0.592   1.040  1.00  0.00    -0.340 N 
HETATM   12  C4  UNL     1       2.698   0.740   1.612  1.00  0.00     0.164 C 
HETATM   13  C7  UNL     1       4.056  -1.092   1.248  1.00  0.00     0.127 C 
HETATM   14  C5  UNL     1       3.481   0.514   2.908  1.00  0.00     0.035 C 
HETATM   15  C6  UNL     1       4.493  -0.551   2.580  1.00  0.00     0.022 C 
HETATM   16  O2  UNL     1       1.835  -2.441  -0.039  1.00  0.00    -0.273 OA
BRANCH  12  17
HETATM   17  C3  UNL     1       3.526   1.672   0.794  1.00  0.00     0.171 A 
HETATM   18  O1  UNL     1       4.400   2.567   1.155  1.00  0.00    -0.221 OA
HETATM   19  N1  UNL     1       4.910   3.178   0.121  1.00  0.00    -0.247 N 
HETATM   20  C2  UNL     1       4.356   2.674  -0.979  1.00  0.00     0.100 A 
ATOM     21  H1  UNL     1       5.613   3.916   0.151  1.00  0.00     0.196 HD
HETATM   22  C1  UNL     1       4.658   3.092  -2.365  1.00  0.00     0.091 C 
HETATM   23  N3  UNL     1       3.488   1.730  -0.568  1.00  0.00    -0.325 N 
ATOM     24  H3  UNL     1       2.901   1.155  -1.173  1.00  0.00     0.169 HD
ENDBRANCH  12  17
ENDBRANCH   9  10
ENDBRANCH   1   9
BRANCH   8  25
HETATM   25  C16 UNL     1      -2.634  -0.643   0.631  1.00  0.00    -0.012 C 
HETATM   26  C17 UNL     1      -3.199   0.538   0.773  1.00  0.00    -0.050 C 
HETATM   27  C18 UNL     1      -3.805   0.880   2.126  1.00  0.00     0.037 C 
HETATM   28  C22 UNL     1      -3.261   1.498  -0.334  1.00  0.00     0.199 C 
HETATM   29  C19 UNL     1      -3.441   2.362   2.304  1.00  0.00     0.004 C 
HETATM   30  C20 UNL     1      -4.308   3.111   1.319  1.00  0.00     0.003 C 
HETATM   31  C21 UNL     1      -4.216   2.640  -0.080  1.00  0.00     0.042 C 
HETATM   32  F1  UNL     1      -2.018   2.064  -0.513  1.00  0.00    -0.245 F 
ENDBRANCH   8  25
TORSDOF 4
