REMARK  4 active torsions:
REMARK  status: ('A' for Active; 'I' for Inactive)
REMARK    1  A    between atoms: C8_9  and  C9_10 
REMARK    2  A    between atoms: C9_10  and  O1_11 
REMARK    3  A    between atoms: O1_11  and  C10_12 
REMARK    4  A    between atoms: C13_20  and  N3_21 
ROOT
HETATM    1  C10 UNL     1       0.483   1.652  -0.466  1.00  0.00     0.173 A 
HETATM    2  N1  UNL     1      -0.135   2.557  -1.219  1.00  0.00    -0.331 N 
ATOM      3  H1  UNL     1      -1.116   2.727  -0.996  1.00  0.00     0.168 HD
HETATM    4  C11 UNL     1       0.358   3.262  -2.216  1.00  0.00     0.183 A 
HETATM    5  N2  UNL     1       1.669   3.042  -2.522  1.00  0.00    -0.345 N 
ATOM      6  H2  UNL     1       2.112   3.555  -3.284  1.00  0.00     0.167 HD
HETATM    7  C12 UNL     1       2.381   2.132  -1.802  1.00  0.00     0.109 A 
HETATM    8  S1  UNL     1       4.005   1.545  -1.829  1.00  0.00    -0.034 SA
HETATM    9  C13 UNL     1       3.889   0.424  -0.525  1.00  0.00     0.149 A 
HETATM   10  N4  UNL     1       2.640   0.570  -0.163  1.00  0.00    -0.331 N 
ATOM     11  H4  UNL     1       2.274   0.016   0.611  1.00  0.00     0.168 HD
HETATM   12  C18 UNL     1       1.856   1.412  -0.775  1.00  0.00     0.120 A 
ENDROOT
BRANCH   1  13
HETATM   13  O1  UNL     1      -0.098   0.966   0.554  1.00  0.00    -0.333 OA
BRANCH  13  14
HETATM   14  C9  UNL     1      -1.251   0.815   1.196  1.00  0.00     0.187 C 
BRANCH  14  15
HETATM   15  C8  UNL     1      -2.481   0.273   0.565  1.00  0.00    -0.016 C 
HETATM   16  C7  UNL     1      -3.573   0.280   1.661  1.00  0.00     0.016 C 
HETATM   17  C5  UNL     1      -4.865  -0.264   1.147  1.00  0.00    -0.012 C 
HETATM   18  C4  UNL     1      -5.315   0.653   0.024  1.00  0.00     0.009 C 
HETATM   19  C6  UNL     1      -4.757  -1.674   0.640  1.00  0.00     0.030 C 
HETATM   20  C3  UNL     1      -4.336   0.527  -1.092  1.00  0.00    -0.012 C 
HETATM   21  C2  UNL     1      -4.118  -0.898  -1.558  1.00  0.00     0.030 C 
HETATM   22  C19 UNL     1      -2.942   1.004  -0.630  1.00  0.00     0.016 C 
HETATM   23  C1  UNL     1      -3.630  -1.695  -0.374  1.00  0.00     0.038 C 
HETATM   24 CL1  UNL     1      -3.420  -3.388  -0.889  1.00  0.00    -0.119 Cl
HETATM   25  C20 UNL     1      -2.350  -1.208   0.218  1.00  0.00     0.037 C 
ENDBRANCH  14  15
ENDBRANCH  13  14
ENDBRANCH   1  13
BRANCH   9  26
HETATM   26  N3  UNL     1       4.931  -0.411  -0.028  1.00  0.00    -0.357 N 
HETATM   27  C14 UNL     1       6.226  -0.332  -0.662  1.00  0.00     0.151 C 
HETATM   28  C15 UNL     1       7.325  -0.457   0.353  1.00  0.00     0.187 C 
HETATM   29  O2  UNL     1       7.047  -1.315   1.386  1.00  0.00    -0.388 OA
HETATM   30  C16 UNL     1       5.998  -2.174   1.164  1.00  0.00     0.187 C 
HETATM   31  C17 UNL     1       4.735  -1.307   1.058  1.00  0.00     0.151 C 
ENDBRANCH   9  26
TORSDOF 4
