REMARK  5 active torsions:
REMARK  status: ('A' for Active; 'I' for Inactive)
REMARK    1  A    between atoms: C2_2  and  C3_3 
REMARK    2  A    between atoms: C3_3  and  C4_4 
REMARK    3  A    between atoms: C7_10  and  N2_11 
REMARK    4  A    between atoms: N3_14  and  C10_15 
REMARK    5  A    between atoms: C13_18  and  C14_19 
ROOT
HETATM    1  N2  UNL     1      -1.328   1.113  -0.174  1.00  0.00    -0.363 N 
HETATM    2  C8  UNL     1      -0.847  -0.265  -0.309  1.00  0.00     0.144 C 
HETATM    3  C9  UNL     1       0.175  -0.616   0.736  1.00  0.00     0.143 C 
HETATM    4  N3  UNL     1       1.224   0.378   0.635  1.00  0.00    -0.372 N 
HETATM    5  C17 UNL     1       0.822   1.743   0.885  1.00  0.00     0.143 C 
HETATM    6  C18 UNL     1      -0.364   2.158   0.027  1.00  0.00     0.144 C 
ENDROOT
BRANCH   1   7
HETATM    7  C7  UNL     1      -2.751   1.283  -0.218  1.00  0.00     0.123 A 
HETATM    8  C6  UNL     1      -3.316   2.427  -0.685  1.00  0.00     0.070 A 
HETATM    9  C5  UNL     1      -4.722   2.530  -0.657  1.00  0.00     0.112 A 
HETATM   10 BR1  UNL     1      -2.296   3.860  -1.412  1.00  0.00    -0.046 Br
HETATM   11  N1  UNL     1      -5.420   1.505  -0.177  1.00  0.00    -0.354 N 
HETATM   12  C4  UNL     1      -4.867   0.375   0.284  1.00  0.00     0.086 A 
ATOM     13  H1  UNL     1      -6.437   1.584  -0.159  1.00  0.00     0.166 HD
HETATM   14  N5  UNL     1      -3.536   0.258   0.266  1.00  0.00    -0.331 N 
ATOM     15  H5  UNL     1      -3.098  -0.595   0.613  1.00  0.00     0.168 HD
BRANCH  12  16
HETATM   16  C3  UNL     1      -5.760  -0.707   0.797  1.00  0.00     0.103 C 
BRANCH  16  17
HETATM   17  C2  UNL     1      -6.126  -1.675  -0.264  1.00  0.00    -0.029 C 
HETATM   18  C1  UNL     1      -5.835  -2.956  -0.189  1.00  0.00     0.007 C 
ENDBRANCH  16  17
ENDBRANCH  12  16
ENDBRANCH   1   7
BRANCH   4  19
HETATM   19  C10 UNL     1       2.589   0.038   0.301  1.00  0.00     0.072 A 
HETATM   20  C11 UNL     1       3.170   0.033  -0.941  1.00  0.00     0.038 A 
HETATM   21  C12 UNL     1       4.460  -0.321  -1.017  1.00  0.00     0.024 A 
HETATM   22  C13 UNL     1       5.092  -0.648   0.141  1.00  0.00     0.034 A 
HETATM   23  S2  UNL     1       3.871  -0.454   1.315  1.00  0.00    -0.070 SA
BRANCH  22  24
HETATM   24  C14 UNL     1       6.503  -1.074   0.337  1.00  0.00     0.056 A 
HETATM   25  C15 UNL     1       7.367  -1.166  -0.729  1.00  0.00     0.081 A 
HETATM   26  S1  UNL     1       8.803  -1.682   0.034  1.00  0.00    -0.094 SA
HETATM   27  C16 UNL     1       8.230  -1.750   1.638  1.00  0.00     0.138 A 
HETATM   28  N4  UNL     1       6.972  -1.375   1.509  1.00  0.00    -0.358 N 
ATOM     29  H4  UNL     1       6.368  -1.322   2.330  1.00  0.00     0.166 HD
ENDBRANCH  22  24
ENDBRANCH   4  19
TORSDOF 5
