REMARK  5 active torsions:
REMARK  status: ('A' for Active; 'I' for Inactive)
REMARK    1  A    between atoms: C6_6  and  O1_7 
REMARK    2  A    between atoms: O1_7  and  C7_8 
REMARK    3  A    between atoms: N1_18  and  C16_19 
REMARK    4  A    between atoms: C16_19  and  C17_20 
REMARK    5  A    between atoms: C17_20  and  C18_21 
ROOT
HETATM    1  C7  UNL     1       4.287  -1.239   0.408  1.00  0.00     0.139 C 
HETATM    2  C8  UNL     1       3.187  -2.176  -0.102  1.00  0.00     0.104 C 
HETATM    3  C9  UNL     1       2.313  -1.640   0.995  1.00  0.00     0.202 C 
HETATM    4  C10 UNL     1       3.611  -1.386   1.790  1.00  0.00     0.104 C 
HETATM    5  O2  UNL     1       1.550  -2.500   1.696  1.00  0.00    -0.352 OA
HETATM    6  C11 UNL     1       0.320  -2.844   1.296  1.00  0.00     0.177 C 
HETATM    7  C12 UNL     1      -0.209  -2.350   0.005  1.00  0.00     0.101 C 
HETATM    8  C13 UNL     1      -0.090  -0.895  -0.240  1.00  0.00     0.238 C 
HETATM    9  C14 UNL     1      -0.583  -0.034   0.891  1.00  0.00     0.121 C 
HETATM   10  C15 UNL     1      -2.076  -0.024   0.955  1.00  0.00     0.098 C 
HETATM   11  N1  UNL     1      -2.748  -0.381  -0.232  1.00  0.00    -0.242 N 
HETATM   12  O3  UNL     1      -2.047  -0.952  -1.191  1.00  0.00    -0.108 OA
HETATM   13  O4  UNL     1      -0.831  -0.553  -1.364  1.00  0.00    -0.173 OA
HETATM   14  O5  UNL     1       1.237  -0.499  -0.508  1.00  0.00    -0.194 OA
HETATM   15  O6  UNL     1       1.783  -0.413   0.688  1.00  0.00    -0.197 OA
ENDROOT
BRANCH  11  16
HETATM   16  C16 UNL     1      -3.728   0.586  -0.684  1.00  0.00     0.158 C 
BRANCH  16  17
HETATM   17  C17 UNL     1      -4.848   0.579   0.304  1.00  0.00     0.029 C 
BRANCH  17  18
HETATM   18  C18 UNL     1      -5.965   1.524   0.029  1.00  0.00     0.021 C 
HETATM   19  C19 UNL     1      -6.966   1.324   1.182  1.00  0.00     0.007 C 
HETATM   20  C20 UNL     1      -7.857   0.185   0.745  1.00  0.00     0.003 C 
HETATM   21  C21 UNL     1      -7.509  -0.121  -0.703  1.00  0.00     0.037 C 
HETATM   22  C22 UNL     1      -6.846   1.159  -1.131  1.00  0.00     0.174 C 
HETATM   23  F1  UNL     1      -6.236   1.119  -2.340  1.00  0.00    -0.249 F 
ENDBRANCH  17  18
ENDBRANCH  16  17
ENDBRANCH  11  16
BRANCH   1  24
HETATM   24  O1  UNL     1       4.148   0.083   0.008  1.00  0.00    -0.345 OA
BRANCH  24  25
HETATM   25  C6  UNL     1       5.208   0.887  -0.332  1.00  0.00     0.069 A 
HETATM   26  C5  UNL     1       4.995   2.212  -0.741  1.00  0.00     0.037 A 
HETATM   27  C4  UNL     1       6.013   3.059  -1.091  1.00  0.00     0.003 A 
HETATM   28  C3  UNL     1       7.309   2.635  -1.054  1.00  0.00     0.007 A 
HETATM   29  C2  UNL     1       7.568   1.347  -0.660  1.00  0.00    -0.059 A 
HETATM   30  C1  UNL     1       8.976   0.887  -0.616  1.00  0.00     0.048 C 
HETATM   31  C23 UNL     1       6.521   0.486  -0.303  1.00  0.00     0.043 A 
ENDBRANCH  24  25
ENDBRANCH   1  24
TORSDOF 5
