REMARK  7 active torsions:
REMARK  status: ('A' for Active; 'I' for Inactive)
REMARK    1  A    between atoms: C3_5  and  N2_6 
REMARK    2  A    between atoms: N2_6  and  C4_7 
REMARK    3  A    between atoms: N2_6  and  C11_14 
REMARK    4  A    between atoms: C4_7  and  C5_8 
REMARK    5  A    between atoms: C5_8  and  C6_9 
REMARK    6  A    between atoms: C7_10  and  C8_11 
REMARK    7  A    between atoms: N5_23  and  C16_24 
ROOT
HETATM    1  C11 UNL     1      -0.013   0.610   0.600  1.00  0.00     0.701 A 
HETATM    2  N3  UNL     1      -0.124   0.908   1.920  1.00  0.00    -0.193 N 
ATOM      3  H3  UNL     1      -0.971   1.366   2.255  1.00  0.00     0.184 HD
HETATM    4  C12 UNL     1       0.848   0.617   2.795  1.00  0.00     0.053 A 
HETATM    5  C13 UNL     1       0.703   0.957   4.230  1.00  0.00     0.071 C 
HETATM    6  C14 UNL     1       1.987  -0.009   2.295  1.00  0.00     0.101 A 
HETATM    7  N4  UNL     1       3.103  -0.422   2.879  1.00  0.00    -0.348 N 
ATOM      8  H4  UNL     1       3.320  -0.339   3.872  1.00  0.00     0.167 HD
HETATM    9  C15 UNL     1       3.903  -0.970   1.943  1.00  0.00     0.185 A 
HETATM   10  N5  UNL     1       3.312  -0.919   0.739  1.00  0.00    -0.322 N 
HETATM   11  C22 UNL     1       2.105  -0.313   0.957  1.00  0.00     0.153 A 
HETATM   12  N6  UNL     1       1.076   0.015   0.139  1.00  0.00    -0.173 N 
ATOM     13  H6  UNL     1       1.142  -0.202  -0.856  1.00  0.00     0.186 HD
ENDROOT
BRANCH   1  14
HETATM   14  N2  UNL     1      -1.123   0.969  -0.235  1.00  0.00    -0.013 N 
BRANCH  14  15
HETATM   15  C3  UNL     1      -1.176   2.327  -0.651  1.00  0.00     0.699 A 
HETATM   16  N1  UNL     1      -1.458   3.333   0.198  1.00  0.00    -0.192 N 
HETATM   17  C2  UNL     1      -1.522   4.627  -0.157  1.00  0.00     0.062 A 
ATOM     18  H1  UNL     1      -1.635   3.097   1.175  1.00  0.00     0.184 HD
HETATM   19  C1  UNL     1      -1.830   5.617   0.891  1.00  0.00     0.072 C 
HETATM   20  C24 UNL     1      -1.288   4.965  -1.472  1.00  0.00     0.154 A 
HETATM   21  C23 UNL     1      -1.001   3.947  -2.345  1.00  0.00     0.150 A 
HETATM   22  F1  UNL     1      -1.353   6.269  -1.830  1.00  0.00    -0.203 F 
HETATM   23  N7  UNL     1      -0.947   2.670  -1.945  1.00  0.00    -0.198 N 
ATOM     24  H7  UNL     1      -0.730   1.941  -2.625  1.00  0.00     0.183 HD
ENDBRANCH  14  15
BRANCH  14  25
HETATM   25  C4  UNL     1      -2.072  -0.048  -0.580  1.00  0.00     0.179 C 
BRANCH  25  26
HETATM   26  C5  UNL     1      -3.469   0.242  -0.054  1.00  0.00     0.115 C 
BRANCH  26  27
HETATM   27  C6  UNL     1      -4.306  -0.893  -0.505  1.00  0.00    -0.105 C 
HETATM   28  C7  UNL     1      -4.961  -1.826  -0.891  1.00  0.00    -0.102 C 
BRANCH  28  29
HETATM   29  C8  UNL     1      -5.726  -2.969  -1.374  1.00  0.00     0.065 A 
HETATM   30  C9  UNL     1      -6.598  -3.701  -0.378  1.00  0.00     0.018 A 
HETATM   31  C10 UNL     1      -7.212  -2.911  -1.473  1.00  0.00     0.018 A 
ENDBRANCH  28  29
ENDBRANCH  26  27
ENDBRANCH  25  26
ENDBRANCH  14  25
ENDBRANCH   1  14
BRANCH  10  32
HETATM   32  C16 UNL     1       3.729  -1.358  -0.541  1.00  0.00     0.097 C 
HETATM   33  C17 UNL     1       4.887  -0.573  -1.150  1.00  0.00     0.031 C 
HETATM   34  C18 UNL     1       5.620  -1.721  -1.796  1.00  0.00    -0.012 C 
HETATM   35  C19 UNL     1       4.575  -2.766  -2.148  1.00  0.00     0.011 C 
HETATM   36  C21 UNL     1       5.827  -2.596  -0.548  1.00  0.00     0.011 C 
HETATM   37  C20 UNL     1       4.328  -2.733  -0.619  1.00  0.00     0.010 C 
ENDBRANCH  10  32
TORSDOF 7
