REMARK  7 active torsions:
REMARK  status: ('A' for Active; 'I' for Inactive)
REMARK    1  A    between atoms: C2_2  and  O2_4 
REMARK    2  A    between atoms: O2_4  and  C3_5 
REMARK    3  A    between atoms: C3_5  and  C4_6 
REMARK    4  A    between atoms: C4_6  and  O4_8 
REMARK    5  A    between atoms: O4_8  and  C5_9 
REMARK    6  A    between atoms: C5_9  and  C6_10 
REMARK    7  A    between atoms: C6_10  and  C8_12 
ROOT
HETATM    1  C5  UNL     1       1.153   0.621   0.292  1.00  0.00     0.127 C 
HETATM    2  C12 UNL     1       0.314  -0.087   1.298  1.00  0.00     0.061 C 
HETATM    3  C13 UNL     1      -0.854  -0.750   0.785  1.00  0.00    -0.025 C 
HETATM    4  C14 UNL     1      -0.986  -2.192   1.322  1.00  0.00     0.016 C 
HETATM    5  C15 UNL     1      -2.168  -0.104   1.168  1.00  0.00     0.018 C 
HETATM    6  C16 UNL     1      -3.134  -0.717   0.138  1.00  0.00     0.019 C 
HETATM    7  C17 UNL     1      -4.408   0.030   0.177  1.00  0.00     0.046 C 
HETATM    8  C18 UNL     1      -4.895   0.577  -1.107  1.00  0.00     0.194 C 
HETATM    9  F1  UNL     1      -5.510   1.825  -0.932  1.00  0.00    -0.247 F 
HETATM   10  C19 UNL     1      -3.826   0.780  -2.149  1.00  0.00     0.205 C 
HETATM   11  O5  UNL     1      -2.544   0.755  -1.584  1.00  0.00    -0.382 OA
HETATM   12  C20 UNL     1      -2.343  -0.548  -1.133  1.00  0.00     0.140 C 
HETATM   13  C21 UNL     1      -0.923  -0.809  -0.696  1.00  0.00     0.088 C 
HETATM   14  S2  UNL     1       0.231   0.491  -1.256  1.00  0.00    -0.122 SA
ENDROOT
BRANCH   1  15
HETATM   15  O4  UNL     1       2.455   0.102   0.227  1.00  0.00    -0.296 OA
BRANCH  15  16
HETATM   16  C4  UNL     1       2.911  -1.119  -0.078  1.00  0.00     0.284 C 
HETATM   17  O3  UNL     1       2.086  -2.007  -0.377  1.00  0.00    -0.263 OA
BRANCH  16  18
HETATM   18  C3  UNL     1       4.368  -1.476  -0.080  1.00  0.00     0.289 C 
BRANCH  18  19
HETATM   19  O2  UNL     1       4.545  -2.835  -0.441  1.00  0.00    -0.312 OA
BRANCH  19  20
HETATM   20  C2  UNL     1       5.845  -3.303  -0.483  1.00  0.00     0.255 C 
HETATM   21  C1  UNL     1       6.154  -4.729  -0.854  1.00  0.00     0.126 C 
HETATM   22  O1  UNL     1       6.809  -2.539  -0.209  1.00  0.00    -0.266 OA
ENDBRANCH  19  20
ENDBRANCH  18  19
ENDBRANCH  16  18
ENDBRANCH  15  16
ENDBRANCH   1  15
BRANCH   1  23
HETATM   23  C6  UNL     1       1.397   2.082   0.647  1.00  0.00     0.067 C 
HETATM   24  C7  UNL     1       2.250   2.648  -0.468  1.00  0.00     0.019 C 
BRANCH  23  25
HETATM   25  C8  UNL     1       0.171   2.880   0.857  1.00  0.00    -0.010 A 
HETATM   26  C9  UNL     1      -0.673   3.440  -0.068  1.00  0.00     0.015 A 
HETATM   27  C10 UNL     1      -1.727   4.125   0.371  1.00  0.00     0.008 A 
HETATM   28  C11 UNL     1      -1.904   4.227   1.727  1.00  0.00     0.050 A 
HETATM   29  S1  UNL     1      -0.577   3.354   2.344  1.00  0.00    -0.106 SA
ENDBRANCH  23  25
ENDBRANCH   1  23
TORSDOF 7
