REMARK  3 active torsions:
REMARK  status: ('A' for Active; 'I' for Inactive)
REMARK    1  A    between atoms: S1_2  and  N1_4 
REMARK    2  A    between atoms: S1_2  and  C11_21 
REMARK    3  A    between atoms: N1_4  and  C1_6 
ROOT
HETATM    1  C1  UNL     1       0.072  -0.377   0.226  1.00  0.00     0.159 A 
HETATM    2  N2  UNL     1      -0.402   0.483  -0.678  1.00  0.00    -0.334 N 
ATOM      3  H2  UNL     1       0.233   1.034  -1.255  1.00  0.00     0.168 HD
HETATM    4  C2  UNL     1      -1.705   0.605  -0.810  1.00  0.00     0.068 A 
HETATM    5  C3  UNL     1      -2.430   1.441  -1.688  1.00  0.00     0.119 A 
HETATM    6  N3  UNL     1      -3.759   1.473  -1.727  1.00  0.00    -0.363 N 
ATOM      7  H3  UNL     1      -4.207   2.104  -2.391  1.00  0.00     0.165 HD
HETATM    8  C4  UNL     1      -4.532   0.729  -0.949  1.00  0.00     0.043 A 
HETATM    9  C5  UNL     1      -5.878   0.783  -1.010  1.00  0.00     0.030 A 
HETATM   10  C6  UNL     1      -6.630  -0.036  -0.153  1.00  0.00     0.002 A 
HETATM   11  C7  UNL     1      -5.961  -0.865   0.718  1.00  0.00     0.001 A 
HETATM   12  C8  UNL     1      -4.590  -0.931   0.792  1.00  0.00     0.015 A 
HETATM   13  C9  UNL     1      -3.894  -0.113  -0.064  1.00  0.00     0.010 A 
HETATM   14  C10 UNL     1      -2.494  -0.168  -0.002  1.00  0.00     0.049 A 
HETATM   15  S2  UNL     1      -1.338  -1.034   0.910  1.00  0.00    -0.050 SA
ENDROOT
BRANCH   1  16
HETATM   16  N1  UNL     1       1.338  -0.626   0.490  1.00  0.00    -0.260 N 
ATOM     17  H1  UNL     1       1.582  -1.310   1.207  1.00  0.00     0.181 HD
BRANCH  16  18
HETATM   18  S1  UNL     1       2.587   0.198  -0.370  1.00  0.00     0.264 S 
HETATM   19  O1  UNL     1       2.414  -0.137  -1.826  1.00  0.00    -0.200 OA
HETATM   20  O2  UNL     1       2.449   1.690  -0.239  1.00  0.00    -0.200 OA
BRANCH  18  21
HETATM   21  C11 UNL     1       4.122  -0.283   0.247  1.00  0.00     0.079 A 
HETATM   22  C12 UNL     1       4.782  -1.359  -0.291  1.00  0.00     0.025 A 
HETATM   23  C13 UNL     1       6.014  -1.743   0.206  1.00  0.00     0.002 A 
HETATM   24  C14 UNL     1       6.615  -1.066   1.246  1.00  0.00     0.000 A 
HETATM   25  C15 UNL     1       5.931   0.004   1.762  1.00  0.00     0.002 A 
HETATM   26  C16 UNL     1       4.704   0.403   1.283  1.00  0.00     0.025 A 
ENDBRANCH  18  21
ENDBRANCH  16  18
ENDBRANCH   1  16
TORSDOF 3
