REMARK  4 active torsions:
REMARK  status: ('A' for Active; 'I' for Inactive)
REMARK    1  A    between atoms: C1_1  and  C18_26 
REMARK    2  A    between atoms: C2_2  and  C3_3 
REMARK    3  A    between atoms: C6_8  and  C7_9 
REMARK    4  A    between atoms: C18_26  and  N5_27 
ROOT
HETATM    1  C3  UNL     1       2.032  -0.134  -0.614  1.00  0.00     0.163 A 
HETATM    2  N1  UNL     1       1.038  -0.944  -0.257  1.00  0.00    -0.332 N 
ATOM      3  H1  UNL     1       1.142  -1.925   0.001  1.00  0.00     0.168 HD
HETATM    4  C4  UNL     1      -0.130  -0.266  -0.289  1.00  0.00     0.079 A 
HETATM    5  C5  UNL     1      -1.450  -0.626  -0.013  1.00  0.00     0.048 A 
HETATM    6  C6  UNL     1      -2.467   0.290  -0.131  1.00  0.00     0.008 A 
HETATM    7  C16 UNL     1      -2.106   1.559  -0.531  1.00  0.00     0.103 A 
HETATM    8  N3  UNL     1      -0.858   1.935  -0.802  1.00  0.00    -0.349 N 
ATOM      9  H3  UNL     1      -0.657   2.892  -1.094  1.00  0.00     0.166 HD
HETATM   10  C17 UNL     1       0.143   1.026  -0.684  1.00  0.00     0.134 A 
HETATM   11  N4  UNL     1       1.473   1.062  -0.871  1.00  0.00    -0.319 N 
ATOM     12  H4  UNL     1       1.991   1.889  -1.169  1.00  0.00     0.169 HD
ENDROOT
BRANCH   6  13
HETATM   13  C7  UNL     1      -3.870  -0.012   0.140  1.00  0.00     0.044 A 
HETATM   14  C8  UNL     1      -4.307  -1.240   0.539  1.00  0.00     0.031 A 
HETATM   15  C9  UNL     1      -5.656  -1.457   0.779  1.00  0.00     0.016 A 
HETATM   16  C10 UNL     1      -6.531  -0.432   0.612  1.00  0.00    -0.009 A 
HETATM   17  C11 UNL     1      -7.869  -0.656   0.853  1.00  0.00     0.013 A 
HETATM   18  C15 UNL     1      -6.093   0.813   0.208  1.00  0.00     0.043 A 
HETATM   19  C12 UNL     1      -8.776   0.367   0.690  1.00  0.00     0.001 A 
HETATM   20  C13 UNL     1      -8.330   1.608   0.286  1.00  0.00     0.002 A 
HETATM   21  C14 UNL     1      -6.995   1.832   0.046  1.00  0.00     0.030 A 
HETATM   22  N2  UNL     1      -4.785   0.965  -0.009  1.00  0.00    -0.355 N 
ATOM     23  H2  UNL     1      -4.456   1.883  -0.308  1.00  0.00     0.166 HD
ENDBRANCH   6  13
BRANCH   1  24
HETATM   24  C2  UNL     1       3.446  -0.451  -0.715  1.00  0.00    -0.028 C 
HETATM   25  C1  UNL     1       4.608  -0.734  -0.800  1.00  0.00    -0.068 C 
BRANCH  25  26
HETATM   26  C18 UNL     1       6.019  -1.103  -0.904  1.00  0.00     0.366 C 
BRANCH  26  27
HETATM   27  N5  UNL     1       6.618  -1.082   0.426  1.00  0.00     0.105 N 
HETATM   28  C19 UNL     1       8.026  -1.452   0.305  1.00  0.00     0.301 C 
HETATM   29  C20 UNL     1       8.693  -0.153   0.062  1.00  0.00     0.001 C 
HETATM   30  C21 UNL     1       7.903   0.860   0.440  1.00  0.00     0.001 C 
HETATM   31  C22 UNL     1       6.626   0.265   0.973  1.00  0.00     0.301 C 
ENDBRANCH  26  27
ENDBRANCH  25  26
ENDBRANCH   1  24
TORSDOF 4
