REMARK  3 active torsions:
REMARK  status: ('A' for Active; 'I' for Inactive)
REMARK    1  A    between atoms: C7_7  and  C8_8 
REMARK    2  A    between atoms: N3_15  and  O1_16 
REMARK    3  A    between atoms: N5_28  and  O2_29 
ROOT
HETATM    1  C8  UNL     1       2.082   0.093   0.025  1.00  0.00     0.119 A 
HETATM    2  N1  UNL     1       1.563  -1.068   0.401  1.00  0.00    -0.323 N 
ATOM      3  H1  UNL     1       2.104  -1.885   0.685  1.00  0.00     0.169 HD
HETATM    4  C9  UNL     1       0.232  -1.013   0.354  1.00  0.00     0.182 A 
HETATM    5  C10 UNL     1      -0.123   0.253  -0.074  1.00  0.00     0.182 A 
HETATM    6  N2  UNL     1       1.034   0.892  -0.262  1.00  0.00    -0.323 N 
ATOM      7  H2  UNL     1       1.115   1.858  -0.581  1.00  0.00     0.169 HD
HETATM    8  N3  UNL     1      -1.403   0.640  -0.229  1.00  0.00    -0.200 N 
HETATM    9  C11 UNL     1      -2.363  -0.263   0.051  1.00  0.00     0.115 A 
HETATM   10  C12 UNL     1      -3.755   0.091  -0.096  1.00  0.00    -0.004 A 
HETATM   11  C13 UNL     1      -4.380  -0.122  -1.302  1.00  0.00     0.014 A 
HETATM   12  C14 UNL     1      -5.708   0.207  -1.472  1.00  0.00     0.001 A 
HETATM   13  C15 UNL     1      -6.438   0.756  -0.436  1.00  0.00     0.000 A 
HETATM   14  C16 UNL     1      -5.774   0.953   0.756  1.00  0.00     0.001 A 
HETATM   15  C17 UNL     1      -4.448   0.636   0.959  1.00  0.00     0.014 A 
HETATM   16  C18 UNL     1      -2.070  -1.543   0.483  1.00  0.00     0.174 A 
HETATM   17  C19 UNL     1      -3.080  -2.520   0.787  1.00  0.00     0.122 C 
HETATM   18  N4  UNL     1      -3.892  -3.310   1.034  1.00  0.00    -0.190 NA
HETATM   19  N5  UNL     1      -0.777  -1.889   0.625  1.00  0.00    -0.191 N 
ENDROOT
BRANCH  19  20
HETATM   20  O2  UNL     1      -0.413  -3.145   1.050  1.00  0.00    -0.280 OA
ATOM     21  H2  UNL     1      -1.116  -3.755   1.239  1.00  0.00     0.245 HD
ENDBRANCH  19  20
BRANCH   8  22
HETATM   22  O1  UNL     1      -1.693   1.916  -0.660  1.00  0.00    -0.281 OA
ATOM     23  H1  UNL     1      -2.596   2.189  -0.769  1.00  0.00     0.245 HD
ENDBRANCH   8  22
BRANCH   1  24
HETATM   24  C7  UNL     1       3.488   0.484  -0.075  1.00  0.00     0.014 A 
HETATM   25  C2  UNL     1       4.512  -0.368   0.229  1.00  0.00    -0.048 A 
HETATM   26  C1  UNL     1       4.228  -1.762   0.687  1.00  0.00     0.049 C 
HETATM   27  C3  UNL     1       5.825   0.055   0.116  1.00  0.00     0.007 A 
HETATM   28  C4  UNL     1       6.165   1.321  -0.297  1.00  0.00     0.001 A 
HETATM   29  C5  UNL     1       5.130   2.184  -0.606  1.00  0.00     0.001 A 
HETATM   30  C6  UNL     1       3.822   1.759  -0.492  1.00  0.00     0.016 A 
ENDBRANCH   1  24
TORSDOF 3
