REMARK  2 active torsions:
REMARK  status: ('A' for Active; 'I' for Inactive)
REMARK    1  A    between atoms: N1_7  and  S1_9 
REMARK    2  A    between atoms: S1_9  and  C8_12 
ROOT
HETATM    1  S1  UNL     1       1.741  -1.253  -0.692  1.00  0.00     0.016 SA
HETATM    2  C7  UNL     1       1.817  -2.368  -2.267  1.00  0.00     0.148 C 
HETATM    3  N2  UNL     1       1.847  -3.023  -3.219  1.00  0.00    -0.183 NA
ENDROOT
BRANCH   1   4
HETATM    4  N1  UNL     1       0.317  -0.220  -0.574  1.00  0.00    -0.309 N 
HETATM    5  C6  UNL     1      -0.875  -0.541  -0.163  1.00  0.00     0.125 A 
HETATM    6  C5  UNL     1      -1.900   0.381  -0.125  1.00  0.00     0.035 A 
HETATM    7  N4  UNL     1      -1.059  -1.825   0.227  1.00  0.00    -0.331 N 
HETATM    8  C4  UNL     1      -1.716   1.672  -0.516  1.00  0.00     0.018 A 
HETATM    9  C17 UNL     1      -3.142  -0.019   0.321  1.00  0.00     0.048 A 
HETATM   10  C3  UNL     1      -2.769   2.582  -0.467  1.00  0.00     0.008 A 
HETATM   11  C2  UNL     1      -4.019   2.204  -0.025  1.00  0.00    -0.060 A 
HETATM   12  C1  UNL     1      -5.159   3.180   0.030  1.00  0.00     0.048 C 
HETATM   13  C18 UNL     1      -4.189   0.893   0.368  1.00  0.00     0.037 A 
HETATM   14  N5  UNL     1      -3.265  -1.302   0.693  1.00  0.00    -0.345 N 
HETATM   15  C15 UNL     1      -2.276  -2.199   0.659  1.00  0.00     0.079 A 
ATOM     16  H5  UNL     1      -4.178  -1.614   1.025  1.00  0.00     0.167 HD
HETATM   17  C16 UNL     1      -2.520  -3.608   1.098  1.00  0.00     0.089 C 
ATOM     18  H4  UNL     1      -0.290  -2.494   0.194  1.00  0.00     0.168 HD
ATOM     19  H1  UNL     1       0.443   0.750  -0.864  1.00  0.00     0.176 HD
ENDBRANCH   1   4
BRANCH   1  20
HETATM   20  C8  UNL     1       3.439  -0.444  -0.347  1.00  0.00     0.024 A 
HETATM   21  C9  UNL     1       3.968  -0.410   0.926  1.00  0.00     0.022 A 
HETATM   22  C10 UNL     1       5.192   0.172   1.178  1.00  0.00     0.024 A 
HETATM   23  C11 UNL     1       5.946   0.748   0.177  1.00  0.00     0.044 A 
HETATM   24  C12 UNL     1       7.224   1.359   0.424  1.00  0.00     0.099 C 
HETATM   25  C13 UNL     1       5.406   0.709  -1.096  1.00  0.00     0.024 A 
HETATM   26  N3  UNL     1       8.252   1.862   0.607  1.00  0.00    -0.191 NA
HETATM   27  C14 UNL     1       4.183   0.128  -1.356  1.00  0.00     0.022 A 
ENDBRANCH   1  20
TORSDOF 2
