REMARK  6 active torsions:
REMARK  status: ('A' for Active; 'I' for Inactive)
REMARK    1  A    between atoms: C2_2  and  C3_3 
REMARK    2  A    between atoms: C2_2  and  C7_22 
REMARK       I    between atoms: C3_3  and  N1_5 
REMARK    3  A    between atoms: N1_5  and  C4_7 
REMARK    4  A    between atoms: C4_7  and  N2_8 
REMARK    5  A    between atoms: C4_7  and  C5_12 
REMARK    6  A    between atoms: C5_12  and  O2_13 
REMARK       I    between atoms: N3_15  and  C6_17 
ROOT
HETATM    1  C4  UNL     1       2.217  -1.072   0.620  1.00  0.00     0.359 C 
ENDROOT
BRANCH   1   2
HETATM    2  N1  UNL     1       0.880  -0.508   0.601  1.00  0.00    -0.327 N 
HETATM    3  C3  UNL     1       0.484   0.504  -0.283  1.00  0.00     0.223 C 
HETATM    4  O1  UNL     1       1.346   0.959  -1.115  1.00  0.00    -0.273 OA
ATOM      5  H1  UNL     1       0.194  -0.867   1.265  1.00  0.00     0.165 HD
BRANCH   3   6
HETATM    6  C2  UNL     1      -0.857   1.100  -0.343  1.00  0.00     0.078 C 
HETATM    7  C1  UNL     1      -0.864   2.351  -1.233  1.00  0.00     0.020 C 
BRANCH   6   8
HETATM    8  C7  UNL     1      -1.862   0.170  -0.924  1.00  0.00     0.003 C 
HETATM    9  C8  UNL     1      -3.253   0.845  -0.910  1.00  0.00     0.010 C 
HETATM   10  C9  UNL     1      -4.021  -0.222  -0.188  1.00  0.00    -0.013 C 
HETATM   11  C10 UNL     1      -3.504  -1.475  -0.858  1.00  0.00     0.010 C 
HETATM   12  C12 UNL     1      -3.069  -0.592   0.955  1.00  0.00     0.010 C 
HETATM   13  C11 UNL     1      -2.178  -1.061  -0.176  1.00  0.00    -0.009 C 
ENDBRANCH   6   8
ENDBRANCH   3   6
ENDBRANCH   1   2
BRANCH   1  14
HETATM   14  N2  UNL     1       2.094  -2.504   0.438  1.00  0.00    -0.051 N 
ATOM     15  H23 UNL     1       1.471  -2.938   1.119  1.00  0.00     0.277 HD
ATOM     16  H22 UNL     1       1.571  -2.753  -0.401  1.00  0.00     0.277 HD
ATOM     17  H21 UNL     1       3.034  -2.900   0.451  1.00  0.00     0.277 HD
ENDBRANCH   1  14
BRANCH   1  18
HETATM   18  C5  UNL     1       2.815  -0.860   1.961  1.00  0.00     0.169 C 
HETATM   19  N3  UNL     1       3.900  -0.201   2.115  1.00  0.00    -0.312 N 
HETATM   20  C6  UNL     1       4.582   0.358   0.995  1.00  0.00     0.187 C 
ATOM     21  H3  UNL     1       4.283  -0.074   3.052  1.00  0.00     0.170 HD
HETATM   22  N4  UNL     1       5.411  -0.387   0.356  1.00  0.00    -0.373 N 
HETATM   23  N5  UNL     1       4.381   1.689   0.569  1.00  0.00    -0.064 NA
ATOM     24  H42 UNL     1       5.556  -1.349   0.664  1.00  0.00     0.158 HD
ATOM     25  H41 UNL     1       5.899   0.013  -0.445  1.00  0.00     0.158 HD
BRANCH  18  26
HETATM   26  O2  UNL     1       2.205  -1.377   3.101  1.00  0.00    -0.346 OA
ATOM     27  H2  UNL     1       2.588  -1.241   3.960  1.00  0.00     0.219 HD
ENDBRANCH  18  26
ENDBRANCH   1  18
TORSDOF 6
