REMARK  5 active torsions:
REMARK  status: ('A' for Active; 'I' for Inactive)
REMARK    1  A    between atoms: C2_2  and  N1_4 
REMARK       I    between atoms: C4_6  and  N3_8 
REMARK    2  A    between atoms: N3_8  and  C5_10 
REMARK    3  A    between atoms: C5_10  and  C6_11 
REMARK    4  A    between atoms: C6_11  and  N4_12 
REMARK       I    between atoms: C7_14  and  N6_16 
REMARK    5  A    between atoms: C10_19  and  N7_20 
ROOT
HETATM    1  N4  UNL     1      -1.480  -2.145  -0.716  1.00  0.00    -0.363 N 
ATOM      2  H4  UNL     1      -1.115  -3.083  -0.880  1.00  0.00     0.162 HD
HETATM    3  C7  UNL     1      -2.678  -2.016  -0.260  1.00  0.00     0.186 C 
HETATM    4  N5  UNL     1      -3.479  -3.148   0.012  1.00  0.00    -0.064 NA
HETATM    5  N6  UNL     1      -3.213  -0.721  -0.023  1.00  0.00    -0.354 N 
HETATM    6  C8  UNL     1      -3.152  -0.042   1.249  1.00  0.00     0.127 C 
HETATM    7  C9  UNL     1      -4.263   1.006   1.104  1.00  0.00     0.054 C 
HETATM    8  C10 UNL     1      -4.036   1.429  -0.334  1.00  0.00     0.203 C 
HETATM    9  C11 UNL     1      -3.888   0.089  -1.018  1.00  0.00     0.158 C 
ENDROOT
BRANCH   1  10
HETATM   10  C6  UNL     1      -0.641  -1.019  -1.002  1.00  0.00     0.142 C 
BRANCH  10  11
HETATM   11  C5  UNL     1       0.673  -1.149  -0.289  1.00  0.00     0.142 C 
BRANCH  11  12
HETATM   12  N3  UNL     1       1.505  -0.006  -0.589  1.00  0.00    -0.363 N 
HETATM   13  C4  UNL     1       2.805   0.101  -0.028  1.00  0.00     0.184 C 
HETATM   14  N1  UNL     1       3.825   0.055  -0.777  1.00  0.00    -0.361 N 
HETATM   15  N2  UNL     1       2.923   0.258   1.373  1.00  0.00    -0.064 NA
ATOM     16  H1  UNL     1       3.639  -0.060  -1.773  1.00  0.00     0.162 HD
ATOM     17  H3  UNL     1       1.157   0.727  -1.207  1.00  0.00     0.162 HD
BRANCH  14  18
HETATM   18  C2  UNL     1       5.199   0.143  -0.408  1.00  0.00     0.076 C 
HETATM   19  C1  UNL     1       6.102   0.517  -1.556  1.00  0.00     0.032 C 
HETATM   20  C3  UNL     1       5.483   1.065   0.748  1.00  0.00     0.032 C 
ENDBRANCH  14  18
ENDBRANCH  11  12
ENDBRANCH  10  11
ENDBRANCH   1  10
BRANCH   8  21
HETATM   21  N7  UNL     1      -5.174   2.140  -0.875  1.00  0.00    -0.073 N 
ATOM     22  H73 UNL     1      -6.031   1.595  -0.780  1.00  0.00     0.274 HD
ATOM     23  H72 UNL     1      -5.425   2.937  -0.290  1.00  0.00     0.274 HD
ATOM     24  H71 UNL     1      -5.021   2.425  -1.843  1.00  0.00     0.274 HD
ENDBRANCH   8  21
TORSDOF 5
