REMARK  4 active torsions:
REMARK  status: ('A' for Active; 'I' for Inactive)
REMARK       I    between atoms: N1_2  and  C2_4 
REMARK    1  A    between atoms: N3_6  and  C3_8 
REMARK    2  A    between atoms: C3_8  and  C4_9 
REMARK    3  A    between atoms: C4_9  and  N4_10 
REMARK       I    between atoms: N4_10  and  C5_12 
REMARK       I    between atoms: C5_12  and  N6_16 
REMARK    4  A    between atoms: C8_19  and  N7_20 
ROOT
HETATM    1  N4  UNL     1       1.385  -0.114  -0.460  1.00  0.00    -0.225 N 
ATOM      2  H4  UNL     1       1.736  -1.056  -0.288  1.00  0.00     0.177 HD
HETATM    3  C5  UNL     1       0.300   0.098  -1.352  1.00  0.00     0.669 C 
HETATM    4  N5  UNL     1       0.592   0.232  -2.603  1.00  0.00    -0.235 N 
ATOM      5  H51 UNL     1      -0.187   0.384  -3.244  1.00  0.00     0.174 HD
ATOM      6  H52 UNL     1       1.572   0.180  -2.882  1.00  0.00     0.174 HD
HETATM    7  N6  UNL     1      -1.055   0.170  -0.966  1.00  0.00    -0.218 N 
HETATM    8  C6  UNL     1      -2.069  -0.253  -1.895  1.00  0.00     0.143 C 
HETATM    9  C7  UNL     1      -3.187  -1.017  -1.279  1.00  0.00     0.045 C 
HETATM   10  C8  UNL     1      -3.563  -0.627   0.104  1.00  0.00     0.081 C 
HETATM   11  C11 UNL     1      -2.864   0.567   0.649  1.00  0.00     0.045 C 
HETATM   12  C12 UNL     1      -1.418   0.650   0.318  1.00  0.00     0.143 C 
ENDROOT
BRANCH   1  13
HETATM   13  C4  UNL     1       1.993   1.040   0.210  1.00  0.00     0.157 C 
BRANCH  13  14
HETATM   14  C3  UNL     1       3.130   0.579   1.110  1.00  0.00     0.142 C 
BRANCH  14  15
HETATM   15  N3  UNL     1       4.119  -0.086   0.306  1.00  0.00    -0.363 N 
HETATM   16  C2  UNL     1       5.188  -0.589   0.812  1.00  0.00     0.183 C 
HETATM   17  N1  UNL     1       6.149  -1.242  -0.019  1.00  0.00    -0.369 N 
HETATM   18  N2  UNL     1       5.415  -0.498   2.194  1.00  0.00    -0.064 NA
HETATM   19  C1  UNL     1       7.352  -0.564  -0.423  1.00  0.00     0.148 C 
ATOM     20  H1  UNL     1       5.981  -2.199  -0.329  1.00  0.00     0.161 HD
ATOM     21  H3  UNL     1       3.967  -0.161  -0.700  1.00  0.00     0.162 HD
ENDBRANCH  14  15
ENDBRANCH  13  14
ENDBRANCH   1  13
BRANCH  10  22
HETATM   22  N7  UNL     1      -4.989  -0.476   0.170  1.00  0.00    -0.416 N 
HETATM   23  C9  UNL     1      -5.520   0.546  -0.657  1.00  0.00     0.143 C 
HETATM   24  C10 UNL     1      -5.536  -0.553   1.482  1.00  0.00     0.143 C 
ENDBRANCH  10  22
TORSDOF 4
