REMARK  6 active torsions:
REMARK  status: ('A' for Active; 'I' for Inactive)
REMARK    1  A    between atoms: C3_3  and  N1_4 
REMARK       I    between atoms: N1_4  and  C4_6 
REMARK       I    between atoms: C4_6  and  N3_12 
REMARK    2  A    between atoms: N2_7  and  C5_9 
REMARK    3  A    between atoms: C5_9  and  C6_10 
REMARK    4  A    between atoms: N3_12  and  C8_14 
REMARK    5  A    between atoms: C8_14  and  N4_16 
REMARK    6  A    between atoms: N4_16  and  C9_18 
ROOT
HETATM    1  C1  UNL     1      -2.563  -1.736  -2.222  1.00  0.00     0.014 C 
HETATM    2  C2  UNL     1      -1.955  -1.972  -1.210  1.00  0.00    -0.097 C 
HETATM    3  C3  UNL     1      -1.222  -2.282   0.017  1.00  0.00     0.231 C 
ENDROOT
BRANCH   3   4
HETATM    4  N1  UNL     1      -1.288  -1.211   0.985  1.00  0.00    -0.216 N 
HETATM    5  C4  UNL     1      -0.649   0.033   0.760  1.00  0.00     0.677 C 
HETATM    6  N2  UNL     1      -1.245   1.135   1.007  1.00  0.00    -0.223 N 
HETATM    7  N3  UNL     1       0.674   0.036   0.255  1.00  0.00    -0.167 N 
ATOM      8  H2  UNL     1      -0.739   2.002   0.828  1.00  0.00     0.178 HD
ATOM      9  H3  UNL     1       0.951  -0.705  -0.389  1.00  0.00     0.186 HD
ATOM     10  H1  UNL     1      -1.807  -1.354   1.851  1.00  0.00     0.178 HD
BRANCH   6  11
HETATM   11  C5  UNL     1      -2.584   1.230   1.522  1.00  0.00     0.164 C 
BRANCH  11  12
HETATM   12  C6  UNL     1      -3.616   1.298   0.438  1.00  0.00    -0.017 C 
HETATM   13  C7  UNL     1      -4.440   2.318   0.310  1.00  0.00     0.008 C 
ENDBRANCH  11  12
ENDBRANCH   6  11
BRANCH   7  14
HETATM   14  C8  UNL     1       1.631   1.021   0.604  1.00  0.00     0.186 C 
HETATM   15  S1  UNL     1       1.182   2.196   1.633  1.00  0.00    -0.040 SA
BRANCH  14  16
HETATM   16  N4  UNL     1       2.938   1.013   0.095  1.00  0.00    -0.362 N 
ATOM     17  H4  UNL     1       3.601   1.738   0.368  1.00  0.00     0.162 HD
BRANCH  16  18
HETATM   18  C9  UNL     1       3.333  -0.025  -0.813  1.00  0.00     0.084 A 
HETATM   19  C10 UNL     1       4.776   0.028  -1.300  1.00  0.00     0.027 A 
HETATM   20  C11 UNL     1       4.280  -1.089  -0.439  1.00  0.00     0.027 A 
ENDBRANCH  16  18
ENDBRANCH  14  16
ENDBRANCH   7  14
ENDBRANCH   3   4
TORSDOF 6
