REMARK  4 active torsions:
REMARK  status: ('A' for Active; 'I' for Inactive)
REMARK       I    between atoms: C1_2  and  N2_4 
REMARK    1  A    between atoms: N2_4  and  C2_6 
REMARK    2  A    between atoms: C2_6  and  C3_7 
REMARK    3  A    between atoms: C3_7  and  N3_8 
REMARK       I    between atoms: N3_8  and  C4_10 
REMARK    4  A    between atoms: C4_10  and  C5_12 
ROOT
HETATM    1  N3  UNL     1       0.657   0.444  -0.832  1.00  0.00    -0.359 N 
ATOM      2  H3  UNL     1       0.183   1.275  -1.186  1.00  0.00     0.162 HD
HETATM    3  C4  UNL     1      -0.120  -0.521  -0.143  1.00  0.00     0.226 C 
HETATM    4  O2  UNL     1       0.435  -1.554   0.301  1.00  0.00    -0.273 OA
ENDROOT
BRANCH   3   5
HETATM    5  C5  UNL     1      -1.530  -0.314   0.043  1.00  0.00     0.042 C 
HETATM    6  C6  UNL     1      -2.342  -0.175  -1.227  1.00  0.00     0.024 C 
HETATM    7  C7  UNL     1      -3.759  -0.346  -0.690  1.00  0.00    -0.009 C 
HETATM    8  C8  UNL     1      -4.211   0.959  -0.018  1.00  0.00     0.010 C 
HETATM    9  C11 UNL     1      -3.634  -0.920   0.694  1.00  0.00    -0.005 C 
HETATM   10  C9  UNL     1      -3.412   0.472   1.199  1.00  0.00    -0.009 C 
HETATM   11  C10 UNL     1      -1.924   0.778   0.997  1.00  0.00     0.024 C 
HETATM   12  C12 UNL     1      -2.242  -1.516   0.684  1.00  0.00     0.024 C 
ENDBRANCH   3   5
BRANCH   1  13
HETATM   13  C3  UNL     1       2.079   0.324  -1.065  1.00  0.00     0.142 C 
BRANCH  13  14
HETATM   14  C2  UNL     1       2.879   0.247   0.212  1.00  0.00     0.143 C 
BRANCH  14  15
HETATM   15  N2  UNL     1       4.284   0.132  -0.139  1.00  0.00    -0.344 N 
HETATM   16  C1  UNL     1       5.303   0.040   0.833  1.00  0.00     0.328 C 
HETATM   17  N1  UNL     1       6.650  -0.070   0.455  1.00  0.00    -0.040 NA
HETATM   18  O1  UNL     1       4.997   0.056   2.042  1.00  0.00    -0.251 OA
ATOM     19  H2  UNL     1       4.544   0.117  -1.125  1.00  0.00     0.163 HD
ENDBRANCH  14  15
ENDBRANCH  13  14
ENDBRANCH   1  13
TORSDOF 4
