REMARK  5 active torsions:
REMARK  status: ('A' for Active; 'I' for Inactive)
REMARK       I    between atoms: C1_2  and  N4_13 
REMARK    1  A    between atoms: N2_3  and  C2_5 
REMARK    2  A    between atoms: C2_5  and  C3_6 
REMARK       I    between atoms: C3_6  and  N3_8 
REMARK    3  A    between atoms: N3_8  and  C4_10 
REMARK    4  A    between atoms: N4_13  and  C7_15 
REMARK    5  A    between atoms: C7_15  and  C8_16 
ROOT
HETATM    1  N1  UNL     1      -0.838  -1.258   2.984  1.00  0.00    -0.064 NA
HETATM    2  C1  UNL     1      -0.211  -0.699   1.834  1.00  0.00     0.184 C 
HETATM    3  N2  UNL     1       1.070  -0.548   1.765  1.00  0.00    -0.356 N 
ATOM      4  H2  UNL     1       1.658  -0.834   2.548  1.00  0.00     0.162 HD
HETATM    5  N4  UNL     1      -0.976  -0.283   0.709  1.00  0.00    -0.364 N 
ATOM      6  H4  UNL     1      -0.706   0.537   0.166  1.00  0.00     0.162 HD
ENDROOT
BRANCH   3   7
HETATM    7  C2  UNL     1       1.669   0.018   0.595  1.00  0.00     0.225 C 
BRANCH   7   8
HETATM    8  C3  UNL     1       3.156   0.023   0.786  1.00  0.00     0.235 C 
HETATM    9  O1  UNL     1       3.663  -0.425   1.848  1.00  0.00    -0.272 OA
HETATM   10  N3  UNL     1       4.026   0.526  -0.210  1.00  0.00    -0.355 N 
ATOM     11  H3  UNL     1       3.640   0.894  -1.079  1.00  0.00     0.162 HD
BRANCH  10  12
HETATM   12  C4  UNL     1       5.435   0.523  -0.010  1.00  0.00     0.084 A 
HETATM   13  C5  UNL     1       6.393   0.535  -1.148  1.00  0.00     0.027 A 
HETATM   14  C6  UNL     1       6.164   1.819  -0.467  1.00  0.00     0.027 A 
ENDBRANCH  10  12
ENDBRANCH   7   8
ENDBRANCH   3   7
BRANCH   5  15
HETATM   15  C7  UNL     1      -2.143  -1.052   0.357  1.00  0.00     0.126 C 
BRANCH  15  16
HETATM   16  C8  UNL     1      -2.832  -0.483  -0.844  1.00  0.00     0.003 C 
HETATM   17  C9  UNL     1      -4.047  -1.320  -1.177  1.00  0.00     0.006 C 
HETATM   18  C10 UNL     1      -5.124  -0.312  -1.456  1.00  0.00     0.000 C 
HETATM   19  C11 UNL     1      -4.834   0.801  -0.476  1.00  0.00     0.000 C 
HETATM   20  C12 UNL     1      -3.315   0.900  -0.549  1.00  0.00     0.006 C 
ENDBRANCH  15  16
ENDBRANCH   5  15
TORSDOF 5
