REMARK  4 active torsions:
REMARK  status: ('A' for Active; 'I' for Inactive)
REMARK    1  A    between atoms: C2_2  and  C3_3 
REMARK    2  A    between atoms: C5_5  and  C7_8 
REMARK    3  A    between atoms: C7_8  and  C9_10 
REMARK    4  A    between atoms: C9_10  and  N2_11 
REMARK       I    between atoms: C10_13  and  N4_15 
ROOT
HETATM    1  C3  UNL     1      -2.730  -0.133   0.583  1.00  0.00     0.032 A 
HETATM    2  C4  UNL     1      -3.271  -1.409  -0.134  1.00  0.00     0.036 A 
HETATM    3  C5  UNL     1      -2.374  -0.395  -0.814  1.00  0.00     0.061 A 
HETATM    4  C6  UNL     1      -3.097   0.450  -1.798  1.00  0.00     0.070 C 
HETATM    5  N1  UNL     1      -3.659   1.119  -2.548  1.00  0.00    -0.196 NA
ENDROOT
BRANCH   3   6
HETATM    6  C7  UNL     1      -1.062  -0.884  -1.275  1.00  0.00     0.023 C 
HETATM    7  C8  UNL     1      -0.746  -2.215  -0.659  1.00  0.00     0.013 C 
BRANCH   6   8
HETATM    8  C9  UNL     1       0.055   0.119  -1.086  1.00  0.00     0.128 C 
BRANCH   8   9
HETATM    9  N2  UNL     1       1.317  -0.367  -1.536  1.00  0.00    -0.364 N 
HETATM   10  C10 UNL     1       2.458   0.035  -1.169  1.00  0.00     0.190 C 
HETATM   11  N3  UNL     1       3.624  -0.556  -1.716  1.00  0.00    -0.063 NA
HETATM   12  N4  UNL     1       2.617   1.071  -0.216  1.00  0.00    -0.307 N 
HETATM   13  C11 UNL     1       3.640   1.100   0.568  1.00  0.00     0.203 C 
ATOM     14  H4  UNL     1       1.912   1.805  -0.149  1.00  0.00     0.170 HD
HETATM   15  N5  UNL     1       4.673   0.126   0.551  1.00  0.00    -0.066 NA
HETATM   16  N6  UNL     1       3.740   2.164   1.499  1.00  0.00    -0.066 NA
ATOM     17  H2  UNL     1       1.298  -1.118  -2.226  1.00  0.00     0.162 HD
ENDBRANCH   8   9
ENDBRANCH   6   8
ENDBRANCH   3   6
BRANCH   1  18
HETATM   18  C2  UNL     1      -3.750   0.905   0.894  1.00  0.00    -0.030 C 
HETATM   19  C1  UNL     1      -3.416   1.929   1.638  1.00  0.00     0.007 C 
ENDBRANCH   1  18
TORSDOF 4
