REMARK  5 active torsions:
REMARK  status: ('A' for Active; 'I' for Inactive)
REMARK       I    between atoms: C1_2  and  N2_4 
REMARK    1  A    between atoms: C2_6  and  C3_7 
REMARK    2  A    between atoms: C3_7  and  N3_8 
REMARK       I    between atoms: N3_8  and  C4_10 
REMARK       I    between atoms: C4_10  and  N4_12 
REMARK    3  A    between atoms: N4_12  and  C5_14 
REMARK    4  A    between atoms: C5_14  and  C6_15 
REMARK    5  A    between atoms: C8_17  and  C9_18 
ROOT
HETATM    1  N3  UNL     1      -2.480   0.130  -0.554  1.00  0.00    -0.338 N 
ATOM      2  H3  UNL     1      -2.893   1.055  -0.672  1.00  0.00     0.164 HD
HETATM    3  C4  UNL     1      -1.204  -0.026   0.023  1.00  0.00     0.316 C 
HETATM    4  O2  UNL     1      -0.714  -1.161   0.161  1.00  0.00    -0.247 OA
HETATM    5  N4  UNL     1      -0.469   1.106   0.451  1.00  0.00    -0.343 N 
ATOM      6  H4  UNL     1      -0.869   2.038   0.339  1.00  0.00     0.164 HD
ENDROOT
BRANCH   1   7
HETATM    7  C3  UNL     1      -3.193  -1.069  -0.977  1.00  0.00     0.169 C 
BRANCH   7   8
HETATM    8  C2  UNL     1      -4.495  -0.701  -1.550  1.00  0.00     0.085 C 
HETATM    9  N2  UNL     1      -5.575  -0.726  -0.852  1.00  0.00    -0.323 N 
HETATM   10  C1  UNL     1      -5.484  -1.123   0.509  1.00  0.00     0.332 C 
ATOM     11  H2  UNL     1      -6.472  -0.468  -1.264  1.00  0.00     0.169 HD
HETATM   12  N1  UNL     1      -5.421  -0.097   1.479  1.00  0.00    -0.040 NA
HETATM   13  O1  UNL     1      -5.462  -2.347   0.819  1.00  0.00    -0.251 OA
ENDBRANCH   7   8
ENDBRANCH   1   7
BRANCH   5  14
HETATM   14  C5  UNL     1       0.838   0.959   1.044  1.00  0.00     0.129 C 
BRANCH  14  15
HETATM   15  C6  UNL     1       1.817   0.285   0.086  1.00  0.00     0.008 A 
HETATM   16  C7  UNL     1       2.079   0.971  -1.215  1.00  0.00     0.012 A 
HETATM   17  C8  UNL     1       3.143   0.901  -0.168  1.00  0.00    -0.004 A 
BRANCH  17  18
HETATM   18  C9  UNL     1       4.349   0.069  -0.457  1.00  0.00    -0.010 A 
HETATM   19  C10 UNL     1       4.830  -0.938   0.554  1.00  0.00     0.005 A 
HETATM   20  C11 UNL     1       5.549   0.332   0.420  1.00  0.00     0.005 A 
ENDBRANCH  17  18
ENDBRANCH  14  15
ENDBRANCH   5  14
TORSDOF 5
