REMARK  9 active torsions:
REMARK  status: ('A' for Active; 'I' for Inactive)
REMARK    1  A    between atoms: C2_2  and  C3_3 
REMARK    2  A    between atoms: C3_3  and  N1_4 
REMARK    3  A    between atoms: C4_5  and  O1_6 
REMARK    4  A    between atoms: C6_9  and  C7_10 
REMARK    5  A    between atoms: N2_19  and  C14_20 
REMARK    6  A    between atoms: C14_20  and  C15_21 
REMARK    7  A    between atoms: C16_22  and  C17_23 
REMARK    8  A    between atoms: C17_23  and  O4_26 
REMARK    9  A    between atoms: C21_29  and  O5_30 
ROOT
HETATM    1  C7  UNL     1      -0.898  -1.419   0.412  1.00  0.00     0.020 C 
HETATM    2  C8  UNL     1      -1.534  -2.599   1.174  1.00  0.00     0.026 C 
HETATM    3  C9  UNL     1      -0.815  -1.881  -1.036  1.00  0.00     0.036 C 
HETATM    4  C10 UNL     1       0.586  -2.342  -1.239  1.00  0.00     0.112 C 
HETATM    5  C11 UNL     1       0.931  -2.718  -2.607  1.00  0.00     0.265 C 
HETATM    6  O2  UNL     1       0.201  -3.266  -3.480  1.00  0.00    -0.265 OA
HETATM    7  O3  UNL     1       2.269  -2.348  -2.786  1.00  0.00    -0.319 OA
HETATM    8  C12 UNL     1       2.714  -1.575  -1.687  1.00  0.00     0.204 C 
HETATM    9  C13 UNL     1       1.422  -1.052  -1.116  1.00  0.00     0.121 C 
HETATM   10  N2  UNL     1       1.492  -0.733   0.267  1.00  0.00    -0.381 N 
HETATM   11  C20 UNL     1       0.382  -1.081   1.057  1.00  0.00     0.073 C 
ENDROOT
BRANCH   1  12
HETATM   12  C6  UNL     1      -1.893  -0.318   0.515  1.00  0.00     0.010 A 
HETATM   13  C5  UNL     1      -1.727   0.916   1.072  1.00  0.00     0.068 A 
HETATM   14  C4  UNL     1      -2.921   1.640   0.952  1.00  0.00     0.144 A 
HETATM   15  N1  UNL     1      -3.782   0.823   0.323  1.00  0.00    -0.308 N 
HETATM   16  C21 UNL     1      -3.196  -0.352   0.051  1.00  0.00     0.151 A 
BRANCH  14  17
HETATM   17  O1  UNL     1      -3.091   2.931   1.416  1.00  0.00    -0.346 OA
ATOM     18  H1  UNL     1      -2.482   3.509   1.861  1.00  0.00     0.219 HD
ENDBRANCH  14  17
BRANCH  15  19
HETATM   19  C3  UNL     1      -5.150   1.131  -0.022  1.00  0.00     0.133 C 
BRANCH  19  20
HETATM   20  C2  UNL     1      -5.308   1.761  -1.360  1.00  0.00     0.016 C 
HETATM   21  C1  UNL     1      -4.821   0.941  -2.508  1.00  0.00     0.006 C 
ENDBRANCH  19  20
ENDBRANCH  15  19
BRANCH  16  22
HETATM   22  O5  UNL     1      -3.778  -1.423  -0.583  1.00  0.00    -0.345 OA
ATOM     23  H5  UNL     1      -3.363  -2.255  -0.776  1.00  0.00     0.219 HD
ENDBRANCH  16  22
ENDBRANCH   1  12
BRANCH  10  24
HETATM   24  C14 UNL     1       2.045   0.566   0.434  1.00  0.00     0.149 C 
BRANCH  24  25
HETATM   25  C15 UNL     1       2.244   1.035   1.804  1.00  0.00    -0.008 C 
HETATM   26  C16 UNL     1       3.395   1.377   2.357  1.00  0.00     0.007 C 
BRANCH  26  27
HETATM   27  C17 UNL     1       4.710   1.348   1.687  1.00  0.00     0.068 C 
HETATM   28  C18 UNL     1       4.844   2.330   0.551  1.00  0.00     0.050 C 
HETATM   29  C19 UNL     1       5.077  -0.046   1.239  1.00  0.00     0.050 C 
BRANCH  27  30
HETATM   30  O4  UNL     1       5.711   1.713   2.616  1.00  0.00    -0.387 OA
ATOM     31  H4  UNL     1       6.557   1.694   2.185  1.00  0.00     0.211 HD
ENDBRANCH  27  30
ENDBRANCH  26  27
ENDBRANCH  24  25
ENDBRANCH  10  24
TORSDOF 9
