REMARK  7 active torsions:
REMARK  status: ('A' for Active; 'I' for Inactive)
REMARK    1  A    between atoms: C2_2  and  C3_3 
REMARK    2  A    between atoms: C4_5  and  S2_6 
REMARK    3  A    between atoms: S2_6  and  C5_7 
REMARK    4  A    between atoms: C5_7  and  C6_8 
REMARK       I    between atoms: C6_8  and  N1_10 
REMARK       I    between atoms: N1_10  and  C7_12 
REMARK    5  A    between atoms: C7_12  and  C8_14 
REMARK    6  A    between atoms: C13_20  and  C14_21 
REMARK    7  A    between atoms: C14_21  and  O3_22 
ROOT
HETATM    1  C3  UNL     1       5.582  -0.392  -0.914  1.00  0.00    -0.009 A 
HETATM    2  S1  UNL     1       4.495   0.832  -1.352  1.00  0.00    -0.085 SA
HETATM    3  C4  UNL     1       3.866   1.225   0.217  1.00  0.00     0.067 A 
HETATM    4  C16 UNL     1       4.545   0.371   1.022  1.00  0.00     0.075 A 
HETATM    5  C17 UNL     1       4.360   0.412   2.488  1.00  0.00     0.102 C 
HETATM    6  N3  UNL     1       4.196   0.465   3.651  1.00  0.00    -0.191 NA
HETATM    7  C18 UNL     1       5.438  -0.475   0.447  1.00  0.00    -0.026 A 
HETATM    8  C19 UNL     1       6.267  -1.490   1.237  1.00  0.00     0.051 C 
ENDROOT
BRANCH   3   9
HETATM    9  S2  UNL     1       2.705   2.524   0.560  1.00  0.00    -0.088 SA
BRANCH   9  10
HETATM   10  C5  UNL     1       1.018   2.170   0.205  1.00  0.00     0.125 C 
BRANCH  10  11
HETATM   11  C6  UNL     1       0.380   1.188   1.055  1.00  0.00     0.254 C 
HETATM   12  O1  UNL     1       1.024   0.617   2.001  1.00  0.00    -0.268 OA
HETATM   13  N1  UNL     1      -0.971   0.770   0.934  1.00  0.00    -0.289 N 
HETATM   14  C7  UNL     1      -1.843   1.308  -0.003  1.00  0.00     0.258 C 
ATOM     15  H1  UNL     1      -1.316   0.044   1.562  1.00  0.00     0.172 HD
HETATM   16  O2  UNL     1      -1.499   2.208  -0.802  1.00  0.00    -0.267 OA
BRANCH  14  17
HETATM   17  C8  UNL     1      -3.253   0.842  -0.116  1.00  0.00     0.034 A 
HETATM   18  C9  UNL     1      -4.181   1.629  -0.755  1.00  0.00     0.044 A 
HETATM   19  C10 UNL     1      -5.505   1.195  -0.874  1.00  0.00     0.053 A 
HETATM   20  N2  UNL     1      -6.473   2.005  -1.531  1.00  0.00    -0.102 NA
HETATM   21  C11 UNL     1      -5.898  -0.022  -0.357  1.00  0.00    -0.029 A 
HETATM   22  C12 UNL     1      -7.308  -0.476  -0.492  1.00  0.00     0.050 C 
HETATM   23  C13 UNL     1      -4.969  -0.810   0.281  1.00  0.00    -0.026 A 
HETATM   24  C15 UNL     1      -3.667  -0.366   0.391  1.00  0.00     0.027 A 
BRANCH  23  25
HETATM   25  C14 UNL     1      -5.372  -2.127   0.842  1.00  0.00     0.203 C 
BRANCH  25  26
HETATM   26  O3  UNL     1      -4.308  -2.775   1.439  1.00  0.00    -0.396 OA
ATOM     27  H3  UNL     1      -4.565  -3.616   1.797  1.00  0.00     0.209 HD
ENDBRANCH  25  26
ENDBRANCH  23  25
ENDBRANCH  14  17
ENDBRANCH  10  11
ENDBRANCH   9  10
ENDBRANCH   3   9
BRANCH   1  28
HETATM   28  C2  UNL     1       6.509  -1.216  -1.786  1.00  0.00     0.042 C 
HETATM   29  C1  UNL     1       7.885  -0.639  -1.608  1.00  0.00     0.010 C 
ENDBRANCH   1  28
TORSDOF 7
