REMARK  7 active torsions:
REMARK  status: ('A' for Active; 'I' for Inactive)
REMARK    1  A    between atoms: O1_1  and  C1_3 
REMARK    2  A    between atoms: C4_6  and  C5_7 
REMARK    3  A    between atoms: C5_7  and  N1_8 
REMARK    4  A    between atoms: N1_8  and  C6_10 
REMARK    5  A    between atoms: C6_10  and  C7_11 
REMARK    6  A    between atoms: C7_11  and  N2_12 
REMARK    7  A    between atoms: C18_26  and  O4_27 
ROOT
HETATM    1  C7  UNL     1       0.786  -0.441  -0.559  1.00  0.00     0.316 C 
ENDROOT
BRANCH   1   2
HETATM    2  C6  UNL     1       1.998  -0.994   0.122  1.00  0.00     0.085 C 
BRANCH   2   3
HETATM    3  N1  UNL     1       3.014  -1.477  -0.721  1.00  0.00    -0.396 N 
ATOM      4  H1  UNL     1       3.286  -2.460  -0.743  1.00  0.00     0.159 HD
BRANCH   3   5
HETATM    5  C5  UNL     1       3.641  -0.486  -1.548  1.00  0.00     0.160 C 
BRANCH   5   6
HETATM    6  C4  UNL     1       4.875   0.025  -0.878  1.00  0.00    -0.007 A 
HETATM    7  C3  UNL     1       5.182   1.349  -1.056  1.00  0.00     0.014 A 
HETATM    8  C2  UNL     1       6.294   1.860  -0.442  1.00  0.00     0.037 A 
HETATM    9  C1  UNL     1       7.107   1.066   0.348  1.00  0.00     0.068 A 
HETATM   10  C19 UNL     1       6.778  -0.273   0.513  1.00  0.00     0.073 A 
HETATM   11  C18 UNL     1       5.658  -0.792  -0.104  1.00  0.00     0.076 A 
BRANCH   9  12
HETATM   12  O1  UNL     1       8.237   1.582   0.972  1.00  0.00    -0.361 OA
ATOM     13  H1  UNL     1       8.795   1.037   1.514  1.00  0.00     0.217 HD
ENDBRANCH   9  12
BRANCH  11  14
HETATM   14  O4  UNL     1       5.339  -2.124   0.069  1.00  0.00    -0.360 OA
ATOM     15  H4  UNL     1       5.882  -2.690   0.605  1.00  0.00     0.217 HD
ENDBRANCH  11  14
ENDBRANCH   5   6
ENDBRANCH   3   5
ENDBRANCH   2   3
ENDBRANCH   1   2
BRANCH   1  16
HETATM   16  N2  UNL     1      -0.113  -0.059   0.537  1.00  0.00     0.096 N 
HETATM   17  C8  UNL     1      -1.242   0.704   0.127  1.00  0.00     0.299 C 
HETATM   18  C9  UNL     1      -0.958   2.219   0.256  1.00  0.00     0.200 C 
HETATM   19  O2  UNL     1      -2.030   2.964  -0.148  1.00  0.00    -0.365 OA
HETATM   20  C10 UNL     1      -3.193   2.274   0.160  1.00  0.00     0.337 C 
HETATM   21  O3  UNL     1      -4.374   2.937  -0.095  1.00  0.00    -0.367 OA
HETATM   22  C11 UNL     1      -5.352   1.978  -0.461  1.00  0.00     0.170 C 
HETATM   23  C12 UNL     1      -5.365   0.783   0.416  1.00  0.00     0.026 C 
HETATM   24  C13 UNL     1      -5.868  -0.470  -0.237  1.00  0.00     0.003 C 
HETATM   25  C14 UNL     1      -4.847  -1.205  -1.061  1.00  0.00     0.010 C 
HETATM   26  C15 UNL     1      -3.879  -2.008  -0.206  1.00  0.00     0.074 C 
HETATM   27  S1  UNL     1      -2.224  -2.027  -0.938  1.00  0.00    -0.167 SA
HETATM   28  C16 UNL     1      -0.927  -2.372   0.231  1.00  0.00     0.104 C 
HETATM   29  C17 UNL     1      -0.589  -1.287   1.183  1.00  0.00     0.283 C 
ENDBRANCH   1  16
TORSDOF 7
