REMARK  10 active torsions:
REMARK  status: ('A' for Active; 'I' for Inactive)
REMARK    1  A    between atoms: C2_2  and  O2_4 
REMARK    2  A    between atoms: O2_4  and  C3_5 
REMARK    3  A    between atoms: C3_5  and  C4_6 
REMARK    4  A    between atoms: C3_5  and  C17_23 
REMARK    5  A    between atoms: C10_12  and  O3_13 
REMARK    6  A    between atoms: C17_23  and  O6_25 
REMARK    7  A    between atoms: C17_23  and  C19_27 
REMARK    8  A    between atoms: C19_27  and  C20_28 
REMARK    9  A    between atoms: C20_28  and  C21_29 
REMARK   10  A    between atoms: C21_29  and  O7_30 
ROOT
HETATM    1  C4  UNL     1      -0.737  -0.592   0.664  1.00  0.00     0.166 C 
HETATM    2  C5  UNL     1       0.179   0.543   0.313  1.00  0.00     0.079 C 
HETATM    3  C6  UNL     1       1.573  -0.019   0.373  1.00  0.00     0.012 A 
HETATM    4  C7  UNL     1       1.403  -1.379   0.349  1.00  0.00     0.087 A 
HETATM    5  C8  UNL     1       2.550  -2.159   0.395  1.00  0.00     0.006 A 
HETATM    6  C9  UNL     1       2.484  -3.643   0.374  1.00  0.00     0.054 C 
HETATM    7  C10 UNL     1       3.794  -1.566   0.462  1.00  0.00     0.083 A 
HETATM    8  C11 UNL     1       3.926  -0.183   0.485  1.00  0.00     0.013 A 
HETATM    9  C12 UNL     1       2.790   0.597   0.439  1.00  0.00     0.088 A 
HETATM   10  O4  UNL     1       3.162   1.953   0.473  1.00  0.00    -0.339 OA
HETATM   11  C13 UNL     1       4.499   2.024  -0.036  1.00  0.00     0.065 C 
HETATM   12  C14 UNL     1       5.235   3.227   0.459  1.00  0.00     0.046 C 
HETATM   13  C15 UNL     1       4.518   1.879  -1.529  1.00  0.00     0.046 C 
HETATM   14  C16 UNL     1       5.080   0.744   0.551  1.00  0.00     0.082 C 
HETATM   15  O5  UNL     1       0.073  -1.725   0.281  1.00  0.00    -0.342 OA
ENDROOT
BRANCH   1  16
HETATM   16  C3  UNL     1      -1.980  -0.691  -0.185  1.00  0.00     0.195 C 
BRANCH  16  17
HETATM   17  O2  UNL     1      -2.502  -1.997   0.175  1.00  0.00    -0.311 OA
BRANCH  17  18
HETATM   18  C2  UNL     1      -2.718  -2.971  -0.772  1.00  0.00     0.255 C 
HETATM   19  C1  UNL     1      -3.255  -4.274  -0.298  1.00  0.00     0.126 C 
HETATM   20  O1  UNL     1      -2.455  -2.714  -1.964  1.00  0.00    -0.266 OA
ENDBRANCH  17  18
ENDBRANCH  16  17
BRANCH  16  21
HETATM   21  C17 UNL     1      -3.094   0.267   0.269  1.00  0.00     0.083 C 
HETATM   22  C18 UNL     1      -3.457   0.096   1.698  1.00  0.00     0.049 C 
BRANCH  21  23
HETATM   23  O6  UNL     1      -4.223  -0.196  -0.477  1.00  0.00    -0.388 OA
ATOM     24  H6  UNL     1      -4.911   0.396  -0.197  1.00  0.00     0.210 HD
ENDBRANCH  21  23
BRANCH  21  25
HETATM   25  C19 UNL     1      -2.895   1.668  -0.182  1.00  0.00     0.042 C 
BRANCH  25  26
HETATM   26  C20 UNL     1      -3.903   2.674   0.218  1.00  0.00     0.029 C 
BRANCH  26  27
HETATM   27  C21 UNL     1      -5.284   2.370  -0.275  1.00  0.00     0.164 C 
BRANCH  27  28
HETATM   28  O7  UNL     1      -5.355   2.267  -1.656  1.00  0.00    -0.401 OA
ATOM     29  H7  UNL     1      -6.231   2.074  -1.969  1.00  0.00     0.209 HD
ENDBRANCH  27  28
ENDBRANCH  26  27
ENDBRANCH  25  26
ENDBRANCH  21  25
ENDBRANCH  16  21
ENDBRANCH   1  16
BRANCH   7  30
HETATM   30  O3  UNL     1       4.972  -2.295   0.510  1.00  0.00    -0.359 OA
ATOM     31  H3  UNL     1       5.829  -1.887   0.556  1.00  0.00     0.217 HD
ENDBRANCH   7  30
TORSDOF 10
