REMARK  9 active torsions:
REMARK  status: ('A' for Active; 'I' for Inactive)
REMARK       I    between atoms: C1_2  and  N1_3 
REMARK    1  A    between atoms: C1_2  and  C16_26 
REMARK    2  A    between atoms: N1_3  and  C2_5 
REMARK    3  A    between atoms: C5_11  and  C6_12 
REMARK    4  A    between atoms: N3_13  and  C7_15 
REMARK    5  A    between atoms: C7_15  and  C8_16 
REMARK    6  A    between atoms: C8_16  and  C9_17 
REMARK    7  A    between atoms: C9_17  and  C10_18 
REMARK    8  A    between atoms: C10_18  and  N4_19 
REMARK    9  A    between atoms: N4_19  and  C11_21 
ROOT
HETATM    1  C2  UNL     1      -1.950  -0.110  -1.242  1.00  0.00     0.120 C 
HETATM    2  C3  UNL     1      -2.254  -0.067  -2.794  1.00  0.00     0.257 C 
HETATM    3  N2  UNL     1      -1.492   0.992  -3.331  1.00  0.00    -0.072 N 
ATOM      4  H21 UNL     1      -2.012   1.548  -4.010  1.00  0.00     0.277 HD
ATOM      5  H22 UNL     1      -0.753   0.670  -3.956  1.00  0.00     0.277 HD
HETATM    6  C4  UNL     1      -0.986   1.785  -2.223  1.00  0.00     0.244 C 
HETATM    7  C5  UNL     1      -0.659   0.652  -1.226  1.00  0.00     0.074 C 
ENDROOT
BRANCH   7   8
HETATM    8  C6  UNL     1       0.373  -0.247  -1.927  1.00  0.00     0.068 C 
HETATM    9  N3  UNL     1       1.633   0.172  -2.133  1.00  0.00    -0.382 N 
ATOM     10  H3  UNL     1       1.834   0.436  -3.098  1.00  0.00     0.164 HD
BRANCH   9  11
HETATM   11  C7  UNL     1       2.713   0.311  -1.267  1.00  0.00     0.060 C 
BRANCH  11  12
HETATM   12  C8  UNL     1       3.177  -1.061  -0.849  1.00  0.00     0.046 C 
BRANCH  12  13
HETATM   13  C9  UNL     1       4.448  -1.079  -0.093  1.00  0.00     0.024 C 
BRANCH  13  14
HETATM   14  C10 UNL     1       5.543  -0.565  -1.022  1.00  0.00     0.114 C 
BRANCH  14  15
HETATM   15  N4  UNL     1       6.813  -0.751  -0.432  1.00  0.00    -0.417 N 
ATOM     16  H4  UNL     1       7.490  -1.421  -0.797  1.00  0.00     0.153 HD
BRANCH  15  17
HETATM   17  C11 UNL     1       7.082   0.053   0.698  1.00  0.00     0.076 C 
HETATM   18  C12 UNL     1       8.479   0.676   0.577  1.00  0.00     0.024 C 
HETATM   19  C13 UNL     1       8.998   0.610   1.996  1.00  0.00     0.002 C 
HETATM   20  C14 UNL     1       8.522  -0.739   2.488  1.00  0.00     0.002 C 
HETATM   21  C15 UNL     1       7.124  -0.820   1.946  1.00  0.00     0.024 C 
ENDBRANCH  15  17
ENDBRANCH  14  15
ENDBRANCH  13  14
ENDBRANCH  12  13
ENDBRANCH  11  12
ENDBRANCH   9  11
ENDBRANCH   7   8
BRANCH   1  22
HETATM   22  N1  UNL     1      -3.078   0.602  -0.658  1.00  0.00    -0.354 N 
HETATM   23  C1  UNL     1      -4.304  -0.131  -0.457  1.00  0.00     0.222 C 
HETATM   24  O1  UNL     1      -4.283  -1.346  -0.783  1.00  0.00    -0.273 OA
ATOM     25  H1  UNL     1      -3.004   1.586  -0.400  1.00  0.00     0.162 HD
BRANCH  23  26
HETATM   26  C16 UNL     1      -5.454   0.548   0.084  1.00  0.00     0.082 C 
HETATM   27  C17 UNL     1      -6.807  -0.022  -0.322  1.00  0.00     0.019 C 
HETATM   28  C18 UNL     1      -7.769   0.654   0.640  1.00  0.00    -0.013 C 
HETATM   29  C19 UNL     1      -8.458  -0.404   1.498  1.00  0.00     0.005 C 
HETATM   30  C23 UNL     1      -6.887   1.420   1.648  1.00  0.00     0.010 C 
HETATM   31  C20 UNL     1      -7.508  -0.865   2.567  1.00  0.00     0.001 C 
HETATM   32  C21 UNL     1      -6.056  -0.819   2.129  1.00  0.00     0.005 C 
HETATM   33  C22 UNL     1      -5.631   0.522   1.594  1.00  0.00    -0.001 C 
ENDBRANCH  23  26
ENDBRANCH   1  22
TORSDOF 9
