REMARK  13 active torsions:
REMARK  status: ('A' for Active; 'I' for Inactive)
REMARK    1  A    between atoms: C2_2  and  O1_5 
REMARK    2  A    between atoms: O1_5  and  C5_6 
REMARK       I    between atoms: C5_6  and  N1_8 
REMARK    3  A    between atoms: N1_8  and  C6_10 
REMARK    4  A    between atoms: C6_10  and  C7_11 
REMARK    5  A    between atoms: C7_11  and  C8_12 
REMARK    6  A    between atoms: C8_12  and  C9_13 
REMARK    7  A    between atoms: C9_13  and  C10_14 
REMARK    8  A    between atoms: C10_14  and  C11_15 
REMARK    9  A    between atoms: C11_15  and  N3_19 
REMARK   10  A    between atoms: N3_19  and  C12_21 
REMARK   11  A    between atoms: C12_21  and  C13_22 
REMARK   12  A    between atoms: C13_22  and  C14_23 
REMARK   13  A    between atoms: C14_23  and  N4_24 
ROOT
HETATM    1  C11 UNL     1      -1.507   1.746  -0.660  1.00  0.00     0.070 C 
HETATM    2  N2  UNL     1      -1.994   2.834  -0.169  1.00  0.00    -0.389 N 
ATOM      3  H21 UNL     1      -2.658   3.397  -0.700  1.00  0.00     0.157 HD
ATOM      4  H22 UNL     1      -1.675   3.104   0.761  1.00  0.00     0.157 HD
ENDROOT
BRANCH   1   5
HETATM    5  C10 UNL     1      -0.544   0.929   0.111  1.00  0.00     0.075 C 
BRANCH   5   6
HETATM    6  C9  UNL     1       0.136   1.652   1.213  1.00  0.00     0.007 C 
BRANCH   6   7
HETATM    7  C8  UNL     1       0.985   2.811   0.818  1.00  0.00     0.002 C 
BRANCH   7   8
HETATM    8  C7  UNL     1       2.076   2.378  -0.130  1.00  0.00     0.020 C 
BRANCH   8   9
HETATM    9  C6  UNL     1       2.933   1.364   0.537  1.00  0.00     0.125 C 
BRANCH   9  10
HETATM   10  N1  UNL     1       4.026   0.912  -0.309  1.00  0.00    -0.337 N 
HETATM   11  C5  UNL     1       4.910  -0.054   0.209  1.00  0.00     0.361 C 
HETATM   12  O2  UNL     1       4.733  -0.491   1.370  1.00  0.00    -0.238 OA
ATOM     13  H1  UNL     1       4.149   1.284  -1.251  1.00  0.00     0.164 HD
BRANCH  11  14
HETATM   14  O1  UNL     1       5.990  -0.565  -0.496  1.00  0.00    -0.294 OA
BRANCH  14  15
HETATM   15  C2  UNL     1       6.896  -1.519  -0.039  1.00  0.00     0.061 C 
HETATM   16  C1  UNL     1       7.659  -1.115   1.192  1.00  0.00     0.046 C 
HETATM   17  C3  UNL     1       7.904  -1.746  -1.168  1.00  0.00     0.046 C 
HETATM   18  C4  UNL     1       6.241  -2.853   0.256  1.00  0.00     0.046 C 
ENDBRANCH  14  15
ENDBRANCH  11  14
ENDBRANCH   9  10
ENDBRANCH   8   9
ENDBRANCH   7   8
ENDBRANCH   6   7
ENDBRANCH   5   6
ENDBRANCH   1   5
BRANCH   1  19
HETATM   19  N3  UNL     1      -1.950   1.371  -1.952  1.00  0.00    -0.380 N 
ATOM     20  H3  UNL     1      -1.273   0.974  -2.604  1.00  0.00     0.160 HD
BRANCH  19  21
HETATM   21  C12 UNL     1      -3.292   1.523  -2.379  1.00  0.00     0.122 C 
BRANCH  21  22
HETATM   22  C13 UNL     1      -4.250   0.592  -1.767  1.00  0.00     0.039 C 
BRANCH  22  23
HETATM   23  C14 UNL     1      -4.422   0.667  -0.292  1.00  0.00     0.127 C 
BRANCH  23  24
HETATM   24  N4  UNL     1      -5.453  -0.333   0.099  1.00  0.00    -0.358 N 
HETATM   25  C15 UNL     1      -5.143  -1.735  -0.019  1.00  0.00     0.127 C 
HETATM   26  C16 UNL     1      -5.934  -2.489   1.034  1.00  0.00     0.039 C 
HETATM   27  C17 UNL     1      -7.431  -2.348   0.773  1.00  0.00     0.123 C 
HETATM   28  N5  UNL     1      -7.750  -0.929   0.636  1.00  0.00    -0.367 N 
HETATM   29  C18 UNL     1      -6.725   0.057   0.574  1.00  0.00     0.169 C 
ATOM     30  H5  UNL     1      -8.726  -0.639   0.584  1.00  0.00     0.161 HD
HETATM   31  S1  UNL     1      -6.986   1.603   1.035  1.00  0.00    -0.041 SA
ENDBRANCH  23  24
ENDBRANCH  22  23
ENDBRANCH  21  22
ENDBRANCH  19  21
ENDBRANCH   1  19
TORSDOF 13
