REMARK  11 active torsions:
REMARK  status: ('A' for Active; 'I' for Inactive)
REMARK    1  A    between atoms: O1_2  and  C2_3 
REMARK    2  A    between atoms: C3_4  and  N1_5 
REMARK    3  A    between atoms: N1_5  and  C4_7 
REMARK    4  A    between atoms: C8_11  and  N2_12 
REMARK       I    between atoms: N2_12  and  C9_14 
REMARK    5  A    between atoms: C9_14  and  C10_16 
REMARK    6  A    between atoms: C10_16  and  C11_17 
REMARK    7  A    between atoms: C11_17  and  C12_18 
REMARK    8  A    between atoms: N3_21  and  C15_22 
REMARK    9  A    between atoms: C17_28  and  N6_29 
REMARK   10  A    between atoms: C18_32  and  C19_33 
REMARK   11  A    between atoms: C23_40  and  C24_41 
ROOT
HETATM    1  C11 UNL     1       2.529  -0.886  -1.915  1.00  0.00     0.014 C 
ENDROOT
BRANCH   1   2
HETATM    2  C10 UNL     1       1.518  -1.753  -1.229  1.00  0.00     0.103 C 
BRANCH   2   3
HETATM    3  C9  UNL     1       0.116  -1.341  -1.421  1.00  0.00     0.217 C 
HETATM    4  N2  UNL     1      -0.883  -1.761  -0.519  1.00  0.00    -0.356 N 
ATOM      5  H2  UNL     1      -0.592  -2.326   0.278  1.00  0.00     0.162 HD
HETATM    6  O2  UNL     1      -0.203  -0.599  -2.410  1.00  0.00    -0.274 OA
BRANCH   4   7
HETATM    7  C8  UNL     1      -2.276  -1.453  -0.639  1.00  0.00     0.090 C 
HETATM    8  C7  UNL     1      -2.536  -0.078   0.008  1.00  0.00     0.080 C 
HETATM    9  C3  UNL     1      -4.032   0.212  -0.273  1.00  0.00     0.018 C 
HETATM   10  C2  UNL     1      -4.800  -0.799   0.491  1.00  0.00     0.177 C 
HETATM   11  C23 UNL     1      -4.560  -2.134  -0.272  1.00  0.00     0.091 C 
HETATM   12  C22 UNL     1      -3.133  -2.507   0.025  1.00  0.00     0.040 C 
BRANCH   9  13
HETATM   13  N1  UNL     1      -4.343   1.539  -0.370  1.00  0.00    -0.368 N 
ATOM     14  H1  UNL     1      -4.584   1.859  -1.308  1.00  0.00     0.165 HD
BRANCH  13  15
HETATM   15  C4  UNL     1      -4.381   2.512   0.606  1.00  0.00    -0.021 C 
HETATM   16  C5  UNL     1      -3.063   2.764   1.363  1.00  0.00     0.062 C 
HETATM   17  C6  UNL     1      -5.589   2.710   1.456  1.00  0.00     0.062 C 
ENDBRANCH  13  15
ENDBRANCH   9  13
BRANCH  10  18
HETATM   18  O1  UNL     1      -6.139  -0.613   0.572  1.00  0.00    -0.384 OA
HETATM   19  C1  UNL     1      -6.638  -0.858   1.867  1.00  0.00     0.202 C 
ENDBRANCH  10  18
BRANCH  11  20
HETATM   20  C24 UNL     1      -5.556  -3.152  -0.067  1.00  0.00     0.130 C 
HETATM   21  C25 UNL     1      -6.935  -3.029  -0.587  1.00  0.00     0.091 C 
HETATM   22  O3  UNL     1      -5.291  -4.173   0.555  1.00  0.00    -0.298 OA
ENDBRANCH  11  20
ENDBRANCH   4   7
ENDBRANCH   2   3
ENDBRANCH   1   2
BRANCH   1  23
HETATM   23  C12 UNL     1       2.494   0.506  -1.323  1.00  0.00    -0.011 C 
HETATM   24  C13 UNL     1       2.802   0.428   0.173  1.00  0.00     0.024 C 
HETATM   25  C14 UNL     1       4.112  -0.240   0.413  1.00  0.00     0.125 C 
HETATM   26  N3  UNL     1       5.157   0.379  -0.336  1.00  0.00    -0.366 N 
HETATM   27  C20 UNL     1       4.926   0.927  -1.645  1.00  0.00     0.125 C 
HETATM   28  C21 UNL     1       3.550   1.398  -1.962  1.00  0.00     0.024 C 
BRANCH  26  29
HETATM   29  C15 UNL     1       6.472   0.376   0.165  1.00  0.00     0.123 A 
HETATM   30  N4  UNL     1       7.270  -0.662  -0.253  1.00  0.00    -0.338 N 
HETATM   31  C16 UNL     1       8.543  -0.799   0.133  1.00  0.00     0.183 A 
ATOM     32  H4  UNL     1       6.874  -1.358  -0.885  1.00  0.00     0.168 HD
HETATM   33  N5  UNL     1       9.061   0.108   0.956  1.00  0.00    -0.338 N 
HETATM   34  C17 UNL     1       8.353   1.186   1.435  1.00  0.00     0.118 A 
ATOM     35  H5  UNL     1      10.033  -0.001   1.247  1.00  0.00     0.168 HD
HETATM   36  C18 UNL     1       7.000   1.293   1.000  1.00  0.00     0.135 A 
BRANCH  34  37
HETATM   37  N6  UNL     1       8.928   1.972   2.195  1.00  0.00    -0.385 N 
ATOM     38  H62 UNL     1       9.896   1.895   2.506  1.00  0.00     0.157 HD
ATOM     39  H61 UNL     1       8.403   2.771   2.550  1.00  0.00     0.157 HD
ENDBRANCH  34  37
BRANCH  36  40
HETATM   40  C19 UNL     1       6.245   2.428   1.503  1.00  0.00     0.424 C 
HETATM   41  F1  UNL     1       7.100   3.193   2.334  1.00  0.00    -0.166 F 
HETATM   42  F2  UNL     1       5.192   2.129   2.346  1.00  0.00    -0.166 F 
HETATM   43  F3  UNL     1       5.884   3.281   0.503  1.00  0.00    -0.166 F 
ENDBRANCH  36  40
ENDBRANCH  26  29
ENDBRANCH   1  23
TORSDOF 11
