REMARK  9 active torsions:
REMARK  status: ('A' for Active; 'I' for Inactive)
REMARK    1  A    between atoms: C2_2  and  C3_3 
REMARK    2  A    between atoms: C3_3  and  O1_4 
REMARK    3  A    between atoms: C3_3  and  C4_6 
REMARK    4  A    between atoms: C3_3  and  C5_8 
REMARK    5  A    between atoms: C8_13  and  O2_14 
REMARK    6  A    between atoms: C8_13  and  C10_16 
REMARK    7  A    between atoms: C10_16  and  C11_17 
REMARK    8  A    between atoms: C10_16  and  C20_33 
REMARK       I    between atoms: C11_17  and  N2_19 
REMARK       I    between atoms: N2_19  and  C12_21 
REMARK    9  A    between atoms: C12_21  and  C13_23 
ROOT
HETATM    1  C10 UNL     1       0.225   1.740  -0.256  1.00  0.00     0.202 C 
ENDROOT
BRANCH   1   2
HETATM    2  C8  UNL     1       1.599   1.120  -0.138  1.00  0.00     0.267 C 
HETATM    3  N1  UNL     1       1.612   0.094   0.845  1.00  0.00    -0.366 N 
HETATM    4  C7  UNL     1       2.831  -0.609   0.983  1.00  0.00     0.141 C 
ATOM      5  H1  UNL     1       0.794  -0.122   1.415  1.00  0.00     0.158 HD
HETATM    6  C5  UNL     1       3.416  -1.075  -0.332  1.00  0.00     0.093 C 
HETATM    7  C6  UNL     1       2.846  -2.479  -0.614  1.00  0.00     0.031 C 
HETATM    8  C22 UNL     1       3.011  -0.259  -1.488  1.00  0.00     0.276 C 
HETATM    9  O5  UNL     1       1.963   0.610  -1.383  1.00  0.00    -0.262 OA
HETATM   10  O6  UNL     1       3.630  -0.366  -2.567  1.00  0.00    -0.264 OA
BRANCH   6  11
HETATM   11  C3  UNL     1       4.901  -1.249  -0.244  1.00  0.00     0.101 C 
BRANCH  11  12
HETATM   12  C2  UNL     1       5.198  -2.223   0.890  1.00  0.00     0.037 C 
HETATM   13  C1  UNL     1       6.709  -2.465   0.984  1.00  0.00     0.008 C 
ENDBRANCH  11  12
BRANCH  11  14
HETATM   14  O1  UNL     1       5.370  -1.820  -1.415  1.00  0.00    -0.386 OA
ATOM     15  H1  UNL     1       5.185  -1.213  -2.122  1.00  0.00     0.210 HD
ENDBRANCH  11  14
BRANCH  11  16
HETATM   16  C4  UNL     1       5.674  -0.005   0.044  1.00  0.00     0.261 C 
HETATM   17  F1  UNL     1       5.539   0.998  -0.865  1.00  0.00    -0.252 F 
ENDBRANCH  11  16
ENDBRANCH   6  11
BRANCH   2  18
HETATM   18  O2  UNL     1       2.499   2.077   0.285  1.00  0.00    -0.342 OA
HETATM   19  C9  UNL     1       2.274   2.622   1.516  1.00  0.00     0.207 C 
ENDBRANCH   2  18
ENDBRANCH   1   2
BRANCH   1  20
HETATM   20  C11 UNL     1      -0.760   0.615  -0.576  1.00  0.00     0.238 C 
HETATM   21  O3  UNL     1      -0.367  -0.472  -1.054  1.00  0.00    -0.272 OA
HETATM   22  N2  UNL     1      -2.163   0.766  -0.342  1.00  0.00    -0.295 N 
HETATM   23  C12 UNL     1      -3.082  -0.261  -0.662  1.00  0.00     0.255 C 
ATOM     24  H2  UNL     1      -2.509   1.635   0.065  1.00  0.00     0.171 HD
HETATM   25  O4  UNL     1      -2.610  -1.331  -1.181  1.00  0.00    -0.271 OA
BRANCH  23  26
HETATM   26  C13 UNL     1      -4.510  -0.115  -0.417  1.00  0.00     0.285 C 
HETATM   27  N3  UNL     1      -5.240  -1.299  -0.967  1.00  0.00    -0.062 N 
HETATM   28  C14 UNL     1      -6.578  -0.840  -1.193  1.00  0.00     0.233 C 
ATOM     29  H32 UNL     1      -4.800  -1.709  -1.791  1.00  0.00     0.278 HD
ATOM     30  H31 UNL     1      -5.183  -2.129  -0.378  1.00  0.00     0.278 HD
HETATM   31  C15 UNL     1      -7.218  -0.130  -0.067  1.00  0.00     0.028 C 
HETATM   32  C16 UNL     1      -6.407   0.148   1.123  1.00  0.00     0.013 C 
HETATM   33  C17 UNL     1      -4.936  -0.133   1.017  1.00  0.00    -0.010 C 
HETATM   34  C18 UNL     1      -4.738  -1.577   1.505  1.00  0.00     0.017 C 
HETATM   35  C19 UNL     1      -4.149   0.746   1.942  1.00  0.00     0.017 C 
ENDBRANCH  23  26
ENDBRANCH   1  20
BRANCH   1  36
HETATM   36  C20 UNL     1       0.147   2.725  -1.391  1.00  0.00     0.129 C 
HETATM   37  C21 UNL     1       1.075   3.896  -1.339  1.00  0.00     0.051 C 
HETATM   38 CL1  UNL     1      -1.530   3.377  -1.576  1.00  0.00    -0.101 Cl
HETATM   39 CL2  UNL     1       0.474   1.911  -2.965  1.00  0.00    -0.101 Cl
ENDBRANCH   1  36
TORSDOF 9
