REMARK  11 active torsions:
REMARK  status: ('A' for Active; 'I' for Inactive)
REMARK    1  A    between atoms: C2_2  and  N1_3 
REMARK    2  A    between atoms: C3_5  and  N2_7 
REMARK       I    between atoms: N2_7  and  C4_9 
REMARK       I    between atoms: C4_9  and  N3_11 
REMARK    3  A    between atoms: N3_11  and  C5_13 
REMARK    4  A    between atoms: C5_13  and  C6_14 
REMARK    5  A    between atoms: C6_14  and  C7_15 
REMARK    6  A    between atoms: C7_15  and  C8_16 
REMARK    7  A    between atoms: C8_16  and  C9_17 
REMARK    8  A    between atoms: C9_17  and  N4_18 
REMARK       I    between atoms: N4_18  and  C10_20 
REMARK    9  A    between atoms: C10_20  and  C11_22 
REMARK   10  A    between atoms: C17_34  and  C18_35 
REMARK   11  A    between atoms: C18_35  and  O3_37 
ROOT
HETATM    1  N4  UNL     1      -0.604  -0.581  -0.285  1.00  0.00    -0.356 N 
ATOM      2  H4  UNL     1      -0.593   0.387  -0.606  1.00  0.00     0.162 HD
HETATM    3  C10 UNL     1      -1.791  -1.108   0.262  1.00  0.00     0.266 C 
HETATM    4  O2  UNL     1      -1.859  -2.287   0.668  1.00  0.00    -0.266 OA
ENDROOT
BRANCH   1   5
HETATM    5  C9  UNL     1       0.614  -1.385  -0.405  1.00  0.00     0.123 C 
BRANCH   5   6
HETATM    6  C8  UNL     1       1.716  -0.595  -1.011  1.00  0.00     0.020 C 
BRANCH   6   7
HETATM    7  C7  UNL     1       2.112   0.626  -0.249  1.00  0.00     0.003 C 
BRANCH   7   8
HETATM    8  C6  UNL     1       2.591   0.371   1.140  1.00  0.00     0.020 C 
BRANCH   8   9
HETATM    9  C5  UNL     1       3.806  -0.521   1.197  1.00  0.00     0.124 C 
BRANCH   9  10
HETATM   10  N3  UNL     1       4.928   0.056   0.481  1.00  0.00    -0.343 N 
HETATM   11  C4  UNL     1       6.187  -0.594   0.387  1.00  0.00     0.322 C 
HETATM   12  N2  UNL     1       7.238  -0.001  -0.310  1.00  0.00    -0.285 N 
HETATM   13  O1  UNL     1       6.326  -1.703   0.941  1.00  0.00    -0.247 OA
ATOM     14  H2  UNL     1       7.102   0.907  -0.754  1.00  0.00     0.173 HD
ATOM     15  H3  UNL     1       4.808   0.962   0.028  1.00  0.00     0.164 HD
BRANCH  12  16
HETATM   16  C3  UNL     1       8.493  -0.649  -0.406  1.00  0.00     0.178 C 
HETATM   17  N1  UNL     1       9.440  -0.055  -1.066  1.00  0.00    -0.367 N 
ATOM     18  H1  UNL     1       9.290   0.854  -1.505  1.00  0.00     0.161 HD
HETATM   19 CL1  UNL     1       8.740  -2.202   0.347  1.00  0.00    -0.045 Cl
BRANCH  17  20
HETATM   20  C2  UNL     1      10.715  -0.729  -1.156  1.00  0.00     0.117 C 
HETATM   21  C1  UNL     1      11.783   0.334  -0.920  1.00  0.00     0.026 C 
ENDBRANCH  17  20
ENDBRANCH  12  16
ENDBRANCH   9  10
ENDBRANCH   8   9
ENDBRANCH   7   8
ENDBRANCH   6   7
ENDBRANCH   5   6
ENDBRANCH   1   5
BRANCH   3  22
HETATM   22  C11 UNL     1      -2.973  -0.264   0.359  1.00  0.00     0.102 C 
HETATM   23  N5  UNL     1      -4.066  -0.747   0.857  1.00  0.00    -0.299 N 
HETATM   24  N6  UNL     1      -5.258  -0.090   1.018  1.00  0.00    -0.302 N 
ATOM     25  H5  UNL     1      -4.037  -1.720   1.162  1.00  0.00     0.186 HD
HETATM   26  C12 UNL     1      -5.187   1.235   1.668  1.00  0.00     0.184 C 
HETATM   27  C17 UNL     1      -6.619  -0.363   0.711  1.00  0.00     0.156 C 
HETATM   28  S1  UNL     1      -4.166   2.222   0.542  1.00  0.00    -0.134 SA
HETATM   29  C14 UNL     1      -6.583   1.740   1.765  1.00  0.00     0.142 C 
HETATM   30  C13 UNL     1      -2.895   1.124  -0.118  1.00  0.00     0.140 C 
HETATM   31 CL2  UNL     1      -6.779   2.470   3.396  1.00  0.00    -0.120 Cl
HETATM   32  C15 UNL     1      -7.432   0.520   1.628  1.00  0.00     0.077 C 
HETATM   33  C16 UNL     1      -8.782   0.834   1.058  1.00  0.00     0.036 C 
HETATM   34 CL3  UNL     1      -7.659  -0.266   3.226  1.00  0.00    -0.116 Cl
BRANCH  27  35
HETATM   35  C18 UNL     1      -6.944  -0.165  -0.731  1.00  0.00     0.140 C 
HETATM   36  C19 UNL     1      -6.038  -1.047  -1.558  1.00  0.00     0.041 C 
BRANCH  35  37
HETATM   37  O3  UNL     1      -6.681   1.166  -1.072  1.00  0.00    -0.394 OA
ATOM     38  H3  UNL     1      -6.888   1.292  -1.991  1.00  0.00     0.210 HD
ENDBRANCH  35  37
ENDBRANCH  27  35
ENDBRANCH   3  22
TORSDOF 11
