REMARK  11 active torsions:
REMARK  status: ('A' for Active; 'I' for Inactive)
REMARK    1  A    between atoms: N1_1  and  C1_4 
REMARK    2  A    between atoms: C3_8  and  C4_9 
REMARK    3  A    between atoms: N3_12  and  C7_13 
REMARK    4  A    between atoms: C7_13  and  C8_14 
REMARK    5  A    between atoms: C8_14  and  C9_15 
REMARK    6  A    between atoms: C12_18  and  N4_19 
REMARK       I    between atoms: N4_19  and  C13_21 
REMARK    7  A    between atoms: C13_21  and  C14_23 
REMARK    8  A    between atoms: C14_23  and  C15_24 
REMARK    9  A    between atoms: C15_24  and  C16_25 
REMARK   10  A    between atoms: C16_25  and  N5_26 
REMARK   11  A    between atoms: C24_37  and  C25_38 
ROOT
HETATM    1  C4  UNL     1       5.930  -0.393   1.031  1.00  0.00     0.122 C 
HETATM    2  C5  UNL     1       5.425  -1.485   0.075  1.00  0.00     0.036 C 
HETATM    3  C6  UNL     1       4.502  -2.359   0.898  1.00  0.00     0.122 C 
HETATM    4  N3  UNL     1       3.440  -1.632   1.521  1.00  0.00    -0.188 NA
HETATM    5  O3  UNL     1       3.509  -0.269   1.351  1.00  0.00    -0.224 OA
HETATM    6  C22 UNL     1       4.730   0.354   1.448  1.00  0.00     0.284 C 
HETATM    7  O4  UNL     1       4.822   1.519   1.875  1.00  0.00    -0.263 OA
ENDROOT
BRANCH   4   8
HETATM    8  C7  UNL     1       2.169  -2.153   1.092  1.00  0.00     0.121 C 
BRANCH   8   9
HETATM    9  C8  UNL     1       1.940  -1.848  -0.394  1.00  0.00     0.021 C 
BRANCH   9  10
HETATM   10  C9  UNL     1       0.612  -2.407  -0.806  1.00  0.00    -0.011 C 
HETATM   11  C10 UNL     1       0.391  -2.103  -2.281  1.00  0.00     0.007 C 
HETATM   12  C11 UNL     1      -1.122  -2.200  -2.470  1.00  0.00     0.025 C 
HETATM   13  C12 UNL     1      -1.678  -1.753  -1.136  1.00  0.00     0.084 C 
HETATM   14  C21 UNL     1      -0.525  -1.572  -0.201  1.00  0.00     0.029 C 
BRANCH  13  15
HETATM   15  N4  UNL     1      -2.511  -0.571  -1.277  1.00  0.00    -0.356 N 
HETATM   16  C13 UNL     1      -3.890  -0.567  -0.981  1.00  0.00     0.217 C 
HETATM   17  O1  UNL     1      -4.433  -1.614  -0.578  1.00  0.00    -0.274 OA
ATOM     18  H4  UNL     1      -2.080   0.293  -1.604  1.00  0.00     0.162 HD
BRANCH  16  19
HETATM   19  C14 UNL     1      -4.681   0.660  -1.145  1.00  0.00     0.104 C 
BRANCH  19  20
HETATM   20  C15 UNL     1      -6.112   0.371  -0.765  1.00  0.00     0.039 C 
BRANCH  20  21
HETATM   21  C16 UNL     1      -6.944   1.600  -0.923  1.00  0.00     0.273 C 
BRANCH  21  22
HETATM   22  N5  UNL     1      -8.316   1.387  -0.581  1.00  0.00     0.092 N 
HETATM   23  C17 UNL     1      -9.033   2.617  -0.768  1.00  0.00     0.298 C 
HETATM   24  C18 UNL     1     -10.001   2.877   0.367  1.00  0.00     0.198 C 
HETATM   25  O2  UNL     1     -10.782   1.735   0.506  1.00  0.00    -0.388 OA
HETATM   26  C19 UNL     1     -10.040   0.651   0.902  1.00  0.00     0.198 C 
HETATM   27  C20 UNL     1      -8.547   0.820   0.709  1.00  0.00     0.298 C 
ENDBRANCH  21  22
ENDBRANCH  20  21
ENDBRANCH  19  20
ENDBRANCH  16  19
ENDBRANCH  13  15
ENDBRANCH   9  10
ENDBRANCH   8   9
ENDBRANCH   4   8
BRANCH   1  28
HETATM   28  C3  UNL     1       6.948   0.446   0.409  1.00  0.00    -0.028 A 
HETATM   29  C2  UNL     1       6.658   1.222  -0.682  1.00  0.00     0.097 A 
HETATM   30  N2  UNL     1       7.646   1.990  -1.228  1.00  0.00    -0.351 N 
HETATM   31  C1  UNL     1       8.890   2.037  -0.765  1.00  0.00     0.113 A 
ATOM     32  H2  UNL     1       7.415   2.562  -2.040  1.00  0.00     0.166 HD
HETATM   33  C24 UNL     1       9.218   1.267   0.335  1.00  0.00     0.091 A 
HETATM   34  C23 UNL     1       8.222   0.468   0.916  1.00  0.00     0.029 A 
BRANCH  31  35
HETATM   35  N1  UNL     1       9.817   2.783  -1.310  1.00  0.00    -0.385 N 
ATOM     36  H12 UNL     1       9.575   3.351  -2.122  1.00  0.00     0.157 HD
ATOM     37  H11 UNL     1      10.772   2.819  -0.954  1.00  0.00     0.157 HD
ENDBRANCH  31  35
BRANCH  33  38
HETATM   38  C25 UNL     1      10.600   1.317   0.850  1.00  0.00     0.421 C 
HETATM   39  F1  UNL     1      10.759   0.497   1.942  1.00  0.00    -0.166 F 
HETATM   40  F2  UNL     1      11.465   0.977  -0.184  1.00  0.00    -0.166 F 
HETATM   41  F3  UNL     1      10.892   2.646   1.172  1.00  0.00    -0.166 F 
ENDBRANCH  33  38
ENDBRANCH   1  28
TORSDOF 11
