REMARK  8 active torsions:
REMARK  status: ('A' for Active; 'I' for Inactive)
REMARK    1  A    between atoms: C2_2  and  N1_3 
REMARK    2  A    between atoms: C2_2  and  C7_13 
REMARK       I    between atoms: N1_3  and  C3_5 
REMARK    3  A    between atoms: C3_5  and  C4_7 
REMARK       I    between atoms: C7_13  and  N3_15 
REMARK    4  A    between atoms: N3_15  and  C8_17 
REMARK    5  A    between atoms: C8_17  and  C9_18 
REMARK    6  A    between atoms: C8_17  and  C11_23 
REMARK    7  A    between atoms: C9_18  and  C10_19 
REMARK       I    between atoms: C11_23  and  N4_25 
REMARK    8  A    between atoms: N4_25  and  C12_27 
ROOT
HETATM    1  C12 UNL     1      -3.503   0.306   0.589  1.00  0.00     0.122 C 
HETATM    2  C13 UNL     1      -4.402   0.926   1.581  1.00  0.00     0.091 C 
HETATM    3  N5  UNL     1      -5.103   1.414   2.388  1.00  0.00    -0.195 NA
HETATM    4  C14 UNL     1      -3.263   1.309  -0.515  1.00  0.00     0.046 C 
HETATM    5  C15 UNL     1      -4.565   1.894  -0.991  1.00  0.00     0.004 C 
HETATM    6  C16 UNL     1      -5.741   0.995  -0.940  1.00  0.00     0.000 C 
HETATM    7  C17 UNL     1      -5.507  -0.445  -0.706  1.00  0.00     0.004 C 
HETATM    8  C18 UNL     1      -4.235  -0.835  -0.016  1.00  0.00     0.046 C 
ENDROOT
BRANCH   1   9
HETATM    9  N4  UNL     1      -2.253  -0.056   1.195  1.00  0.00    -0.337 N 
HETATM   10  C11 UNL     1      -1.146  -0.671   0.587  1.00  0.00     0.242 C 
HETATM   11  O4  UNL     1      -1.222  -0.942  -0.634  1.00  0.00    -0.271 OA
ATOM     12  H4  UNL     1      -2.157   0.159   2.187  1.00  0.00     0.164 HD
BRANCH  10  13
HETATM   13  C8  UNL     1       0.066  -0.989   1.324  1.00  0.00     0.185 C 
BRANCH  13  14
HETATM   14  N3  UNL     1       1.113  -1.302   0.302  1.00  0.00    -0.346 N 
HETATM   15  C7  UNL     1       2.186  -0.436   0.067  1.00  0.00     0.240 C 
HETATM   16  O3  UNL     1       2.282   0.625   0.718  1.00  0.00    -0.271 OA
ATOM     17  H3  UNL     1       1.043  -2.166  -0.235  1.00  0.00     0.163 HD
BRANCH  15  18
HETATM   18  C2  UNL     1       3.209  -0.763  -0.944  1.00  0.00     0.172 C 
HETATM   19  C1  UNL     1       2.506  -0.795  -2.286  1.00  0.00     0.042 C 
BRANCH  18  20
HETATM   20  N1  UNL     1       4.188   0.332  -1.013  1.00  0.00    -0.342 N 
HETATM   21  C3  UNL     1       5.567   0.146  -0.791  1.00  0.00     0.277 C 
HETATM   22  O1  UNL     1       6.048  -0.989  -0.513  1.00  0.00    -0.265 OA
ATOM     23  H1  UNL     1       3.853   1.270  -1.232  1.00  0.00     0.163 HD
BRANCH  21  24
HETATM   24  C4  UNL     1       6.495   1.260  -0.874  1.00  0.00     0.159 A 
HETATM   25  C5  UNL     1       6.135   2.568  -1.182  1.00  0.00     0.132 A 
HETATM   26  N2  UNL     1       7.242   3.292  -1.163  1.00  0.00    -0.354 N 
HETATM   27  C6  UNL     1       8.238   2.475  -0.859  1.00  0.00     0.234 A 
ATOM     28  H2  UNL     1       7.314   4.292  -1.348  1.00  0.00     0.166 HD
HETATM   29  O2  UNL     1       7.793   1.259  -0.686  1.00  0.00    -0.299 OA
ENDBRANCH  21  24
ENDBRANCH  18  20
ENDBRANCH  15  18
ENDBRANCH  13  14
BRANCH  13  30
HETATM   30  C9  UNL     1       0.074  -2.161   2.219  1.00  0.00     0.152 C 
BRANCH  30  31
HETATM   31  C10 UNL     1      -0.838  -2.258   3.363  1.00  0.00     0.390 C 
HETATM   32  F1  UNL     1      -0.522  -3.494   3.997  1.00  0.00    -0.171 F 
HETATM   33  F2  UNL     1      -0.746  -1.316   4.332  1.00  0.00    -0.171 F 
HETATM   34  F3  UNL     1      -2.179  -2.507   2.992  1.00  0.00    -0.171 F 
ENDBRANCH  30  31
ENDBRANCH  13  30
ENDBRANCH  10  13
ENDBRANCH   1   9
TORSDOF 8
