REMARK  9 active torsions:
REMARK  status: ('A' for Active; 'I' for Inactive)
REMARK       I    between atoms: C2_5  and  N3_6 
REMARK       I    between atoms: C2_5  and  N5_14 
REMARK    1  A    between atoms: N3_6  and  C3_8 
REMARK    2  A    between atoms: N5_14  and  C6_16 
REMARK    3  A    between atoms: C6_16  and  C7_17 
REMARK    4  A    between atoms: C7_17  and  C8_18 
REMARK    5  A    between atoms: C8_18  and  N6_19 
REMARK    6  A    between atoms: N6_19  and  C9_22 
REMARK    7  A    between atoms: N7_24  and  C11_25 
REMARK    8  A    between atoms: C11_25  and  C12_26 
REMARK    9  A    between atoms: C12_26  and  C13_27 
ROOT
HETATM    1  N1  UNL     1      -3.656  -3.969  -3.056  1.00  0.00    -0.171 NA
HETATM    2  C1  UNL     1      -4.083  -2.928  -2.773  1.00  0.00     0.196 C 
HETATM    3  N2  UNL     1      -4.589  -1.684  -2.445  1.00  0.00    -0.126 N 
ATOM      4  H2  UNL     1      -5.189  -1.236  -3.137  1.00  0.00     0.197 HD
HETATM    5  C2  UNL     1      -4.381  -1.043  -1.367  1.00  0.00     0.689 C 
HETATM    6  N3  UNL     1      -4.948   0.239  -1.115  1.00  0.00    -0.170 N 
ATOM      7  H3  UNL     1      -4.419   1.086  -1.323  1.00  0.00     0.186 HD
HETATM    8  N5  UNL     1      -3.560  -1.615  -0.365  1.00  0.00    -0.225 N 
ATOM      9  H5  UNL     1      -3.963  -2.212   0.357  1.00  0.00     0.177 HD
ENDROOT
BRANCH   6  10
HETATM   10  C3  UNL     1      -6.154   0.321  -0.614  1.00  0.00     0.163 A 
HETATM   11  N4  UNL     1      -6.823   1.431  -0.324  1.00  0.00    -0.346 N 
HETATM   12  C4  UNL     1      -8.018   1.332   0.178  1.00  0.00     0.097 A 
ATOM     13  H4  UNL     1      -6.406   2.346  -0.492  1.00  0.00     0.167 HD
HETATM   14  C5  UNL     1      -8.529   0.080   0.384  1.00  0.00     0.070 A 
HETATM   15  S1  UNL     1      -7.244  -0.915  -0.164  1.00  0.00    -0.064 SA
ENDBRANCH   6  10
BRANCH   8  16
HETATM   16  C6  UNL     1      -2.124  -1.336  -0.382  1.00  0.00     0.139 C 
BRANCH  16  17
HETATM   17  C7  UNL     1      -1.908   0.119  -0.085  1.00  0.00     0.048 C 
BRANCH  17  18
HETATM   18  C8  UNL     1      -0.458   0.465  -0.064  1.00  0.00     0.237 C 
BRANCH  18  19
HETATM   19  N6  UNL     1       0.237  -0.243   0.948  1.00  0.00    -0.047 N 
ATOM     20  H62 UNL     1      -0.312  -0.265   1.807  1.00  0.00     0.280 HD
ATOM     21  H61 UNL     1       0.263  -1.239   0.731  1.00  0.00     0.280 HD
BRANCH  19  22
HETATM   22  C9  UNL     1       1.573   0.250   1.215  1.00  0.00     0.338 C 
HETATM   23  C10 UNL     1       2.438   0.119  -0.010  1.00  0.00     0.178 C 
HETATM   24  N7  UNL     1       3.765   0.465   0.355  1.00  0.00    -0.408 N 
HETATM   25  C14 UNL     1       4.208   1.774   0.005  1.00  0.00     0.119 C 
HETATM   26  C15 UNL     1       3.171   2.753   0.521  1.00  0.00     0.046 C 
HETATM   27  C16 UNL     1       2.590   2.254   1.831  1.00  0.00     0.172 C 
HETATM   28  O1  UNL     1       1.415   1.569   1.641  1.00  0.00    -0.358 OA
BRANCH  24  29
HETATM   29  C11 UNL     1       4.762  -0.532   0.335  1.00  0.00     0.125 C 
BRANCH  29  30
HETATM   30  C12 UNL     1       5.191  -1.040  -1.010  1.00  0.00     0.136 C 
BRANCH  30  31
HETATM   31  C13 UNL     1       6.284  -2.099  -0.817  1.00  0.00     0.389 C 
HETATM   32  F1  UNL     1       5.854  -3.153  -0.080  1.00  0.00    -0.171 F 
HETATM   33  F2  UNL     1       6.688  -2.569  -2.051  1.00  0.00    -0.171 F 
HETATM   34  F3  UNL     1       7.396  -1.544  -0.205  1.00  0.00    -0.171 F 
ENDBRANCH  30  31
ENDBRANCH  29  30
ENDBRANCH  24  29
ENDBRANCH  19  22
ENDBRANCH  18  19
ENDBRANCH  17  18
ENDBRANCH  16  17
ENDBRANCH   8  16
TORSDOF 9
