REMARK  8 active torsions:
REMARK  status: ('A' for Active; 'I' for Inactive)
REMARK       I    between atoms: N1_2  and  C2_4 
REMARK    1  A    between atoms: C2_4  and  C3_6 
REMARK    2  A    between atoms: C7_14  and  C8_15 
REMARK    3  A    between atoms: C8_15  and  C9_17 
REMARK    4  A    between atoms: C9_17  and  N5_18 
REMARK    5  A    between atoms: N5_18  and  C10_20 
REMARK    6  A    between atoms: C10_20  and  C11_21 
REMARK    7  A    between atoms: C10_20  and  C18_31 
REMARK       I    between atoms: C11_21  and  N6_23 
REMARK    8  A    between atoms: N6_23  and  C12_25 
ROOT
HETATM    1  C3  UNL     1      -4.592  -0.046   0.826  1.00  0.00     0.133 A 
HETATM    2  N2  UNL     1      -5.388  -1.108   1.038  1.00  0.00    -0.292 N 
ATOM      3  H2  UNL     1      -6.143  -1.150   1.722  1.00  0.00     0.187 HD
HETATM    4  N3  UNL     1      -5.042  -2.086   0.226  1.00  0.00    -0.285 N 
HETATM    5  C4  UNL     1      -5.556  -3.465   0.139  1.00  0.00     0.179 C 
HETATM    6  C5  UNL     1      -3.985  -1.690  -0.565  1.00  0.00     0.147 A 
HETATM    7  C6  UNL     1      -3.400  -2.457  -1.620  1.00  0.00     0.120 C 
HETATM    8  N4  UNL     1      -2.943  -3.089  -2.490  1.00  0.00    -0.190 NA
HETATM    9  C7  UNL     1      -3.670  -0.368  -0.183  1.00  0.00     0.088 A 
ENDROOT
BRANCH   9  10
HETATM   10  C8  UNL     1      -2.484   0.358  -0.485  1.00  0.00     0.202 C 
HETATM   11  O2  UNL     1      -2.168   1.347   0.234  1.00  0.00    -0.286 OA
BRANCH  10  12
HETATM   12  C9  UNL     1      -1.518   0.058  -1.581  1.00  0.00     0.140 C 
BRANCH  12  13
HETATM   13  N5  UNL     1      -0.587  -0.881  -1.196  1.00  0.00    -0.376 N 
ATOM     14  H5  UNL     1      -0.624  -1.715  -1.783  1.00  0.00     0.160 HD
BRANCH  13  15
HETATM   15  C10 UNL     1       0.362  -0.981  -0.241  1.00  0.00     0.282 C 
BRANCH  15  16
HETATM   16  C11 UNL     1       1.526  -0.068  -0.279  1.00  0.00     0.249 C 
HETATM   17  O3  UNL     1       1.284   1.150  -0.532  1.00  0.00    -0.271 OA
HETATM   18  N6  UNL     1       2.867  -0.449  -0.054  1.00  0.00    -0.354 N 
ATOM     19  H6  UNL     1       3.104  -1.423   0.134  1.00  0.00     0.162 HD
BRANCH  18  20
HETATM   20  C12 UNL     1       3.929   0.593  -0.095  1.00  0.00     0.084 C 
HETATM   21  C13 UNL     1       4.937   0.312   0.979  1.00  0.00     0.025 C 
HETATM   22  C14 UNL     1       6.024   1.332   0.899  1.00  0.00     0.002 C 
HETATM   23  C15 UNL     1       6.680   1.183  -0.444  1.00  0.00     0.000 C 
HETATM   24  C16 UNL     1       5.651   1.519  -1.516  1.00  0.00     0.002 C 
HETATM   25  C17 UNL     1       4.559   0.477  -1.489  1.00  0.00     0.025 C 
ENDBRANCH  18  20
ENDBRANCH  15  16
BRANCH  15  26
HETATM   26  C18 UNL     1       0.845  -2.445  -0.244  1.00  0.00     0.416 C 
HETATM   27  F1  UNL     1       1.746  -2.753   0.685  1.00  0.00    -0.168 F 
HETATM   28  F2  UNL     1       1.240  -2.780  -1.546  1.00  0.00    -0.168 F 
HETATM   29  F3  UNL     1      -0.281  -3.224  -0.025  1.00  0.00    -0.168 F 
ENDBRANCH  15  26
ENDBRANCH  13  15
ENDBRANCH  12  13
ENDBRANCH  10  12
ENDBRANCH   9  10
BRANCH   1  30
HETATM   30  C2  UNL     1      -4.697   1.308   1.431  1.00  0.00     0.270 C 
HETATM   31  N1  UNL     1      -5.421   2.265   0.652  1.00  0.00    -0.360 N 
HETATM   32  C1  UNL     1      -5.701   3.604   0.971  1.00  0.00     0.149 C 
ATOM     33  H1  UNL     1      -5.777   1.935  -0.245  1.00  0.00     0.162 HD
HETATM   34  O1  UNL     1      -4.215   1.614   2.510  1.00  0.00    -0.266 OA
ENDBRANCH   1  30
TORSDOF 8
