REMARK  11 active torsions:
REMARK  status: ('A' for Active; 'I' for Inactive)
REMARK    1  A    between atoms: S1_2  and  C2_3 
REMARK    2  A    between atoms: C3_4  and  O1_5 
REMARK    3  A    between atoms: C4_10  and  C5_11 
REMARK    4  A    between atoms: C5_11  and  C6_12 
REMARK    5  A    between atoms: C5_11  and  C8_15 
REMARK       I    between atoms: C8_15  and  N2_17 
REMARK    6  A    between atoms: N2_17  and  C9_19 
REMARK    7  A    between atoms: C9_19  and  C10_20 
REMARK    8  A    between atoms: C9_19  and  C12_26 
REMARK    9  A    between atoms: C10_20  and  C11_22 
REMARK   10  A    between atoms: C15_29  and  N3_30 
REMARK   11  A    between atoms: N3_30  and  N4_32 
ROOT
HETATM    1  C2  UNL     1      -3.739   0.252  -0.453  1.00  0.00     0.129 C 
HETATM    2  C3  UNL     1      -4.069  -0.252   0.928  1.00  0.00     0.335 C 
HETATM    3  N1  UNL     1      -2.778  -0.397   1.610  1.00  0.00    -0.040 N 
ATOM      4  H11 UNL     1      -2.621  -1.328   1.996  1.00  0.00     0.280 HD
ATOM      5  H12 UNL     1      -2.722   0.110   2.493  1.00  0.00     0.280 HD
HETATM    6  C4  UNL     1      -1.775   0.010   0.636  1.00  0.00     0.234 C 
HETATM    7  C15 UNL     1      -2.367  -0.340  -0.667  1.00  0.00     0.150 C 
ENDROOT
BRANCH   6   8
HETATM    8  C5  UNL     1      -0.425  -0.454   0.956  1.00  0.00     0.179 C 
BRANCH   8   9
HETATM    9  C6  UNL     1       0.086   0.189   2.173  1.00  0.00     0.138 C 
HETATM   10  C7  UNL     1       0.170   1.712   2.066  1.00  0.00     0.091 C 
HETATM   11  O2  UNL     1       0.427  -0.346   3.207  1.00  0.00    -0.297 OA
ENDBRANCH   8   9
BRANCH   8  12
HETATM   12  C8  UNL     1       0.565  -0.485  -0.081  1.00  0.00     0.231 C 
HETATM   13  O3  UNL     1       0.360  -0.669  -1.331  1.00  0.00    -0.273 OA
HETATM   14  N2  UNL     1       1.920  -0.322   0.299  1.00  0.00    -0.348 N 
ATOM     15  H2  UNL     1       2.076  -0.187   1.298  1.00  0.00     0.163 HD
BRANCH  14  16
HETATM   16  C9  UNL     1       3.108  -0.318  -0.508  1.00  0.00     0.167 C 
BRANCH  16  17
HETATM   17  C10 UNL     1       3.160   0.936  -1.301  1.00  0.00     0.255 C 
HETATM   18  O4  UNL     1       2.906   0.965  -2.487  1.00  0.00    -0.286 OA
BRANCH  17  19
HETATM   19  C11 UNL     1       3.553   2.206  -0.626  1.00  0.00     0.453 C 
HETATM   20  F1  UNL     1       2.523   3.107  -0.981  1.00  0.00    -0.163 F 
HETATM   21  F2  UNL     1       3.486   2.074   0.755  1.00  0.00    -0.163 F 
HETATM   22  F3  UNL     1       4.746   2.732  -0.981  1.00  0.00    -0.163 F 
ENDBRANCH  17  19
ENDBRANCH  16  17
BRANCH  16  23
HETATM   23  C12 UNL     1       4.316  -0.764   0.190  1.00  0.00     0.008 C 
HETATM   24  C13 UNL     1       5.576  -0.660  -0.642  1.00  0.00     0.012 C 
HETATM   25  C14 UNL     1       4.135  -2.261   0.580  1.00  0.00     0.012 C 
ENDBRANCH  16  23
ENDBRANCH  14  16
ENDBRANCH   8  12
ENDBRANCH   6   8
BRANCH   7  26
HETATM   26  N3  UNL     1      -2.368  -1.771  -0.759  1.00  0.00    -0.314 N 
ATOM     27  H3  UNL     1      -1.587  -2.332  -0.419  1.00  0.00     0.182 HD
BRANCH  26  28
HETATM   28  N4  UNL     1      -3.365  -2.288  -1.271  1.00  0.00    -0.253 N 
HETATM   29  N5  UNL     1      -3.909  -3.239  -1.853  1.00  0.00    -0.331 N 
ATOM     30  H52 UNL     1      -3.146  -3.910  -1.944  1.00  0.00     0.178 HD
ATOM     31  H51 UNL     1      -4.733  -3.666  -2.276  1.00  0.00     0.178 HD
ATOM     32  H4  UNL     1      -4.103  -1.593  -1.162  1.00  0.00     0.207 HD
ENDBRANCH  26  28
ENDBRANCH   7  26
BRANCH   2  33
HETATM   33  O1  UNL     1      -4.779   0.648   1.695  1.00  0.00    -0.369 OA
ATOM     34  H1  UNL     1      -4.987   0.330   2.566  1.00  0.00     0.212 HD
ENDBRANCH   2  33
BRANCH   1  35
HETATM   35  S1  UNL     1      -4.893  -0.067  -1.752  1.00  0.00    -0.162 SA
HETATM   36  C1  UNL     1      -6.356   0.961  -1.592  1.00  0.00     0.090 C 
ENDBRANCH   1  35
TORSDOF 11
