REMARK  10 active torsions:
REMARK  status: ('A' for Active; 'I' for Inactive)
REMARK    1  A    between atoms: C2_2  and  C4_4 
REMARK    2  A    between atoms: C4_4  and  N1_5 
REMARK    3  A    between atoms: C4_4  and  C13_23 
REMARK       I    between atoms: N1_5  and  C5_7 
REMARK    4  A    between atoms: C5_7  and  C6_9 
REMARK    5  A    between atoms: C6_9  and  N2_10 
REMARK    6  A    between atoms: C6_9  and  C12_19 
REMARK       I    between atoms: N2_10  and  C7_12 
REMARK    7  A    between atoms: C7_12  and  C8_14 
REMARK    8  A    between atoms: C8_14  and  C9_15 
REMARK    9  A    between atoms: C13_23  and  O4_24 
REMARK   10  A    between atoms: C13_23  and  N3_26 
ROOT
HETATM    1  N1  UNL     1      -0.303  -1.147   0.869  1.00  0.00    -0.347 N 
ATOM      2  H1  UNL     1      -0.681  -2.006   1.270  1.00  0.00     0.163 HD
HETATM    3  C5  UNL     1       0.843  -1.217   0.076  1.00  0.00     0.250 C 
HETATM    4  O1  UNL     1       1.271  -0.080  -0.362  1.00  0.00    -0.271 OA
ENDROOT
BRANCH   1   5
HETATM    5  C4  UNL     1      -0.989   0.140   1.147  1.00  0.00     0.162 C 
BRANCH   5   6
HETATM    6  C2  UNL     1      -0.388   0.645   2.406  1.00  0.00     0.008 C 
HETATM    7  C1  UNL     1      -0.488  -0.159   3.641  1.00  0.00     0.012 C 
HETATM    8  C3  UNL     1      -0.797   2.064   2.735  1.00  0.00     0.012 C 
ENDBRANCH   5   6
BRANCH   5   9
HETATM    9  C13 UNL     1      -2.435  -0.044   1.029  1.00  0.00     0.138 C 
BRANCH   9  10
HETATM   10  O4  UNL     1      -2.984  -0.941   1.945  1.00  0.00    -0.348 OA
ATOM     11  H4  UNL     1      -3.923  -1.061   1.868  1.00  0.00     0.219 HD
ENDBRANCH   9  10
BRANCH   9  12
HETATM   12  N3  UNL     1      -3.280   1.047   0.824  1.00  0.00    -0.355 N 
HETATM   13  C14 UNL     1      -4.642   0.853   0.548  1.00  0.00     0.082 C 
HETATM   14  C15 UNL     1      -5.193  -0.506   0.830  1.00  0.00     0.032 C 
HETATM   15  C16 UNL     1      -4.734   1.030  -0.985  1.00  0.00     0.027 C 
HETATM   16  C17 UNL     1      -3.333   1.452  -1.403  1.00  0.00     0.027 C 
HETATM   17  C18 UNL     1      -2.894   2.085  -0.067  1.00  0.00     0.082 C 
HETATM   18  C19 UNL     1      -3.704   3.343   0.039  1.00  0.00     0.032 C 
ENDBRANCH   9  12
ENDBRANCH   5   9
ENDBRANCH   1   5
BRANCH   3  19
HETATM   19  C6  UNL     1       1.614  -2.408  -0.321  1.00  0.00     0.285 C 
BRANCH  19  20
HETATM   20  N2  UNL     1       3.062  -2.169  -0.316  1.00  0.00    -0.340 N 
HETATM   21  C7  UNL     1       3.698  -1.531  -1.392  1.00  0.00     0.221 C 
HETATM   22  O2  UNL     1       3.050  -1.116  -2.380  1.00  0.00    -0.274 OA
ATOM     23  H2  UNL     1       3.617  -2.472   0.485  1.00  0.00     0.163 HD
BRANCH  21  24
HETATM   24  C8  UNL     1       5.164  -1.333  -1.381  1.00  0.00     0.134 C 
BRANCH  24  25
HETATM   25  C9  UNL     1       5.505  -0.145  -2.219  1.00  0.00     0.132 C 
HETATM   26  C10 UNL     1       7.008   0.148  -2.305  1.00  0.00     0.058 C 
HETATM   27  C11 UNL     1       6.457   0.752  -3.612  1.00  0.00     0.170 C 
HETATM   28  O3  UNL     1       5.460  -0.256  -3.586  1.00  0.00    -0.385 OA
ENDBRANCH  24  25
ENDBRANCH  21  24
ENDBRANCH  19  20
BRANCH  19  29
HETATM   29  C12 UNL     1       1.322  -3.668   0.365  1.00  0.00     0.416 C 
HETATM   30  F1  UNL     1       0.010  -4.097   0.218  1.00  0.00    -0.168 F 
HETATM   31  F2  UNL     1       1.629  -3.651   1.713  1.00  0.00    -0.168 F 
HETATM   32  F3  UNL     1       2.095  -4.712  -0.168  1.00  0.00    -0.168 F 
ENDBRANCH  19  29
ENDBRANCH   3  19
TORSDOF 10
