REMARK  6 active torsions:
REMARK  status: ('A' for Active; 'I' for Inactive)
REMARK    1  A    between atoms: C2_2  and  C3_3 
REMARK    2  A    between atoms: C3_3  and  N1_4 
REMARK       I    between atoms: N1_4  and  C4_6 
REMARK    3  A    between atoms: C4_6  and  C5_8 
REMARK    4  A    between atoms: C6_11  and  N3_12 
REMARK    5  A    between atoms: C6_11  and  C10_19 
REMARK       I    between atoms: N3_12  and  C7_14 
REMARK    6  A    between atoms: C7_14  and  C8_16 
REMARK       I    between atoms: C10_19  and  N4_21 
ROOT
HETATM    1  C5  UNL     1       0.722   0.087   0.190  1.00  0.00     0.106 C 
HETATM    2  N2  UNL     1      -0.425   0.113   0.772  1.00  0.00    -0.353 N 
ATOM      3  H2  UNL     1      -0.522   0.108   1.787  1.00  0.00     0.162 HD
HETATM    4  C6  UNL     1      -1.539   0.149  -0.094  1.00  0.00     0.192 C 
HETATM    5  C12 UNL     1      -0.955   0.331  -1.465  1.00  0.00     0.104 C 
HETATM    6  C13 UNL     1       0.505   0.132  -1.258  1.00  0.00     0.127 C 
HETATM    7 BR2  UNL     1       1.170  -1.465  -2.119  1.00  0.00    -0.066 Br
HETATM    8 BR3  UNL     1       1.451   1.694  -1.948  1.00  0.00    -0.066 Br
ENDROOT
BRANCH   4   9
HETATM    9  N3  UNL     1      -2.339  -1.071  -0.033  1.00  0.00    -0.322 N 
HETATM   10  C7  UNL     1      -3.438  -1.355  -0.869  1.00  0.00     0.260 C 
HETATM   11  O2  UNL     1      -3.807  -0.543  -1.762  1.00  0.00    -0.267 OA
ATOM     12  H3  UNL     1      -2.084  -1.769   0.666  1.00  0.00     0.165 HD
BRANCH  10  13
HETATM   13  C8  UNL     1      -4.162  -2.596  -0.711  1.00  0.00     0.069 C 
HETATM   14  C9  UNL     1      -3.878  -3.522   0.178  1.00  0.00     0.037 C 
HETATM   15 BR1  UNL     1      -5.655  -2.923  -1.884  1.00  0.00    -0.046 Br
ENDBRANCH  10  13
ENDBRANCH   4   9
BRANCH   4  16
HETATM   16  C10 UNL     1      -2.446   1.284   0.250  1.00  0.00     0.266 C 
HETATM   17  O3  UNL     1      -3.630   1.035   0.557  1.00  0.00    -0.269 OA
HETATM   18  N4  UNL     1      -1.942   2.623   0.222  1.00  0.00    -0.362 N 
HETATM   19  C11 UNL     1      -2.835   3.707   0.558  1.00  0.00     0.149 C 
ATOM     20  H4  UNL     1      -0.971   2.808  -0.030  1.00  0.00     0.162 HD
ENDBRANCH   4  16
BRANCH   1  21
HETATM   21  C4  UNL     1       2.018   0.044   0.903  1.00  0.00     0.266 C 
HETATM   22  N1  UNL     1       3.216  -0.007   0.195  1.00  0.00    -0.352 N 
ATOM     23  H1  UNL     1       3.183  -0.020  -0.824  1.00  0.00     0.163 HD
HETATM   24  O1  UNL     1       2.005   0.056   2.146  1.00  0.00    -0.266 OA
BRANCH  22  25
HETATM   25  C3  UNL     1       4.516  -0.042   0.855  1.00  0.00     0.149 C 
BRANCH  25  26
HETATM   26  C2  UNL     1       5.596  -0.093  -0.165  1.00  0.00    -0.018 C 
HETATM   27  C1  UNL     1       6.457  -1.087  -0.232  1.00  0.00     0.008 C 
ENDBRANCH  25  26
ENDBRANCH  22  25
ENDBRANCH   1  21
TORSDOF 6
