REMARK  8 active torsions:
REMARK  status: ('A' for Active; 'I' for Inactive)
REMARK    1  A    between atoms: C2_2  and  C3_3 
REMARK    2  A    between atoms: C3_3  and  C4_4 
REMARK       I    between atoms: C4_4  and  N1_6 
REMARK    3  A    between atoms: N1_6  and  C6_8 
REMARK    4  A    between atoms: C6_8  and  C7_9 
REMARK    5  A    between atoms: C6_8  and  C8_11 
REMARK    6  A    between atoms: C8_11  and  C9_13 
REMARK    7  A    between atoms: C13_19  and  N3_20 
REMARK    8  A    between atoms: C13_19  and  C14_24 
ROOT
HETATM    1  C9  UNL     1      -1.500  -0.508   0.694  1.00  0.00     0.104 C 
HETATM    2 BR1  UNL     1      -0.050  -0.485   2.022  1.00  0.00    -0.075 Br
HETATM    3  C10 UNL     1      -2.004  -1.914   0.607  1.00  0.00     0.092 C 
HETATM    4 BR2  UNL     1      -2.525  -2.596  -1.093  1.00  0.00    -0.089 Br
HETATM    5  C11 UNL     1      -3.144  -1.495   1.516  1.00  0.00     0.047 A 
HETATM    6  C12 UNL     1      -2.775   0.012   1.307  1.00  0.00     0.059 A 
HETATM    7  C13 UNL     1      -4.117  -0.479   1.082  1.00  0.00     0.143 A 
ENDROOT
BRANCH   1   8
HETATM    8  C8  UNL     1      -1.052   0.163  -0.521  1.00  0.00     0.198 C 
HETATM    9  O2  UNL     1      -1.732   1.157  -0.866  1.00  0.00    -0.289 OA
BRANCH   8  10
HETATM   10  C6  UNL     1       0.085  -0.232  -1.340  1.00  0.00     0.098 C 
BRANCH  10  11
HETATM   11  N1  UNL     1       1.367  -0.321  -0.752  1.00  0.00    -0.318 N 
HETATM   12  C4  UNL     1       2.139   0.743  -0.214  1.00  0.00     0.224 C 
HETATM   13  O1  UNL     1       1.779   1.945  -0.149  1.00  0.00    -0.273 OA
HETATM   14  C5  UNL     1       2.016  -1.651  -0.691  1.00  0.00     0.159 C 
BRANCH  12  15
HETATM   15  C3  UNL     1       3.502   0.478   0.338  1.00  0.00     0.103 C 
BRANCH  15  16
HETATM   16  C2  UNL     1       4.173   1.747   0.812  1.00  0.00     0.005 C 
HETATM   17  C1  UNL     1       5.548   1.443   1.363  1.00  0.00     0.005 C 
ENDBRANCH  15  16
ENDBRANCH  12  15
ENDBRANCH  10  11
BRANCH  10  18
HETATM   18  C7  UNL     1       0.120   0.428  -2.699  1.00  0.00     0.133 C 
HETATM   19  N2  UNL     1       0.601   1.752  -2.758  1.00  0.00    -0.113 NA
ENDBRANCH  10  18
ENDBRANCH   8  10
ENDBRANCH   1   8
BRANCH   7  20
HETATM   20  N3  UNL     1      -5.083  -0.148   2.168  1.00  0.00    -0.069 N 
ATOM     21  H33 UNL     1      -5.549  -0.984   2.521  1.00  0.00     0.275 HD
ATOM     22  H32 UNL     1      -4.602   0.137   3.021  1.00  0.00     0.275 HD
ATOM     23  H31 UNL     1      -5.757   0.556   1.867  1.00  0.00     0.275 HD
ENDBRANCH   7  20
BRANCH   7  24
HETATM   24  C14 UNL     1      -4.849  -0.519  -0.219  1.00  0.00     0.124 C 
HETATM   25 BR3  UNL     1      -5.928  -2.139  -0.308  1.00  0.00    -0.094 Br
ENDBRANCH   7  24
TORSDOF 8
