REMARK  11 active torsions:
REMARK  status: ('A' for Active; 'I' for Inactive)
REMARK    1  A    between atoms: C2_2  and  C20_35 
REMARK    2  A    between atoms: N1_3  and  O1_5 
REMARK    3  A    between atoms: O1_5  and  C3_6 
REMARK    4  A    between atoms: N2_7  and  O2_9 
REMARK    5  A    between atoms: O2_9  and  C4_10 
REMARK    6  A    between atoms: C4_10  and  C5_11 
REMARK    7  A    between atoms: C4_10  and  C12_20 
REMARK    8  A    between atoms: C4_10  and  C17_28 
REMARK    9  A    between atoms: C5_11  and  C6_12 
REMARK   10  A    between atoms: C7_14  and  C8_15 
REMARK   11  A    between atoms: N4_32  and  O3_33 
ROOT
HETATM    1  C4  UNL     1      -0.377  -1.207  -0.431  1.00  0.00     0.173 C 
ENDROOT
BRANCH   1   2
HETATM    2  O2  UNL     1       0.987  -1.512  -0.818  1.00  0.00    -0.255 OA
BRANCH   2   3
HETATM    3  N2  UNL     1       1.984  -0.583  -0.667  1.00  0.00    -0.252 N 
HETATM    4  C3  UNL     1       3.004  -0.643  -1.464  1.00  0.00     0.281 C 
ATOM      5  H2  UNL     1       1.924   0.136   0.054  1.00  0.00     0.195 HD
BRANCH   4   6
HETATM    6  O1  UNL     1       4.042   0.293  -1.337  1.00  0.00    -0.231 OA
BRANCH   6   7
HETATM    7  N1  UNL     1       3.987   1.236  -0.350  1.00  0.00    -0.258 N 
HETATM    8  C2  UNL     1       5.071   1.612   0.222  1.00  0.00     0.105 C 
HETATM    9  C1  UNL     1       5.070   2.639   1.306  1.00  0.00     0.078 C 
ATOM     10  H1  UNL     1       3.092   1.637  -0.071  1.00  0.00     0.194 HD
BRANCH   8  11
HETATM   11  C20 UNL     1       6.325   1.023  -0.195  1.00  0.00     0.224 C 
HETATM   12  O4  UNL     1       6.405   0.154  -1.098  1.00  0.00    -0.643 OA
HETATM   13  O5  UNL     1       7.495   1.427   0.421  1.00  0.00    -0.643 OA
ENDBRANCH   8  11
ENDBRANCH   6   7
ENDBRANCH   4   6
ENDBRANCH   2   3
ENDBRANCH   1   2
BRANCH   1  14
HETATM   14  C5  UNL     1      -0.715  -0.019  -1.259  1.00  0.00     0.104 C 
BRANCH  14  15
HETATM   15  C6  UNL     1      -2.031   0.587  -1.134  1.00  0.00     0.017 C 
HETATM   16 CL1  UNL     1      -3.540  -0.239  -1.392  1.00  0.00    -0.089 Cl
HETATM   17  C7  UNL     1      -2.086   1.863  -0.823  1.00  0.00     0.038 C 
BRANCH  17  18
HETATM   18  C8  UNL     1      -3.374   2.540  -0.677  1.00  0.00     0.006 A 
HETATM   19  C9  UNL     1      -4.528   2.165  -0.041  1.00  0.00     0.019 A 
HETATM   20  C10 UNL     1      -5.571   3.001  -0.088  1.00  0.00     0.008 A 
HETATM   21  C11 UNL     1      -5.414   4.177  -0.771  1.00  0.00     0.050 A 
HETATM   22  S1  UNL     1      -3.809   4.084  -1.330  1.00  0.00    -0.102 SA
ENDBRANCH  17  18
ENDBRANCH  14  15
ENDBRANCH   1  14
BRANCH   1  23
HETATM   23  C12 UNL     1      -1.143  -2.411  -0.718  1.00  0.00     0.001 A 
HETATM   24  C13 UNL     1      -1.538  -3.330   0.247  1.00  0.00     0.015 A 
HETATM   25  C14 UNL     1      -2.240  -4.464  -0.054  1.00  0.00     0.043 A 
HETATM   26  C15 UNL     1      -2.580  -4.730  -1.340  1.00  0.00     0.103 A 
HETATM   27 CL2  UNL     1      -3.483  -6.187  -1.730  1.00  0.00    -0.065 Cl
HETATM   28  N3  UNL     1      -2.210  -3.857  -2.294  1.00  0.00    -0.356 N 
HETATM   29  C16 UNL     1      -1.508  -2.720  -2.005  1.00  0.00     0.099 A 
ATOM     30  H3  UNL     1      -2.461  -4.049  -3.264  1.00  0.00     0.166 HD
ENDBRANCH   1  23
BRANCH   1  31
HETATM   31  C17 UNL     1      -0.346  -0.869   1.019  1.00  0.00     0.122 A 
HETATM   32  S2  UNL     1      -1.340   0.204   1.887  1.00  0.00    -0.081 SA
HETATM   33  C18 UNL     1      -0.675   0.001   3.440  1.00  0.00     0.071 A 
HETATM   34  C19 UNL     1       0.311  -0.916   3.195  1.00  0.00     0.131 A 
HETATM   35  N4  UNL     1       0.466  -1.346   1.972  1.00  0.00    -0.229 N 
BRANCH  35  36
HETATM   36  O3  UNL     1       1.464  -2.310   1.654  1.00  0.00    -0.283 OA
ATOM     37  H3  UNL     1       2.040  -2.648   2.330  1.00  0.00     0.245 HD
ENDBRANCH  35  36
ENDBRANCH   1  31
TORSDOF 11
