REMARK  12 active torsions:
REMARK  status: ('A' for Active; 'I' for Inactive)
REMARK    1  A    between atoms: O1_2  and  C2_3 
REMARK       I    between atoms: C2_3  and  N1_5 
REMARK    2  A    between atoms: N1_5  and  C3_6 
REMARK    3  A    between atoms: N1_5  and  C11_20 
REMARK    4  A    between atoms: C3_6  and  C4_7 
REMARK    5  A    between atoms: C6_9  and  O3_10 
REMARK    6  A    between atoms: O3_10  and  C7_11 
REMARK    7  A    between atoms: C10_17  and  O4_18 
REMARK    8  A    between atoms: C14_23  and  C15_24 
REMARK    9  A    between atoms: C15_24  and  C16_25 
REMARK   10  A    between atoms: C20_31  and  C21_32 
REMARK   11  A    between atoms: C21_32  and  O7_35 
REMARK   12  A    between atoms: O7_35  and  C24_36 
ROOT
HETATM    1  C11 UNL     1       1.753  -0.539   1.398  1.00  0.00     0.044 A 
HETATM    2  C12 UNL     1       0.725   0.085   2.126  1.00  0.00     0.031 A 
HETATM    3  C13 UNL     1      -0.579   0.075   1.685  1.00  0.00     0.009 A 
HETATM    4  C14 UNL     1      -0.937  -0.552   0.502  1.00  0.00    -0.056 A 
HETATM    5  C26 UNL     1       0.066  -1.163  -0.218  1.00  0.00     0.009 A 
HETATM    6  C27 UNL     1       1.384  -1.154   0.225  1.00  0.00     0.031 A 
ENDROOT
BRANCH   1   7
HETATM    7  N1  UNL     1       3.062  -0.533   1.943  1.00  0.00    -0.268 N 
HETATM    8  C2  UNL     1       3.234  -1.435   3.048  1.00  0.00     0.371 C 
HETATM    9  O2  UNL     1       4.283  -1.428   3.766  1.00  0.00    -0.238 OA
BRANCH   8  10
HETATM   10  O1  UNL     1       2.285  -2.369   3.413  1.00  0.00    -0.308 OA
HETATM   11  C1  UNL     1       2.505  -3.229   4.510  1.00  0.00     0.215 C 
ENDBRANCH   8  10
BRANCH   7  12
HETATM   12  C3  UNL     1       4.141   0.219   1.450  1.00  0.00     0.117 C 
BRANCH  12  13
HETATM   13  C4  UNL     1       4.934  -0.201   0.320  1.00  0.00     0.016 A 
HETATM   14  C5  UNL     1       5.255   0.756  -0.675  1.00  0.00     0.052 A 
HETATM   15  C6  UNL     1       6.057   0.512  -1.735  1.00  0.00     0.079 A 
HETATM   16  C8  UNL     1       6.603  -0.750  -1.867  1.00  0.00     0.040 A 
HETATM   17  C9  UNL     1       6.338  -1.736  -0.941  1.00  0.00     0.040 A 
HETATM   18  C10 UNL     1       5.500  -1.417   0.133  1.00  0.00     0.077 A 
BRANCH  15  19
HETATM   19  O3  UNL     1       6.393   1.446  -2.726  1.00  0.00    -0.255 OA
BRANCH  19  20
HETATM   20  C7  UNL     1       7.560   2.255  -2.537  1.00  0.00     0.530 C 
HETATM   21  F1  UNL     1       7.472   3.027  -1.396  1.00  0.00    -0.144 F 
HETATM   22  F2  UNL     1       8.621   1.381  -2.355  1.00  0.00    -0.144 F 
HETATM   23  F3  UNL     1       7.832   3.013  -3.650  1.00  0.00    -0.144 F 
ENDBRANCH  19  20
ENDBRANCH  15  19
BRANCH  18  24
HETATM   24  O4  UNL     1       5.282  -2.454   1.008  1.00  0.00    -0.360 OA
ATOM     25  H4  UNL     1       5.679  -3.307   0.877  1.00  0.00     0.217 HD
ENDBRANCH  18  24
ENDBRANCH  12  13
ENDBRANCH   7  12
ENDBRANCH   1   7
BRANCH   4  26
HETATM   26  C15 UNL     1      -2.379  -0.576   0.070  1.00  0.00     0.073 C 
BRANCH  26  27
HETATM   27  C16 UNL     1      -2.654   0.613  -0.746  1.00  0.00     0.161 C 
HETATM   28  O5  UNL     1      -2.378   1.741   0.075  1.00  0.00    -0.348 OA
HETATM   29  C17 UNL     1      -3.127   2.768  -0.477  1.00  0.00     0.158 C 
HETATM   30  C18 UNL     1      -3.551   3.824   0.511  1.00  0.00     0.078 C 
HETATM   31  C19 UNL     1      -2.358   3.461  -1.610  1.00  0.00     0.078 C 
HETATM   32  O6  UNL     1      -4.243   2.205  -1.034  1.00  0.00    -0.345 OA
HETATM   33  C20 UNL     1      -3.986   0.858  -1.288  1.00  0.00     0.189 C 
BRANCH  33  34
HETATM   34  C21 UNL     1      -5.145   0.057  -0.843  1.00  0.00     0.092 C 
HETATM   35  C22 UNL     1      -5.470   0.254   0.649  1.00  0.00     0.049 C 
HETATM   36  C23 UNL     1      -6.356   0.674  -1.578  1.00  0.00     0.049 C 
BRANCH  34  37
HETATM   37  O7  UNL     1      -5.091  -1.316  -1.028  1.00  0.00    -0.308 OA
BRANCH  37  38
HETATM   38  C24 UNL     1      -4.970  -1.959  -2.247  1.00  0.00     0.255 C 
HETATM   39  C25 UNL     1      -4.924  -3.453  -2.317  1.00  0.00     0.126 C 
HETATM   40  O8  UNL     1      -4.906  -1.235  -3.262  1.00  0.00    -0.266 OA
ENDBRANCH  37  38
ENDBRANCH  34  37
ENDBRANCH  33  34
ENDBRANCH  26  27
ENDBRANCH   4  26
TORSDOF 12
