REMARK  7 active torsions:
REMARK  status: ('A' for Active; 'I' for Inactive)
REMARK    1  A    between atoms: C3_4  and  C4_5 
REMARK    2  A    between atoms: C5_6  and  C6_7 
REMARK    3  A    between atoms: C6_7  and  C7_8 
REMARK    4  A    between atoms: C7_8  and  C8_9 
REMARK    5  A    between atoms: C8_9  and  C9_10 
REMARK    6  A    between atoms: C9_10  and  N1_11 
REMARK    7  A    between atoms: N1_11  and  C10_13 
ROOT
HETATM    1  C6  UNL     1      -0.709  -0.205  -0.145  1.00  0.00     0.027 C 
ENDROOT
BRANCH   1   2
HETATM    2  C5  UNL     1      -1.552  -1.099  -0.913  1.00  0.00    -0.024 C 
HETATM    3  C4  UNL     1      -2.809  -1.206  -0.991  1.00  0.00     0.025 C 
BRANCH   3   4
HETATM    4  C3  UNL     1      -3.904  -0.513  -0.361  1.00  0.00     0.041 A 
HETATM    5  C2  UNL     1      -3.816   0.342   0.710  1.00  0.00     0.104 A 
HETATM    6  C1  UNL     1      -4.937   1.002   1.197  1.00  0.00     0.251 A 
HETATM    7  O1  UNL     1      -4.773   1.768   2.178  1.00  0.00    -0.268 OA
HETATM    8  N5  UNL     1      -6.114   0.788   0.601  1.00  0.00    -0.275 N 
HETATM    9  C14 UNL     1      -6.232  -0.042  -0.446  1.00  0.00     0.327 A 
ATOM     10  H5  UNL     1      -6.943   1.268   0.951  1.00  0.00     0.173 HD
HETATM   11  N4  UNL     1      -5.165  -0.669  -0.909  1.00  0.00    -0.308 N 
HETATM   12  O2  UNL     1      -7.383  -0.176  -0.936  1.00  0.00    -0.247 OA
ATOM     13  H4  UNL     1      -5.276  -1.296  -1.706  1.00  0.00     0.170 HD
ENDBRANCH   3   4
ENDBRANCH   1   2
BRANCH   1  14
HETATM   14  C7  UNL     1       0.053  -0.882   0.959  1.00  0.00     0.005 C 
BRANCH  14  15
HETATM   15  C8  UNL     1       0.871   0.123   1.709  1.00  0.00     0.020 C 
BRANCH  15  16
HETATM   16  C9  UNL     1       1.851   0.784   0.783  1.00  0.00     0.138 C 
BRANCH  16  17
HETATM   17  N1  UNL     1       2.686  -0.263   0.229  1.00  0.00    -0.226 N 
ATOM     18  H1  UNL     1       2.309  -1.181  -0.008  1.00  0.00     0.177 HD
BRANCH  17  19
HETATM   19  C10 UNL     1       3.950   0.030   0.049  1.00  0.00     0.677 A 
HETATM   20  N2  UNL     1       4.431   1.237   0.362  1.00  0.00    -0.202 N 
HETATM   21  C11 UNL     1       5.712   1.578   0.194  1.00  0.00     0.107 A 
ATOM     22  H2  UNL     1       3.790   1.931   0.747  1.00  0.00     0.183 HD
HETATM   23  C12 UNL     1       6.606   0.664  -0.326  1.00  0.00     0.035 A 
HETATM   24  C13 UNL     1       6.076  -0.574  -0.639  1.00  0.00     0.107 A 
HETATM   25  N3  UNL     1       4.789  -0.886  -0.460  1.00  0.00    -0.202 N 
ATOM     26  H3  UNL     1       4.446  -1.814  -0.708  1.00  0.00     0.183 HD
ENDBRANCH  17  19
ENDBRANCH  16  17
ENDBRANCH  15  16
ENDBRANCH  14  15
ENDBRANCH   1  14
TORSDOF 7
