REMARK  8 active torsions:
REMARK  status: ('A' for Active; 'I' for Inactive)
REMARK    1  A    between atoms: C3_3  and  O1_4 
REMARK    2  A    between atoms: O1_4  and  C4_5 
REMARK    3  A    between atoms: C4_5  and  C5_6 
REMARK    4  A    between atoms: C5_6  and  C6_7 
REMARK    5  A    between atoms: C8_11  and  N2_12 
REMARK    6  A    between atoms: N2_12  and  C9_14 
REMARK    7  A    between atoms: C9_14  and  C10_15 
REMARK    8  A    between atoms: C14_19  and  O2_20 
ROOT
HETATM    1  C1  UNL     1      -6.066  -1.459   1.990  1.00  0.00     0.014 C 
HETATM    2  C2  UNL     1      -6.187  -1.045   0.866  1.00  0.00    -0.091 C 
HETATM    3  C3  UNL     1      -6.355  -0.556  -0.505  1.00  0.00     0.260 C 
ENDROOT
BRANCH   3   4
HETATM    4  O1  UNL     1      -5.683   0.649  -0.669  1.00  0.00    -0.379 OA
BRANCH   4   5
HETATM    5  C4  UNL     1      -4.328   0.427  -0.406  1.00  0.00     0.173 C 
BRANCH   5   6
HETATM    6  C5  UNL     1      -3.556   1.730  -0.576  1.00  0.00     0.067 C 
BRANCH   6   7
HETATM    7  C6  UNL     1      -2.136   1.418  -0.283  1.00  0.00    -0.024 A 
HETATM    8  C7  UNL     1      -1.578   1.504   0.974  1.00  0.00     0.114 A 
HETATM    9  N1  UNL     1      -0.262   1.204   1.192  1.00  0.00    -0.201 N 
HETATM   10  C8  UNL     1       0.506   0.817   0.160  1.00  0.00     0.677 A 
ATOM     11  H1  UNL     1       0.133   1.273   2.130  1.00  0.00     0.183 HD
HETATM   12  N3  UNL     1      -0.005   0.724  -1.071  1.00  0.00    -0.201 N 
HETATM   13  C16 UNL     1      -1.294   1.013  -1.305  1.00  0.00     0.114 A 
ATOM     14  H3  UNL     1       0.593   0.429  -1.843  1.00  0.00     0.183 HD
BRANCH  10  15
HETATM   15  N2  UNL     1       1.739   0.542   0.394  1.00  0.00    -0.222 N 
ATOM     16  H2  UNL     1       2.116   0.618   1.339  1.00  0.00     0.178 HD
BRANCH  15  17
HETATM   17  C9  UNL     1       2.582   0.125  -0.698  1.00  0.00     0.176 C 
BRANCH  17  18
HETATM   18  C10 UNL     1       3.971  -0.132  -0.269  1.00  0.00    -0.037 A 
HETATM   19  C11 UNL     1       4.932  -0.541  -1.168  1.00  0.00     0.009 A 
HETATM   20  C12 UNL     1       6.245  -0.786  -0.777  1.00  0.00     0.003 A 
HETATM   21  C13 UNL     1       6.609  -0.624   0.526  1.00  0.00     0.036 A 
HETATM   22  C14 UNL     1       5.671  -0.216   1.450  1.00  0.00     0.066 A 
HETATM   23  C15 UNL     1       4.354   0.028   1.047  1.00  0.00     0.045 A 
BRANCH  22  24
HETATM   24  O2  UNL     1       5.960  -0.028   2.791  1.00  0.00    -0.361 OA
ATOM     25  H2  UNL     1       5.314   0.253   3.428  1.00  0.00     0.217 HD
ENDBRANCH  22  24
ENDBRANCH  17  18
ENDBRANCH  15  17
ENDBRANCH  10  15
ENDBRANCH   6   7
ENDBRANCH   5   6
ENDBRANCH   4   5
ENDBRANCH   3   4
TORSDOF 8
