REMARK  6 active torsions:
REMARK  status: ('A' for Active; 'I' for Inactive)
REMARK       I    between atoms: C2_5  and  N3_6 
REMARK       I    between atoms: C2_5  and  N6_17 
REMARK    1  A    between atoms: N3_6  and  C3_8 
REMARK    2  A    between atoms: C3_8  and  C4_9 
REMARK    3  A    between atoms: C4_9  and  C5_10 
REMARK    4  A    between atoms: C5_10  and  N4_11 
REMARK    5  A    between atoms: N6_17  and  C9_19 
REMARK    6  A    between atoms: C9_19  and  C10_20 
ROOT
HETATM    1  N1  UNL     1      -3.103  -3.959   0.697  1.00  0.00    -0.171 NA
HETATM    2  C1  UNL     1      -2.079  -3.488   0.429  1.00  0.00     0.196 C 
HETATM    3  N2  UNL     1      -0.844  -2.932   0.095  1.00  0.00    -0.126 N 
ATOM      4  H2  UNL     1       0.012  -3.467   0.244  1.00  0.00     0.197 HD
HETATM    5  C2  UNL     1      -0.782  -1.760  -0.395  1.00  0.00     0.683 C 
HETATM    6  N3  UNL     1       0.444  -1.163  -0.745  1.00  0.00    -0.226 N 
ATOM      7  H3  UNL     1       0.587  -0.787  -1.682  1.00  0.00     0.177 HD
HETATM    8  N6  UNL     1      -1.976  -1.034  -0.595  1.00  0.00    -0.222 N 
ATOM      9  H6  UNL     1      -2.593  -1.243  -1.380  1.00  0.00     0.178 HD
ENDROOT
BRANCH   6  10
HETATM   10  C3  UNL     1       1.495  -1.091   0.241  1.00  0.00     0.139 C 
BRANCH  10  11
HETATM   11  C4  UNL     1       2.739  -0.423  -0.296  1.00  0.00     0.040 C 
BRANCH  11  12
HETATM   12  C5  UNL     1       3.755  -0.421   0.853  1.00  0.00     0.131 C 
BRANCH  12  13
HETATM   13  N4  UNL     1       4.990   0.204   0.434  1.00  0.00    -0.352 N 
HETATM   14  C6  UNL     1       5.250   1.515   0.553  1.00  0.00     0.108 A 
HETATM   15  C7  UNL     1       6.499   1.717   0.054  1.00  0.00     0.106 A 
HETATM   16  N5  UNL     1       6.967   0.525  -0.356  1.00  0.00    -0.361 N 
HETATM   17  C8  UNL     1       6.050  -0.421  -0.130  1.00  0.00     0.182 A 
ATOM     18  H5  UNL     1       7.883   0.367  -0.776  1.00  0.00     0.166 HD
ENDBRANCH  12  13
ENDBRANCH  11  12
ENDBRANCH  10  11
ENDBRANCH   6  10
BRANCH   8  19
HETATM   19  C9  UNL     1      -2.299   0.020   0.350  1.00  0.00     0.176 C 
BRANCH  19  20
HETATM   20  C10 UNL     1      -3.571   0.691   0.017  1.00  0.00    -0.040 A 
HETATM   21  C11 UNL     1      -3.616   1.794  -0.809  1.00  0.00     0.009 A 
HETATM   22  C12 UNL     1      -4.827   2.379  -1.085  1.00  0.00     0.001 A 
HETATM   23  C13 UNL     1      -5.982   1.879  -0.550  1.00  0.00     0.000 A 
HETATM   24  C14 UNL     1      -5.940   0.778   0.275  1.00  0.00     0.001 A 
HETATM   25  C15 UNL     1      -4.737   0.185   0.558  1.00  0.00     0.009 A 
ENDBRANCH  19  20
ENDBRANCH   8  19
TORSDOF 6
