REMARK  8 active torsions:
REMARK  status: ('A' for Active; 'I' for Inactive)
REMARK    1  A    between atoms: O1_3  and  C3_4 
REMARK    2  A    between atoms: C3_4  and  C4_5 
REMARK    3  A    between atoms: C4_5  and  N1_6 
REMARK    4  A    between atoms: N1_6  and  N2_8 
REMARK    5  A    between atoms: N2_8  and  C5_10 
REMARK    6  A    between atoms: C8_15  and  N4_16 
REMARK    7  A    between atoms: N4_16  and  C9_18 
REMARK    8  A    between atoms: C9_18  and  C10_19 
ROOT
HETATM    1  C1  UNL     1       7.672  -0.646   1.533  1.00  0.00     0.044 C 
HETATM    2  C2  UNL     1       6.636  -1.212   1.372  1.00  0.00     0.043 C 
HETATM    3  O1  UNL     1       5.443  -1.846   1.205  1.00  0.00    -0.303 OA
ENDROOT
BRANCH   3   4
HETATM    4  C3  UNL     1       4.941  -2.240  -0.065  1.00  0.00     0.209 C 
BRANCH   4   5
HETATM    5  C4  UNL     1       4.801  -0.986  -0.902  1.00  0.00     0.167 C 
BRANCH   5   6
HETATM    6  N1  UNL     1       3.871  -0.106  -0.208  1.00  0.00    -0.320 N 
ATOM      7  H1  UNL     1       4.188   0.817   0.088  1.00  0.00     0.180 HD
BRANCH   6   8
HETATM    8  N2  UNL     1       2.558  -0.493   0.062  1.00  0.00    -0.136 N 
ATOM      9  H2  UNL     1       2.388  -1.379   0.538  1.00  0.00     0.205 HD
BRANCH   8  10
HETATM   10  C5  UNL     1       1.556   0.242  -0.276  1.00  0.00     0.697 A 
HETATM   11  N3  UNL     1       1.790   1.404  -0.903  1.00  0.00    -0.200 N 
HETATM   12  C6  UNL     1       0.781   2.213  -1.280  1.00  0.00     0.110 A 
ATOM     13  H3  UNL     1       2.752   1.681  -1.099  1.00  0.00     0.183 HD
HETATM   14  C7  UNL     1      -0.529   1.808  -1.000  1.00  0.00     0.066 A 
HETATM   15  C8  UNL     1      -0.759   0.612  -0.356  1.00  0.00     0.118 A 
HETATM   16  N5  UNL     1       0.298  -0.147  -0.007  1.00  0.00    -0.176 N 
ATOM     17  H5  UNL     1       0.140  -1.034   0.471  1.00  0.00     0.186 HD
BRANCH  15  18
HETATM   18  N4  UNL     1      -1.963   0.235  -0.096  1.00  0.00    -0.372 N 
ATOM     19  H4  UNL     1      -2.129  -0.651   0.382  1.00  0.00     0.161 HD
BRANCH  18  20
HETATM   20  C9  UNL     1      -3.077   1.069  -0.482  1.00  0.00     0.159 C 
BRANCH  20  21
HETATM   21  C10 UNL     1      -4.369   0.461  -0.129  1.00  0.00    -0.041 A 
HETATM   22  C11 UNL     1      -4.350  -0.781   0.502  1.00  0.00     0.009 A 
HETATM   23  C12 UNL     1      -5.531  -1.396   0.854  1.00  0.00     0.001 A 
HETATM   24  C13 UNL     1      -6.718  -0.762   0.573  1.00  0.00     0.000 A 
HETATM   25  C14 UNL     1      -6.738   0.481  -0.058  1.00  0.00     0.001 A 
HETATM   26  C15 UNL     1      -5.553   1.099  -0.412  1.00  0.00     0.009 A 
ENDBRANCH  20  21
ENDBRANCH  18  20
ENDBRANCH  15  18
ENDBRANCH   8  10
ENDBRANCH   6   8
ENDBRANCH   5   6
ENDBRANCH   4   5
ENDBRANCH   3   4
TORSDOF 8
