REMARK  7 active torsions:
REMARK  status: ('A' for Active; 'I' for Inactive)
REMARK    1  A    between atoms: C2_2  and  N1_3 
REMARK    2  A    between atoms: N1_3  and  C3_4 
REMARK    3  A    between atoms: N1_3  and  C5_6 
REMARK    4  A    between atoms: C5_6  and  C6_7 
REMARK    5  A    between atoms: C6_7  and  N2_8 
REMARK       I    between atoms: N2_8  and  C7_10 
REMARK    6  A    between atoms: C7_10  and  C8_12 
REMARK    7  A    between atoms: C17_21  and  C18_22 
ROOT
HETATM    1  C8  UNL     1       1.034  -1.991  -0.353  1.00  0.00     0.086 C 
HETATM    2  C9  UNL     1       0.845  -2.774   0.933  1.00  0.00     0.015 C 
HETATM    3  C10 UNL     1      -0.216  -1.977   1.722  1.00  0.00     0.007 C 
HETATM    4  C11 UNL     1      -1.012  -1.459   0.568  1.00  0.00    -0.001 C 
HETATM    5  C12 UNL     1      -2.215  -0.702   0.804  1.00  0.00    -0.001 C 
HETATM    6  C13 UNL     1      -2.396   0.005   2.122  1.00  0.00     0.033 C 
HETATM    7  C14 UNL     1      -3.871   0.213   2.228  1.00  0.00    -0.023 C 
HETATM    8  C15 UNL     1      -4.538   0.570   1.111  1.00  0.00    -0.074 C 
HETATM    9  C16 UNL     1      -6.013   0.782   1.183  1.00  0.00     0.044 C 
HETATM   10  C17 UNL     1      -6.629   1.200  -0.088  1.00  0.00     0.027 C 
HETATM   11  C19 UNL     1      -6.104   0.462  -1.262  1.00  0.00     0.011 C 
HETATM   12  C20 UNL     1      -4.709  -0.040  -1.189  1.00  0.00     0.015 C 
HETATM   13  C21 UNL     1      -3.877   0.769  -0.204  1.00  0.00    -0.017 C 
HETATM   14  C22 UNL     1      -3.956   2.248  -0.610  1.00  0.00     0.020 C 
HETATM   15  C23 UNL     1      -2.457   0.352  -0.262  1.00  0.00     0.003 C 
HETATM   16  C24 UNL     1      -2.013  -0.261  -1.565  1.00  0.00     0.007 C 
HETATM   17  C25 UNL     1      -0.535  -0.457  -1.603  1.00  0.00     0.011 C 
HETATM   18  C26 UNL     1       0.081  -0.825  -0.271  1.00  0.00    -0.028 C 
HETATM   19  C27 UNL     1       0.718   0.380   0.344  1.00  0.00     0.016 C 
ENDROOT
BRANCH   1  20
HETATM   20  C7  UNL     1       2.458  -1.593  -0.472  1.00  0.00     0.222 C 
HETATM   21  N2  UNL     1       2.954  -0.676  -1.424  1.00  0.00    -0.356 N 
ATOM     22  H2  UNL     1       2.306  -0.255  -2.089  1.00  0.00     0.162 HD
HETATM   23  O1  UNL     1       3.251  -2.117   0.331  1.00  0.00    -0.273 OA
BRANCH  21  24
HETATM   24  C6  UNL     1       4.348  -0.317  -1.485  1.00  0.00     0.167 C 
BRANCH  24  25
HETATM   25  C5  UNL     1       4.866   0.358  -0.242  1.00  0.00     0.087 C 
BRANCH  25  26
HETATM   26  N1  UNL     1       6.188   0.745  -0.232  1.00  0.00    -0.353 N 
BRANCH  26  27
HETATM   27  C2  UNL     1       6.650   1.370   0.922  1.00  0.00     0.064 C 
HETATM   28  C1  UNL     1       7.581   0.556   1.805  1.00  0.00     0.055 C 
ENDBRANCH  26  27
BRANCH  26  29
HETATM   29  C3  UNL     1       7.025   0.456  -1.286  1.00  0.00     0.064 C 
HETATM   30  C4  UNL     1       8.059  -0.631  -0.986  1.00  0.00     0.055 C 
ENDBRANCH  26  29
ENDBRANCH  25  26
ENDBRANCH  24  25
ENDBRANCH  21  24
ENDBRANCH   1  20
BRANCH  10  31
HETATM   31  C18 UNL     1      -8.110   0.877   0.011  1.00  0.00     0.057 C 
HETATM   32  N3  UNL     1      -8.946   1.732   0.391  1.00  0.00    -0.411 N 
ATOM     33  H32 UNL     1      -8.606   2.662   0.636  1.00  0.00     0.155 HD
ATOM     34  H31 UNL     1      -9.940   1.515   0.457  1.00  0.00     0.155 HD
ENDBRANCH  10  31
TORSDOF 7
