REMARK  9 active torsions:
REMARK  status: ('A' for Active; 'I' for Inactive)
REMARK       I    between atoms: C1_2  and  N1_3 
REMARK       I    between atoms: C1_2  and  N2_13 
REMARK    1  A    between atoms: N1_3  and  C2_5 
REMARK    2  A    between atoms: C12_16  and  N3_17 
REMARK    3  A    between atoms: N3_17  and  C13_18 
REMARK    4  A    between atoms: N3_17  and  C21_26 
REMARK    5  A    between atoms: C13_18  and  C14_19 
REMARK    6  A    between atoms: C14_19  and  C15_20 
REMARK    7  A    between atoms: C15_20  and  C16_21 
REMARK    8  A    between atoms: C21_26  and  O2_27 
REMARK    9  A    between atoms: C21_26  and  C22_29 
ROOT
HETATM    1  O1  UNL     1       2.972   2.833  -0.894  1.00  0.00    -0.247 OA
HETATM    2  C1  UNL     1       2.502   1.715  -0.599  1.00  0.00     0.318 C 
HETATM    3  N1  UNL     1       3.159   0.561  -1.057  1.00  0.00    -0.338 N 
ATOM      4  H1  UNL     1       2.758  -0.342  -0.806  1.00  0.00     0.164 HD
HETATM    5  N2  UNL     1       1.327   1.634   0.182  1.00  0.00    -0.334 N 
HETATM    6  C10 UNL     1       0.716   2.842   0.608  1.00  0.00     0.129 C 
HETATM    7  C11 UNL     1      -0.661   2.797   1.139  1.00  0.00     0.045 C 
HETATM    8  C12 UNL     1      -1.180   1.380   1.321  1.00  0.00     0.089 C 
HETATM    9  C25 UNL     1      -0.076   0.497   1.758  1.00  0.00     0.045 C 
HETATM   10  C26 UNL     1       0.815   0.330   0.507  1.00  0.00     0.129 C 
ENDROOT
BRANCH   8  11
HETATM   11  N3  UNL     1      -2.423   1.321   2.088  1.00  0.00    -0.360 N 
BRANCH  11  12
HETATM   12  C13 UNL     1      -3.625   1.117   1.339  1.00  0.00     0.125 C 
BRANCH  12  13
HETATM   13  C14 UNL     1      -4.148  -0.247   1.108  1.00  0.00     0.020 C 
BRANCH  13  14
HETATM   14  C15 UNL     1      -3.226  -1.167   0.372  1.00  0.00     0.006 C 
BRANCH  14  15
HETATM   15  C16 UNL     1      -3.839  -2.531   0.129  1.00  0.00    -0.014 C 
HETATM   16  C17 UNL     1      -5.090  -2.472  -0.684  1.00  0.00     0.004 C 
HETATM   17  C18 UNL     1      -4.575  -2.032  -2.037  1.00  0.00     0.000 C 
HETATM   18  C19 UNL     1      -3.184  -2.587  -2.134  1.00  0.00     0.000 C 
HETATM   19  C20 UNL     1      -2.891  -3.263  -0.801  1.00  0.00     0.004 C 
ENDBRANCH  14  15
ENDBRANCH  13  14
ENDBRANCH  12  13
ENDBRANCH  11  12
BRANCH  11  20
HETATM   20  C21 UNL     1      -2.315   1.552   3.478  1.00  0.00     0.118 C 
BRANCH  20  21
HETATM   21  O2  UNL     1      -1.116   1.824   3.909  1.00  0.00    -0.349 OA
ATOM     22  H2  UNL     1      -1.043   1.979   4.843  1.00  0.00     0.219 HD
ENDBRANCH  20  21
BRANCH  20  23
HETATM   23  C22 UNL     1      -3.307   1.548   4.544  1.00  0.00     0.060 A 
HETATM   24  C23 UNL     1      -4.711   1.220   4.542  1.00  0.00     0.013 A 
HETATM   25  C24 UNL     1      -3.770   0.126   4.904  1.00  0.00     0.013 A 
ENDBRANCH  20  23
ENDBRANCH  11  20
ENDBRANCH   8  11
BRANCH   3  26
HETATM   26  C2  UNL     1       4.359   0.560  -1.856  1.00  0.00     0.090 C 
HETATM   27  C3  UNL     1       4.147  -0.007  -3.240  1.00  0.00     0.030 C 
HETATM   28  C4  UNL     1       5.159  -1.124  -3.420  1.00  0.00    -0.013 C 
HETATM   29  C5  UNL     1       6.536  -0.534  -3.331  1.00  0.00     0.005 C 
HETATM   30  C9  UNL     1       4.885  -2.143  -2.337  1.00  0.00     0.005 C 
HETATM   31  C6  UNL     1       6.756   0.234  -2.042  1.00  0.00     0.007 C 
HETATM   32  C7  UNL     1       5.548  -0.050  -1.157  1.00  0.00     0.008 C 
HETATM   33  C8  UNL     1       5.448  -1.550  -1.043  1.00  0.00     0.007 C 
ENDBRANCH   3  26
TORSDOF 9
