REMARK  7 active torsions:
REMARK  status: ('A' for Active; 'I' for Inactive)
REMARK    1  A    between atoms: C3_3  and  C4_4 
REMARK    2  A    between atoms: C7_7  and  C8_8 
REMARK    3  A    between atoms: C8_8  and  C9_9 
REMARK    4  A    between atoms: C9_9  and  N1_10 
REMARK    5  A    between atoms: C12_13  and  C13_14 
REMARK    6  A    between atoms: C13_14  and  N2_15 
REMARK       I    between atoms: N2_15  and  C14_17 
REMARK       I    between atoms: C14_17  and  N3_19 
REMARK    7  A    between atoms: N3_19  and  C15_21 
ROOT
HETATM    1  C1  UNL     1      10.897   2.444  -0.908  1.00  0.00     0.012 C 
HETATM    2  C2  UNL     1      10.798   1.263  -0.651  1.00  0.00    -0.113 C 
HETATM    3  C3  UNL     1      10.662  -0.174  -0.361  1.00  0.00     0.131 C 
ENDROOT
BRANCH   3   4
HETATM    4  C4  UNL     1       9.209  -0.421  -0.100  1.00  0.00    -0.047 A 
HETATM    5  C5  UNL     1       8.685  -0.332   1.172  1.00  0.00     0.008 A 
HETATM    6  C6  UNL     1       7.342  -0.554   1.430  1.00  0.00     0.007 A 
HETATM    7  C7  UNL     1       6.473  -0.874   0.421  1.00  0.00    -0.057 A 
HETATM    8  C27 UNL     1       7.001  -0.964  -0.863  1.00  0.00     0.007 A 
HETATM    9  C28 UNL     1       8.338  -0.743  -1.126  1.00  0.00     0.008 A 
BRANCH   7  10
HETATM   10  C8  UNL     1       5.033  -1.137   0.569  1.00  0.00     0.058 C 
BRANCH  10  11
HETATM   11  C9  UNL     1       4.184   0.106   0.468  1.00  0.00     0.126 C 
BRANCH  11  12
HETATM   12  N1  UNL     1       2.809  -0.294   0.623  1.00  0.00    -0.393 N 
HETATM   13  C10 UNL     1       2.379  -1.045  -0.493  1.00  0.00     0.122 C 
HETATM   14  C11 UNL     1       0.936  -0.815  -0.902  1.00  0.00     0.026 C 
HETATM   15  C12 UNL     1       0.682   0.660  -0.988  1.00  0.00     0.010 C 
HETATM   16  C25 UNL     1       0.995   1.361   0.296  1.00  0.00     0.050 C 
HETATM   17  C26 UNL     1       1.933   0.642   1.204  1.00  0.00     0.058 C 
BRANCH  15  18
HETATM   18  C13 UNL     1      -0.732   0.904  -1.447  1.00  0.00     0.129 C 
BRANCH  18  19
HETATM   19  N2  UNL     1      -1.656   0.318  -0.520  1.00  0.00    -0.343 N 
HETATM   20  C14 UNL     1      -3.061   0.411  -0.731  1.00  0.00     0.316 C 
HETATM   21  O1  UNL     1      -3.463   1.024  -1.736  1.00  0.00    -0.247 OA
HETATM   22  N3  UNL     1      -3.945  -0.187   0.191  1.00  0.00    -0.334 N 
ATOM     23  H3  UNL     1      -3.538  -0.672   0.991  1.00  0.00     0.165 HD
ATOM     24  H2  UNL     1      -1.302  -0.172   0.302  1.00  0.00     0.164 HD
BRANCH  22  25
HETATM   25  C15 UNL     1      -5.390  -0.162   0.083  1.00  0.00     0.035 C 
HETATM   26  C16 UNL     1      -5.874  -0.801  -1.193  1.00  0.00     0.035 C 
HETATM   27  C17 UNL     1      -7.395  -0.685  -1.246  1.00  0.00    -0.012 C 
HETATM   28  C18 UNL     1      -7.960  -1.448  -0.090  1.00  0.00     0.009 C 
HETATM   29  C22 UNL     1      -7.778   0.786  -1.228  1.00  0.00     0.009 C 
HETATM   30  C19 UNL     1      -7.478  -0.838   1.207  1.00  0.00    -0.012 C 
HETATM   31  C20 UNL     1      -7.971   0.587   1.258  1.00  0.00     0.009 C 
HETATM   32  C24 UNL     1      -5.992  -0.876   1.300  1.00  0.00     0.035 C 
HETATM   33  C21 UNL     1      -7.379   1.341   0.106  1.00  0.00    -0.012 C 
HETATM   34  C23 UNL     1      -5.852   1.266   0.188  1.00  0.00     0.035 C 
ENDBRANCH  22  25
ENDBRANCH  18  19
ENDBRANCH  15  18
ENDBRANCH  11  12
ENDBRANCH  10  11
ENDBRANCH   7  10
ENDBRANCH   3   4
TORSDOF 7
