REMARK  0 active torsions:
REMARK  status: ('A' for Active; 'I' for Inactive)
ROOT
HETATM    1  N1  UNL     1       2.727   1.516   0.686  1.00  0.00    -0.393 N 
ATOM      2  H11 UNL     1       2.689   2.517   0.878  1.00  0.00     0.156 HD
ATOM      3  H12 UNL     1       3.596   0.996   0.805  1.00  0.00     0.156 HD
HETATM    4  C1  UNL     1       1.732   0.902   0.307  1.00  0.00     0.072 C 
HETATM    5  C2  UNL     1       1.788  -0.593   0.021  1.00  0.00     0.087 C 
HETATM    6  C3  UNL     1       0.446  -0.982  -0.208  1.00  0.00    -0.153 C 
HETATM    7  C4  UNL     1      -0.822  -1.465  -0.471  1.00  0.00     0.087 C 
HETATM    8  C5  UNL     1      -1.780  -0.226  -0.433  1.00  0.00     0.043 C 
HETATM    9  C6  UNL     1      -1.289   0.930   0.335  1.00  0.00     0.150 C 
HETATM   10 CL1  UNL     1      -2.618   2.156   0.193  1.00  0.00    -0.113 Cl
HETATM   11  S1  UNL     1       0.188   1.826   0.096  1.00  0.00    -0.092 SA
ENDROOT
TORSDOF 0
