REMARK  4 active torsions:
REMARK  status: ('A' for Active; 'I' for Inactive)
REMARK    1  A    between atoms: O1_1  and  S1_3 
REMARK    2  A    between atoms: S1_3  and  C1_4 
REMARK    3  A    between atoms: C1_4  and  O2_6 
REMARK    4  A    between atoms: O2_6  and  C2_7 
ROOT
HETATM    1  C1  UNL     1       0.505  -0.182   0.065  1.00  0.00     0.203 C 
HETATM    2  S2  UNL     1       0.461   1.145   1.007  1.00  0.00    -0.043 SA
ENDROOT
BRANCH   1   3
HETATM    3  S1  UNL     1       2.018  -0.697  -0.708  1.00  0.00     0.064 SA
BRANCH   3   4
HETATM    4  O1  UNL     1       3.326   0.324  -0.350  1.00  0.00    -0.323 OA
ATOM      5  H1  UNL     1       4.136   0.048  -0.764  1.00  0.00     0.228 HD
ENDBRANCH   3   4
ENDBRANCH   1   3
BRANCH   1   6
HETATM    6  O2  UNL     1      -0.631  -0.925  -0.145  1.00  0.00    -0.319 OA
BRANCH   6   7
HETATM    7  C2  UNL     1      -1.912  -0.391  -0.390  1.00  0.00     0.291 C 
HETATM    8 CL1  UNL     1      -2.346   0.605   1.020  1.00  0.00    -0.101 Cl
ENDBRANCH   6   7
ENDBRANCH   1   6
TORSDOF 4
