REMARK  1 active torsions:
REMARK  status: ('A' for Active; 'I' for Inactive)
REMARK    1  A    between atoms: N2_6  and  C4_7 
ROOT
HETATM    1  C1  UNL     1      -1.483  -1.767   0.380  1.00  0.00     0.039 C 
HETATM    2  C2  UNL     1      -0.807  -0.696  -0.494  1.00  0.00     0.136 C 
HETATM    3  S1  UNL     1      -2.222   0.205  -1.253  1.00  0.00    -0.131 SA
HETATM    4  C3  UNL     1      -2.155   1.515   0.045  1.00  0.00     0.204 C 
HETATM    5  N1  UNL     1      -0.740   1.498   0.236  1.00  0.00    -0.152 NA
HETATM    6  N2  UNL     1      -0.249   0.257   0.390  1.00  0.00    -0.197 NA
ENDROOT
BRANCH   6   7
HETATM    7  C4  UNL     1       1.203   0.327   0.327  1.00  0.00     0.099 C 
HETATM    8  C5  UNL     1       1.838  -0.967   0.732  1.00  0.00     0.051 C 
HETATM    9  C6  UNL     1       1.706   0.755  -1.013  1.00  0.00     0.051 C 
HETATM   10 CL1  UNL     1       1.698   1.560   1.529  1.00  0.00    -0.101 Cl
ENDBRANCH   6   7
TORSDOF 1
