REMARK  1 active torsions:
REMARK  status: ('A' for Active; 'I' for Inactive)
REMARK    1  A    between atoms: N1_8  and  O1_10 
ROOT
HETATM    1  C1  UNL     1      -2.285  -0.119   0.186  1.00  0.00     0.028 C 
HETATM    2  C2  UNL     1      -0.904  -0.553   0.507  1.00  0.00     0.092 C 
HETATM    3  S1  UNL     1      -0.300  -1.852  -0.640  1.00  0.00    -0.138 SA
HETATM    4  C3  UNL     1       1.452  -1.301  -0.689  1.00  0.00     0.149 C 
HETATM    5 CL1  UNL     1       2.400  -2.583   0.123  1.00  0.00    -0.113 Cl
HETATM    6  C4  UNL     1       1.462  -0.075   0.197  1.00  0.00     0.086 C 
HETATM    7  C5  UNL     1       0.117   0.490   0.209  1.00  0.00     0.025 C 
HETATM    8  N1  UNL     1      -0.189   1.729  -0.006  1.00  0.00    -0.276 N 
ATOM      9  H1  UNL     1      -1.168   2.013   0.029  1.00  0.00     0.193 HD
ENDROOT
BRANCH   8  10
HETATM   10  O1  UNL     1       0.777   2.674  -0.281  1.00  0.00    -0.290 OA
ATOM     11  H1  UNL     1       0.552   3.583  -0.439  1.00  0.00     0.244 HD
ENDBRANCH   8  10
TORSDOF 1
