REMARK  1 active torsions:
REMARK  status: ('A' for Active; 'I' for Inactive)
REMARK    1  A    between atoms: O1_1  and  N1_3 
ROOT
HETATM    1  N1  UNL     1       2.283  -1.080  -0.317  1.00  0.00    -0.267 N 
ATOM      2  H1  UNL     1       2.349  -2.093  -0.213  1.00  0.00     0.194 HD
HETATM    3  C1  UNL     1       1.133  -0.509  -0.386  1.00  0.00     0.069 C 
HETATM    4  C2  UNL     1      -0.082  -1.348  -0.312  1.00  0.00     0.086 C 
HETATM    5  C3  UNL     1      -1.307  -0.635   0.102  1.00  0.00     0.089 C 
HETATM    6 CL1  UNL     1      -2.410  -0.353  -1.286  1.00  0.00    -0.125 Cl
HETATM    7  C4  UNL     1      -1.101   0.645   0.831  1.00  0.00     0.031 C 
HETATM    8  C5  UNL     1      -0.639   1.740  -0.142  1.00  0.00     0.082 C 
HETATM    9  S1  UNL     1       1.065   1.268  -0.566  1.00  0.00    -0.115 SA
ENDROOT
BRANCH   1  10
HETATM   10  O1  UNL     1       3.407  -0.326  -0.383  1.00  0.00    -0.289 OA
ATOM     11  H1  UNL     1       4.257  -0.748  -0.332  1.00  0.00     0.244 HD
ENDBRANCH   1  10
TORSDOF 1
