REMARK  11 active torsions:
REMARK  status: ('A' for Active; 'I' for Inactive)
REMARK       I    between atoms: C1_4  and  N3_6 
REMARK    1  A    between atoms: C3_8  and  N4_9 
REMARK    2  A    between atoms: C5_14  and  C6_15 
REMARK       I    between atoms: C6_15  and  N5_17 
REMARK    3  A    between atoms: N5_17  and  C7_19 
REMARK    4  A    between atoms: C7_19  and  C8_20 
REMARK    5  A    between atoms: C7_19  and  C11_29 
REMARK    6  A    between atoms: C8_20  and  C9_21 
REMARK    7  A    between atoms: C9_21  and  N6_22 
REMARK    8  A    between atoms: C9_21  and  C10_26 
REMARK    9  A    between atoms: C11_29  and  N8_30 
REMARK   10  A    between atoms: C11_29  and  C12_34 
REMARK       I    between atoms: C12_34  and  N9_36 
REMARK   11  A    between atoms: C17_41  and  C18_42 
ROOT
HETATM    1  C7  UNL     1      -0.230   1.505  -0.531  1.00  0.00     0.126 C 
ENDROOT
BRANCH   1   2
HETATM    2  N5  UNL     1       0.467   0.490  -1.340  1.00  0.00    -0.352 N 
HETATM    3  C6  UNL     1       1.383  -0.367  -0.731  1.00  0.00     0.241 C 
HETATM    4  O1  UNL     1       1.607  -0.265   0.500  1.00  0.00    -0.271 OA
ATOM      5  H5  UNL     1       0.281   0.415  -2.340  1.00  0.00     0.163 HD
BRANCH   3   6
HETATM    6  C5  UNL     1       2.141  -1.426  -1.451  1.00  0.00     0.181 C 
HETATM    7  N3  UNL     1       3.001  -2.181  -0.571  1.00  0.00    -0.340 N 
HETATM    8  C1  UNL     1       2.653  -3.092   0.456  1.00  0.00     0.184 C 
HETATM    9  C2  UNL     1       4.415  -1.905  -0.848  1.00  0.00     0.159 C 
HETATM   10  N1  UNL     1       3.043  -2.863   1.648  1.00  0.00    -0.374 N 
HETATM   11  N2  UNL     1       1.884  -4.227   0.134  1.00  0.00    -0.064 NA
ATOM     12  H12 UNL     1       2.792  -3.519   2.388  1.00  0.00     0.158 HD
ATOM     13  H11 UNL     1       3.600  -2.041   1.881  1.00  0.00     0.158 HD
HETATM   14  C3  UNL     1       4.425  -1.339  -2.227  1.00  0.00     0.204 C 
HETATM   15  C4  UNL     1       3.049  -0.743  -2.441  1.00  0.00     0.069 C 
BRANCH  14  16
HETATM   16  N4  UNL     1       5.470  -0.335  -2.308  1.00  0.00    -0.073 N 
ATOM     17  H43 UNL     1       5.377   0.384  -1.591  1.00  0.00     0.274 HD
ATOM     18  H42 UNL     1       6.382  -0.696  -2.027  1.00  0.00     0.274 HD
ATOM     19  H41 UNL     1       5.477   0.052  -3.252  1.00  0.00     0.274 HD
ENDBRANCH  14  16
ENDBRANCH   3   6
ENDBRANCH   1   2
BRANCH   1  20
HETATM   20  C8  UNL     1       0.235   2.805  -1.086  1.00  0.00     0.070 C 
BRANCH  20  21
HETATM   21  C9  UNL     1      -0.253   4.061  -0.486  1.00  0.00     0.273 C 
BRANCH  21  22
HETATM   22  N6  UNL     1       0.094   4.155   0.940  1.00  0.00    -0.067 N 
ATOM     23  H63 UNL     1      -0.239   3.342   1.458  1.00  0.00     0.275 HD
ATOM     24  H62 UNL     1       1.097   4.038   1.087  1.00  0.00     0.275 HD
ATOM     25  H61 UNL     1      -0.243   5.024   1.355  1.00  0.00     0.275 HD
ENDBRANCH  21  22
BRANCH  21  26
HETATM   26  C10 UNL     1       0.588   5.157  -1.120  1.00  0.00     0.261 C 
HETATM   27  N7  UNL     1       1.473   5.973  -0.403  1.00  0.00    -0.060 NA
HETATM   28  O2  UNL     1       0.457   5.310  -2.354  1.00  0.00    -0.275 OA
ENDBRANCH  21  26
ENDBRANCH  20  21
ENDBRANCH   1  20
BRANCH   1  29
HETATM   29  C11 UNL     1      -1.714   1.296  -0.627  1.00  0.00     0.297 C 
BRANCH  29  30
HETATM   30  N8  UNL     1      -2.427   2.259   0.165  1.00  0.00    -0.064 N 
ATOM     31  H83 UNL     1      -2.110   2.256   1.134  1.00  0.00     0.275 HD
ATOM     32  H82 UNL     1      -2.166   3.214  -0.081  1.00  0.00     0.275 HD
ATOM     33  H81 UNL     1      -3.435   2.117   0.100  1.00  0.00     0.275 HD
ENDBRANCH  29  30
BRANCH  29  34
HETATM   34  C12 UNL     1      -2.121  -0.066  -0.221  1.00  0.00     0.257 C 
HETATM   35  O3  UNL     1      -2.435  -0.794  -1.249  1.00  0.00    -0.271 OA
HETATM   36  N9  UNL     1      -2.216  -0.661   0.996  1.00  0.00    -0.315 N 
HETATM   37  C13 UNL     1      -1.877   0.032   2.250  1.00  0.00     0.132 C 
HETATM   38  C17 UNL     1      -2.709  -1.987   1.237  1.00  0.00     0.079 C 
HETATM   39  C14 UNL     1      -3.076  -0.118   3.201  1.00  0.00     0.021 C 
HETATM   40  C15 UNL     1      -4.330  -0.563   2.465  1.00  0.00     0.008 C 
HETATM   41  C16 UNL     1      -4.142  -1.900   1.762  1.00  0.00     0.062 C 
BRANCH  38  42
HETATM   42  C18 UNL     1      -2.454  -3.065   0.333  1.00  0.00     0.277 C 
HETATM   43  N10 UNL     1      -3.340  -4.207   0.208  1.00  0.00    -0.056 NA
HETATM   44  O4  UNL     1      -1.424  -3.079  -0.416  1.00  0.00    -0.270 OA
ENDBRANCH  38  42
ENDBRANCH  29  34
ENDBRANCH   1  29
TORSDOF 11
