REMARK  10 active torsions:
REMARK  status: ('A' for Active; 'I' for Inactive)
REMARK    1  A    between atoms: N1_2  and  C2_4 
REMARK    2  A    between atoms: C2_4  and  O1_5 
REMARK    3  A    between atoms: C3_7  and  C4_8 
REMARK    4  A    between atoms: C3_7  and  N7_30 
REMARK    5  A    between atoms: C4_8  and  N2_9 
REMARK    6  A    between atoms: C13_32  and  C14_33 
REMARK    7  A    between atoms: C13_32  and  C18_43 
REMARK    8  A    between atoms: C14_33  and  C15_34 
REMARK    9  A    between atoms: C15_34  and  C16_35 
REMARK   10  A    between atoms: C16_35  and  N8_36 
REMARK       I    between atoms: C17_38  and  N10_40 
ROOT
HETATM    1  C2  UNL     1       0.385  -2.803  -0.204  1.00  0.00     0.163 C 
HETATM    2  C3  UNL     1       0.495  -1.404  -0.318  1.00  0.00     0.094 C 
ENDROOT
BRANCH   2   3
HETATM    3  C4  UNL     1      -0.559  -0.653  -0.996  1.00  0.00     0.095 C 
BRANCH   3   4
HETATM    4  N2  UNL     1      -1.836  -0.344  -0.561  1.00  0.00    -0.265 NA
HETATM    5  C5  UNL     1      -1.682   1.032   0.137  1.00  0.00     0.124 C 
HETATM    6  C6  UNL     1      -1.822   2.005  -0.985  1.00  0.00     0.247 C 
HETATM    7  N3  UNL     1      -3.148   2.199  -1.478  1.00  0.00    -0.072 N 
HETATM    8  C7  UNL     1      -3.938   3.092  -0.698  1.00  0.00     0.259 C 
ATOM      9  H32 UNL     1      -3.126   2.501  -2.452  1.00  0.00     0.277 HD
ATOM     10  H31 UNL     1      -3.623   1.303  -1.585  1.00  0.00     0.277 HD
HETATM   11  C8  UNL     1      -5.397   2.730  -0.922  1.00  0.00     0.259 C 
HETATM   12  N4  UNL     1      -6.140   2.662   0.313  1.00  0.00    -0.072 N 
HETATM   13  C9  UNL     1      -5.747   1.576   1.167  1.00  0.00     0.260 C 
ATOM     14  H42 UNL     1      -6.088   3.549   0.813  1.00  0.00     0.277 HD
ATOM     15  H41 UNL     1      -7.142   2.629   0.128  1.00  0.00     0.277 HD
HETATM   16  C10 UNL     1      -6.346   0.258   0.824  1.00  0.00     0.261 C 
HETATM   17  N5  UNL     1      -5.504  -0.455  -0.148  1.00  0.00    -0.050 N 
HETATM   18  C11 UNL     1      -4.864  -1.620   0.440  1.00  0.00     0.464 C 
ATOM     19  H52 UNL     1      -6.033  -0.705  -0.984  1.00  0.00     0.279 HD
ATOM     20  H51 UNL     1      -4.819   0.169  -0.573  1.00  0.00     0.279 HD
HETATM   21  N6  UNL     1      -3.580  -1.871  -0.192  1.00  0.00    -0.040 N 
HETATM   22  C12 UNL     1      -2.507  -1.138   0.408  1.00  0.00     0.330 C 
ATOM     23  H62 UNL     1      -3.373  -2.870  -0.211  1.00  0.00     0.280 HD
ATOM     24  H61 UNL     1      -3.627  -1.692  -1.195  1.00  0.00     0.280 HD
ENDBRANCH   3   4
ENDBRANCH   2   3
BRANCH   2  25
HETATM   25  N7  UNL     1       1.789  -0.912  -0.717  1.00  0.00    -0.351 N 
HETATM   26  C13 UNL     1       2.771  -0.927   0.227  1.00  0.00     0.075 C 
ATOM     27  H7  UNL     1       1.962  -0.569  -1.662  1.00  0.00     0.166 HD
BRANCH  26  28
HETATM   28  C14 UNL     1       3.853   0.075   0.397  1.00  0.00     0.067 C 
BRANCH  28  29
HETATM   29  C15 UNL     1       4.797   0.196  -0.729  1.00  0.00     0.051 C 
BRANCH  29  30
HETATM   30  C16 UNL     1       6.019   0.973  -0.514  1.00  0.00     0.064 C 
BRANCH  30  31
HETATM   31  N8  UNL     1       6.010   2.419  -0.349  1.00  0.00    -0.344 N 
HETATM   32  C17 UNL     1       7.302   2.835  -0.235  1.00  0.00     0.185 C 
HETATM   33  N9  UNL     1       8.338   1.851  -0.267  1.00  0.00    -0.064 NA
HETATM   34  N10 UNL     1       7.623   4.163  -0.184  1.00  0.00    -0.374 N 
ATOM     35 2H10 UNL     1       6.884   4.865  -0.161  1.00  0.00     0.158 HD
ATOM     36 1H10 UNL     1       8.591   4.475  -0.099  1.00  0.00     0.158 HD
ATOM     37  H8  UNL     1       5.183   3.015  -0.323  1.00  0.00     0.167 HD
ENDBRANCH  30  31
ENDBRANCH  29  30
ENDBRANCH  28  29
ENDBRANCH  26  28
BRANCH  26  38
HETATM   38  C18 UNL     1       3.324  -2.298   0.582  1.00  0.00     0.277 C 
HETATM   39  N11 UNL     1       4.383  -2.829  -0.271  1.00  0.00    -0.056 NA
HETATM   40  O2  UNL     1       2.910  -2.952   1.525  1.00  0.00    -0.270 OA
ENDBRANCH  26  38
ENDBRANCH   2  25
BRANCH   1  41
HETATM   41  N1  UNL     1      -0.141  -3.721   0.760  1.00  0.00    -0.373 N 
HETATM   42  C1  UNL     1      -0.036  -5.163   0.456  1.00  0.00     0.148 C 
ATOM     43  H1  UNL     1      -0.572  -3.392   1.624  1.00  0.00     0.161 HD
ENDBRANCH   1  41
BRANCH   1  44
HETATM   44  O1  UNL     1       0.915  -3.462  -1.258  1.00  0.00    -0.345 OA
ATOM     45  H1  UNL     1       1.264  -2.853  -1.898  1.00  0.00     0.219 HD
ENDBRANCH   1  44
TORSDOF 10
