REMARK  14 active torsions:
REMARK  status: ('A' for Active; 'I' for Inactive)
REMARK    1  A    between atoms: C6_7  and  C7_8 
REMARK       I    between atoms: C7_8  and  N2_10 
REMARK    2  A    between atoms: N2_10  and  C8_12 
REMARK    3  A    between atoms: C8_12  and  C9_13 
REMARK       I    between atoms: C9_13  and  N3_15 
REMARK    4  A    between atoms: N3_15  and  C10_17 
REMARK    5  A    between atoms: C10_17  and  C11_18 
REMARK    6  A    between atoms: C11_18  and  O3_19 
REMARK    7  A    between atoms: C11_18  and  N4_21 
REMARK    8  A    between atoms: N4_21  and  C12_22 
REMARK    9  A    between atoms: C12_22  and  C13_23 
REMARK   10  A    between atoms: C12_22  and  C16_33 
REMARK   11  A    between atoms: C13_23  and  N5_24 
REMARK       I    between atoms: N5_24  and  C14_26 
REMARK   12  A    between atoms: C14_26  and  C15_28 
REMARK   13  A    between atoms: C15_28  and  N6_29 
REMARK       I    between atoms: C16_33  and  N7_35 
REMARK   14  A    between atoms: N7_35  and  N8_37 
REMARK       I    between atoms: N8_37  and  C17_39 
ROOT
HETATM    1  C12 UNL     1      -3.541  -0.489  -0.026  1.00  0.00     0.173 C 
ENDROOT
BRANCH   1   2
HETATM    2  N4  UNL     1      -2.869  -0.207   0.900  1.00  0.00    -0.380 NA
BRANCH   2   3
HETATM    3  C11 UNL     1      -2.111   0.115   1.936  1.00  0.00     0.208 C 
BRANCH   3   4
HETATM    4  C10 UNL     1      -0.642   0.448   1.966  1.00  0.00     0.222 C 
BRANCH   4   5
HETATM    5  N3  UNL     1      -0.000   0.412   0.696  1.00  0.00    -0.351 N 
HETATM    6  C9  UNL     1       1.374   0.731   0.612  1.00  0.00     0.235 C 
HETATM    7  O2  UNL     1       2.001   1.028   1.644  1.00  0.00    -0.272 OA
ATOM      8  H3  UNL     1      -0.524   0.159  -0.142  1.00  0.00     0.163 HD
BRANCH   6   9
HETATM    9  C8  UNL     1       2.051   0.711  -0.694  1.00  0.00     0.225 C 
BRANCH   9  10
HETATM   10  N2  UNL     1       3.438   1.051  -0.536  1.00  0.00    -0.351 N 
HETATM   11  C7  UNL     1       4.316   0.260   0.204  1.00  0.00     0.240 C 
HETATM   12  O1  UNL     1       3.927  -0.792   0.753  1.00  0.00    -0.271 OA
ATOM     13  H2  UNL     1       3.792   1.899  -0.980  1.00  0.00     0.163 HD
BRANCH  11  14
HETATM   14  C6  UNL     1       5.755   0.668   0.353  1.00  0.00     0.175 C 
HETATM   15  N1  UNL     1       6.460  -0.332   1.041  1.00  0.00    -0.384 N 
HETATM   16  C1  UNL     1       6.683  -0.177   2.430  1.00  0.00     0.149 C 
HETATM   17  C2  UNL     1       7.272  -1.236   0.328  1.00  0.00     0.058 C 
HETATM   18  C3  UNL     1       7.559  -0.926  -1.099  1.00  0.00     0.044 C 
HETATM   19  C4  UNL     1       7.650   0.560  -1.281  1.00  0.00     0.007 C 
HETATM   20  C5  UNL     1       6.292   1.133  -0.953  1.00  0.00     0.035 C 
ENDBRANCH  11  14
ENDBRANCH   9  10
ENDBRANCH   6   9
ENDBRANCH   4   5
ENDBRANCH   3   4
BRANCH   3  21
HETATM   21  O3  UNL     1      -2.603   0.182   3.147  1.00  0.00    -0.338 OA
ATOM     22  H3  UNL     1      -3.529  -0.028   3.128  1.00  0.00     0.220 HD
ENDBRANCH   3  21
ENDBRANCH   2   3
ENDBRANCH   1   2
BRANCH   1  23
HETATM   23  C13 UNL     1      -3.337   0.096  -1.415  1.00  0.00     0.201 C 
BRANCH  23  24
HETATM   24  N5  UNL     1      -4.449   0.889  -1.834  1.00  0.00    -0.353 N 
HETATM   25  C14 UNL     1      -4.839   2.037  -1.101  1.00  0.00     0.243 C 
HETATM   26  O4  UNL     1      -4.196   2.373  -0.053  1.00  0.00    -0.272 OA
ATOM     27  H5  UNL     1      -4.969   0.625  -2.671  1.00  0.00     0.162 HD
BRANCH  25  28
HETATM   28  C15 UNL     1      -5.991   2.880  -1.522  1.00  0.00     0.332 C 
BRANCH  28  29
HETATM   29  N6  UNL     1      -6.587   2.335  -2.727  1.00  0.00    -0.071 N 
ATOM     30  H63 UNL     1      -5.903   2.221  -3.475  1.00  0.00     0.274 HD
ATOM     31  H62 UNL     1      -6.850   1.356  -2.615  1.00  0.00     0.274 HD
ATOM     32  H61 UNL     1      -7.377   2.913  -3.016  1.00  0.00     0.274 HD
ENDBRANCH  28  29
ENDBRANCH  25  28
ENDBRANCH  23  24
ENDBRANCH   1  23
BRANCH   1  33
HETATM   33  C16 UNL     1      -4.663  -1.437   0.073  1.00  0.00     0.298 C 
HETATM   34  O5  UNL     1      -5.349  -1.709  -0.923  1.00  0.00    -0.263 OA
HETATM   35  N7  UNL     1      -4.946  -2.028   1.316  1.00  0.00    -0.262 N 
ATOM     36  H7  UNL     1      -4.367  -1.790   2.121  1.00  0.00     0.190 HD
BRANCH  35  37
HETATM   37  N8  UNL     1      -6.014  -2.947   1.482  1.00  0.00    -0.271 N 
HETATM   38  C17 UNL     1      -7.234  -2.601   0.838  1.00  0.00     0.200 C 
HETATM   39  N9  UNL     1      -7.740  -1.448   1.112  1.00  0.00    -0.372 N 
HETATM   40  N10 UNL     1      -7.889  -3.460  -0.070  1.00  0.00    -0.062 NA
ATOM     41  H92 UNL     1      -7.267  -0.827   1.768  1.00  0.00     0.158 HD
ATOM     42  H91 UNL     1      -8.615  -1.200   0.650  1.00  0.00     0.158 HD
ATOM     43  H8  UNL     1      -5.913  -3.802   2.029  1.00  0.00     0.189 HD
ENDBRANCH  35  37
ENDBRANCH   1  33
TORSDOF 14
