REMARK  11 active torsions:
REMARK  status: ('A' for Active; 'I' for Inactive)
REMARK    1  A    between atoms: C2_4  and  C3_5 
REMARK    2  A    between atoms: C2_4  and  N8_26 
REMARK    3  A    between atoms: C3_5  and  C4_6 
REMARK    4  A    between atoms: C4_6  and  N2_7 
REMARK       I    between atoms: N2_7  and  C5_9 
REMARK       I    between atoms: C5_9  and  N5_14 
REMARK    5  A    between atoms: N5_14  and  C7_16 
REMARK    6  A    between atoms: C7_16  and  C8_17 
REMARK    7  A    between atoms: C8_17  and  N6_18 
REMARK    8  A    between atoms: C12_22  and  C13_23 
REMARK    9  A    between atoms: N8_26  and  C14_28 
REMARK   10  A    between atoms: C16_31  and  N9_32 
REMARK       I    between atoms: N9_32  and  C17_34 
REMARK   11  A    between atoms: C18_39  and  O3_40 
ROOT
HETATM    1  N2  UNL     1      -0.313   0.614  -0.111  1.00  0.00    -0.225 N 
ATOM      2  H2  UNL     1       0.192   1.447  -0.414  1.00  0.00     0.177 HD
HETATM    3  C5  UNL     1      -1.658   0.385  -0.545  1.00  0.00     0.682 C 
HETATM    4  N3  UNL     1      -1.940  -0.501  -1.378  1.00  0.00    -0.126 N 
ATOM      5  H3  UNL     1      -2.930  -0.572  -1.611  1.00  0.00     0.197 HD
HETATM    6  C6  UNL     1      -1.124  -1.397  -2.031  1.00  0.00     0.196 C 
HETATM    7  N4  UNL     1      -0.452  -2.144  -2.599  1.00  0.00    -0.171 NA
HETATM    8  N5  UNL     1      -2.629   1.244   0.028  1.00  0.00    -0.224 N 
ATOM      9  H5  UNL     1      -2.451   2.246  -0.041  1.00  0.00     0.177 HD
ENDROOT
BRANCH   1  10
HETATM   10  C4  UNL     1       0.316  -0.340   0.754  1.00  0.00     0.145 C 
BRANCH  10  11
HETATM   11  C3  UNL     1       1.691   0.038   1.225  1.00  0.00     0.096 C 
BRANCH  11  12
HETATM   12  C2  UNL     1       2.665   0.243   0.145  1.00  0.00     0.075 C 
HETATM   13  N1  UNL     1       3.160  -0.800  -0.427  1.00  0.00    -0.384 N 
HETATM   14  C1  UNL     1       2.863  -2.164  -0.124  1.00  0.00     0.147 C 
ATOM     15  H1  UNL     1       3.834  -0.634  -1.174  1.00  0.00     0.160 HD
BRANCH  12  16
HETATM   16  N8  UNL     1       3.046   1.563  -0.248  1.00  0.00    -0.351 N 
ATOM     17  H8  UNL     1       2.339   2.297  -0.204  1.00  0.00     0.163 HD
BRANCH  16  18
HETATM   18  C14 UNL     1       4.348   1.920  -0.696  1.00  0.00     0.253 C 
HETATM   19  O2  UNL     1       4.759   1.315  -1.877  1.00  0.00    -0.362 OA
HETATM   20  C15 UNL     1       6.073   1.841  -1.962  1.00  0.00     0.198 C 
HETATM   21  C16 UNL     1       6.625   1.354  -0.617  1.00  0.00     0.141 C 
HETATM   22  C18 UNL     1       5.458   1.671   0.292  1.00  0.00     0.191 C 
BRANCH  21  23
HETATM   23  N9  UNL     1       6.902  -0.047  -0.737  1.00  0.00    -0.355 N 
HETATM   24  C17 UNL     1       7.432  -0.864   0.296  1.00  0.00     0.182 C 
HETATM   25  N10 UNL     1       6.747  -1.180   1.351  1.00  0.00    -0.374 N 
HETATM   26  N11 UNL     1       8.761  -1.338   0.151  1.00  0.00    -0.064 NA
ATOM     27 2H10 UNL     1       5.791  -0.839   1.455  1.00  0.00     0.158 HD
ATOM     28 1H10 UNL     1       7.128  -1.767   2.093  1.00  0.00     0.158 HD
ATOM     29  H9  UNL     1       6.703  -0.491  -1.633  1.00  0.00     0.162 HD
ENDBRANCH  21  23
BRANCH  22  30
HETATM   30  O3  UNL     1       5.792   2.843   0.983  1.00  0.00    -0.389 OA
ATOM     31  H3  UNL     1       6.492   2.686   1.606  1.00  0.00     0.210 HD
ENDBRANCH  22  30
ENDBRANCH  16  18
ENDBRANCH  12  16
ENDBRANCH  11  12
ENDBRANCH  10  11
ENDBRANCH   1  10
BRANCH   8  32
HETATM   32  C7  UNL     1      -3.826   0.854   0.689  1.00  0.00     0.168 C 
BRANCH  32  33
HETATM   33  C8  UNL     1      -4.803   0.275  -0.285  1.00  0.00     0.293 C 
BRANCH  33  34
HETATM   34  N6  UNL     1      -6.044  -0.114   0.354  1.00  0.00     0.103 N 
HETATM   35  C9  UNL     1      -5.807  -1.243   1.204  1.00  0.00     0.273 C 
HETATM   36  C10 UNL     1      -7.107  -2.057   1.151  1.00  0.00     0.033 C 
HETATM   37  C11 UNL     1      -7.529  -1.872  -0.285  1.00  0.00     0.047 C 
HETATM   38  C12 UNL     1      -6.991  -0.505  -0.636  1.00  0.00     0.311 C 
BRANCH  38  39
HETATM   39  C13 UNL     1      -8.119   0.477  -0.675  1.00  0.00     0.264 C 
HETATM   40  N7  UNL     1      -8.097   1.580   0.205  1.00  0.00    -0.060 NA
HETATM   41  O1  UNL     1      -9.035   0.262  -1.499  1.00  0.00    -0.274 OA
ENDBRANCH  38  39
ENDBRANCH  33  34
ENDBRANCH  32  33
ENDBRANCH   8  32
TORSDOF 11
