REMARK  12 active torsions:
REMARK  status: ('A' for Active; 'I' for Inactive)
REMARK       I    between atoms: C1_4  and  N3_6 
REMARK    1  A    between atoms: N4_9  and  S1_10 
REMARK    2  A    between atoms: S1_10  and  C4_13 
REMARK    3  A    between atoms: C4_13  and  C5_14 
REMARK    4  A    between atoms: C5_14  and  N5_15 
REMARK    5  A    between atoms: N5_15  and  C6_17 
REMARK    6  A    between atoms: C6_17  and  C7_22 
REMARK    7  A    between atoms: N6_18  and  O3_20 
REMARK    8  A    between atoms: N7_26  and  C11_27 
REMARK    9  A    between atoms: C11_27  and  C12_28 
REMARK   10  A    between atoms: C12_28  and  C13_29 
REMARK   11  A    between atoms: C13_29  and  N8_30 
REMARK   12  A    between atoms: C15_35  and  O4_36 
ROOT
HETATM    1  N5  UNL     1      -0.261  -0.058  -0.508  1.00  0.00    -0.376 N 
ATOM      2  H5  UNL     1      -0.702   0.300  -1.355  1.00  0.00     0.160 HD
ENDROOT
BRANCH   1   3
HETATM    3  C5  UNL     1       0.720  -1.098  -0.630  1.00  0.00     0.137 C 
BRANCH   3   4
HETATM    4  C4  UNL     1       2.125  -0.660  -0.298  1.00  0.00     0.177 C 
BRANCH   4   5
HETATM    5  S1  UNL     1       3.272  -2.005  -0.482  1.00  0.00     0.216 S 
HETATM    6  O1  UNL     1       3.238  -2.588  -1.867  1.00  0.00    -0.211 OA
HETATM    7  O2  UNL     1       2.911  -3.149   0.449  1.00  0.00    -0.211 OA
BRANCH   5   8
HETATM    8  N4  UNL     1       4.883  -1.559  -0.108  1.00  0.00    -0.163 NA
HETATM    9  C3  UNL     1       5.072  -1.121   1.252  1.00  0.00     0.132 C 
HETATM   10  C2  UNL     1       5.647   0.275   1.164  1.00  0.00     0.145 C 
HETATM   11  N3  UNL     1       6.295   0.264  -0.126  1.00  0.00    -0.315 N 
HETATM   12  C1  UNL     1       7.513   0.890  -0.474  1.00  0.00     0.187 C 
HETATM   13  C15 UNL     1       5.419  -0.527  -0.971  1.00  0.00     0.318 C 
HETATM   14  N1  UNL     1       8.638   0.232  -0.570  1.00  0.00    -0.374 N 
HETATM   15  N2  UNL     1       7.608   2.283  -0.746  1.00  0.00    -0.064 NA
ATOM     16  H12 UNL     1       9.517   0.684  -0.821  1.00  0.00     0.158 HD
ATOM     17  H11 UNL     1       8.570  -0.767  -0.375  1.00  0.00     0.158 HD
BRANCH  13  18
HETATM   18  O4  UNL     1       6.133  -1.179  -1.971  1.00  0.00    -0.363 OA
ATOM     19  H4  UNL     1       5.560  -1.697  -2.524  1.00  0.00     0.213 HD
ENDBRANCH  13  18
ENDBRANCH   5   8
ENDBRANCH   4   5
ENDBRANCH   3   4
ENDBRANCH   1   3
BRANCH   1  20
HETATM   20  C6  UNL     1      -0.641   0.491   0.741  1.00  0.00     0.120 C 
HETATM   21  N6  UNL     1      -0.106  -0.016   1.798  1.00  0.00    -0.255 N 
ATOM     22  H6  UNL     1       0.558  -0.781   1.676  1.00  0.00     0.195 HD
BRANCH  21  23
HETATM   23  O3  UNL     1      -0.371   0.406   3.076  1.00  0.00    -0.288 OA
ATOM     24  H3  UNL     1       0.023   0.032   3.855  1.00  0.00     0.244 HD
ENDBRANCH  21  23
BRANCH  20  25
HETATM   25  C7  UNL     1      -1.609   1.587   0.891  1.00  0.00     0.157 C 
HETATM   26  C8  UNL     1      -1.259   2.843   0.144  1.00  0.00     0.038 C 
HETATM   27  C9  UNL     1      -2.270   2.879  -0.968  1.00  0.00     0.047 C 
HETATM   28  C10 UNL     1      -3.473   2.205  -0.360  1.00  0.00     0.064 C 
HETATM   29  N7  UNL     1      -2.951   1.280   0.562  1.00  0.00    -0.362 N 
BRANCH  29  30
HETATM   30  C11 UNL     1      -3.307  -0.073   0.484  1.00  0.00     0.069 C 
BRANCH  30  31
HETATM   31  C12 UNL     1      -4.777  -0.345   0.162  1.00  0.00     0.089 C 
BRANCH  31  32
HETATM   32  C13 UNL     1      -4.938  -1.845   0.133  1.00  0.00     0.068 C 
BRANCH  32  33
HETATM   33  N8  UNL     1      -6.262  -2.225  -0.162  1.00  0.00    -0.346 N 
HETATM   34  C14 UNL     1      -7.348  -1.611  -0.327  1.00  0.00     0.200 C 
HETATM   35  N9  UNL     1      -7.534  -0.209  -0.249  1.00  0.00    -0.067 NA
HETATM   36  N10 UNL     1      -8.512  -2.436  -0.627  1.00  0.00    -0.067 NA
ATOM     37  H8  UNL     1      -6.364  -3.234  -0.266  1.00  0.00     0.167 HD
ENDBRANCH  32  33
ENDBRANCH  31  32
ENDBRANCH  30  31
ENDBRANCH  29  30
ENDBRANCH  20  25
ENDBRANCH   1  20
TORSDOF 12
