REMARK  15 active torsions:
REMARK  status: ('A' for Active; 'I' for Inactive)
REMARK    1  A    between atoms: N1_1  and  C1_5 
REMARK    2  A    between atoms: C2_9  and  O1_10 
REMARK    3  A    between atoms: O1_10  and  C3_11 
REMARK    4  A    between atoms: C4_12  and  O2_13 
REMARK    5  A    between atoms: C5_18  and  N6_19 
REMARK       I    between atoms: N6_19  and  C6_21 
REMARK    6  A    between atoms: C6_21  and  C7_23 
REMARK    7  A    between atoms: C7_23  and  N7_24 
REMARK    8  A    between atoms: C8_29  and  C9_30 
REMARK    9  A    between atoms: C9_30  and  N10_31 
REMARK       I    between atoms: N10_31  and  C10_32 
REMARK   10  A    between atoms: C10_32  and  C11_34 
REMARK   11  A    between atoms: C11_34  and  C12_35 
REMARK   12  A    between atoms: C11_34  and  C19_44 
REMARK   13  A    between atoms: C12_35  and  C13_36 
REMARK   14  A    between atoms: C18_41  and  O6_42 
REMARK   15  A    between atoms: N14_51  and  O7_52 
ROOT
HETATM    1  N7  UNL     1       0.991  -1.007  -0.536  1.00  0.00    -0.209 N 
HETATM    2  N8  UNL     1       1.137  -1.801  -1.538  1.00  0.00    -0.224 N 
ATOM      3  H8  UNL     1       2.007  -2.018  -2.024  1.00  0.00     0.210 HD
HETATM    4  N9  UNL     1      -0.073  -2.283  -1.814  1.00  0.00    -0.267 N 
ATOM      5  H9  UNL     1      -0.276  -2.934  -2.573  1.00  0.00     0.190 HD
HETATM    6  C8  UNL     1      -0.965  -1.814  -0.987  1.00  0.00     0.166 A 
HETATM    7  N15 UNL     1      -0.301  -0.954  -0.087  1.00  0.00    -0.264 N 
ATOM      8  H15 UNL     1      -0.685  -0.427   0.698  1.00  0.00     0.190 HD
ENDROOT
BRANCH   6   9
HETATM    9  C9  UNL     1      -2.439  -2.003  -1.118  1.00  0.00     0.237 C 
BRANCH   9  10
HETATM   10  N10 UNL     1      -3.035  -0.857  -0.730  1.00  0.00    -0.379 NA
HETATM   11  C10 UNL     1      -3.510   0.468  -0.520  1.00  0.00     0.306 C 
HETATM   12  O5  UNL     1      -3.654   1.502  -0.561  1.00  0.00    -0.256 OA
BRANCH  11  13
HETATM   13  C11 UNL     1      -4.710  -0.221   0.572  1.00  0.00     0.190 C 
BRANCH  13  14
HETATM   14  C12 UNL     1      -5.644  -0.926  -0.203  1.00  0.00     0.010 C 
BRANCH  14  15
HETATM   15  C13 UNL     1      -6.759  -0.110  -0.781  1.00  0.00    -0.005 A 
HETATM   16  C14 UNL     1      -6.536   0.895  -1.535  1.00  0.00     0.014 A 
HETATM   17  C15 UNL     1      -7.642   1.894  -1.827  1.00  0.00     0.001 A 
HETATM   18  C16 UNL     1      -8.820   1.612  -1.192  1.00  0.00     0.003 A 
HETATM   19  C17 UNL     1      -9.078   0.509  -0.352  1.00  0.00     0.037 A 
HETATM   20  C18 UNL     1      -8.049  -0.337  -0.176  1.00  0.00     0.075 A 
BRANCH  20  21
HETATM   21  O6  UNL     1      -8.319  -1.462   0.669  1.00  0.00    -0.360 OA
ATOM     22  H6  UNL     1      -9.168  -1.611   1.067  1.00  0.00     0.217 HD
ENDBRANCH  20  21
ENDBRANCH  14  15
ENDBRANCH  13  14
BRANCH  13  23
HETATM   23  C19 UNL     1      -4.991   0.992   1.420  1.00  0.00     0.163 A 
HETATM   24  N11 UNL     1      -6.377   1.279   1.817  1.00  0.00    -0.269 N 
HETATM   25  N12 UNL     1      -6.349   2.397   2.433  1.00  0.00    -0.225 N 
ATOM     26  H11 UNL     1      -7.197   0.700   1.636  1.00  0.00     0.190 HD
HETATM   27  N13 UNL     1      -5.127   2.807   2.528  1.00  0.00    -0.200 N 
ATOM     28  H12 UNL     1      -7.165   2.891   2.794  1.00  0.00     0.210 HD
HETATM   29  N14 UNL     1      -4.280   1.912   1.891  1.00  0.00    -0.132 N 
ATOM     30  H13 UNL     1      -4.830   3.661   3.001  1.00  0.00     0.212 HD
BRANCH  29  31
HETATM   31  O7  UNL     1      -2.885   2.060   1.860  1.00  0.00    -0.265 OA
ATOM     32  H7  UNL     1      -2.347   2.757   2.217  1.00  0.00     0.247 HD
ENDBRANCH  29  31
ENDBRANCH  13  23
ENDBRANCH  11  13
ENDBRANCH   9  10
ENDBRANCH   6   9
BRANCH   1  33
HETATM   33  C7  UNL     1       2.062  -0.151   0.030  1.00  0.00     0.274 C 
BRANCH  33  34
HETATM   34  C6  UNL     1       3.191  -0.844   0.681  1.00  0.00     0.244 C 
HETATM   35  N6  UNL     1       3.799  -1.827  -0.262  1.00  0.00    -0.308 N 
ATOM     36  H6  UNL     1       3.188  -2.346  -0.893  1.00  0.00     0.170 HD
HETATM   37  O4  UNL     1       3.668  -0.830   1.757  1.00  0.00    -0.271 OA
BRANCH  35  38
HETATM   38  C5  UNL     1       5.026  -2.037  -0.307  1.00  0.00     0.167 A 
HETATM   39  C3  UNL     1       6.112  -1.472   0.362  1.00  0.00     0.177 A 
HETATM   40  C4  UNL     1       7.239  -2.379  -0.003  1.00  0.00     0.242 A 
HETATM   41  O3  UNL     1       6.605  -3.249  -0.808  1.00  0.00    -0.208 OA
HETATM   42  N5  UNL     1       5.572  -3.173  -1.051  1.00  0.00    -0.239 N 
ATOM     43  H5  UNL     1       5.056  -3.781  -1.687  1.00  0.00     0.196 HD
BRANCH  39  44
HETATM   44  O1  UNL     1       6.466  -0.469   1.111  1.00  0.00    -0.316 OA
BRANCH  44  45
HETATM   45  C2  UNL     1       7.144   0.693   1.032  1.00  0.00     0.286 C 
HETATM   46  C1  UNL     1       7.023   1.782   0.003  1.00  0.00     0.339 C 
HETATM   47  N2  UNL     1       8.298   2.474   0.143  1.00  0.00    -0.092 NA
HETATM   48  N3  UNL     1       9.205   1.593   0.737  1.00  0.00    -0.035 NA
HETATM   49  N4  UNL     1       8.589   0.357   0.761  1.00  0.00    -0.094 NA
BRANCH  46  50
HETATM   50  N1  UNL     1       5.950   2.722   0.306  1.00  0.00    -0.056 N 
ATOM     51  H13 UNL     1       6.060   3.159   1.221  1.00  0.00     0.276 HD
ATOM     52  H12 UNL     1       6.000   3.569  -0.260  1.00  0.00     0.276 HD
ATOM     53  H11 UNL     1       5.058   2.238   0.208  1.00  0.00     0.276 HD
ENDBRANCH  46  50
ENDBRANCH  44  45
ENDBRANCH  39  44
BRANCH  40  54
HETATM   54  O2  UNL     1       8.522  -2.423   0.324  1.00  0.00    -0.337 OA
ATOM     55  H2  UNL     1       9.240  -3.001   0.092  1.00  0.00     0.220 HD
ENDBRANCH  40  54
ENDBRANCH  35  38
ENDBRANCH  33  34
ENDBRANCH   1  33
TORSDOF 15
