REMARK  12 active torsions:
REMARK  status: ('A' for Active; 'I' for Inactive)
REMARK    1  A    between atoms: C2_2  and  O1_3 
REMARK    2  A    between atoms: O1_3  and  C3_4 
REMARK    3  A    between atoms: C3_4  and  C4_6 
REMARK    4  A    between atoms: C4_6  and  N1_7 
REMARK    5  A    between atoms: N1_7  and  N2_8 
REMARK    6  A    between atoms: N2_8  and  C5_10 
REMARK    7  A    between atoms: N5_15  and  C6_16 
REMARK    8  A    between atoms: C9_23  and  C10_24 
REMARK    9  A    between atoms: C11_26  and  C12_27 
REMARK   10  A    between atoms: C12_27  and  N8_28 
REMARK   11  A    between atoms: C14_33  and  N11_34 
REMARK   12  A    between atoms: C17_47  and  C18_48 
ROOT
HETATM    1  C6  UNL     1      -0.240  -0.771  -0.786  1.00  0.00     0.724 A 
HETATM    2  N6  UNL     1       0.273  -1.947  -0.771  1.00  0.00    -0.207 N 
ATOM      3  H6  UNL     1      -0.363  -2.744  -0.795  1.00  0.00     0.179 HD
HETATM    4  C7  UNL     1       1.689  -2.217  -0.722  1.00  0.00     0.263 A 
HETATM    5  N7  UNL     1       2.493  -1.043  -0.582  1.00  0.00    -0.356 N 
ATOM      6  H7  UNL     1       3.501  -1.136  -0.459  1.00  0.00     0.162 HD
HETATM    7  C8  UNL     1       1.909   0.251  -0.612  1.00  0.00     0.171 A 
HETATM    8  C9  UNL     1       2.438   1.481  -0.551  1.00  0.00     0.109 A 
HETATM    9  N13 UNL     1       1.358   2.344  -0.624  1.00  0.00    -0.283 N 
ATOM     10  H13 UNL     1       1.427   3.362  -0.606  1.00  0.00     0.188 HD
HETATM   11  N14 UNL     1       0.241   1.679  -0.719  1.00  0.00    -0.219 N 
ATOM     12  H14 UNL     1      -0.699   2.069  -0.787  1.00  0.00     0.209 HD
HETATM   13  N15 UNL     1       0.567   0.410  -0.710  1.00  0.00    -0.052 N 
ENDROOT
BRANCH   1  14
HETATM   14  N5  UNL     1      -1.643  -0.583  -0.838  1.00  0.00    -0.073 N 
HETATM   15  N4  UNL     1      -2.231  -0.531  -2.082  1.00  0.00    -0.225 N 
HETATM   16  N3  UNL     1      -3.546  -0.819  -2.180  1.00  0.00    -0.280 N 
ATOM     17  H4  UNL     1      -1.687  -0.281  -2.908  1.00  0.00     0.209 HD
HETATM   18  C5  UNL     1      -4.141  -1.546  -1.064  1.00  0.00     0.314 C 
ATOM     19  H3  UNL     1      -4.096  -0.542  -2.993  1.00  0.00     0.186 HD
HETATM   20  N16 UNL     1      -3.560  -1.382   0.197  1.00  0.00    -0.353 N 
HETATM   21  C17 UNL     1      -2.484  -0.437   0.337  1.00  0.00     0.326 C 
ATOM     22  H16 UNL     1      -3.891  -1.919   0.998  1.00  0.00     0.159 HD
BRANCH  18  23
HETATM   23  N2  UNL     1      -5.532  -1.257  -1.104  1.00  0.00    -0.298 N 
ATOM     24  H2  UNL     1      -5.976  -1.052  -1.999  1.00  0.00     0.179 HD
BRANCH  23  25
HETATM   25  N1  UNL     1      -6.281  -1.249   0.033  1.00  0.00    -0.133 NA
BRANCH  25  26
HETATM   26  C4  UNL     1      -7.534  -1.961  -0.262  1.00  0.00     0.245 C 
BRANCH  26  27
HETATM   27  C3  UNL     1      -8.595  -0.943  -0.183  1.00  0.00     0.275 C 
HETATM   28  O2  UNL     1      -8.267   0.213  -0.658  1.00  0.00    -0.264 OA
BRANCH  27  29
HETATM   29  O1  UNL     1      -9.863  -1.082   0.317  1.00  0.00    -0.321 OA
BRANCH  29  30
HETATM   30  C2  UNL     1     -10.690   0.093   0.223  1.00  0.00     0.174 C 
HETATM   31  C1  UNL     1     -10.107   1.258   0.964  1.00  0.00     0.034 C 
ENDBRANCH  29  30
ENDBRANCH  27  29
ENDBRANCH  26  27
ENDBRANCH  25  26
ENDBRANCH  23  25
ENDBRANCH  18  23
BRANCH  21  32
HETATM   32  C18 UNL     1      -1.789  -0.749   1.606  1.00  0.00     0.219 C 
HETATM   33  O5  UNL     1      -2.167  -1.742   2.326  1.00  0.00    -0.645 OA
HETATM   34  O6  UNL     1      -0.722  -0.041   2.127  1.00  0.00    -0.645 OA
ENDBRANCH  21  32
ENDBRANCH   1  14
BRANCH   8  35
HETATM   35  C10 UNL     1       3.796   1.999  -0.426  1.00  0.00     0.246 C 
HETATM   36  O3  UNL     1       4.775   1.123   0.014  1.00  0.00    -0.365 OA
HETATM   37  C11 UNL     1       5.607   1.908   0.802  1.00  0.00     0.151 C 
HETATM   38  C15 UNL     1       4.529   2.553   1.728  1.00  0.00     0.115 C 
HETATM   39  C16 UNL     1       3.687   3.087   0.636  1.00  0.00     0.164 C 
HETATM   40  O4  UNL     1       3.058   4.083   0.531  1.00  0.00    -0.295 OA
BRANCH  37  41
HETATM   41  C12 UNL     1       6.661   1.269   1.582  1.00  0.00     0.202 C 
BRANCH  41  42
HETATM   42  N8  UNL     1       7.666   0.567   0.842  1.00  0.00    -0.229 N 
HETATM   43  N9  UNL     1       7.736  -0.668   0.424  1.00  0.00    -0.268 N 
HETATM   44  C13 UNL     1       8.881  -0.928  -0.189  1.00  0.00     0.177 A 
ATOM     45  H9  UNL     1       6.993  -1.355   0.555  1.00  0.00     0.190 HD
HETATM   46  N10 UNL     1       9.408  -2.111  -0.804  1.00  0.00    -0.077 NA
HETATM   47  C14 UNL     1       9.614   0.260  -0.155  1.00  0.00     0.158 A 
HETATM   48  N12 UNL     1       8.830   1.131   0.477  1.00  0.00    -0.266 N 
ATOM     49  H12 UNL     1       9.081   2.102   0.661  1.00  0.00     0.190 HD
BRANCH  47  50
HETATM   50  N11 UNL     1      10.804   0.485  -0.613  1.00  0.00    -0.382 N 
ATOM     51 2H11 UNL     1      11.405  -0.182  -1.097  1.00  0.00     0.157 HD
ATOM     52 1H11 UNL     1      11.339   1.353  -0.588  1.00  0.00     0.157 HD
ENDBRANCH  47  50
ENDBRANCH  41  42
ENDBRANCH  37  41
ENDBRANCH   8  35
TORSDOF 12
