REMARK  13 active torsions:
REMARK  status: ('A' for Active; 'I' for Inactive)
REMARK       I    between atoms: C2_2  and  N1_4 
REMARK    1  A    between atoms: N1_4  and  C3_6 
REMARK    2  A    between atoms: N2_8  and  C5_9 
REMARK    3  A    between atoms: C5_9  and  C6_10 
REMARK    4  A    between atoms: C5_9  and  C7_13 
REMARK    5  A    between atoms: C8_16  and  C9_17 
REMARK    6  A    between atoms: C9_17  and  O4_18 
REMARK    7  A    between atoms: C9_17  and  O5_20 
REMARK    8  A    between atoms: O5_20  and  C10_21 
REMARK    9  A    between atoms: C11_25  and  N7_26 
REMARK   10  A    between atoms: C14_37  and  C15_38 
REMARK   11  A    between atoms: C15_38  and  O8_39 
REMARK   12  A    between atoms: O8_39  and  S1_40 
REMARK   13  A    between atoms: C16_44  and  O12_45 
ROOT
HETATM    1  C5  UNL     1      -1.044  -0.262  -1.987  1.00  0.00     0.262 C 
ENDROOT
BRANCH   1   2
HETATM    2  N2  UNL     1      -2.243  -0.246  -1.173  1.00  0.00    -0.299 N 
HETATM    3  C4  UNL     1      -2.903  -1.433  -0.969  1.00  0.00     0.128 A 
HETATM    4  C3  UNL     1      -4.039  -1.516  -0.217  1.00  0.00     0.085 A 
HETATM    5  C16 UNL     1      -4.577  -0.333   0.389  1.00  0.00     0.107 A 
HETATM    6  C14 UNL     1      -3.909   0.839   0.178  1.00  0.00     0.070 A 
HETATM    7  C13 UNL     1      -2.754   0.824  -0.607  1.00  0.00     0.260 A 
HETATM    8  O7  UNL     1      -2.150   1.922  -0.791  1.00  0.00    -0.267 OA
BRANCH   4   9
HETATM    9  N1  UNL     1      -4.754  -2.699   0.024  1.00  0.00    -0.324 N 
HETATM   10  C2  UNL     1      -4.404  -3.962  -0.472  1.00  0.00     0.218 C 
HETATM   11  C1  UNL     1      -5.321  -5.104  -0.086  1.00  0.00     0.117 C 
HETATM   12  O1  UNL     1      -3.445  -4.281  -1.187  1.00  0.00    -0.274 OA
ATOM     13  H1  UNL     1      -5.591  -2.635   0.603  1.00  0.00     0.169 HD
ENDBRANCH   4   9
BRANCH   5  14
HETATM   14  O12 UNL     1      -5.709  -0.446   1.133  1.00  0.00    -0.358 OA
ATOM     15  H12 UNL     1      -6.065   0.338   1.534  1.00  0.00     0.217 HD
ENDBRANCH   5  14
BRANCH   6  16
HETATM   16  C15 UNL     1      -4.339   2.141   0.736  1.00  0.00     0.240 C 
BRANCH  16  17
HETATM   17  O8  UNL     1      -5.446   2.181   1.494  1.00  0.00    -0.252 OA
BRANCH  17  18
HETATM   18  S1  UNL     1      -5.697   3.767   1.989  1.00  0.00     0.251 S 
HETATM   19  O9  UNL     1      -7.171   3.962   2.231  1.00  0.00    -0.572 OA
HETATM   20  O10 UNL     1      -5.322   4.653   0.838  1.00  0.00    -0.572 OA
HETATM   21  O11 UNL     1      -4.805   4.123   3.363  1.00  0.00    -0.572 OA
ENDBRANCH  17  18
ENDBRANCH  16  17
ENDBRANCH   6  16
ENDBRANCH   1   2
BRANCH   1  22
HETATM   22  C6  UNL     1      -0.909   0.985  -2.801  1.00  0.00     0.205 C 
HETATM   23  O2  UNL     1       0.151   1.643  -2.719  1.00  0.00    -0.646 OA
HETATM   24  O3  UNL     1      -1.916   1.428  -3.635  1.00  0.00    -0.646 OA
ENDBRANCH   1  22
BRANCH   1  25
HETATM   25  C7  UNL     1       0.182  -0.503  -1.183  1.00  0.00     0.132 A 
HETATM   26  N3  UNL     1       0.963   0.432  -0.598  1.00  0.00    -0.327 N 
HETATM   27  C8  UNL     1       1.992  -0.172   0.050  1.00  0.00     0.155 A 
ATOM     28  H3  UNL     1       0.804   1.439  -0.637  1.00  0.00     0.168 HD
HETATM   29  N8  UNL     1       1.840  -1.496  -0.138  1.00  0.00    -0.279 N 
HETATM   30  C12 UNL     1       2.743  -2.511   0.400  1.00  0.00     0.179 C 
HETATM   31  N9  UNL     1       0.753  -1.685  -0.878  1.00  0.00    -0.283 N 
ATOM     32  H9  UNL     1       0.401  -2.595  -1.173  1.00  0.00     0.188 HD
BRANCH  27  33
HETATM   33  C9  UNL     1       3.061   0.548   0.813  1.00  0.00     0.332 C 
BRANCH  33  34
HETATM   34  O4  UNL     1       2.415   1.525   1.593  1.00  0.00    -0.364 OA
ATOM     35  H4  UNL     1       3.093   1.982   2.077  1.00  0.00     0.213 HD
ENDBRANCH  33  34
BRANCH  33  36
HETATM   36  O5  UNL     1       3.922   1.231  -0.045  1.00  0.00    -0.308 OA
BRANCH  36  37
HETATM   37  C10 UNL     1       5.244   0.815   0.097  1.00  0.00     0.384 C 
HETATM   38  N4  UNL     1       5.749   0.342  -1.175  1.00  0.00    -0.070 NA
HETATM   39  N5  UNL     1       7.032  -0.136  -0.989  1.00  0.00    -0.031 NA
HETATM   40  N6  UNL     1       7.440  -0.016   0.331  1.00  0.00    -0.069 NA
HETATM   41  C11 UNL     1       7.292   1.308   0.862  1.00  0.00     0.436 C 
HETATM   42  O6  UNL     1       6.071   1.886   0.482  1.00  0.00    -0.299 OA
BRANCH  41  43
HETATM   43  N7  UNL     1       8.404   2.135   0.460  1.00  0.00    -0.037 N 
ATOM     44  H73 UNL     1       9.300   1.720   0.717  1.00  0.00     0.279 HD
ATOM     45  H72 UNL     1       8.526   2.142  -0.553  1.00  0.00     0.279 HD
ATOM     46  H71 UNL     1       8.299   3.077   0.838  1.00  0.00     0.279 HD
ENDBRANCH  41  43
ENDBRANCH  36  37
ENDBRANCH  33  36
ENDBRANCH  27  33
ENDBRANCH   1  25
TORSDOF 13
