REMARK  15 active torsions:
REMARK  status: ('A' for Active; 'I' for Inactive)
REMARK    1  A    between atoms: N1_1  and  C1_4 
REMARK    2  A    between atoms: C2_7  and  N3_8 
REMARK    3  A    between atoms: C4_11  and  C5_12 
REMARK       I    between atoms: C5_12  and  N4_14 
REMARK    4  A    between atoms: N4_14  and  N5_16 
REMARK    5  A    between atoms: C6_19  and  O3_20 
REMARK    6  A    between atoms: N6_22  and  N7_23 
REMARK    7  A    between atoms: C8_31  and  C9_32 
REMARK    8  A    between atoms: C9_32  and  C10_34 
REMARK    9  A    between atoms: C10_34  and  N10_35 
REMARK   10  A    between atoms: C11_40  and  C12_41 
REMARK   11  A    between atoms: C12_41  and  O5_42 
REMARK   12  A    between atoms: N13_46  and  C15_47 
REMARK   13  A    between atoms: C15_47  and  C16_48 
REMARK   14  A    between atoms: C16_48  and  O6_49 
REMARK   15  A    between atoms: O6_49  and  N14_50 
ROOT
HETATM    1  C1  UNL     1       3.956   3.057  -0.515  1.00  0.00     0.129 A 
HETATM    2  N2  UNL     1       5.082   2.358  -0.599  1.00  0.00    -0.174 N 
ATOM      3  H2  UNL     1       5.920   2.826  -0.946  1.00  0.00     0.186 HD
HETATM    4  C2  UNL     1       5.171   1.050  -0.245  1.00  0.00     0.711 A 
HETATM    5  N8  UNL     1       4.052   0.465   0.207  1.00  0.00    -0.173 N 
ATOM      6  H8  UNL     1       4.100  -0.517   0.477  1.00  0.00     0.186 HD
HETATM    7  C7  UNL     1       2.869   1.098   0.325  1.00  0.00     0.135 A 
HETATM    8  N9  UNL     1       1.630   0.752   0.744  1.00  0.00    -0.338 N 
ATOM      9  H9  UNL     1       1.372  -0.176   1.079  1.00  0.00     0.167 HD
HETATM   10  C8  UNL     1       0.783   1.793   0.661  1.00  0.00     0.083 A 
HETATM   11  C18 UNL     1       1.525   2.842   0.168  1.00  0.00     0.052 A 
HETATM   12  C19 UNL     1       2.811   2.436  -0.046  1.00  0.00     0.055 A 
ENDROOT
BRANCH  10  13
HETATM   13  C9  UNL     1      -0.638   1.831   1.048  1.00  0.00     0.197 C 
HETATM   14  O4  UNL     1      -1.272   2.883   0.887  1.00  0.00    -0.289 OA
BRANCH  13  15
HETATM   15  C10 UNL     1      -1.300   0.651   1.623  1.00  0.00     0.256 C 
BRANCH  15  16
HETATM   16  N10 UNL     1      -2.184  -0.052   0.729  1.00  0.00    -0.211 N 
HETATM   17  N11 UNL     1      -1.816  -1.026  -0.077  1.00  0.00    -0.224 N 
HETATM   18  N12 UNL     1      -2.841  -1.482  -0.727  1.00  0.00    -0.269 N 
ATOM     19  H11 UNL     1      -0.862  -1.372  -0.176  1.00  0.00     0.210 HD
HETATM   20  C11 UNL     1      -3.955  -0.788  -0.349  1.00  0.00     0.150 A 
ATOM     21  H12 UNL     1      -2.819  -2.238  -1.411  1.00  0.00     0.190 HD
HETATM   22  N15 UNL     1      -3.511   0.090   0.552  1.00  0.00    -0.267 N 
ATOM     23  H15 UNL     1      -4.094   0.772   1.038  1.00  0.00     0.190 HD
BRANCH  20  24
HETATM   24  C12 UNL     1      -5.272  -1.103  -0.912  1.00  0.00     0.146 C 
HETATM   25  C13 UNL     1      -5.641  -2.569  -0.644  1.00  0.00     0.078 C 
HETATM   26  C14 UNL     1      -7.149  -2.504  -0.709  1.00  0.00     0.276 C 
HETATM   27  N13 UNL     1      -7.450  -1.292   0.066  1.00  0.00     0.094 N 
HETATM   28  C17 UNL     1      -6.422  -0.359  -0.322  1.00  0.00     0.318 C 
BRANCH  24  29
HETATM   29  O5  UNL     1      -5.274  -0.907  -2.294  1.00  0.00    -0.380 OA
ATOM     30  H5  UNL     1      -6.127  -1.111  -2.659  1.00  0.00     0.211 HD
ENDBRANCH  24  29
BRANCH  27  31
HETATM   31  C15 UNL     1      -8.786  -0.917  -0.317  1.00  0.00     0.301 C 
BRANCH  31  32
HETATM   32  C16 UNL     1      -9.368   0.234   0.406  1.00  0.00     0.230 C 
BRANCH  32  33
HETATM   33  O6  UNL     1      -8.638   1.379   0.227  1.00  0.00    -0.286 OA
BRANCH  33  34
HETATM   34  N14 UNL     1      -9.209   2.406   0.883  1.00  0.00    -0.311 N 
ATOM     35 2H14 UNL     1     -10.065   2.327   1.432  1.00  0.00     0.184 HD
ATOM     36 1H14 UNL     1      -8.665   3.259   0.750  1.00  0.00     0.184 HD
ENDBRANCH  33  34
ENDBRANCH  32  33
ENDBRANCH  31  32
ENDBRANCH  27  31
ENDBRANCH  20  24
ENDBRANCH  15  16
ENDBRANCH  13  15
ENDBRANCH  10  13
BRANCH   1  37
HETATM   37  N1  UNL     1       3.884   4.291  -0.850  1.00  0.00    -0.384 N 
ATOM     38  H12 UNL     1       4.728   4.749  -1.196  1.00  0.00     0.157 HD
ATOM     39  H11 UNL     1       3.019   4.828  -0.785  1.00  0.00     0.157 HD
ENDBRANCH   1  37
BRANCH   4  40
HETATM   40  N3  UNL     1       6.405   0.355  -0.366  1.00  0.00    -0.023 N 
HETATM   41  C3  UNL     1       7.066  -0.333   0.584  1.00  0.00     0.304 A 
HETATM   42  O1  UNL     1       6.688  -0.479   1.794  1.00  0.00    -0.264 OA
HETATM   43  C4  UNL     1       8.220  -0.860   0.056  1.00  0.00     0.158 A 
HETATM   44  C6  UNL     1       8.223  -0.449  -1.281  1.00  0.00     0.201 A 
HETATM   45  N6  UNL     1       7.120   0.279  -1.502  1.00  0.00    -0.154 N 
BRANCH  43  46
HETATM   46  C5  UNL     1       9.254  -1.681   0.655  1.00  0.00     0.279 C 
HETATM   47  O2  UNL     1      10.222  -2.065  -0.056  1.00  0.00    -0.266 OA
HETATM   48  N4  UNL     1       9.264  -2.099   2.003  1.00  0.00    -0.272 N 
ATOM     49  H4  UNL     1       8.495  -1.806   2.605  1.00  0.00     0.189 HD
BRANCH  48  50
HETATM   50  N5  UNL     1      10.271  -2.892   2.556  1.00  0.00    -0.342 N 
ATOM     51  H52 UNL     1      11.033  -3.176   1.940  1.00  0.00     0.176 HD
ATOM     52  H51 UNL     1      10.278  -3.194   3.530  1.00  0.00     0.176 HD
ENDBRANCH  48  50
ENDBRANCH  43  46
BRANCH  44  53
HETATM   53  O3  UNL     1       9.198  -0.740  -2.224  1.00  0.00    -0.343 OA
ATOM     54  H3  UNL     1       9.200  -0.461  -3.132  1.00  0.00     0.219 HD
ENDBRANCH  44  53
BRANCH  45  55
HETATM   55  N7  UNL     1       6.719   0.890  -2.692  1.00  0.00    -0.321 N 
ATOM     56  H72 UNL     1       5.879   1.444  -2.860  1.00  0.00     0.179 HD
ATOM     57  H71 UNL     1       7.261   0.832  -3.554  1.00  0.00     0.179 HD
ENDBRANCH  45  55
ENDBRANCH   4  40
TORSDOF 15
