REMARK  1 active torsions:
REMARK  status: ('A' for Active; 'I' for Inactive)
REMARK    1  A    between atoms: O1_1  and  C1_3 
ROOT
HETATM    1  C1  UNL     1       1.022  -0.892   0.170  1.00  0.00     0.150 C 
HETATM    2  C2  UNL     1       1.425   0.437  -0.457  1.00  0.00     0.304 C 
HETATM    3  N1  UNL     1       0.273   1.316  -0.309  1.00  0.00     0.090 N 
HETATM    4  C3  UNL     1      -0.105   1.242   1.105  1.00  0.00     0.273 C 
HETATM    5  C4  UNL     1      -0.954   0.010   1.293  1.00  0.00     0.037 C 
HETATM    6  C5  UNL     1      -0.466  -1.010   0.260  1.00  0.00     0.019 C 
HETATM    7  C6  UNL     1      -1.151  -0.556  -1.036  1.00  0.00     0.037 C 
HETATM    8  C7  UNL     1      -0.827   0.907  -1.170  1.00  0.00     0.273 C 
ENDROOT
BRANCH   1   9
HETATM    9  O1  UNL     1       1.614  -1.887  -0.577  1.00  0.00    -0.393 OA
ATOM     10  H1  UNL     1       1.363  -2.716  -0.186  1.00  0.00     0.210 HD
ENDBRANCH   1   9
TORSDOF 1
