REMARK  1 active torsions:
REMARK  status: ('A' for Active; 'I' for Inactive)
REMARK    1  A    between atoms: O1_1  and  C1_3 
ROOT
HETATM    1  C1  UNL     1      -0.923   0.266  -0.408  1.00  0.00     0.063 C 
HETATM    2  C2  UNL     1      -0.376  -1.073  -0.872  1.00  0.00     0.068 C 
HETATM    3  C3  UNL     1       0.974  -1.339  -0.265  1.00  0.00     0.275 C 
HETATM    4  N1  UNL     1       1.355  -0.199   0.576  1.00  0.00     0.088 N 
HETATM    5  C4  UNL     1       0.376  -0.069   1.623  1.00  0.00     0.275 C 
HETATM    6  C5  UNL     1      -1.019   0.167   1.120  1.00  0.00     0.068 C 
HETATM    7  C6  UNL     1       1.438   0.942  -0.289  1.00  0.00     0.275 C 
HETATM    8  C7  UNL     1       0.053   1.395  -0.678  1.00  0.00     0.068 C 
ENDROOT
BRANCH   1   9
HETATM    9  O1  UNL     1      -2.163   0.485  -0.973  1.00  0.00    -0.390 OA
ATOM     10  H1  UNL     1      -2.505   1.322  -0.683  1.00  0.00     0.210 HD
ENDBRANCH   1   9
TORSDOF 1
