REMARK  2 active torsions:
REMARK  status: ('A' for Active; 'I' for Inactive)
REMARK    1  A    between atoms: O1_1  and  C1_3 
REMARK    2  A    between atoms: C1_3  and  C2_4 
ROOT
HETATM    1  C2  UNL     1       0.466   0.002   0.123  1.00  0.00     0.182 C 
HETATM    2  C3  UNL     1       0.120  -1.194   0.948  1.00  0.00     0.045 C 
HETATM    3  C4  UNL     1      -1.363  -1.373   0.777  1.00  0.00     0.033 C 
HETATM    4  C5  UNL     1      -1.643  -0.697  -0.532  1.00  0.00     0.273 C 
HETATM    5  N1  UNL     1      -0.420  -0.093  -0.990  1.00  0.00     0.100 N 
HETATM    6  C6  UNL     1      -0.562   1.369  -0.960  1.00  0.00     0.276 C 
HETATM    7  C7  UNL     1      -0.108   1.311   0.480  1.00  0.00     0.074 C 
ENDROOT
BRANCH   1   8
HETATM    8  C1  UNL     1       1.933   0.059  -0.174  1.00  0.00     0.206 C 
BRANCH   8   9
HETATM    9  O1  UNL     1       2.306   1.138  -0.955  1.00  0.00    -0.398 OA
ATOM     10  H1  UNL     1       3.236   1.174  -1.143  1.00  0.00     0.209 HD
ENDBRANCH   8   9
ENDBRANCH   1   8
TORSDOF 2
