REMARK  2 active torsions:
REMARK  status: ('A' for Active; 'I' for Inactive)
REMARK    1  A    between atoms: O1_1  and  N1_3 
REMARK    2  A    between atoms: N2_5  and  N3_7 
ROOT
HETATM    1  N3  UNL     1       0.762  -0.183  -0.444  1.00  0.00    -0.312 N 
HETATM    2  C1  UNL     1       0.060  -1.421  -0.199  1.00  0.00     0.144 C 
HETATM    3  C2  UNL     1      -1.062  -1.096   0.766  1.00  0.00     0.021 C 
HETATM    4  C3  UNL     1      -1.962  -0.114   0.011  1.00  0.00     0.003 C 
HETATM    5  C4  UNL     1      -1.246   1.186  -0.054  1.00  0.00     0.021 C 
HETATM    6  C5  UNL     1       0.186   1.120  -0.429  1.00  0.00     0.144 C 
ENDROOT
BRANCH   1   7
HETATM    7  N2  UNL     1       2.137  -0.284  -0.721  1.00  0.00    -0.225 N 
HETATM    8  N1  UNL     1       3.020   0.206   0.032  1.00  0.00    -0.196 N 
ATOM      9  H1  UNL     1       2.779   0.705   0.888  1.00  0.00     0.217 HD
ATOM     10  H2  UNL     1       2.431  -0.774  -1.566  1.00  0.00     0.210 HD
BRANCH   8  11
HETATM   11  O1  UNL     1       4.335   0.032  -0.364  1.00  0.00    -0.273 OA
ATOM     12  H1  UNL     1       5.001   0.402   0.204  1.00  0.00     0.246 HD
ENDBRANCH   8  11
ENDBRANCH   1   7
TORSDOF 2
