REMARK  1 active torsions:
REMARK  status: ('A' for Active; 'I' for Inactive)
REMARK    1  A    between atoms: C3_3  and  O1_4 
ROOT
HETATM    1  C1  UNL     1       2.957   0.246  -0.902  1.00  0.00     0.015 C 
HETATM    2  C2  UNL     1       1.949  -0.085  -0.325  1.00  0.00    -0.077 C 
HETATM    3  C3  UNL     1       0.711  -0.490   0.379  1.00  0.00     0.141 C 
HETATM    4  C4  UNL     1       0.003   0.702   0.946  1.00  0.00     0.056 C 
HETATM    5  C5  UNL     1      -1.072   1.252   0.058  1.00  0.00     0.030 C 
HETATM    6  C6  UNL     1      -1.793   0.182  -0.727  1.00  0.00     0.168 C 
HETATM    7  O2  UNL     1      -0.803  -0.467  -1.503  1.00  0.00    -0.387 OA
HETATM    8  C7  UNL     1      -0.120  -1.267  -0.606  1.00  0.00     0.218 C 
ENDROOT
BRANCH   3   9
HETATM    9  O1  UNL     1       1.075  -1.374   1.398  1.00  0.00    -0.375 OA
ATOM     10  H1  UNL     1       0.281  -1.634   1.850  1.00  0.00     0.211 HD
ENDBRANCH   3   9
TORSDOF 1
