REMARK  1 active torsions:
REMARK  status: ('A' for Active; 'I' for Inactive)
REMARK    1  A    between atoms: C3_3  and  N1_4 
ROOT
HETATM    1  C1  UNL     1       3.529   0.412  -0.548  1.00  0.00     0.018 C 
HETATM    2  C2  UNL     1       2.648  -0.218  -0.001  1.00  0.00    -0.072 C 
HETATM    3  C3  UNL     1       1.594  -1.003   0.670  1.00  0.00     0.155 C 
ENDROOT
BRANCH   3   4
HETATM    4  N1  UNL     1       0.316  -0.468   0.414  1.00  0.00    -0.346 N 
HETATM    5  C4  UNL     1      -0.030   0.764   0.994  1.00  0.00     0.071 C 
HETATM    6  C5  UNL     1      -1.524   0.908   1.002  1.00  0.00     0.089 C 
HETATM    7  C6  UNL     1      -2.262   0.251  -0.076  1.00  0.00     0.062 C 
HETATM    8  N2  UNL     1      -1.596  -0.682  -0.890  1.00  0.00    -0.386 N 
HETATM    9  C7  UNL     1      -0.158  -0.565  -0.937  1.00  0.00     0.249 C 
ATOM     10  H2  UNL     1      -2.098  -1.398  -1.415  1.00  0.00     0.160 HD
ENDBRANCH   3   4
TORSDOF 1
