REMARK  1 active torsions:
REMARK  status: ('A' for Active; 'I' for Inactive)
REMARK    1  A    between atoms: C3_3  and  N1_4 
ROOT
HETATM    1  C1  UNL     1       2.432   1.722  -0.290  1.00  0.00     0.015 C 
HETATM    2  C2  UNL     1       1.618   0.836  -0.285  1.00  0.00    -0.078 C 
HETATM    3  C3  UNL     1       0.625  -0.256  -0.276  1.00  0.00     0.189 C 
HETATM    4  C4  UNL     1       0.212  -0.556   1.123  1.00  0.00     0.078 C 
HETATM    5  C5  UNL     1      -1.206  -0.221   1.439  1.00  0.00     0.171 C 
HETATM    6  O1  UNL     1      -1.515   0.992   0.831  1.00  0.00    -0.391 OA
HETATM    7  C6  UNL     1      -1.632   0.820  -0.529  1.00  0.00     0.171 C 
HETATM    8  C7  UNL     1      -0.505   0.126  -1.185  1.00  0.00     0.078 C 
ENDROOT
BRANCH   3   9
HETATM    9  N1  UNL     1       1.260  -1.438  -0.843  1.00  0.00    -0.059 N 
ATOM     10  H13 UNL     1       1.656  -1.270  -1.768  1.00  0.00     0.276 HD
ATOM     11  H12 UNL     1       2.128  -1.688  -0.369  1.00  0.00     0.276 HD
ATOM     12  H11 UNL     1       0.574  -2.193  -0.837  1.00  0.00     0.276 HD
ENDBRANCH   3   9
TORSDOF 1
