REMARK  2 active torsions:
REMARK  status: ('A' for Active; 'I' for Inactive)
REMARK    1  A    between atoms: C3_4  and  N2_5 
REMARK    2  A    between atoms: C9_16  and  N5_17 
REMARK       I    between atoms: N5_17  and  C10_19 
REMARK       I    between atoms: C10_19  and  N6_20 
REMARK       I    between atoms: C10_19  and  N7_24 
ROOT
HETATM    1  N1  UNL     1      -0.036   2.997   0.791  1.00  0.00    -0.191 NA
HETATM    2  C1  UNL     1       0.118   1.918   0.477  1.00  0.00     0.107 C 
HETATM    3  C2  UNL     1       0.349   0.565   0.072  1.00  0.00     0.132 A 
HETATM    4  C3  UNL     1      -0.694  -0.242  -0.295  1.00  0.00     0.129 A 
HETATM    5  N3  UNL     1      -0.314  -1.509  -0.683  1.00  0.00    -0.337 N 
ATOM      6  H3  UNL     1      -1.039  -2.166  -0.970  1.00  0.00     0.168 HD
HETATM    7  C8  UNL     1       0.953  -1.917  -0.701  1.00  0.00     0.183 A 
HETATM    8  N4  UNL     1       1.980  -1.125  -0.339  1.00  0.00    -0.337 N 
ATOM      9  H4  UNL     1       2.943  -1.461  -0.360  1.00  0.00     0.168 HD
HETATM   10  C9  UNL     1       1.687   0.117   0.048  1.00  0.00     0.129 A 
ENDROOT
BRANCH   4  11
HETATM   11  N2  UNL     1      -2.054   0.098  -0.280  1.00  0.00    -0.362 N 
HETATM   12  C4  UNL     1      -2.971  -0.839  -0.960  1.00  0.00     0.150 C 
HETATM   13  C5  UNL     1      -3.888  -1.345   0.161  1.00  0.00     0.187 C 
HETATM   14  O1  UNL     1      -4.566  -0.305   0.758  1.00  0.00    -0.388 OA
HETATM   15  C6  UNL     1      -4.263   0.939   0.280  1.00  0.00     0.187 C 
HETATM   16  C7  UNL     1      -2.731   1.203   0.316  1.00  0.00     0.150 C 
ENDBRANCH   4  11
BRANCH  10  17
HETATM   17  N5  UNL     1       2.616   0.929   0.408  1.00  0.00    -0.326 N 
HETATM   18  C10 UNL     1       4.022   0.688   0.460  1.00  0.00     0.481 C 
HETATM   19  N6  UNL     1       4.624   0.404  -0.825  1.00  0.00    -0.033 N 
HETATM   20  N7  UNL     1       4.418  -0.335   1.399  1.00  0.00    -0.033 N 
ATOM     21  H63 UNL     1       4.145  -0.374  -1.279  1.00  0.00     0.278 HD
ATOM     22  H62 UNL     1       4.414   1.149  -1.490  1.00  0.00     0.278 HD
ATOM     23  H61 UNL     1       5.629   0.232  -0.788  1.00  0.00     0.278 HD
ATOM     24  H73 UNL     1       4.059  -0.122   2.330  1.00  0.00     0.278 HD
ATOM     25  H72 UNL     1       3.915  -1.203   1.213  1.00  0.00     0.278 HD
ATOM     26  H71 UNL     1       5.423  -0.507   1.436  1.00  0.00     0.278 HD
ATOM     27  H5  UNL     1       2.311   1.860   0.691  1.00  0.00     0.164 HD
ENDBRANCH  10  17
TORSDOF 2
