REMARK  3 active torsions:
REMARK  status: ('A' for Active; 'I' for Inactive)
REMARK    1  A    between atoms: N1_1  and  C1_5 
REMARK    2  A    between atoms: C1_5  and  C2_6 
REMARK       I    between atoms: C2_6  and  N2_8 
REMARK    3  A    between atoms: C5_11  and  N3_12 
ROOT
HETATM    1  C2  UNL     1      -3.062  -0.263  -0.799  1.00  0.00     0.245 C 
HETATM    2  O1  UNL     1      -3.106  -0.428  -2.065  1.00  0.00    -0.272 OA
HETATM    3  N2  UNL     1      -1.851  -0.414  -0.090  1.00  0.00    -0.349 N 
HETATM    4  C3  UNL     1      -1.675  -0.255   1.331  1.00  0.00     0.128 C 
HETATM    5  C4  UNL     1      -0.258   0.292   1.458  1.00  0.00     0.047 C 
HETATM    6  C5  UNL     1       0.261   0.343   0.006  1.00  0.00     0.108 C 
HETATM    7  C9  UNL     1      -0.524  -0.757  -0.588  1.00  0.00     0.151 C 
ENDROOT
BRANCH   6   8
HETATM    8  N3  UNL     1       1.661   0.324  -0.036  1.00  0.00    -0.333 N 
HETATM    9  C6  UNL     1       2.340   1.393   0.715  1.00  0.00     0.252 A 
HETATM   10  N4  UNL     1       3.767   1.309   0.650  1.00  0.00    -0.348 N 
HETATM   11  C7  UNL     1       4.407   0.429   0.005  1.00  0.00     0.191 A 
ATOM     12  H4  UNL     1       4.306   2.008   1.160  1.00  0.00     0.163 HD
HETATM   13  N5  UNL     1       5.851   0.467   0.027  1.00  0.00    -0.063 NA
HETATM   14  N6  UNL     1       3.729  -0.564  -0.709  1.00  0.00    -0.305 N 
HETATM   15  C8  UNL     1       2.451  -0.601  -0.720  1.00  0.00     0.194 A 
ATOM     16  H6  UNL     1       4.259  -1.266  -1.226  1.00  0.00     0.171 HD
HETATM   17  N7  UNL     1       1.842  -1.624  -1.468  1.00  0.00    -0.063 NA
ENDBRANCH   6   8
BRANCH   1  18
HETATM   18  C1  UNL     1      -4.346   0.094  -0.126  1.00  0.00     0.332 C 
BRANCH  18  19
HETATM   19  N1  UNL     1      -5.431   0.190  -1.055  1.00  0.00    -0.071 N 
ATOM     20  H13 UNL     1      -5.215   0.842  -1.810  1.00  0.00     0.274 HD
ATOM     21  H12 UNL     1      -5.526  -0.665  -1.603  1.00  0.00     0.274 HD
ATOM     22  H11 UNL     1      -6.308   0.434  -0.595  1.00  0.00     0.274 HD
ENDBRANCH  18  19
ENDBRANCH   1  18
TORSDOF 3
