REMARK  5 active torsions:
REMARK  status: ('A' for Active; 'I' for Inactive)
REMARK    1  A    between atoms: N1_1  and  N2_4 
REMARK    2  A    between atoms: N2_4  and  N3_6 
REMARK    3  A    between atoms: N3_6  and  C1_8 
REMARK    4  A    between atoms: C3_16  and  N7_17 
REMARK       I    between atoms: N7_17  and  C4_19 
REMARK    5  A    between atoms: C4_19  and  C5_21 
ROOT
HETATM    1  C1  UNL     1      -2.459  -0.327  -0.519  1.00  0.00     0.181 A 
HETATM    2  N4  UNL     1      -3.652  -0.882  -0.772  1.00  0.00    -0.280 N 
ATOM      3  H4  UNL     1      -4.018  -0.844  -1.723  1.00  0.00     0.188 HD
HETATM    4  N5  UNL     1      -4.362  -1.468   0.149  1.00  0.00    -0.294 N 
ATOM      5  H5  UNL     1      -5.267  -1.881  -0.074  1.00  0.00     0.187 HD
HETATM    6  C2  UNL     1      -3.876  -1.515   1.394  1.00  0.00     0.199 A 
HETATM    7  N6  UNL     1      -2.712  -0.989   1.708  1.00  0.00    -0.334 N 
ATOM      8  H6  UNL     1      -2.372  -1.042   2.668  1.00  0.00     0.168 HD
HETATM    9  C3  UNL     1      -1.965  -0.378   0.760  1.00  0.00     0.156 A 
ENDROOT
BRANCH   9  10
HETATM   10  N7  UNL     1      -0.845   0.117   1.107  1.00  0.00    -0.307 N 
HETATM   11  C4  UNL     1       0.103   0.789   0.339  1.00  0.00     0.282 C 
HETATM   12  O1  UNL     1      -0.033   2.030   0.118  1.00  0.00    -0.269 OA
ATOM     13  H7  UNL     1      -0.607   0.005   2.092  1.00  0.00     0.170 HD
BRANCH  11  14
HETATM   14  C5  UNL     1       1.290   0.126  -0.247  1.00  0.00     0.473 C 
HETATM   15  N8  UNL     1       2.109   1.053  -1.008  1.00  0.00    -0.036 N 
HETATM   16  C6  UNL     1       3.357   0.272  -1.087  1.00  0.00     0.262 C 
ATOM     17  H82 UNL     1       1.721   1.366  -1.898  1.00  0.00     0.280 HD
ATOM     18  H81 UNL     1       2.194   1.994  -0.624  1.00  0.00     0.280 HD
HETATM   19  C7  UNL     1       3.530  -0.105   0.362  1.00  0.00     0.262 C 
HETATM   20  N9  UNL     1       2.192  -0.343   0.804  1.00  0.00    -0.036 N 
ATOM     21  H92 UNL     1       1.994   0.075   1.713  1.00  0.00     0.280 HD
ATOM     22  H91 UNL     1       2.027  -1.315   1.065  1.00  0.00     0.280 HD
ENDBRANCH  11  14
ENDBRANCH   9  10
BRANCH   1  23
HETATM   23  N3  UNL     1      -1.746   0.294  -1.579  1.00  0.00    -0.267 N 
ATOM     24  H3  UNL     1      -0.743   0.132  -1.666  1.00  0.00     0.190 HD
BRANCH  23  25
HETATM   25  N2  UNL     1      -2.320   1.035  -2.408  1.00  0.00    -0.248 N 
ATOM     26  H2  UNL     1      -2.702   0.418  -3.125  1.00  0.00     0.207 HD
BRANCH  25  27
HETATM   27  N1  UNL     1      -2.632   2.194  -2.746  1.00  0.00    -0.331 N 
ATOM     28  H12 UNL     1      -2.238   2.784  -2.013  1.00  0.00     0.178 HD
ATOM     29  H11 UNL     1      -3.100   2.798  -3.422  1.00  0.00     0.178 HD
ENDBRANCH  25  27
ENDBRANCH  23  25
ENDBRANCH   1  23
TORSDOF 5
