REMARK  3 active torsions:
REMARK  status: ('A' for Active; 'I' for Inactive)
REMARK    1  A    between atoms: C1_2  and  C2_4 
REMARK    2  A    between atoms: C5_11  and  N4_12 
REMARK    3  A    between atoms: N4_12  and  C6_14 
ROOT
HETATM    1  C2  UNL     1       3.091   0.066  -0.161  1.00  0.00     0.128 A 
HETATM    2  N2  UNL     1       3.240   1.345   0.217  1.00  0.00    -0.346 N 
ATOM      3  H2  UNL     1       4.171   1.762   0.233  1.00  0.00     0.167 HD
HETATM    4  C3  UNL     1       2.173   2.083   0.575  1.00  0.00     0.181 A 
HETATM    5  N3  UNL     1       0.933   1.560   0.562  1.00  0.00    -0.347 N 
ATOM      6  H3  UNL     1       0.135   2.133   0.835  1.00  0.00     0.167 HD
HETATM    7  C4  UNL     1       0.748   0.291   0.192  1.00  0.00     0.107 A 
HETATM    8  C5  UNL     1      -0.540  -0.200   0.195  1.00  0.00     0.132 A 
HETATM    9  N6  UNL     1      -0.704  -1.481  -0.182  1.00  0.00    -0.337 N 
ATOM     10  H6  UNL     1      -1.641  -1.884  -0.194  1.00  0.00     0.168 HD
HETATM   11  C9  UNL     1       0.362  -2.251  -0.549  1.00  0.00     0.182 A 
HETATM   12  N7  UNL     1       1.621  -1.777  -0.555  1.00  0.00    -0.348 N 
ATOM     13  H7  UNL     1       2.400  -2.374  -0.835  1.00  0.00     0.167 HD
HETATM   14  C10 UNL     1       1.836  -0.483  -0.180  1.00  0.00     0.096 A 
ENDROOT
BRANCH   8  15
HETATM   15  N4  UNL     1      -1.531   0.523   0.539  1.00  0.00    -0.366 N 
ATOM     16  H4  UNL     1      -1.321   1.483   0.811  1.00  0.00     0.161 HD
BRANCH  15  17
HETATM   17  C6  UNL     1      -2.896   0.135   0.584  1.00  0.00     0.134 C 
HETATM   18  C7  UNL     1      -3.788   1.383   0.642  1.00  0.00     0.259 C 
HETATM   19  N5  UNL     1      -4.745   0.634  -0.170  1.00  0.00    -0.071 N 
HETATM   20  C8  UNL     1      -3.584  -0.066  -0.742  1.00  0.00     0.259 C 
ATOM     21  H52 UNL     1      -5.518   0.122   0.256  1.00  0.00     0.277 HD
ATOM     22  H51 UNL     1      -5.425   1.109  -0.763  1.00  0.00     0.277 HD
ENDBRANCH  15  17
ENDBRANCH   8  15
BRANCH   1  23
HETATM   23  C1  UNL     1       4.263  -0.698  -0.539  1.00  0.00     0.283 C 
HETATM   24  N1  UNL     1       5.535  -0.095  -0.506  1.00  0.00    -0.056 NA
HETATM   25  O1  UNL     1       4.108  -1.892  -0.891  1.00  0.00    -0.269 OA
ENDBRANCH   1  23
TORSDOF 3
