REMARK  3 active torsions:
REMARK  status: ('A' for Active; 'I' for Inactive)
REMARK    1  A    between atoms: C1_2  and  C2_4 
REMARK    2  A    between atoms: C4_7  and  C5_8 
REMARK       I    between atoms: C5_8  and  N2_10 
REMARK    3  A    between atoms: N2_10  and  C6_12 
ROOT
HETATM    1  C5  UNL     1      -1.161  -1.847   0.236  1.00  0.00     0.276 C 
HETATM    2  O2  UNL     1      -0.971  -2.878  -0.417  1.00  0.00    -0.266 OA
HETATM    3  N2  UNL     1      -2.385  -1.543   0.840  1.00  0.00    -0.153 N 
ATOM      4  H2  UNL     1      -2.686  -2.103   1.638  1.00  0.00     0.187 HD
ENDROOT
BRANCH   1   5
HETATM    5  C4  UNL     1      -0.030  -0.896   0.378  1.00  0.00     0.074 A 
HETATM    6  S1  UNL     1       0.004   0.587   1.209  1.00  0.00    -0.096 SA
HETATM    7  C3  UNL     1       1.612   1.038   0.899  1.00  0.00     0.067 A 
HETATM    8  C2  UNL     1       2.096   0.002   0.139  1.00  0.00     0.037 A 
HETATM    9  C7  UNL     1       1.229  -1.005  -0.128  1.00  0.00     0.041 A 
BRANCH   8  10
HETATM   10  C1  UNL     1       3.504  -0.008  -0.363  1.00  0.00     0.265 C 
HETATM   11  N1  UNL     1       4.377   1.065  -0.059  1.00  0.00    -0.057 NA
HETATM   12  O1  UNL     1       3.963  -0.944  -1.058  1.00  0.00    -0.271 OA
ENDBRANCH   8  10
ENDBRANCH   1   5
BRANCH   3  13
HETATM   13  C6  UNL     1      -3.163  -0.573   0.429  1.00  0.00     0.710 A 
HETATM   14  N3  UNL     1      -4.347  -0.244   0.977  1.00  0.00    -0.117 N 
HETATM   15  N4  UNL     1      -4.802   0.785   0.265  1.00  0.00     0.006 NA
ATOM     16  H3  UNL     1      -4.802  -0.691   1.773  1.00  0.00     0.202 HD
HETATM   17  N5  UNL     1      -3.942   1.094  -0.695  1.00  0.00     0.006 NA
HETATM   18  N6  UNL     1      -2.920   0.248  -0.594  1.00  0.00    -0.117 N 
ATOM     19  H6  UNL     1      -2.095   0.230  -1.194  1.00  0.00     0.202 HD
ENDBRANCH   3  13
TORSDOF 3
