REMARK  10 active torsions:
REMARK  status: ('A' for Active; 'I' for Inactive)
REMARK    1  A    between atoms: C2_2  and  C3_3 
REMARK    2  A    between atoms: C3_3  and  C4_5 
REMARK    3  A    between atoms: C4_5  and  C5_7 
REMARK    4  A    between atoms: C6_8  and  O2_9 
REMARK    5  A    between atoms: C8_12  and  O3_13 
REMARK    6  A    between atoms: C13_19  and  O4_20 
REMARK    7  A    between atoms: C13_19  and  C14_22 
REMARK    8  A    between atoms: C14_22  and  C15_23 
REMARK    9  A    between atoms: C18_27  and  O6_28 
REMARK   10  A    between atoms: O6_28  and  C19_29 
ROOT
HETATM    1  C5  UNL     1       1.602  -0.725   0.148  1.00  0.00     0.122 C 
HETATM    2  C6  UNL     1       1.810  -1.000  -1.310  1.00  0.00     0.142 C 
HETATM    3  C7  UNL     1       0.465  -1.705  -1.246  1.00  0.00     0.081 C 
HETATM    4  C8  UNL     1      -0.443  -1.444  -2.384  1.00  0.00     0.136 C 
HETATM    5  C9  UNL     1      -0.928  -0.035  -2.129  1.00  0.00     0.048 C 
HETATM    6  C10 UNL     1      -2.374   0.081  -2.227  1.00  0.00    -0.013 C 
HETATM    7  C11 UNL     1      -2.870   0.599  -1.126  1.00  0.00    -0.052 C 
HETATM    8  C12 UNL     1      -4.369   0.830  -0.951  1.00  0.00     0.046 C 
HETATM    9  C13 UNL     1      -1.796   0.892  -0.187  1.00  0.00     0.094 C 
HETATM   10  C17 UNL     1      -0.582   0.298  -0.702  1.00  0.00     0.071 C 
HETATM   11  C18 UNL     1       0.113  -0.827  -0.079  1.00  0.00     0.095 C 
ENDROOT
BRANCH   1  12
HETATM   12  C4  UNL     1       2.084   0.516   0.699  1.00  0.00     0.154 C 
HETATM   13  O1  UNL     1       1.344   1.268   1.273  1.00  0.00    -0.296 OA
BRANCH  12  14
HETATM   14  C3  UNL     1       3.526   0.965   0.608  1.00  0.00     0.152 C 
HETATM   15 CL1  UNL     1       3.738   2.507   1.456  1.00  0.00    -0.117 Cl
BRANCH  14  16
HETATM   16  C2  UNL     1       4.395  -0.064   1.293  1.00  0.00     0.023 C 
HETATM   17  C1  UNL     1       5.829   0.442   1.187  1.00  0.00     0.007 C 
ENDBRANCH  14  16
ENDBRANCH  12  14
ENDBRANCH   1  12
BRANCH   2  18
HETATM   18  O2  UNL     1       1.938   0.060  -2.156  1.00  0.00    -0.394 OA
ATOM     19  H2  UNL     1       2.070  -0.114  -3.080  1.00  0.00     0.210 HD
ENDBRANCH   2  18
BRANCH  11  20
HETATM   20  O6  UNL     1      -0.442  -1.390   1.021  1.00  0.00    -0.319 OA
BRANCH  20  21
HETATM   21  C19 UNL     1      -0.108  -2.596   1.453  1.00  0.00     0.501 C 
HETATM   22  F1  UNL     1       0.291  -2.639   2.801  1.00  0.00    -0.184 F 
HETATM   23  F2  UNL     1      -1.265  -3.398   1.437  1.00  0.00    -0.184 F 
ENDBRANCH  20  21
ENDBRANCH  11  20
BRANCH   4  24
HETATM   24  O3  UNL     1       0.120  -1.616  -3.624  1.00  0.00    -0.394 OA
ATOM     25  H3  UNL     1      -0.463  -1.448  -4.355  1.00  0.00     0.210 HD
ENDBRANCH   4  24
BRANCH   9  26
HETATM   26  O4  UNL     1      -1.653   2.343  -0.412  1.00  0.00    -0.384 OA
ATOM     27  H4  UNL     1      -0.952   2.534   0.201  1.00  0.00     0.211 HD
ENDBRANCH   9  26
BRANCH   9  28
HETATM   28  C14 UNL     1      -2.191   0.788   1.207  1.00  0.00     0.120 C 
BRANCH  28  29
HETATM   29  C15 UNL     1      -3.191   1.780   1.671  1.00  0.00     0.126 C 
HETATM   30  C16 UNL     1      -3.960   1.554   2.957  1.00  0.00     0.091 C 
HETATM   31  O5  UNL     1      -3.486   2.819   1.106  1.00  0.00    -0.298 OA
ENDBRANCH  28  29
ENDBRANCH   9  28
TORSDOF 10
