REMARK  11 active torsions:
REMARK  status: ('A' for Active; 'I' for Inactive)
REMARK    1  A    between atoms: C2_2  and  N1_3 
REMARK    2  A    between atoms: C2_2  and  C6_11 
REMARK    3  A    between atoms: N1_3  and  C3_5 
REMARK    4  A    between atoms: C3_5  and  C5_7 
REMARK       I    between atoms: C6_11  and  N2_13 
REMARK    5  A    between atoms: N2_13  and  C7_15 
REMARK    6  A    between atoms: C7_15  and  C8_16 
REMARK    7  A    between atoms: C7_15  and  C15_28 
REMARK    8  A    between atoms: C8_16  and  S1_17 
REMARK    9  A    between atoms: S1_17  and  C9_18 
REMARK   10  A    between atoms: C9_18  and  O2_19 
REMARK   11  A    between atoms: C9_18  and  N3_21 
ROOT
HETATM    1  C7  UNL     1      -0.342  -0.015   1.313  1.00  0.00     0.195 C 
ENDROOT
BRANCH   1   2
HETATM    2  N2  UNL     1       0.812   0.401   0.588  1.00  0.00    -0.344 N 
HETATM    3  C6  UNL     1       2.152   0.033   0.843  1.00  0.00     0.240 C 
HETATM    4  O1  UNL     1       2.433  -0.731   1.779  1.00  0.00    -0.271 OA
ATOM      5  H2  UNL     1       0.654   1.031  -0.198  1.00  0.00     0.163 HD
BRANCH   3   6
HETATM    6  C2  UNL     1       3.261   0.549   0.000  1.00  0.00     0.166 C 
HETATM    7  C1  UNL     1       2.935   0.075  -1.416  1.00  0.00     0.042 C 
BRANCH   6   8
HETATM    8  N1  UNL     1       4.475   0.058   0.484  1.00  0.00    -0.398 N 
ATOM      9  H1  UNL     1       4.456  -0.553   1.300  1.00  0.00     0.154 HD
BRANCH   8  10
HETATM   10  C3  UNL     1       5.705   0.354  -0.082  1.00  0.00     0.181 C 
HETATM   11  C4  UNL     1       5.955  -0.128  -1.488  1.00  0.00     0.041 C 
BRANCH  10  12
HETATM   12  C5  UNL     1       6.093   1.820  -0.068  1.00  0.00     0.406 C 
HETATM   13  F1  UNL     1       7.337   1.898  -0.665  1.00  0.00    -0.169 F 
HETATM   14  F2  UNL     1       6.177   2.364   1.173  1.00  0.00    -0.169 F 
HETATM   15  F3  UNL     1       5.251   2.551  -0.921  1.00  0.00    -0.169 F 
ENDBRANCH  10  12
ENDBRANCH   8  10
ENDBRANCH   6   8
ENDBRANCH   3   6
ENDBRANCH   1   2
BRANCH   1  16
HETATM   16  C8  UNL     1      -0.544  -1.519   1.334  1.00  0.00     0.119 C 
BRANCH  16  17
HETATM   17  S1  UNL     1      -0.750  -2.274  -0.240  1.00  0.00    -0.084 SA
BRANCH  17  18
HETATM   18  C9  UNL     1      -2.143  -2.048  -1.212  1.00  0.00     0.178 C 
BRANCH  18  19
HETATM   19  O2  UNL     1      -2.025  -2.506  -2.459  1.00  0.00    -0.341 OA
ATOM     20  H2  UNL     1      -2.797  -2.381  -2.998  1.00  0.00     0.220 HD
ENDBRANCH  18  19
BRANCH  18  21
HETATM   21  N3  UNL     1      -3.384  -1.471  -0.947  1.00  0.00    -0.353 N 
HETATM   22  C10 UNL     1      -4.374  -1.402  -2.069  1.00  0.00     0.155 C 
HETATM   23  C11 UNL     1      -5.558  -0.638  -1.605  1.00  0.00     0.291 C 
HETATM   24  N4  UNL     1      -5.292   0.590  -0.927  1.00  0.00     0.087 N 
HETATM   25  C12 UNL     1      -5.032   1.684  -1.817  1.00  0.00     0.310 C 
HETATM   26  C13 UNL     1      -4.234   0.522   0.051  1.00  0.00     0.291 C 
HETATM   27  C14 UNL     1      -3.880  -0.943   0.277  1.00  0.00     0.155 C 
ENDBRANCH  18  21
ENDBRANCH  17  18
ENDBRANCH  16  17
ENDBRANCH   1  16
BRANCH   1  28
HETATM   28  C15 UNL     1      -0.240   0.447   2.717  1.00  0.00     0.197 C 
HETATM   29  O3  UNL     1       0.740   1.128   3.079  1.00  0.00    -0.646 OA
HETATM   30  O4  UNL     1      -1.258   0.110   3.630  1.00  0.00    -0.646 OA
ENDBRANCH   1  28
TORSDOF 11
