REMARK  9 active torsions:
REMARK  status: ('A' for Active; 'I' for Inactive)
REMARK    1  A    between atoms: C2_2  and  O2_4 
REMARK    2  A    between atoms: O2_4  and  C3_5 
REMARK    3  A    between atoms: C3_5  and  C4_6 
REMARK    4  A    between atoms: C4_6  and  C5_7 
REMARK    5  A    between atoms: C5_7  and  C6_8 
REMARK    6  A    between atoms: C6_8  and  C9_11 
REMARK    7  A    between atoms: C11_17  and  C12_18 
REMARK    8  A    between atoms: C11_17  and  C13_21 
REMARK    9  A    between atoms: C15_25  and  O6_26 
ROOT
HETATM    1  C4  UNL     1      -0.374  -0.084  -0.132  1.00  0.00     0.092 C 
HETATM    2  C10 UNL     1       0.190  -0.152   1.240  1.00  0.00     0.232 C 
HETATM    3  O3  UNL     1      -0.310   0.113   2.363  1.00  0.00    -0.272 OA
HETATM    4  N1  UNL     1       1.543  -0.617   1.072  1.00  0.00    -0.336 N 
ATOM      5  H1  UNL     1       2.035  -1.283   1.668  1.00  0.00     0.164 HD
HETATM    6  C11 UNL     1       2.075   0.045  -0.111  1.00  0.00     0.183 C 
HETATM    7  C15 UNL     1       0.884   0.140  -0.991  1.00  0.00     0.180 C 
ENDROOT
BRANCH   1   8
HETATM    8  C3  UNL     1      -1.246   1.131  -0.314  1.00  0.00     0.200 C 
BRANCH   8   9
HETATM    9  O2  UNL     1      -0.559   2.312   0.148  1.00  0.00    -0.320 OA
BRANCH   9  10
HETATM   10  C2  UNL     1      -1.207   3.535   0.060  1.00  0.00     0.254 C 
HETATM   11  C1  UNL     1      -0.594   4.817   0.506  1.00  0.00     0.126 C 
HETATM   12  O1  UNL     1      -2.369   3.543  -0.423  1.00  0.00    -0.266 OA
ENDBRANCH   9  10
ENDBRANCH   8   9
ENDBRANCH   1   8
BRANCH   1  13
HETATM   13  C5  UNL     1      -1.011  -1.302  -0.602  1.00  0.00     0.034 C 
BRANCH  13  14
HETATM   14  C6  UNL     1      -2.244  -1.891  -0.126  1.00  0.00    -0.034 C 
HETATM   15  C7  UNL     1      -2.381  -3.190  -1.003  1.00  0.00     0.016 C 
HETATM   16  C8  UNL     1      -2.147  -2.491   1.288  1.00  0.00     0.016 C 
BRANCH  14  17
HETATM   17  C9  UNL     1      -3.557  -1.261  -0.310  1.00  0.00     0.123 C 
HETATM   18 CL1  UNL     1      -3.953  -0.991  -2.044  1.00  0.00    -0.130 Cl
ENDBRANCH  14  17
ENDBRANCH  13  14
ENDBRANCH   1  13
BRANCH   7  19
HETATM   19  O6  UNL     1       0.875   1.399  -1.578  1.00  0.00    -0.391 OA
ATOM     20  H6  UNL     1       1.651   1.537  -2.108  1.00  0.00     0.210 HD
ENDBRANCH   7  19
BRANCH   6  21
HETATM   21  C12 UNL     1       2.520   1.405   0.363  1.00  0.00     0.208 C 
HETATM   22  O4  UNL     1       2.428   1.757   1.565  1.00  0.00    -0.646 OA
HETATM   23  O5  UNL     1       3.053   2.330  -0.527  1.00  0.00    -0.646 OA
ENDBRANCH   6  21
BRANCH   6  24
HETATM   24  C13 UNL     1       3.242  -0.693  -0.723  1.00  0.00     0.147 C 
HETATM   25  C14 UNL     1       4.395  -0.823   0.248  1.00  0.00     0.053 C 
HETATM   26 CL2  UNL     1       3.846   0.199  -2.138  1.00  0.00    -0.099 Cl
HETATM   27 CL3  UNL     1       2.805  -2.330  -1.228  1.00  0.00    -0.099 Cl
ENDBRANCH   6  24
TORSDOF 9
