REMARK  11 active torsions:
REMARK  status: ('A' for Active; 'I' for Inactive)
REMARK    1  A    between atoms: C2_2  and  C4_4 
REMARK    2  A    between atoms: C4_4  and  O1_5 
REMARK    3  A    between atoms: C4_4  and  C5_7 
REMARK    4  A    between atoms: C4_4  and  C18_29 
REMARK    5  A    between atoms: C5_7  and  N1_8 
REMARK    6  A    between atoms: C5_7  and  C11_17 
REMARK       I    between atoms: N1_8  and  C6_10 
REMARK    7  A    between atoms: C6_10  and  O3_12 
REMARK    8  A    between atoms: O3_12  and  C7_13 
REMARK       I    between atoms: C11_17  and  N2_19 
REMARK    9  A    between atoms: N2_19  and  C12_21 
REMARK   10  A    between atoms: C12_21  and  C13_22 
REMARK   11  A    between atoms: C13_22  and  N3_23 
ROOT
HETATM    1  C5  UNL     1      -0.971  -1.313  -0.236  1.00  0.00     0.126 C 
ENDROOT
BRANCH   1   2
HETATM    2  C4  UNL     1      -1.060  -2.725  -0.546  1.00  0.00     0.206 C 
BRANCH   2   3
HETATM    3  C2  UNL     1      -2.133  -3.469   0.208  1.00  0.00     0.027 C 
HETATM    4  C1  UNL     1      -3.558  -3.111  -0.080  1.00  0.00     0.013 C 
HETATM    5  C3  UNL     1      -2.030  -4.929   0.371  1.00  0.00     0.013 C 
ENDBRANCH   2   3
BRANCH   2   6
HETATM    6  O1  UNL     1      -1.292  -2.934  -1.904  1.00  0.00    -0.375 OA
ATOM      7  H1  UNL     1      -0.616  -2.465  -2.379  1.00  0.00     0.211 HD
ENDBRANCH   2   6
BRANCH   2   8
HETATM    8  C18 UNL     1       0.261  -3.497  -0.387  1.00  0.00     0.424 C 
HETATM    9  F1  UNL     1       0.047  -4.764  -0.931  1.00  0.00    -0.167 F 
HETATM   10  F2  UNL     1       1.186  -2.963  -1.248  1.00  0.00    -0.167 F 
HETATM   11  F3  UNL     1       0.758  -3.572   0.852  1.00  0.00    -0.167 F 
ENDBRANCH   2   8
ENDBRANCH   1   2
BRANCH   1  12
HETATM   12  N1  UNL     1      -2.012  -0.358  -0.558  1.00  0.00    -0.298 N 
HETATM   13  C6  UNL     1      -2.521   0.657   0.280  1.00  0.00     0.365 C 
HETATM   14  O2  UNL     1      -2.195   0.803   1.436  1.00  0.00    -0.238 OA
ATOM     15  H1  UNL     1      -2.421  -0.427  -1.490  1.00  0.00     0.171 HD
BRANCH  13  16
HETATM   16  O3  UNL     1      -3.443   1.544  -0.307  1.00  0.00    -0.294 OA
BRANCH  16  17
HETATM   17  C7  UNL     1      -4.059   2.624   0.240  1.00  0.00     0.061 C 
HETATM   18  C8  UNL     1      -3.097   3.688   0.798  1.00  0.00     0.046 C 
HETATM   19  C9  UNL     1      -4.656   3.389  -1.000  1.00  0.00     0.046 C 
HETATM   20  C10 UNL     1      -5.194   2.486   1.177  1.00  0.00     0.046 C 
ENDBRANCH  16  17
ENDBRANCH  13  16
ENDBRANCH   1  12
BRANCH   1  21
HETATM   21  C11 UNL     1       0.297  -0.558  -0.011  1.00  0.00     0.267 C 
HETATM   22  O4  UNL     1       0.695  -0.205   1.127  1.00  0.00    -0.266 OA
HETATM   23  N2  UNL     1       1.112  -0.171  -1.090  1.00  0.00    -0.354 N 
ATOM     24  H2  UNL     1       0.786  -0.451  -2.015  1.00  0.00     0.162 HD
BRANCH  23  25
HETATM   25  C12 UNL     1       2.324   0.556  -1.059  1.00  0.00     0.153 C 
BRANCH  25  26
HETATM   26  C13 UNL     1       3.459  -0.054  -0.322  1.00  0.00     0.292 C 
BRANCH  26  27
HETATM   27  N3  UNL     1       4.674   0.749  -0.515  1.00  0.00     0.094 N 
HETATM   28  C14 UNL     1       4.517   2.069   0.084  1.00  0.00     0.298 C 
HETATM   29  C15 UNL     1       5.827   2.822  -0.021  1.00  0.00     0.198 C 
HETATM   30  O5  UNL     1       6.896   2.073   0.437  1.00  0.00    -0.388 OA
HETATM   31  C16 UNL     1       7.012   0.821  -0.132  1.00  0.00     0.198 C 
HETATM   32  C17 UNL     1       5.746   0.053   0.198  1.00  0.00     0.298 C 
ENDBRANCH  26  27
ENDBRANCH  25  26
ENDBRANCH  23  25
ENDBRANCH   1  21
TORSDOF 11
