REMARK  14 active torsions:
REMARK  status: ('A' for Active; 'I' for Inactive)
REMARK    1  A    between atoms: O1_2  and  C2_3 
REMARK    2  A    between atoms: C3_5  and  C4_6 
REMARK    3  A    between atoms: C11_13  and  O3_14 
REMARK    4  A    between atoms: C11_13  and  C12_16 
REMARK    5  A    between atoms: C12_16  and  O4_17 
REMARK    6  A    between atoms: C12_16  and  C13_19 
REMARK    7  A    between atoms: C13_19  and  C14_20 
REMARK    8  A    between atoms: C13_19  and  O8_40 
REMARK    9  A    between atoms: C14_20  and  C15_21 
REMARK   10  A    between atoms: C15_21  and  C16_22 
REMARK   11  A    between atoms: C16_22  and  O6_24 
REMARK   12  A    between atoms: O6_24  and  C17_25 
REMARK   13  A    between atoms: C17_25  and  C18_27 
REMARK   14  A    between atoms: O8_40  and  C31_41 
ROOT
HETATM    1  C13 UNL     1       1.493   0.356   0.168  1.00  0.00     0.161 C 
ENDROOT
BRANCH   1   2
HETATM    2  C12 UNL     1       2.909   0.729   0.196  1.00  0.00     0.183 C 
BRANCH   2   3
HETATM    3  C11 UNL     1       3.916   0.202  -0.720  1.00  0.00     0.102 C 
HETATM    4  C10 UNL     1       3.962  -1.295  -0.847  1.00  0.00     0.046 C 
HETATM    5  C9  UNL     1       4.943  -1.705   0.229  1.00  0.00     0.038 C 
HETATM    6  C8  UNL     1       6.049  -0.771  -0.219  1.00  0.00    -0.065 C 
HETATM    7  C7  UNL     1       7.311  -0.813  -0.494  1.00  0.00     0.009 C 
HETATM    8  C36 UNL     1       5.292   0.549  -0.328  1.00  0.00     0.063 C 
HETATM    9  C3  UNL     1       8.071   0.387  -0.925  1.00  0.00     0.151 C 
HETATM   10  O2  UNL     1       7.403   1.561  -0.616  1.00  0.00    -0.351 OA
HETATM   11  C2  UNL     1       6.072   1.507  -1.167  1.00  0.00     0.275 C 
HETATM   12  C37 UNL     1       5.424   1.089   1.095  1.00  0.00     0.028 C 
BRANCH   9  13
HETATM   13  C4  UNL     1       9.436   0.395  -0.341  1.00  0.00     0.010 C 
HETATM   14  C5  UNL     1       9.505   0.514   1.141  1.00  0.00     0.012 C 
HETATM   15  C6  UNL     1      10.237  -0.845  -0.722  1.00  0.00     0.012 C 
ENDBRANCH   9  13
BRANCH  11  16
HETATM   16  O1  UNL     1       6.144   1.282  -2.505  1.00  0.00    -0.365 OA
HETATM   17  C1  UNL     1       5.909   2.343  -3.334  1.00  0.00     0.204 C 
ENDBRANCH  11  16
BRANCH   3  18
HETATM   18  O3  UNL     1       3.582   0.657  -2.022  1.00  0.00    -0.386 OA
ATOM     19  H3  UNL     1       3.553   1.603  -1.942  1.00  0.00     0.210 HD
ENDBRANCH   3  18
ENDBRANCH   2   3
BRANCH   2  20
HETATM   20  O4  UNL     1       2.899   2.143   0.032  1.00  0.00    -0.390 OA
ATOM     21  H4  UNL     1       2.244   2.486   0.628  1.00  0.00     0.210 HD
ENDBRANCH   2  20
ENDBRANCH   1   2
BRANCH   1  22
HETATM   22  C14 UNL     1       0.695   0.891  -0.996  1.00  0.00     0.045 C 
BRANCH  22  23
HETATM   23  C15 UNL     1      -0.748   0.518  -1.011  1.00  0.00     0.114 C 
BRANCH  23  24
HETATM   24  C16 UNL     1      -1.565   0.994   0.100  1.00  0.00     0.266 C 
HETATM   25  O5  UNL     1      -1.128   1.737   1.003  1.00  0.00    -0.265 OA
BRANCH  24  26
HETATM   26  O6  UNL     1      -2.925   0.644   0.236  1.00  0.00    -0.244 OA
BRANCH  26  27
HETATM   27  C17 UNL     1      -3.689   1.100   1.295  1.00  0.00     0.274 C 
HETATM   28  O7  UNL     1      -3.130   1.840   2.139  1.00  0.00    -0.264 OA
BRANCH  27  29
HETATM   29  C18 UNL     1      -5.120   0.756   1.471  1.00  0.00     0.109 C 
HETATM   30  C19 UNL     1      -5.215  -0.724   1.570  1.00  0.00    -0.015 C 
HETATM   31  C20 UNL     1      -6.400  -1.277   1.375  1.00  0.00    -0.020 C 
HETATM   32  C21 UNL     1      -7.545  -0.386   1.074  1.00  0.00    -0.023 C 
HETATM   33  C22 UNL     1      -7.968   0.266   2.397  1.00  0.00     0.020 C 
HETATM   34  C23 UNL     1      -8.699  -1.281   0.688  1.00  0.00     0.014 C 
HETATM   35  C29 UNL     1      -7.237   0.670   0.099  1.00  0.00     0.002 C 
HETATM   36  C24 UNL     1      -8.455  -1.795  -0.698  1.00  0.00     0.005 C 
HETATM   37  C25 UNL     1      -8.584  -0.577  -1.621  1.00  0.00    -0.014 C 
HETATM   38  C26 UNL     1      -8.506  -1.094  -3.035  1.00  0.00     0.010 C 
HETATM   39  C27 UNL     1      -7.430   0.321  -1.341  1.00  0.00    -0.010 C 
HETATM   40  C28 UNL     1      -7.665   1.622  -2.122  1.00  0.00     0.011 C 
HETATM   41  C30 UNL     1      -5.850   1.244   0.250  1.00  0.00     0.024 C 
ENDBRANCH  27  29
ENDBRANCH  26  27
ENDBRANCH  24  26
ENDBRANCH  23  24
ENDBRANCH  22  23
ENDBRANCH   1  22
BRANCH   1  42
HETATM   42  O8  UNL     1       1.169  -0.986   0.334  1.00  0.00    -0.340 OA
BRANCH  42  43
HETATM   43  C31 UNL     1       0.686  -1.655   1.409  1.00  0.00     0.107 A 
HETATM   44  C32 UNL     1       0.436  -1.119   2.650  1.00  0.00     0.041 A 
HETATM   45  C33 UNL     1      -0.066  -1.871   3.719  1.00  0.00     0.020 A 
HETATM   46  C34 UNL     1      -0.313  -3.206   3.494  1.00  0.00     0.089 A 
HETATM   47  N1  UNL     1      -0.071  -3.738   2.283  1.00  0.00    -0.354 N 
HETATM   48  C35 UNL     1       0.412  -3.022   1.248  1.00  0.00     0.137 A 
ATOM     49  H1  UNL     1      -0.262  -4.730   2.141  1.00  0.00     0.166 HD
HETATM   50 CL1  UNL     1       0.690  -3.797  -0.313  1.00  0.00    -0.061 Cl
ENDBRANCH  42  43
ENDBRANCH   1  42
TORSDOF 14
