REMARK  12 active torsions:
REMARK  status: ('A' for Active; 'I' for Inactive)
REMARK    1  A    between atoms: C2_2  and  C4_4 
REMARK    2  A    between atoms: C7_7  and  C8_8 
REMARK    3  A    between atoms: C8_8  and  N1_9 
REMARK    4  A    between atoms: C10_11  and  C11_12 
REMARK    5  A    between atoms: C13_17  and  O2_18 
REMARK    6  A    between atoms: O2_18  and  C14_19 
REMARK    7  A    between atoms: C14_19  and  O3_20 
REMARK    8  A    between atoms: C14_19  and  S1_33 
REMARK    9  A    between atoms: O3_20  and  C15_21 
REMARK   10  A    between atoms: C15_21  and  C16_23 
REMARK   11  A    between atoms: S1_33  and  C26_34 
REMARK   12  A    between atoms: C32_40  and  C33_41 
ROOT
HETATM    1  C11 UNL     1       1.707   0.649   0.889  1.00  0.00     0.154 C 
HETATM    2  N2  UNL     1       1.222  -0.702   0.884  1.00  0.00    -0.348 N 
ATOM      3  H2  UNL     1       1.805  -1.535   0.965  1.00  0.00     0.163 HD
HETATM    4  C12 UNL     1      -0.192  -0.704   0.750  1.00  0.00     0.248 C 
HETATM    5  O1  UNL     1      -1.006  -1.549   1.187  1.00  0.00    -0.271 OA
HETATM    6  C13 UNL     1      -0.494   0.526  -0.025  1.00  0.00     0.234 C 
HETATM    7  C32 UNL     1       0.585   1.480   0.397  1.00  0.00     0.153 C 
ENDROOT
BRANCH   6   8
HETATM    8  O2  UNL     1      -1.768   1.010   0.283  1.00  0.00    -0.336 OA
BRANCH   8   9
HETATM    9  C14 UNL     1      -2.585   0.976  -0.844  1.00  0.00     0.336 C 
BRANCH   9  10
HETATM   10  O3  UNL     1      -3.628   0.027  -0.585  1.00  0.00    -0.280 OA
BRANCH  10  11
HETATM   11  C15 UNL     1      -3.764  -1.127  -1.338  1.00  0.00     0.270 C 
HETATM   12  O4  UNL     1      -2.935  -1.314  -2.266  1.00  0.00    -0.264 OA
BRANCH  11  13
HETATM   13  C16 UNL     1      -4.851  -2.088  -1.039  1.00  0.00     0.049 C 
HETATM   14  C17 UNL     1      -6.216  -1.490  -1.170  1.00  0.00     0.024 C 
HETATM   15  C18 UNL     1      -7.245  -2.481  -0.722  1.00  0.00    -0.013 C 
HETATM   16  C19 UNL     1      -7.001  -2.864   0.722  1.00  0.00     0.009 C 
HETATM   17  C23 UNL     1      -7.169  -3.703  -1.619  1.00  0.00     0.009 C 
HETATM   18  C20 UNL     1      -5.664  -3.550   0.801  1.00  0.00    -0.013 C 
HETATM   19  C21 UNL     1      -5.557  -4.751  -0.100  1.00  0.00     0.009 C 
HETATM   20  C25 UNL     1      -4.616  -2.563   0.398  1.00  0.00     0.024 C 
HETATM   21  C22 UNL     1      -5.802  -4.300  -1.523  1.00  0.00    -0.013 C 
HETATM   22  C24 UNL     1      -4.743  -3.311  -1.911  1.00  0.00     0.024 C 
ENDBRANCH  11  13
ENDBRANCH  10  11
ENDBRANCH   9  10
BRANCH   9  23
HETATM   23  S1  UNL     1      -3.213   2.589  -1.313  1.00  0.00    -0.104 SA
BRANCH  23  24
HETATM   24  C26 UNL     1      -4.339   3.273  -0.067  1.00  0.00     0.052 C 
HETATM   25  C27 UNL     1      -4.795   4.636  -0.585  1.00  0.00     0.015 C 
HETATM   26  C28 UNL     1      -3.685   5.648  -0.409  1.00  0.00     0.001 C 
HETATM   27  C29 UNL     1      -3.612   6.018   1.055  1.00  0.00     0.000 C 
HETATM   28  C30 UNL     1      -4.077   4.833   1.862  1.00  0.00     0.001 C 
HETATM   29  C31 UNL     1      -3.626   3.534   1.237  1.00  0.00     0.015 C 
ENDBRANCH  23  24
ENDBRANCH   9  23
ENDBRANCH   8   9
ENDBRANCH   6   8
BRANCH   7  30
HETATM   30  C33 UNL     1       0.968   2.403  -0.695  1.00  0.00     0.182 C 
HETATM   31  O5  UNL     1       0.433   2.291  -1.810  1.00  0.00    -0.648 OA
HETATM   32  O6  UNL     1       1.910   3.373  -0.468  1.00  0.00    -0.648 OA
ENDBRANCH   7  30
BRANCH   1  33
HETATM   33  C10 UNL     1       2.937   0.778   0.051  1.00  0.00     0.068 A 
HETATM   34  C9  UNL     1       4.105   1.391   0.442  1.00  0.00     0.140 A 
HETATM   35  N1  UNL     1       4.970   1.310  -0.569  1.00  0.00    -0.283 N 
HETATM   36  N4  UNL     1       4.371   0.673  -1.556  1.00  0.00    -0.240 N 
HETATM   37  N3  UNL     1       3.141   0.342  -1.202  1.00  0.00    -0.287 N 
ATOM     38  H4  UNL     1       4.795   0.466  -2.460  1.00  0.00     0.208 HD
ATOM     39  H3  UNL     1       2.465  -0.157  -1.780  1.00  0.00     0.188 HD
BRANCH  35  40
HETATM   40  C8  UNL     1       6.349   1.842  -0.536  1.00  0.00     0.188 C 
BRANCH  40  41
HETATM   41  C7  UNL     1       7.208   0.725  -0.033  1.00  0.00    -0.037 A 
HETATM   42  C6  UNL     1       7.837  -0.076  -0.941  1.00  0.00     0.009 A 
HETATM   43  C5  UNL     1       8.622  -1.125  -0.537  1.00  0.00     0.010 A 
HETATM   44  C4  UNL     1       8.797  -1.401   0.802  1.00  0.00    -0.033 A 
HETATM   45  C35 UNL     1       8.150  -0.575   1.703  1.00  0.00     0.041 A 
HETATM   46  C34 UNL     1       7.359   0.482   1.308  1.00  0.00     0.033 A 
HETATM   47 CL1  UNL     1       8.334  -0.877   3.431  1.00  0.00    -0.084 Cl
BRANCH  44  48
HETATM   48  C2  UNL     1       9.630  -2.532   1.248  1.00  0.00     0.012 C 
HETATM   49  C1  UNL     1      10.237  -3.231   0.031  1.00  0.00     0.015 C 
HETATM   50  C3  UNL     1      10.668  -2.188   2.264  1.00  0.00     0.015 C 
ENDBRANCH  44  48
ENDBRANCH  40  41
ENDBRANCH  35  40
ENDBRANCH   1  33
TORSDOF 12
