REMARK  11 active torsions:
REMARK  status: ('A' for Active; 'I' for Inactive)
REMARK    1  A    between atoms: C15_17  and  C16_18 
REMARK    2  A    between atoms: C16_18  and  O3_19 
REMARK    3  A    between atoms: O3_19  and  C17_20 
REMARK    4  A    between atoms: C17_20  and  C19_23 
REMARK    5  A    between atoms: C19_23  and  N2_24 
REMARK    6  A    between atoms: N2_24  and  O4_25 
REMARK    7  A    between atoms: N2_24  and  C20_27 
REMARK    8  A    between atoms: C20_27  and  C21_28 
REMARK    9  A    between atoms: C24_31  and  O5_32 
REMARK   10  A    between atoms: N3_34  and  C25_35 
REMARK   11  A    between atoms: C25_35  and  C26_36 
ROOT
HETATM    1  C17 UNL     1       2.607  -0.841  -1.812  1.00  0.00     0.242 C 
HETATM    2  C18 UNL     1       2.552  -1.817  -2.951  1.00  0.00     0.092 C 
HETATM    3  N1  UNL     1       2.500  -2.555  -3.840  1.00  0.00    -0.194 NA
ENDROOT
BRANCH   1   4
HETATM    4  O3  UNL     1       1.541  -0.301  -1.491  1.00  0.00    -0.368 OA
BRANCH   4   5
HETATM    5  C16 UNL     1       0.470   0.241  -1.167  1.00  0.00     0.201 C 
BRANCH   5   6
HETATM    6  C15 UNL     1      -0.730  -0.692  -0.844  1.00  0.00     0.149 C 
HETATM    7  O2  UNL     1      -0.441  -1.511   0.208  1.00  0.00    -0.354 OA
HETATM    8  C14 UNL     1      -1.124  -2.699   0.278  1.00  0.00     0.261 C 
HETATM    9  C13 UNL     1      -1.718  -2.727   1.703  1.00  0.00     0.064 C 
HETATM   10  O6  UNL     1      -2.331  -2.723  -0.425  1.00  0.00    -0.349 OA
HETATM   11  C12 UNL     1      -2.613  -1.482   1.503  1.00  0.00     0.044 C 
HETATM   12  C11 UNL     1      -3.132  -1.746   0.131  1.00  0.00     0.072 C 
HETATM   13  C10 UNL     1      -4.589  -2.183   0.309  1.00  0.00     0.046 C 
HETATM   14  C33 UNL     1      -3.133  -0.588  -0.826  1.00  0.00    -0.003 C 
HETATM   15  C8  UNL     1      -5.338  -1.160  -0.476  1.00  0.00     0.021 C 
HETATM   16  C6  UNL     1      -4.469   0.059  -0.562  1.00  0.00    -0.028 C 
HETATM   17  C9  UNL     1      -6.759  -0.962  -0.148  1.00  0.00     0.173 C 
HETATM   18  C5  UNL     1      -4.517   1.041   0.504  1.00  0.00     0.010 C 
HETATM   19  C7  UNL     1      -4.854   0.764  -1.878  1.00  0.00     0.016 C 
HETATM   20  C4  UNL     1      -5.596   1.015   1.524  1.00  0.00     0.003 C 
HETATM   21  C3  UNL     1      -6.953   1.447   1.047  1.00  0.00     0.031 C 
HETATM   22  C2  UNL     1      -7.902   0.275   1.309  1.00  0.00     0.117 C 
HETATM   23  C1  UNL     1      -9.000   0.343   0.290  1.00  0.00     0.039 C 
HETATM   24  O1  UNL     1      -7.123  -0.898   1.167  1.00  0.00    -0.386 OA
HETATM   25  C32 UNL     1      -1.919   0.226  -0.641  1.00  0.00     0.047 C 
HETATM   26  C34 UNL     1      -3.050  -1.129  -2.251  1.00  0.00     0.019 C 
ENDBRANCH   5   6
ENDBRANCH   4   5
ENDBRANCH   1   4
BRANCH   1  27
HETATM   27  C19 UNL     1       3.834   0.021  -2.118  1.00  0.00     0.167 C 
BRANCH  27  28
HETATM   28  N2  UNL     1       4.261   0.827  -1.018  1.00  0.00    -0.191 NA
BRANCH  28  29
HETATM   29  O4  UNL     1       3.296   1.663  -0.560  1.00  0.00    -0.313 OA
ATOM     30  H4  UNL     1       3.580   2.199   0.171  1.00  0.00     0.237 HD
ENDBRANCH  28  29
BRANCH  28  31
HETATM   31  C20 UNL     1       5.434   1.617  -1.446  1.00  0.00     0.177 C 
BRANCH  31  32
HETATM   32  C21 UNL     1       5.925   2.452  -0.349  1.00  0.00     0.029 A 
HETATM   33  C22 UNL     1       5.216   3.551   0.161  1.00  0.00     0.031 A 
HETATM   34  C23 UNL     1       6.012   4.079   1.154  1.00  0.00     0.058 A 
HETATM   35  C24 UNL     1       7.142   3.310   1.217  1.00  0.00     0.142 A 
HETATM   36  N3  UNL     1       7.084   2.312   0.291  1.00  0.00    -0.326 N 
BRANCH  35  37
HETATM   37  O5  UNL     1       8.166   3.567   2.119  1.00  0.00    -0.346 OA
ATOM     38  H5  UNL     1       8.951   3.033   2.163  1.00  0.00     0.219 HD
ENDBRANCH  35  37
BRANCH  36  39
HETATM   39  C25 UNL     1       8.106   1.337   0.105  1.00  0.00     0.169 C 
BRANCH  39  40
HETATM   40  C26 UNL     1       8.030   0.132   0.916  1.00  0.00    -0.040 A 
HETATM   41  C27 UNL     1       8.598   0.039   2.166  1.00  0.00     0.010 A 
HETATM   42  C28 UNL     1       8.521  -1.115   2.916  1.00  0.00     0.019 A 
HETATM   43  C29 UNL     1       7.861  -2.216   2.419  1.00  0.00     0.011 A 
HETATM   44 BR1  UNL     1       7.749  -3.837   3.461  1.00  0.00    -0.051 Br
HETATM   45  C30 UNL     1       7.282  -2.153   1.172  1.00  0.00     0.019 A 
HETATM   46  C31 UNL     1       7.383  -0.987   0.460  1.00  0.00     0.010 A 
ENDBRANCH  39  40
ENDBRANCH  36  39
ENDBRANCH  31  32
ENDBRANCH  28  31
ENDBRANCH  27  28
ENDBRANCH   1  27
TORSDOF 11
