REMARK  3 active torsions:
REMARK  status: ('A' for Active; 'I' for Inactive)
REMARK       I    between atoms: C1_2  and  N1_3 
REMARK    1  A    between atoms: C1_2  and  C8_16 
REMARK    2  A    between atoms: N1_3  and  C2_5 
REMARK    3  A    between atoms: C3_10  and  C4_11 
ROOT
HETATM    1  C2  UNL     1       1.163  -0.452  -0.234  1.00  0.00     0.167 A 
HETATM    2  N2  UNL     1       1.935   0.618  -0.322  1.00  0.00    -0.279 N 
ATOM      3  H2  UNL     1       1.527   1.529  -0.531  1.00  0.00     0.189 HD
HETATM    4  N3  UNL     1       3.192   0.503  -0.144  1.00  0.00    -0.296 N 
ATOM      5  H3  UNL     1       3.793   1.324  -0.211  1.00  0.00     0.187 HD
HETATM    6  C3  UNL     1       3.719  -0.681   0.128  1.00  0.00     0.074 A 
HETATM    7  S1  UNL     1       2.317  -1.667   0.122  1.00  0.00    -0.037 SA
ENDROOT
BRANCH   1   8
HETATM    8  N1  UNL     1      -0.086  -0.667  -0.354  1.00  0.00    -0.306 N 
HETATM    9  C1  UNL     1      -1.096   0.239  -0.638  1.00  0.00     0.227 C 
HETATM   10  O1  UNL     1      -0.877   1.149  -1.480  1.00  0.00    -0.273 OA
ATOM     11  H1  UNL     1      -0.383  -1.634  -0.224  1.00  0.00     0.171 HD
BRANCH   9  12
HETATM   12  C8  UNL     1      -2.453   0.145   0.051  1.00  0.00     0.079 C 
HETATM   13  C9  UNL     1      -2.920  -1.233  -0.374  1.00  0.00     0.025 C 
HETATM   14  C10 UNL     1      -4.354  -1.565   0.162  1.00  0.00     0.081 C 
HETATM   15  C11 UNL     1      -4.900  -0.342   0.584  1.00  0.00    -0.183 C 
HETATM   16  C12 UNL     1      -5.402   0.912   0.951  1.00  0.00     0.080 C 
HETATM   17  C13 UNL     1      -4.225   1.928   0.730  1.00  0.00     0.012 C 
HETATM   18  C14 UNL     1      -3.177   1.354  -0.233  1.00  0.00     0.015 C 
ENDBRANCH   9  12
ENDBRANCH   1   8
BRANCH   6  19
HETATM   19  C4  UNL     1       5.125  -1.114   0.380  1.00  0.00     0.044 A 
HETATM   20  C5  UNL     1       5.891  -0.247   1.336  1.00  0.00     0.011 A 
HETATM   21  C6  UNL     1       6.743   0.216   0.168  1.00  0.00     0.002 A 
HETATM   22  C7  UNL     1       5.999  -0.667  -0.781  1.00  0.00     0.011 A 
ENDBRANCH   6  19
TORSDOF 3
