REMARK  2 active torsions:
REMARK  status: ('A' for Active; 'I' for Inactive)
REMARK    1  A    between atoms: C2_2  and  C3_3 
REMARK    2  A    between atoms: C8_9  and  O2_10 
ROOT
HETATM    1  C3  UNL     1      -2.438   0.538   0.918  1.00  0.00     0.016 C 
HETATM    2  C4  UNL     1      -1.102   0.942   1.410  1.00  0.00     0.010 C 
HETATM    3  C5  UNL     1      -0.019   1.145   0.435  1.00  0.00     0.041 C 
HETATM    4  C6  UNL     1       0.713  -0.141   0.048  1.00  0.00     0.093 C 
HETATM    5  O1  UNL     1      -0.179  -1.170  -0.209  1.00  0.00    -0.375 OA
HETATM    6  C7  UNL     1      -1.293  -0.778  -0.922  1.00  0.00     0.201 C 
HETATM    7  C8  UNL     1      -2.445  -0.667   0.048  1.00  0.00     0.148 C 
HETATM    8  C10 UNL     1       1.573   0.146  -1.163  1.00  0.00     0.025 C 
HETATM    9  C11 UNL     1       2.661   1.129  -0.813  1.00  0.00     0.012 C 
HETATM   10  C12 UNL     1       3.504   0.579   0.310  1.00  0.00    -0.010 C 
HETATM   11  C13 UNL     1       4.115  -0.722  -0.199  1.00  0.00     0.037 C 
HETATM   12  C14 UNL     1       3.004  -1.698  -0.470  1.00  0.00     0.187 C 
HETATM   13  C15 UNL     1       2.185  -1.152  -1.641  1.00  0.00     0.040 C 
HETATM   14  N1  UNL     1       2.171  -1.904   0.679  1.00  0.00    -0.064 N 
ATOM     15  H11 UNL     1       2.681  -2.383   1.421  1.00  0.00     0.278 HD
ATOM     16  H12 UNL     1       1.455  -2.606   0.492  1.00  0.00     0.278 HD
HETATM   17  C16 UNL     1       1.577  -0.665   1.166  1.00  0.00     0.221 C 
HETATM   18  C17 UNL     1       2.704   0.252   1.535  1.00  0.00     0.041 C 
ENDROOT
BRANCH   1  19
HETATM   19  C2  UNL     1      -3.313   1.664   0.465  1.00  0.00     0.002 C 
HETATM   20  C1  UNL     1      -2.835   2.516  -0.642  1.00  0.00     0.005 C 
ENDBRANCH   1  19
BRANCH   7  21
HETATM   21  O2  UNL     1      -3.660  -0.867  -0.577  1.00  0.00    -0.388 OA
HETATM   22  C9  UNL     1      -4.286  -2.060  -0.177  1.00  0.00     0.202 C 
ENDBRANCH   7  21
TORSDOF 2
