REMARK  2 active torsions:
REMARK  status: ('A' for Active; 'I' for Inactive)
REMARK    1  A    between atoms: S1_2  and  C2_4 
REMARK    2  A    between atoms: C3_5  and  C4_6 
ROOT
HETATM    1  C2  UNL     1      -0.844   0.516  -0.120  1.00  0.00     0.052 A 
HETATM    2  C3  UNL     1       0.402   0.322   0.417  1.00  0.00     0.007 A 
HETATM    3  S2  UNL     1       0.150  -0.921   1.553  1.00  0.00    -0.095 SA
HETATM    4  C10 UNL     1      -1.515  -1.172   1.328  1.00  0.00     0.016 A 
HETATM    5  C11 UNL     1      -1.841  -0.260   0.355  1.00  0.00    -0.022 A 
HETATM    6  C12 UNL     1      -3.329  -0.312   0.031  1.00  0.00     0.068 C 
HETATM    7  C13 UNL     1      -3.605  -1.767  -0.269  1.00  0.00     0.237 C 
HETATM    8  N1  UNL     1      -3.464  -2.599   0.898  1.00  0.00    -0.070 N 
ATOM      9  H11 UNL     1      -3.181  -3.541   0.629  1.00  0.00     0.277 HD
ATOM     10  H12 UNL     1      -4.378  -2.799   1.304  1.00  0.00     0.277 HD
HETATM   11  C14 UNL     1      -2.581  -2.081   1.895  1.00  0.00     0.279 C 
ENDROOT
BRANCH   2  12
HETATM   12  C4  UNL     1       1.685   1.035   0.039  1.00  0.00     0.027 C 
HETATM   13  C5  UNL     1       2.686   0.800   1.105  1.00  0.00     0.010 C 
HETATM   14  C6  UNL     1       4.032   0.342   0.595  1.00  0.00     0.001 C 
HETATM   15  C7  UNL     1       3.719  -0.951  -0.161  1.00  0.00     0.000 C 
HETATM   16  C8  UNL     1       3.060  -0.526  -1.429  1.00  0.00     0.001 C 
HETATM   17  C9  UNL     1       2.085   0.588  -1.329  1.00  0.00     0.010 C 
ENDBRANCH   2  12
BRANCH   1  18
HETATM   18  S1  UNL     1      -1.100   1.763  -1.372  1.00  0.00     0.047 S 
HETATM   19  C1  UNL     1      -1.764   3.238  -0.599  1.00  0.00     0.133 C 
HETATM   20  O1  UNL     1      -2.164   1.272  -2.545  1.00  0.00    -0.253 OA
ENDBRANCH   1  18
TORSDOF 2
