REMARK  3 active torsions:
REMARK  status: ('A' for Active; 'I' for Inactive)
REMARK    1  A    between atoms: C2_2  and  C3_3 
REMARK    2  A    between atoms: C3_3  and  C4_4 
REMARK    3  A    between atoms: C13_15  and  O3_16 
ROOT
HETATM    1  C4  UNL     1       1.177   0.641   0.423  1.00  0.00     0.169 C 
HETATM    2  C5  UNL     1       0.560   0.636  -0.916  1.00  0.00     0.040 C 
HETATM    3  C6  UNL     1      -0.783   1.321  -1.034  1.00  0.00    -0.011 C 
HETATM    4  C7  UNL     1      -1.780   0.405  -1.652  1.00  0.00     0.009 C 
HETATM    5  C8  UNL     1      -3.097   0.199  -1.031  1.00  0.00    -0.013 C 
HETATM    6  C9  UNL     1      -3.411   1.156   0.113  1.00  0.00     0.012 C 
HETATM    7  C10 UNL     1      -2.146   1.039   0.932  1.00  0.00     0.027 C 
HETATM    8  C11 UNL     1      -1.230   2.028   0.193  1.00  0.00     0.012 C 
HETATM    9  C12 UNL     1      -1.467  -0.207   1.051  1.00  0.00     0.132 A 
HETATM   10  O1  UNL     1      -0.467   0.167   1.938  1.00  0.00    -0.226 OA
HETATM   11  O2  UNL     1       0.671  -0.164   1.378  1.00  0.00    -0.234 OA
HETATM   12  C13 UNL     1      -1.295  -1.618   0.982  1.00  0.00     0.163 A 
HETATM   13  C14 UNL     1      -2.595  -1.113   1.066  1.00  0.00     0.059 A 
HETATM   14  C15 UNL     1      -3.277  -1.134  -0.317  1.00  0.00     0.015 C 
ENDROOT
BRANCH   1  15
HETATM   15  C3  UNL     1       2.624   0.107   0.193  1.00  0.00    -0.011 A 
HETATM   16  C16 UNL     1       3.610   1.120  -0.328  1.00  0.00     0.013 A 
HETATM   17  C17 UNL     1       3.695   0.583   1.066  1.00  0.00     0.013 A 
BRANCH  15  18
HETATM   18  C2  UNL     1       2.709  -1.274  -0.365  1.00  0.00     0.007 C 
HETATM   19  C1  UNL     1       4.126  -1.724  -0.549  1.00  0.00     0.006 C 
ENDBRANCH  15  18
ENDBRANCH   1  15
BRANCH  12  20
HETATM   20  O3  UNL     1      -0.932  -2.460   2.070  1.00  0.00    -0.392 OA
ATOM     21  H3  UNL     1      -0.817  -3.402   2.024  1.00  0.00     0.210 HD
ENDBRANCH  12  20
TORSDOF 3
