REMARK  3 active torsions:
REMARK  status: ('A' for Active; 'I' for Inactive)
REMARK    1  A    between atoms: O1_2  and  C2_3 
REMARK       I    between atoms: C2_3  and  N1_5 
REMARK    2  A    between atoms: N1_5  and  C3_7 
REMARK    3  A    between atoms: C9_13  and  S1_14 
ROOT
HETATM    1  C3  UNL     1       0.543   0.154   0.128  1.00  0.00     0.046 C 
HETATM    2  C4  UNL     1       0.396   0.993  -1.092  1.00  0.00     0.036 C 
HETATM    3  C5  UNL     1      -0.954   1.666  -0.979  1.00  0.00    -0.010 C 
HETATM    4  C6  UNL     1      -0.865   2.098   0.484  1.00  0.00     0.012 C 
HETATM    5  C7  UNL     1      -0.495   0.758   1.092  1.00  0.00     0.016 C 
HETATM    6  C8  UNL     1      -1.778  -0.008   1.159  1.00  0.00     0.027 C 
HETATM    7  C9  UNL     1      -2.071  -0.483  -0.248  1.00  0.00     0.009 C 
HETATM    8  C11 UNL     1      -1.997   0.635  -1.241  1.00  0.00     0.025 C 
HETATM    9  C12 UNL     1      -1.099  -1.600  -0.516  1.00  0.00     0.031 C 
HETATM   10  C13 UNL     1       0.307  -1.295  -0.004  1.00  0.00    -0.020 C 
HETATM   11  C14 UNL     1       0.514  -1.916   1.393  1.00  0.00     0.017 C 
HETATM   12  C15 UNL     1       1.223  -2.058  -0.901  1.00  0.00     0.017 C 
ENDROOT
BRANCH   1  13
HETATM   13  N1  UNL     1       1.841   0.438   0.710  1.00  0.00    -0.327 N 
HETATM   14  C2  UNL     1       3.087   0.422   0.061  1.00  0.00     0.360 C 
HETATM   15  O2  UNL     1       3.283   0.170  -1.156  1.00  0.00    -0.239 OA
ATOM     16  H1  UNL     1       1.850   0.676   1.702  1.00  0.00     0.165 HD
BRANCH  14  17
HETATM   17  O1  UNL     1       4.283   0.706   0.765  1.00  0.00    -0.309 OA
HETATM   18  C1  UNL     1       5.536   0.692   0.114  1.00  0.00     0.215 C 
ENDBRANCH  14  17
ENDBRANCH   1  13
BRANCH   7  19
HETATM   19  S1  UNL     1      -3.782  -1.103  -0.265  1.00  0.00    -0.163 SA
HETATM   20  C10 UNL     1      -4.873   0.331   0.026  1.00  0.00     0.090 C 
ENDBRANCH   7  19
TORSDOF 3
