REMARK  3 active torsions:
REMARK  status: ('A' for Active; 'I' for Inactive)
REMARK    1  A    between atoms: C2_2  and  C3_3 
REMARK    2  A    between atoms: C9_9  and  O1_11 
REMARK    3  A    between atoms: C13_16  and  O3_17 
ROOT
HETATM    1  C3  UNL     1      -0.718   1.153  -0.600  1.00  0.00     0.007 C 
HETATM    2  C4  UNL     1      -1.424   1.200   0.716  1.00  0.00     0.021 C 
HETATM    3  C5  UNL     1      -0.482   0.551   1.701  1.00  0.00    -0.002 C 
HETATM    4  C6  UNL     1      -0.937  -0.753   2.210  1.00  0.00     0.005 C 
HETATM    5  C7  UNL     1      -1.963  -1.500   1.451  1.00  0.00     0.004 C 
HETATM    6  C8  UNL     1      -1.645  -2.059   0.135  1.00  0.00     0.040 C 
HETATM    7  C9  UNL     1      -1.548  -1.190  -1.042  1.00  0.00     0.081 C 
HETATM    8  C10 UNL     1      -1.438  -2.158  -2.244  1.00  0.00     0.049 C 
HETATM    9  C11 UNL     1      -0.462  -0.210  -1.166  1.00  0.00     0.168 C 
HETATM   10  O2  UNL     1       0.822  -0.704  -0.943  1.00  0.00    -0.373 OA
HETATM   11  C12 UNL     1       1.290  -0.668   0.312  1.00  0.00     0.160 C 
HETATM   12  C13 UNL     1       2.693  -0.232   0.612  1.00  0.00     0.151 C 
HETATM   13  C15 UNL     1       2.090   0.664   1.708  1.00  0.00     0.047 C 
HETATM   14  C16 UNL     1       0.819   0.582   0.979  1.00  0.00    -0.005 C 
HETATM   15  C17 UNL     1       0.659   1.650  -0.114  1.00  0.00     0.028 C 
ENDROOT
BRANCH   7  16
HETATM   16  O1  UNL     1      -2.760  -0.517  -1.281  1.00  0.00    -0.388 OA
ATOM     17  H1  UNL     1      -2.697   0.046  -2.044  1.00  0.00     0.210 HD
ENDBRANCH   7  16
BRANCH   1  18
HETATM   18  C2  UNL     1      -1.353   2.085  -1.534  1.00  0.00    -0.025 C 
HETATM   19  C1  UNL     1      -1.394   3.368  -1.273  1.00  0.00     0.008 C 
ENDBRANCH   1  18
BRANCH  12  20
HETATM   20  O3  UNL     1       3.414   0.395  -0.348  1.00  0.00    -0.388 OA
HETATM   21  C14 UNL     1       4.734  -0.051  -0.411  1.00  0.00     0.202 C 
ENDBRANCH  12  20
TORSDOF 3
