REMARK  6 active torsions:
REMARK  status: ('A' for Active; 'I' for Inactive)
REMARK    1  A    between atoms: C2_2  and  C3_3 
REMARK    2  A    between atoms: C3_3  and  C5_5 
REMARK    3  A    between atoms: C7_10  and  C8_11 
REMARK    4  A    between atoms: C8_11  and  S1_12 
REMARK    5  A    between atoms: C18_27  and  C19_28 
REMARK    6  A    between atoms: C19_28  and  N3_29 
ROOT
HETATM    1  C5  UNL     1       0.205  -2.109  -0.208  1.00  0.00     0.180 C 
HETATM    2  N1  UNL     1       1.285  -1.718  -1.051  1.00  0.00    -0.346 N 
ATOM      3  H1  UNL     1       1.106  -1.886  -2.041  1.00  0.00     0.163 HD
HETATM    4  C6  UNL     1       2.529  -1.157  -0.806  1.00  0.00     0.241 C 
HETATM    5  O1  UNL     1       3.565  -1.820  -1.193  1.00  0.00    -0.271 OA
HETATM    6  C7  UNL     1       2.918   0.115  -0.157  1.00  0.00     0.185 C 
HETATM    7  N2  UNL     1       3.409   1.088  -1.130  1.00  0.00    -0.347 N 
ATOM      8  H2  UNL     1       4.055   0.776  -1.855  1.00  0.00     0.163 HD
HETATM    9  C10 UNL     1       3.018   2.454  -1.103  1.00  0.00     0.218 C 
HETATM   10  O2  UNL     1       3.734   3.353  -1.621  1.00  0.00    -0.274 OA
HETATM   11  C11 UNL     1       1.735   2.781  -0.441  1.00  0.00     0.103 C 
HETATM   12  C12 UNL     1       1.361   4.230  -0.625  1.00  0.00     0.009 C 
HETATM   13  C13 UNL     1      -0.094   4.435  -0.256  1.00  0.00     0.002 C 
HETATM   14  C14 UNL     1      -0.493   3.523   0.866  1.00  0.00     0.020 C 
HETATM   15  C15 UNL     1      -1.982   3.662   1.097  1.00  0.00     0.089 C 
HETATM   16 CL1  UNL     1      -2.305   3.712   2.832  1.00  0.00    -0.125 Cl
HETATM   17  C16 UNL     1      -2.727   2.513   0.472  1.00  0.00     0.101 C 
HETATM   18  C17 UNL     1      -2.440   1.281   1.194  1.00  0.00     0.152 C 
HETATM   19  O3  UNL     1      -2.600   1.235   2.403  1.00  0.00    -0.296 OA
HETATM   20  C18 UNL     1      -1.942  -0.001   0.581  1.00  0.00     0.182 C 
HETATM   21  N4  UNL     1      -0.986  -0.588   1.488  1.00  0.00    -0.346 N 
ATOM     22  H4  UNL     1      -1.099  -0.392   2.483  1.00  0.00     0.163 HD
HETATM   23  C22 UNL     1       0.104  -1.421   1.102  1.00  0.00     0.241 C 
HETATM   24  O4  UNL     1       1.008  -1.538   1.985  1.00  0.00    -0.271 OA
ENDROOT
BRANCH   1  25
HETATM   25  C3  UNL     1       0.060  -3.602  -0.045  1.00  0.00     0.013 C 
HETATM   26  C4  UNL     1       1.310  -4.230   0.573  1.00  0.00     0.012 C 
BRANCH  25  27
HETATM   27  C2  UNL     1      -0.178  -4.352  -1.310  1.00  0.00     0.002 C 
HETATM   28  C1  UNL     1      -1.375  -3.901  -2.103  1.00  0.00     0.005 C 
ENDBRANCH  25  27
ENDBRANCH   1  25
BRANCH   6  29
HETATM   29  C8  UNL     1       4.112  -0.149   0.760  1.00  0.00     0.108 C 
BRANCH  29  30
HETATM   30  S1  UNL     1       4.684   1.312   1.611  1.00  0.00    -0.171 SA
HETATM   31  C9  UNL     1       6.102   0.796   2.651  1.00  0.00     0.089 C 
ENDBRANCH  29  30
ENDBRANCH   6  29
BRANCH  20  32
HETATM   32  C19 UNL     1      -3.194  -0.868   0.460  1.00  0.00     0.304 C 
BRANCH  32  33
HETATM   33  N3  UNL     1      -4.187  -0.236  -0.389  1.00  0.00     0.082 N 
HETATM   34  C20 UNL     1      -3.742  -0.204  -1.791  1.00  0.00     0.309 C 
HETATM   35  C21 UNL     1      -5.434  -0.963  -0.394  1.00  0.00     0.309 C 
ENDBRANCH  32  33
ENDBRANCH  20  32
TORSDOF 6
