REMARK  7 active torsions:
REMARK  status: ('A' for Active; 'I' for Inactive)
REMARK    1  A    between atoms: C6_9  and  C7_10 
REMARK    2  A    between atoms: C7_10  and  C8_11 
REMARK    3  A    between atoms: C8_11  and  O2_12 
REMARK    4  A    between atoms: C8_11  and  C9_14 
REMARK    5  A    between atoms: C9_14  and  C10_15 
REMARK    6  A    between atoms: C16_23  and  C17_24 
REMARK    7  A    between atoms: C17_24  and  S1_25 
ROOT
HETATM    1  C1  UNL     1      -4.364   4.754   0.866  1.00  0.00     0.015 C 
HETATM    2  C2  UNL     1      -3.744   3.795   0.474  1.00  0.00    -0.085 C 
HETATM    3  C3  UNL     1      -2.981   2.622  -0.036  1.00  0.00     0.105 C 
HETATM    4  C4  UNL     1      -3.162   2.600  -1.508  1.00  0.00     0.054 C 
HETATM    5  N1  UNL     1      -1.594   2.896   0.383  1.00  0.00    -0.336 N 
ATOM      6  H1  UNL     1      -1.297   3.856   0.555  1.00  0.00     0.164 HD
HETATM    7  C5  UNL     1      -0.642   1.798   0.553  1.00  0.00     0.249 C 
HETATM    8  O1  UNL     1       0.222   2.185   1.397  1.00  0.00    -0.268 OA
HETATM    9  C6  UNL     1      -0.678   0.531  -0.100  1.00  0.00     0.014 C 
HETATM   10  C16 UNL     1      -1.702  -0.433   0.593  1.00  0.00     0.043 C 
HETATM   11  C19 UNL     1      -3.111   0.077   0.400  1.00  0.00     0.009 C 
HETATM   12  C20 UNL     1      -4.043  -0.721   1.350  1.00  0.00     0.012 C 
HETATM   13  C21 UNL     1      -3.451   1.451   0.714  1.00  0.00     0.102 C 
HETATM   14 BR1  UNL     1      -2.954   1.758   2.591  1.00  0.00    -0.087 Br
ENDROOT
BRANCH   9  15
HETATM   15  C7  UNL     1       0.465  -0.045  -0.727  1.00  0.00     0.018 C 
BRANCH  15  16
HETATM   16  C8  UNL     1       1.790  -0.432  -0.245  1.00  0.00     0.146 C 
BRANCH  16  17
HETATM   17  O2  UNL     1       2.503  -1.086  -1.340  1.00  0.00    -0.391 OA
ATOM     18  H2  UNL     1       3.364  -1.337  -1.027  1.00  0.00     0.210 HD
ENDBRANCH  16  17
BRANCH  16  19
HETATM   19  C9  UNL     1       2.819   0.690  -0.043  1.00  0.00     0.076 C 
BRANCH  19  20
HETATM   20  C10 UNL     1       4.103   0.162   0.445  1.00  0.00    -0.034 A 
HETATM   21  C11 UNL     1       4.196   0.006   1.849  1.00  0.00     0.095 A 
HETATM   22  N2  UNL     1       5.298  -0.535   2.370  1.00  0.00    -0.375 N 
HETATM   23  C12 UNL     1       6.330  -0.939   1.600  1.00  0.00     0.088 A 
ATOM     24  H2  UNL     1       5.363  -0.647   3.382  1.00  0.00     0.164 HD
HETATM   25  C13 UNL     1       6.292  -0.811   0.246  1.00  0.00     0.024 A 
HETATM   26  C14 UNL     1       5.130  -0.237  -0.328  1.00  0.00    -0.053 A 
HETATM   27  C15 UNL     1       5.202  -0.058  -1.827  1.00  0.00     0.049 C 
ENDBRANCH  19  20
ENDBRANCH  16  19
ENDBRANCH  15  16
ENDBRANCH   9  15
BRANCH  10  28
HETATM   28  C17 UNL     1      -1.424  -1.703  -0.120  1.00  0.00     0.150 C 
BRANCH  28  29
HETATM   29  S1  UNL     1      -2.209  -3.199   0.171  1.00  0.00     0.141 S 
HETATM   30  C18 UNL     1      -1.444  -4.389  -0.994  1.00  0.00     0.161 C 
HETATM   31  O3  UNL     1      -1.961  -3.872   1.467  1.00  0.00    -0.228 OA
HETATM   32  O4  UNL     1      -3.643  -3.300  -0.311  1.00  0.00    -0.228 OA
ENDBRANCH  28  29
ENDBRANCH  10  28
TORSDOF 7
