REMARK  7 active torsions:
REMARK  status: ('A' for Active; 'I' for Inactive)
REMARK    1  A    between atoms: C1_2  and  C2_3 
REMARK       I    between atoms: C1_2  and  N5_26 
REMARK    2  A    between atoms: C2_3  and  N1_4 
REMARK    3  A    between atoms: C5_9  and  N3_10 
REMARK    4  A    between atoms: N3_10  and  S1_12 
REMARK    5  A    between atoms: S1_12  and  N4_15 
REMARK    6  A    between atoms: N4_15  and  C6_17 
REMARK    7  A    between atoms: N5_26  and  C13_28 
ROOT
HETATM    1  N1  UNL     1       0.913   0.266  -1.554  1.00  0.00    -0.175 N 
HETATM    2  C3  UNL     1       0.947   1.629  -1.507  1.00  0.00     0.055 A 
HETATM    3  C4  UNL     1       1.540   1.978  -0.331  1.00  0.00     0.052 A 
HETATM    4  N2  UNL     1       1.848   0.832   0.302  1.00  0.00    -0.193 N 
ATOM      5  H2  UNL     1       2.303   0.775   1.213  1.00  0.00     0.184 HD
HETATM    6  C5  UNL     1       1.471  -0.228  -0.435  1.00  0.00     0.696 A 
HETATM    7  C10 UNL     1       1.611   3.479  -0.215  1.00  0.00     0.097 C 
HETATM    8  C11 UNL     1       1.610   3.857  -1.702  1.00  0.00     0.181 C 
HETATM    9  F1  UNL     1       2.836   3.498  -2.209  1.00  0.00    -0.249 F 
HETATM   10  C12 UNL     1       0.592   2.874  -2.232  1.00  0.00     0.097 C 
ENDROOT
BRANCH   1  11
HETATM   11  C2  UNL     1       0.345  -0.455  -2.676  1.00  0.00     0.250 C 
BRANCH  11  12
HETATM   12  C1  UNL     1      -1.095  -0.716  -2.481  1.00  0.00     0.236 C 
HETATM   13  O1  UNL     1      -1.718  -1.332  -3.373  1.00  0.00    -0.272 OA
HETATM   14  N5  UNL     1      -1.730  -0.268  -1.304  1.00  0.00    -0.354 N 
ATOM     15  H5  UNL     1      -1.182   0.231  -0.603  1.00  0.00     0.162 HD
BRANCH  14  16
HETATM   16  C13 UNL     1      -3.145  -0.498  -1.063  1.00  0.00     0.092 C 
HETATM   17  C14 UNL     1      -3.331  -1.287   0.191  1.00  0.00     0.009 C 
HETATM   18  C15 UNL     1      -4.802  -1.629   0.307  1.00  0.00     0.011 C 
HETATM   19  C19 UNL     1      -2.885  -0.517   1.400  1.00  0.00     0.011 C 
HETATM   20  C16 UNL     1      -5.567  -0.349   0.437  1.00  0.00    -0.013 C 
HETATM   21  C17 UNL     1      -5.143   0.391   1.676  1.00  0.00     0.009 C 
HETATM   22  C22 UNL     1      -5.375   0.473  -0.813  1.00  0.00     0.011 C 
HETATM   23  C18 UNL     1      -3.680   0.765   1.536  1.00  0.00    -0.013 C 
HETATM   24  C20 UNL     1      -3.447   1.569   0.277  1.00  0.00     0.011 C 
HETATM   25  C21 UNL     1      -3.884   0.806  -0.931  1.00  0.00     0.009 C 
ENDBRANCH  14  16
ENDBRANCH  11  12
ENDBRANCH   1  11
BRANCH   6  26
HETATM   26  N3  UNL     1       1.603  -1.498  -0.151  1.00  0.00    -0.099 N 
ATOM     27  H3  UNL     1       1.266  -2.200  -0.810  1.00  0.00     0.199 HD
BRANCH  26  28
HETATM   28  S1  UNL     1       2.342  -2.001   1.329  1.00  0.00     0.333 S 
HETATM   29  O2  UNL     1       2.322  -3.480   1.424  1.00  0.00    -0.182 OA
HETATM   30  O3  UNL     1       1.563  -1.350   2.455  1.00  0.00    -0.182 OA
BRANCH  28  31
HETATM   31  N4  UNL     1       3.937  -1.358   1.326  1.00  0.00    -0.295 N 
ATOM     32  H4  UNL     1       4.170  -0.441   1.708  1.00  0.00     0.174 HD
BRANCH  31  33
HETATM   33  C6  UNL     1       4.902  -2.225   0.740  1.00  0.00     0.120 C 
HETATM   34  C7  UNL     1       5.549  -1.466  -0.425  1.00  0.00     0.054 C 
HETATM   35  C8  UNL     1       6.875  -1.091   0.165  1.00  0.00     0.169 C 
HETATM   36  O4  UNL     1       6.796  -1.303   1.540  1.00  0.00    -0.389 OA
HETATM   37  C9  UNL     1       6.095  -2.510   1.604  1.00  0.00     0.193 C 
ENDBRANCH  31  33
ENDBRANCH  28  31
ENDBRANCH  26  28
ENDBRANCH   6  26
TORSDOF 7
