REMARK  7 active torsions:
REMARK  status: ('A' for Active; 'I' for Inactive)
REMARK    1  A    between atoms: C11_11  and  O1_12 
REMARK    2  A    between atoms: C18_20  and  C19_21 
REMARK    3  A    between atoms: C19_21  and  C20_22 
REMARK    4  A    between atoms: C20_22  and  C21_23 
REMARK    5  A    between atoms: C21_23  and  C22_24 
REMARK    6  A    between atoms: C22_24  and  C23_25 
REMARK    7  A    between atoms: C23_25  and  N1_26 
ROOT
HETATM    1  C1  UNL     1      -1.407  -3.304   0.664  1.00  0.00     0.024 C 
HETATM    2  C2  UNL     1      -1.758  -2.169  -0.315  1.00  0.00     0.021 C 
HETATM    3  C3  UNL     1      -2.996  -2.564  -1.000  1.00  0.00     0.018 C 
HETATM    4  C4  UNL     1      -3.930  -1.443  -1.385  1.00  0.00     0.007 C 
HETATM    5  C5  UNL     1      -4.146  -0.668  -0.114  1.00  0.00    -0.002 C 
HETATM    6  C6  UNL     1      -2.865   0.054   0.155  1.00  0.00    -0.004 C 
HETATM    7  C7  UNL     1      -3.020   1.111   1.180  1.00  0.00     0.006 C 
HETATM    8  C8  UNL     1      -4.241   1.089   1.999  1.00  0.00     0.006 C 
HETATM    9  C9  UNL     1      -5.508   0.688   1.326  1.00  0.00    -0.004 C 
HETATM   10  C10 UNL     1      -6.629   1.665   1.505  1.00  0.00     0.037 C 
HETATM   11  C11 UNL     1      -6.825   2.617   0.385  1.00  0.00     0.118 C 
HETATM   12  C12 UNL     1      -5.700   2.687  -0.590  1.00  0.00     0.032 C 
HETATM   13  C13 UNL     1      -5.246   1.356  -1.091  1.00  0.00     0.012 C 
HETATM   14  C14 UNL     1      -5.326   0.241  -0.116  1.00  0.00    -0.036 C 
HETATM   15  C15 UNL     1      -6.557  -0.620  -0.437  1.00  0.00     0.016 C 
HETATM   16  C16 UNL     1      -1.731  -0.904   0.438  1.00  0.00     0.006 C 
HETATM   17  C17 UNL     1      -0.448  -0.111   0.149  1.00  0.00     0.011 C 
HETATM   18  C18 UNL     1       0.779  -0.985   0.269  1.00  0.00    -0.007 C 
HETATM   19  C29 UNL     1       0.745  -2.132  -0.718  1.00  0.00     0.083 C 
HETATM   20  C30 UNL     1      -0.634  -2.157  -1.293  1.00  0.00     0.136 C 
HETATM   21  O3  UNL     1      -0.881  -2.169  -2.478  1.00  0.00    -0.297 OA
ENDROOT
BRANCH  18  22
HETATM   22  C19 UNL     1       1.954  -0.094  -0.142  1.00  0.00     0.005 C 
BRANCH  22  23
HETATM   23  C20 UNL     1       3.202  -0.927  -0.032  1.00  0.00     0.000 C 
BRANCH  23  24
HETATM   24  C21 UNL     1       4.459  -0.160  -0.431  1.00  0.00     0.002 C 
BRANCH  24  25
HETATM   25  C22 UNL     1       4.702   1.041   0.407  1.00  0.00     0.020 C 
BRANCH  25  26
HETATM   26  C23 UNL     1       5.941   1.755  -0.049  1.00  0.00     0.125 C 
BRANCH  26  27
HETATM   27  N1  UNL     1       7.080   0.916   0.050  1.00  0.00    -0.352 N 
HETATM   28  C24 UNL     1       7.597   0.074  -1.005  1.00  0.00     0.125 C 
HETATM   29  C25 UNL     1       9.025   0.552  -1.247  1.00  0.00     0.020 C 
HETATM   30  C26 UNL     1       9.841   0.188  -0.038  1.00  0.00     0.011 C 
HETATM   31  C27 UNL     1       9.050  -0.008   1.213  1.00  0.00     0.103 C 
HETATM   32  C28 UNL     1       7.838   0.878   1.277  1.00  0.00     0.219 C 
HETATM   33  O2  UNL     1       7.507   1.525   2.286  1.00  0.00    -0.273 OA
ENDBRANCH  26  27
ENDBRANCH  25  26
ENDBRANCH  24  25
ENDBRANCH  23  24
ENDBRANCH  22  23
ENDBRANCH  18  22
BRANCH  11  34
HETATM   34  O1  UNL     1      -8.060   2.416  -0.277  1.00  0.00    -0.396 OA
ATOM     35  H1  UNL     1      -8.186   3.026  -0.994  1.00  0.00     0.210 HD
ENDBRANCH  11  34
TORSDOF 7
