REMARK  6 active torsions:
REMARK  status: ('A' for Active; 'I' for Inactive)
REMARK    1  A    between atoms: C4_4  and  O1_5 
REMARK    2  A    between atoms: C17_19  and  O2_20 
REMARK    3  A    between atoms: O2_20  and  C18_21 
REMARK    4  A    between atoms: C18_21  and  C19_22 
REMARK    5  A    between atoms: C19_22  and  C20_23 
REMARK    6  A    between atoms: C20_23  and  N1_24 
ROOT
HETATM    1  C1  UNL     1      -7.555   1.585   0.640  1.00  0.00     0.010 C 
HETATM    2  C2  UNL     1      -6.066   1.817   0.445  1.00  0.00    -0.015 C 
HETATM    3  C3  UNL     1      -5.830   2.158  -1.008  1.00  0.00     0.040 C 
HETATM    4  C4  UNL     1      -5.818   0.886  -1.787  1.00  0.00     0.147 C 
HETATM    5  C5  UNL     1      -4.658   0.026  -1.318  1.00  0.00    -0.050 C 
HETATM    6  C6  UNL     1      -4.190  -0.925  -2.050  1.00  0.00    -0.021 C 
HETATM    7  C7  UNL     1      -3.086  -1.787  -1.669  1.00  0.00     0.033 C 
HETATM    8  C8  UNL     1      -2.490  -1.602  -0.312  1.00  0.00     0.006 C 
HETATM    9  C9  UNL     1      -3.319  -0.801   0.622  1.00  0.00    -0.032 C 
HETATM   10  C10 UNL     1      -4.405  -1.723   1.223  1.00  0.00     0.016 C 
HETATM   11  C11 UNL     1      -2.607  -0.240   1.803  1.00  0.00     0.011 C 
HETATM   12  C12 UNL     1      -1.186   0.245   1.478  1.00  0.00     0.007 C 
HETATM   13  C13 UNL     1      -0.493  -1.007   1.011  1.00  0.00     0.004 C 
HETATM   14  C14 UNL     1       1.000  -0.898   1.096  1.00  0.00    -0.017 C 
HETATM   15  C15 UNL     1       1.643  -2.243   1.380  1.00  0.00     0.018 C 
HETATM   16  C16 UNL     1       1.268  -0.105   2.395  1.00  0.00     0.018 C 
HETATM   17  C17 UNL     1       1.643  -0.213  -0.051  1.00  0.00     0.129 C 
HETATM   18  C25 UNL     1       0.663   0.446  -1.003  1.00  0.00     0.033 C 
HETATM   19  C26 UNL     1      -0.587  -0.256  -1.302  1.00  0.00     0.012 C 
HETATM   20  C27 UNL     1      -1.014  -1.315  -0.357  1.00  0.00    -0.035 C 
HETATM   21  C28 UNL     1      -0.338  -2.606  -0.860  1.00  0.00     0.016 C 
HETATM   22  C29 UNL     1      -4.095   0.319  -0.000  1.00  0.00     0.026 C 
HETATM   23  C30 UNL     1      -5.314   0.610   0.892  1.00  0.00     0.014 C 
ENDROOT
BRANCH  17  24
HETATM   24  O2  UNL     1       2.445   0.809   0.424  1.00  0.00    -0.385 OA
BRANCH  24  25
HETATM   25  C18 UNL     1       3.758   0.832   0.038  1.00  0.00     0.170 C 
BRANCH  25  26
HETATM   26  C19 UNL     1       4.602  -0.321   0.387  1.00  0.00     0.056 C 
BRANCH  26  27
HETATM   27  C20 UNL     1       6.017  -0.208  -0.089  1.00  0.00     0.274 C 
BRANCH  27  28
HETATM   28  N1  UNL     1       6.810   0.839   0.378  1.00  0.00     0.092 N 
HETATM   29  C21 UNL     1       6.609   2.160  -0.040  1.00  0.00     0.298 C 
HETATM   30  C22 UNL     1       7.912   2.841  -0.484  1.00  0.00     0.198 C 
HETATM   31  O3  UNL     1       8.625   2.097  -1.386  1.00  0.00    -0.388 OA
HETATM   32  C23 UNL     1       8.639   0.741  -1.155  1.00  0.00     0.198 C 
HETATM   33  C24 UNL     1       8.211   0.484   0.270  1.00  0.00     0.298 C 
ENDBRANCH  27  28
ENDBRANCH  26  27
ENDBRANCH  25  26
ENDBRANCH  24  25
ENDBRANCH  17  24
BRANCH   4  34
HETATM   34  O1  UNL     1      -7.005   0.195  -1.600  1.00  0.00    -0.391 OA
ATOM     35  H1  UNL     1      -6.997  -0.615  -2.096  1.00  0.00     0.210 HD
ENDBRANCH   4  34
TORSDOF 6
