REMARK  7 active torsions:
REMARK  status: ('A' for Active; 'I' for Inactive)
REMARK    1  A    between atoms: O1_2  and  C2_3 
REMARK    2  A    between atoms: C2_3  and  C3_5 
REMARK    3  A    between atoms: C3_5  and  C4_6 
REMARK    4  A    between atoms: C4_6  and  C5_7 
REMARK    5  A    between atoms: C5_7  and  C7_9 
REMARK    6  A    between atoms: C19_21  and  C21_23 
REMARK    7  A    between atoms: C27_31  and  C28_32 
ROOT
HETATM    1  C28 UNL     1      -2.054   2.343  -1.575  1.00  0.00     0.101 C 
HETATM    2  C29 UNL     1      -1.804   3.303  -0.560  1.00  0.00     0.088 C 
HETATM    3  N1  UNL     1      -1.606   4.060   0.271  1.00  0.00    -0.192 NA
ENDROOT
BRANCH   1   4
HETATM    4  C27 UNL     1      -2.080   0.909  -1.300  1.00  0.00    -0.036 C 
HETATM    5  C11 UNL     1      -0.835   0.231  -0.760  1.00  0.00    -0.063 C 
HETATM    6  C10 UNL     1       0.394   0.497  -1.518  1.00  0.00     0.024 C 
HETATM    7  C12 UNL     1      -0.689   0.126   0.706  1.00  0.00     0.016 C 
HETATM    8  C9  UNL     1       0.918  -0.702  -2.327  1.00  0.00     0.010 C 
HETATM    9  C15 UNL     1       1.647   0.894  -0.800  1.00  0.00    -0.033 C 
HETATM   10  C8  UNL     1       1.861  -1.422  -1.388  1.00  0.00     0.006 C 
HETATM   11  C7  UNL     1       2.495  -0.281  -0.589  1.00  0.00    -0.002 C 
HETATM   12  C14 UNL     1       1.407   1.544   0.541  1.00  0.00     0.011 C 
HETATM   13  C16 UNL     1       2.273   1.987  -1.674  1.00  0.00     0.016 C 
HETATM   14  C13 UNL     1       0.320   0.991   1.364  1.00  0.00     0.010 C 
HETATM   15  C17 UNL     1      -2.027   0.258   1.448  1.00  0.00     0.016 C 
HETATM   16  C18 UNL     1      -3.055  -0.380   0.582  1.00  0.00     0.017 C 
HETATM   17  C19 UNL     1      -4.216  -0.953   1.304  1.00  0.00     0.049 C 
HETATM   18  C25 UNL     1      -3.348   0.379  -0.675  1.00  0.00    -0.011 C 
HETATM   19  C20 UNL     1      -3.621  -2.082   2.192  1.00  0.00     0.027 C 
HETATM   20  C22 UNL     1      -5.213  -1.641   0.420  1.00  0.00     0.020 C 
HETATM   21  C23 UNL     1      -5.219  -1.268  -1.013  1.00  0.00     0.002 C 
HETATM   22  C24 UNL     1      -3.990  -0.696  -1.577  1.00  0.00     0.014 C 
HETATM   23  C26 UNL     1      -4.427   1.414  -0.564  1.00  0.00     0.021 C 
BRANCH  11  24
HETATM   24  C5  UNL     1       3.947  -0.284  -0.876  1.00  0.00    -0.013 C 
HETATM   25  C6  UNL     1       4.750   0.913  -0.600  1.00  0.00     0.010 C 
BRANCH  24  26
HETATM   26  C4  UNL     1       4.512  -1.598  -0.420  1.00  0.00     0.014 C 
BRANCH  26  27
HETATM   27  C3  UNL     1       4.770  -1.827   1.011  1.00  0.00     0.111 C 
BRANCH  27  28
HETATM   28  C2  UNL     1       5.723  -0.917   1.684  1.00  0.00     0.258 C 
HETATM   29  O2  UNL     1       5.291   0.032   2.372  1.00  0.00    -0.265 OA
BRANCH  28  30
HETATM   30  O1  UNL     1       7.107  -1.097   1.568  1.00  0.00    -0.326 OA
HETATM   31  C1  UNL     1       7.936  -0.161   2.258  1.00  0.00     0.213 C 
ENDBRANCH  28  30
ENDBRANCH  27  28
ENDBRANCH  26  27
ENDBRANCH  24  26
ENDBRANCH  11  24
BRANCH  17  32
HETATM   32  C21 UNL     1      -4.858  -0.085   2.316  1.00  0.00     0.181 C 
HETATM   33  O3  UNL     1      -4.440   1.054   2.607  1.00  0.00    -0.647 OA
HETATM   34  O4  UNL     1      -5.994  -0.522   3.010  1.00  0.00    -0.647 OA
ENDBRANCH  17  32
ENDBRANCH   1   4
TORSDOF 7
