REMARK  6 active torsions:
REMARK  status: ('A' for Active; 'I' for Inactive)
REMARK    1  A    between atoms: N1_2  and  C2_5 
REMARK    2  A    between atoms: N2_19  and  O1_21 
REMARK    3  A    between atoms: O1_21  and  C16_22 
REMARK    4  A    between atoms: C16_22  and  C17_23 
REMARK    5  A    between atoms: C17_23  and  C18_24 
REMARK    6  A    between atoms: C18_24  and  N3_25 
ROOT
HETATM    1  C2  UNL     1      -6.695   0.266  -0.468  1.00  0.00     0.189 C 
HETATM    2  C3  UNL     1      -5.832   1.343   0.107  1.00  0.00     0.034 C 
HETATM    3  C4  UNL     1      -4.517   1.539  -0.563  1.00  0.00     0.012 C 
HETATM    4  C5  UNL     1      -3.932   0.325  -1.182  1.00  0.00    -0.036 C 
HETATM    5  C6  UNL     1      -4.262   0.320  -2.663  1.00  0.00     0.016 C 
HETATM    6  C7  UNL     1      -4.511  -0.966  -0.617  1.00  0.00    -0.000 C 
HETATM    7  C8  UNL     1      -4.116  -1.223   0.782  1.00  0.00     0.006 C 
HETATM    8  C9  UNL     1      -3.008  -0.414   1.328  1.00  0.00     0.006 C 
HETATM    9  C10 UNL     1      -1.992   0.100   0.388  1.00  0.00    -0.004 C 
HETATM   10  C11 UNL     1      -0.699  -0.668   0.362  1.00  0.00     0.008 C 
HETATM   11  C12 UNL     1      -0.006  -0.787   1.664  1.00  0.00    -0.008 C 
HETATM   12  C13 UNL     1       0.119  -2.256   2.047  1.00  0.00     0.011 C 
HETATM   13  C14 UNL     1       1.404  -0.293   1.434  1.00  0.00     0.060 C 
HETATM   14  C15 UNL     1       1.477   0.284   0.098  1.00  0.00     0.019 C 
HETATM   15  N2  UNL     1       2.458   0.929  -0.397  1.00  0.00    -0.274 N 
ATOM     16  H2  UNL     1       2.395   1.289  -1.349  1.00  0.00     0.193 HD
HETATM   17  C24 UNL     1       0.211   0.000  -0.612  1.00  0.00     0.001 C 
HETATM   18  C25 UNL     1       0.546  -0.896  -1.796  1.00  0.00     0.022 C 
HETATM   19  C26 UNL     1      -0.288   1.330  -1.126  1.00  0.00     0.016 C 
HETATM   20  C27 UNL     1      -1.660   1.259  -1.726  1.00  0.00     0.007 C 
HETATM   21  C28 UNL     1      -2.442   0.188  -1.049  1.00  0.00    -0.002 C 
HETATM   22  C29 UNL     1      -5.978  -0.953  -0.903  1.00  0.00     0.017 C 
HETATM   23  C30 UNL     1      -6.562  -2.251  -0.399  1.00  0.00     0.012 C 
ENDROOT
BRANCH  15  24
HETATM   24  O1  UNL     1       3.596   1.145   0.335  1.00  0.00    -0.281 OA
BRANCH  24  25
HETATM   25  C16 UNL     1       4.594   2.038  -0.145  1.00  0.00     0.203 C 
BRANCH  25  26
HETATM   26  C17 UNL     1       5.716   2.084   0.839  1.00  0.00     0.059 C 
BRANCH  26  27
HETATM   27  C18 UNL     1       6.349   0.741   1.049  1.00  0.00     0.274 C 
BRANCH  27  28
HETATM   28  N3  UNL     1       6.880   0.239  -0.223  1.00  0.00     0.088 N 
HETATM   29  C19 UNL     1       8.007   1.022  -0.689  1.00  0.00     0.272 C 
HETATM   30  C20 UNL     1       9.127   1.081   0.315  1.00  0.00     0.030 C 
HETATM   31  C21 UNL     1       9.543  -0.290   0.770  1.00  0.00     0.003 C 
HETATM   32  C22 UNL     1       8.399  -1.220   1.032  1.00  0.00     0.030 C 
HETATM   33  C23 UNL     1       7.306  -1.134  -0.013  1.00  0.00     0.272 C 
ENDBRANCH  27  28
ENDBRANCH  26  27
ENDBRANCH  25  26
ENDBRANCH  24  25
ENDBRANCH  15  24
BRANCH   1  34
HETATM   34  N1  UNL     1      -7.637  -0.125   0.587  1.00  0.00    -0.074 N 
HETATM   35  C1  UNL     1      -8.487   0.989   0.959  1.00  0.00     0.267 C 
ATOM     36  H12 UNL     1      -7.155  -0.518   1.396  1.00  0.00     0.277 HD
ATOM     37  H11 UNL     1      -8.184  -0.944   0.320  1.00  0.00     0.277 HD
ENDBRANCH   1  34
TORSDOF 6
