REMARK  5 active torsions:
REMARK  status: ('A' for Active; 'I' for Inactive)
REMARK    1  A    between atoms: N1_1  and  C1_4 
REMARK    2  A    between atoms: C2_7  and  N3_8 
REMARK    3  A    between atoms: C7_16  and  N5_17 
REMARK       I    between atoms: N5_17  and  C8_19 
REMARK    4  A    between atoms: C8_19  and  O3_21 
REMARK    5  A    between atoms: O3_21  and  N6_22 
ROOT
HETATM    1  C1  UNL     1       0.455  -3.044  -0.231  1.00  0.00     0.705 A 
HETATM    2  N2  UNL     1      -0.563  -2.197  -0.003  1.00  0.00    -0.022 N 
ATOM      3  H2  UNL     1      -1.505  -2.566   0.125  1.00  0.00     0.203 HD
HETATM    4  C2  UNL     1      -0.352  -0.849   0.059  1.00  0.00     0.709 A 
HETATM    5  N4  UNL     1       0.918  -0.453  -0.122  1.00  0.00    -0.021 N 
ATOM      6  H4  UNL     1       1.112   0.548  -0.082  1.00  0.00     0.203 HD
HETATM    7  C7  UNL     1       1.953  -1.280  -0.352  1.00  0.00     0.715 A 
HETATM    8  N7  UNL     1       1.712  -2.597  -0.407  1.00  0.00    -0.021 N 
ATOM      9  H7  UNL     1       2.473  -3.254  -0.580  1.00  0.00     0.203 HD
ENDROOT
BRANCH   7  10
HETATM   10  N5  UNL     1       3.151  -0.823  -0.517  1.00  0.00    -0.132 N 
HETATM   11  C8  UNL     1       3.490   0.534  -0.476  1.00  0.00     0.400 C 
HETATM   12  O2  UNL     1       3.463   1.315  -1.461  1.00  0.00    -0.236 OA
ATOM     13  H5  UNL     1       3.898  -1.496  -0.688  1.00  0.00     0.190 HD
BRANCH  11  14
HETATM   14  O3  UNL     1       3.894   1.075   0.758  1.00  0.00    -0.188 OA
BRANCH  14  15
HETATM   15  N6  UNL     1       4.243   2.395   0.883  1.00  0.00    -0.301 N 
ATOM     16  H62 UNL     1       4.203   2.985   0.052  1.00  0.00     0.184 HD
ATOM     17  H61 UNL     1       4.536   2.787   1.778  1.00  0.00     0.184 HD
ENDBRANCH  14  15
ENDBRANCH  11  14
ENDBRANCH   7  10
BRANCH   4  18
HETATM   18  N3  UNL     1      -1.419   0.048   0.299  1.00  0.00    -0.213 N 
HETATM   19  C3  UNL     1      -2.761  -0.437   0.486  1.00  0.00     0.167 C 
HETATM   20  C4  UNL     1      -3.714   0.472  -0.219  1.00  0.00     0.188 C 
HETATM   21  O1  UNL     1      -3.469   1.807  -0.053  1.00  0.00    -0.388 OA
HETATM   22  C5  UNL     1      -2.492   2.082   0.896  1.00  0.00     0.188 C 
HETATM   23  C6  UNL     1      -1.191   1.467   0.363  1.00  0.00     0.167 C 
ENDBRANCH   4  18
BRANCH   1  24
HETATM   24  N1  UNL     1       0.244  -4.331  -0.289  1.00  0.00    -0.234 N 
ATOM     25  H12 UNL     1      -0.709  -4.670  -0.156  1.00  0.00     0.174 HD
ATOM     26  H11 UNL     1       1.017  -4.974  -0.462  1.00  0.00     0.174 HD
ENDBRANCH   1  24
TORSDOF 5
