REMARK  6 active torsions:
REMARK  status: ('A' for Active; 'I' for Inactive)
REMARK    1  A    between atoms: O1_2  and  C2_3 
REMARK    2  A    between atoms: C2_3  and  O2_4 
REMARK    3  A    between atoms: C2_3  and  C3_6 
REMARK    4  A    between atoms: C3_6  and  O3_7 
REMARK    5  A    between atoms: C3_6  and  N1_9 
REMARK       I    between atoms: N1_9  and  C4_10 
REMARK       I    between atoms: C4_10  and  N4_15 
REMARK    6  A    between atoms: N4_15  and  C6_17 
ROOT
HETATM    1  N1  UNL     1      -0.043  -0.020  -0.499  1.00  0.00    -0.344 NA
HETATM    2  C4  UNL     1      -1.071   0.791  -0.854  1.00  0.00     0.285 C 
HETATM    3  N2  UNL     1      -0.773   1.919  -1.450  1.00  0.00    -0.252 N 
ATOM      4  H2  UNL     1      -1.543   2.533  -1.715  1.00  0.00     0.182 HD
HETATM    5  C5  UNL     1       0.510   2.334  -1.744  1.00  0.00     0.185 C 
HETATM    6  N3  UNL     1       1.598   2.714  -1.998  1.00  0.00    -0.172 NA
HETATM    7  N4  UNL     1      -2.446   0.581  -0.717  1.00  0.00    -0.145 N 
ATOM      8  H4  UNL     1      -2.991   0.795  -1.552  1.00  0.00     0.188 HD
ENDROOT
BRANCH   1   9
HETATM    9  C3  UNL     1       0.976  -0.823  -0.149  1.00  0.00     0.249 C 
BRANCH   9  10
HETATM   10  C2  UNL     1       2.451  -0.621  -0.396  1.00  0.00     0.348 C 
BRANCH  10  11
HETATM   11  O1  UNL     1       3.084  -0.445   0.801  1.00  0.00    -0.358 OA
HETATM   12  C1  UNL     1       4.144   0.336   0.966  1.00  0.00     0.205 C 
ENDBRANCH  10  11
BRANCH  10  13
HETATM   13  O2  UNL     1       2.914  -1.965  -0.765  1.00  0.00    -0.363 OA
ATOM     14  H2  UNL     1       2.474  -2.087  -1.598  1.00  0.00     0.213 HD
ENDBRANCH  10  13
ENDBRANCH   9  10
BRANCH   9  15
HETATM   15  O3  UNL     1       0.820  -1.948   0.490  1.00  0.00    -0.335 OA
ATOM     16  H3  UNL     1      -0.109  -2.075   0.645  1.00  0.00     0.220 HD
ENDBRANCH   9  15
ENDBRANCH   1   9
BRANCH   7  17
HETATM   17  C6  UNL     1      -3.129   0.172   0.263  1.00  0.00     0.717 A 
HETATM   18  N5  UNL     1      -2.852  -0.205   1.518  1.00  0.00    -0.115 N 
HETATM   19  N6  UNL     1      -3.954  -0.584   2.115  1.00  0.00    -0.213 N 
ATOM     20  H5  UNL     1      -1.925  -0.198   1.943  1.00  0.00     0.207 HD
HETATM   21  N7  UNL     1      -4.977  -0.469   1.276  1.00  0.00    -0.213 N 
ATOM     22  H6  UNL     1      -4.017  -0.917   3.077  1.00  0.00     0.210 HD
HETATM   23  N8  UNL     1      -4.491  -0.010   0.147  1.00  0.00    -0.115 N 
ATOM     24  H7  UNL     1      -5.952  -0.694   1.472  1.00  0.00     0.210 HD
ATOM     25  H8  UNL     1      -5.039   0.183  -0.691  1.00  0.00     0.207 HD
ENDBRANCH   7  17
TORSDOF 6
