REMARK  4 active torsions:
REMARK  status: ('A' for Active; 'I' for Inactive)
REMARK    1  A    between atoms: C1_2  and  C2_4 
REMARK    2  A    between atoms: C4_9  and  N4_10 
REMARK    3  A    between atoms: C9_20  and  N7_21 
REMARK    4  A    between atoms: N7_21  and  O2_23 
ROOT
HETATM    1  C2  UNL     1       2.667  -0.098  -0.078  1.00  0.00     0.117 A 
HETATM    2  C3  UNL     1       1.907  -1.188  -0.431  1.00  0.00     0.151 A 
HETATM    3  N2  UNL     1       2.588  -2.389  -0.853  1.00  0.00    -0.081 NA
HETATM    4  N3  UNL     1       0.563  -1.137  -0.383  1.00  0.00    -0.178 N 
ATOM      5  H3  UNL     1       0.023  -1.960  -0.650  1.00  0.00     0.185 HD
HETATM    6  C4  UNL     1      -0.085  -0.022   0.010  1.00  0.00     0.683 A 
HETATM    7  N6  UNL     1       0.669   1.038   0.352  1.00  0.00    -0.174 N 
ATOM      8  H6  UNL     1       0.192   1.889   0.651  1.00  0.00     0.186 HD
HETATM    9  C9  UNL     1       2.012   1.044   0.323  1.00  0.00     0.159 A 
ENDROOT
BRANCH   6  10
HETATM   10  N4  UNL     1      -1.527   0.015   0.055  1.00  0.00    -0.214 N 
HETATM   11  C5  UNL     1      -2.265  -1.147  -0.322  1.00  0.00     0.168 C 
HETATM   12  C6  UNL     1      -3.719  -1.002   0.064  1.00  0.00     0.252 C 
HETATM   13  N5  UNL     1      -4.177   0.264  -0.484  1.00  0.00    -0.072 N 
HETATM   14  C7  UNL     1      -3.565   1.391   0.173  1.00  0.00     0.252 C 
ATOM     15  H52 UNL     1      -4.036   0.303  -1.493  1.00  0.00     0.277 HD
ATOM     16  H51 UNL     1      -5.195   0.330  -0.461  1.00  0.00     0.277 HD
HETATM   17  C8  UNL     1      -2.130   1.231   0.481  1.00  0.00     0.168 C 
ENDBRANCH   6  10
BRANCH   9  18
HETATM   18  N7  UNL     1       2.723   2.068   0.654  1.00  0.00    -0.252 N 
ATOM     19  H7  UNL     1       3.739   1.990   0.605  1.00  0.00     0.196 HD
BRANCH  18  20
HETATM   20  O2  UNL     1       2.181   3.250   1.067  1.00  0.00    -0.288 OA
ATOM     21  H2  UNL     1       2.705   4.004   1.311  1.00  0.00     0.244 HD
ENDBRANCH  18  20
ENDBRANCH   9  18
BRANCH   1  22
HETATM   22  C1  UNL     1       4.120  -0.099  -0.112  1.00  0.00     0.272 C 
HETATM   23  N1  UNL     1       4.862   1.052   0.262  1.00  0.00    -0.057 NA
HETATM   24  O1  UNL     1       4.764  -1.118  -0.472  1.00  0.00    -0.271 OA
ENDBRANCH   1  22
TORSDOF 4
