REMARK  4 active torsions:
REMARK  status: ('A' for Active; 'I' for Inactive)
REMARK    1  A    between atoms: C2_7  and  C3_8 
REMARK    2  A    between atoms: C4_9  and  C5_10 
REMARK    3  A    between atoms: N3_11  and  O1_12 
REMARK    4  A    between atoms: N5_16  and  O3_17 
ROOT
HETATM    1  N1  UNL     1      -3.150  -2.109   0.946  1.00  0.00    -0.234 N 
ATOM      2  H11 UNL     1      -4.157  -2.232   1.055  1.00  0.00     0.174 HD
ATOM      3  H12 UNL     1      -2.493  -2.859   1.160  1.00  0.00     0.174 HD
HETATM    4  C1  UNL     1      -2.654  -0.990   0.527  1.00  0.00     0.678 A 
HETATM    5  N2  UNL     1      -1.253  -0.819   0.375  1.00  0.00    -0.190 N 
ATOM      6  H2  UNL     1      -0.644  -1.604   0.604  1.00  0.00     0.184 HD
HETATM    7  C2  UNL     1      -0.704   0.283  -0.040  1.00  0.00     0.079 A 
HETATM    8  C6  UNL     1      -1.580   1.392  -0.364  1.00  0.00     0.098 A 
HETATM    9  N6  UNL     1      -1.092   2.504  -0.780  1.00  0.00    -0.394 N 
ATOM     10  H61 UNL     1      -1.708   3.284  -1.008  1.00  0.00     0.156 HD
ATOM     11  H62 UNL     1      -0.079   2.577  -0.872  1.00  0.00     0.156 HD
HETATM   12  C7  UNL     1      -3.044   1.286  -0.231  1.00  0.00     0.143 A 
HETATM   13  N7  UNL     1      -3.838   2.258  -0.513  1.00  0.00    -0.383 N 
ATOM     14  H71 UNL     1      -4.851   2.185  -0.421  1.00  0.00     0.157 HD
ATOM     15  H72 UNL     1      -3.458   3.145  -0.844  1.00  0.00     0.157 HD
HETATM   16  N8  UNL     1      -3.571   0.057   0.228  1.00  0.00    -0.175 N 
ATOM     17  H8  UNL     1      -4.576  -0.075   0.341  1.00  0.00     0.186 HD
ENDROOT
BRANCH   7  18
HETATM   18  C3  UNL     1       0.771   0.358  -0.164  1.00  0.00     0.036 C 
HETATM   19  C4  UNL     1       1.521  -0.667   0.139  1.00  0.00     0.059 C 
BRANCH  19  20
HETATM   20  C5  UNL     1       2.951  -0.754   0.074  1.00  0.00     0.204 A 
HETATM   21  N3  UNL     1       3.835   0.179  -0.306  1.00  0.00    -0.118 N 
HETATM   22  N4  UNL     1       5.037  -0.391  -0.190  1.00  0.00     0.080 NA
HETATM   23  O2  UNL     1       4.882  -1.596   0.236  1.00  0.00    -0.110 OA
HETATM   24  N5  UNL     1       3.647  -1.884   0.417  1.00  0.00    -0.084 N 
BRANCH  21  25
HETATM   25  O1  UNL     1       3.599   1.452  -0.729  1.00  0.00    -0.267 OA
ATOM     26  H1  UNL     1       4.226   2.113  -0.998  1.00  0.00     0.246 HD
ENDBRANCH  21  25
BRANCH  24  27
HETATM   27  O3  UNL     1       3.132  -3.089   0.866  1.00  0.00    -0.260 OA
ATOM     28  H3  UNL     1       3.614  -3.872   1.104  1.00  0.00     0.247 HD
ENDBRANCH  24  27
ENDBRANCH  19  20
ENDBRANCH   7  18
TORSDOF 4
