REMARK  15 active torsions:
REMARK  status: ('A' for Active; 'I' for Inactive)
REMARK    1  A    between atoms: O1_2  and  C2_3 
REMARK    2  A    between atoms: C2_3  and  C3_5 
REMARK    3  A    between atoms: C4_6  and  N1_7 
REMARK    4  A    between atoms: N2_9  and  C5_11 
REMARK    5  A    between atoms: C6_12  and  C7_13 
REMARK    6  A    between atoms: C7_13  and  O3_14 
REMARK    7  A    between atoms: C7_13  and  C8_16 
REMARK    8  A    between atoms: C8_16  and  O4_17 
REMARK    9  A    between atoms: C8_16  and  N3_19 
REMARK   10  A    between atoms: N3_19  and  O5_20 
REMARK   11  A    between atoms: N3_19  and  O6_22 
REMARK   12  A    between atoms: C9_25  and  C10_26 
REMARK   13  A    between atoms: C10_26  and  O8_27 
REMARK   14  A    between atoms: C10_26  and  O9_29 
REMARK   15  A    between atoms: C13_34  and  N4_35 
ROOT
HETATM    1  C5  UNL     1      -1.058  -1.399  -0.098  1.00  0.00     0.131 A 
HETATM    2  C6  UNL     1      -1.930  -0.527   0.494  1.00  0.00     0.118 A 
HETATM    3  O7  UNL     1      -2.726  -1.047   1.428  1.00  0.00    -0.309 OA
HETATM    4  C9  UNL     1      -2.713  -2.282   1.785  1.00  0.00     0.111 A 
HETATM    5  C11 UNL     1      -1.852  -3.179   1.212  1.00  0.00     0.095 A 
HETATM    6  C12 UNL     1      -0.983  -2.737   0.229  1.00  0.00     0.204 A 
HETATM    7  O10 UNL     1      -0.192  -3.527  -0.307  1.00  0.00    -0.286 OA
ENDROOT
BRANCH   1   8
HETATM    8  N2  UNL     1      -0.197  -0.874  -1.083  1.00  0.00    -0.294 N 
HETATM    9  N1  UNL     1       0.880  -0.273  -0.833  1.00  0.00    -0.294 N 
ATOM     10  H1  UNL     1       1.138  -0.162   0.148  1.00  0.00     0.187 HD
ATOM     11  H2  UNL     1      -0.464  -0.989  -2.061  1.00  0.00     0.187 HD
BRANCH   9  12
HETATM   12  C4  UNL     1       1.761   0.261  -1.799  1.00  0.00     0.127 A 
HETATM   13  C3  UNL     1       3.145   0.235  -1.623  1.00  0.00     0.158 A 
HETATM   14  N6  UNL     1       3.653   0.817  -2.721  1.00  0.00    -0.287 N 
HETATM   15  N5  UNL     1       2.684   1.193  -3.547  1.00  0.00    -0.281 N 
HETATM   16  C14 UNL     1       5.050   1.028  -3.013  1.00  0.00     0.178 C 
HETATM   17  C13 UNL     1       1.481   0.865  -3.010  1.00  0.00     0.145 A 
ATOM     18  H5  UNL     1       2.822   1.656  -4.445  1.00  0.00     0.189 HD
BRANCH  13  19
HETATM   19  C2  UNL     1       3.866  -0.315  -0.477  1.00  0.00     0.313 C 
HETATM   20  O2  UNL     1       3.210  -0.825   0.463  1.00  0.00    -0.257 OA
BRANCH  19  21
HETATM   21  O1  UNL     1       5.233  -0.291  -0.395  1.00  0.00    -0.321 OA
HETATM   22  C1  UNL     1       5.990  -0.806   0.687  1.00  0.00     0.213 C 
ENDBRANCH  19  21
ENDBRANCH  13  19
BRANCH  17  23
HETATM   23  N4  UNL     1       0.312   1.068  -3.508  1.00  0.00    -0.382 N 
ATOM     24  H42 UNL     1      -0.592   0.822  -3.105  1.00  0.00     0.157 HD
ATOM     25  H41 UNL     1       0.105   1.514  -4.402  1.00  0.00     0.157 HD
ENDBRANCH  17  23
ENDBRANCH   9  12
ENDBRANCH   1   8
BRANCH   2  26
HETATM   26  C7  UNL     1      -2.095   0.885   0.230  1.00  0.00     0.225 C 
BRANCH  26  27
HETATM   27  O3  UNL     1      -2.751   0.958  -1.030  1.00  0.00    -0.385 OA
ATOM     28  H3  UNL     1      -2.859   1.886  -1.203  1.00  0.00     0.210 HD
ENDBRANCH  26  27
BRANCH  26  29
HETATM   29  C8  UNL     1      -2.940   1.669   1.160  1.00  0.00     0.282 C 
BRANCH  29  30
HETATM   30  O4  UNL     1      -2.311   1.791   2.418  1.00  0.00    -0.374 OA
ATOM     31  H4  UNL     1      -2.853   2.294   3.015  1.00  0.00     0.212 HD
ENDBRANCH  29  30
BRANCH  29  32
HETATM   32  N3  UNL     1      -3.018   3.030   0.667  1.00  0.00    -0.041 NA
BRANCH  32  33
HETATM   33  O5  UNL     1      -2.278   3.209  -0.473  1.00  0.00    -0.287 OA
ATOM     34  H5  UNL     1      -2.329   4.101  -0.796  1.00  0.00     0.239 HD
ENDBRANCH  32  33
BRANCH  32  35
HETATM   35  O6  UNL     1      -2.515   3.936   1.549  1.00  0.00    -0.287 OA
ATOM     36  H6  UNL     1      -2.566   4.828   1.226  1.00  0.00     0.239 HD
ENDBRANCH  32  35
ENDBRANCH  29  32
ENDBRANCH  26  29
ENDBRANCH   2  26
BRANCH   4  37
HETATM   37  C10 UNL     1      -3.639  -2.778   2.838  1.00  0.00     0.312 C 
BRANCH  37  38
HETATM   38  O8  UNL     1      -3.615  -1.848   3.892  1.00  0.00    -0.365 OA
ATOM     39  H8  UNL     1      -4.206  -2.165   4.565  1.00  0.00     0.213 HD
ENDBRANCH  37  38
BRANCH  37  40
HETATM   40  O9  UNL     1      -4.912  -2.806   2.299  1.00  0.00    -0.365 OA
ATOM     41  H9  UNL     1      -5.503  -3.123   2.972  1.00  0.00     0.213 HD
ENDBRANCH  37  40
ENDBRANCH   4  37
TORSDOF 15
