REMARK  11 active torsions:
REMARK  status: ('A' for Active; 'I' for Inactive)
REMARK    1  A    between atoms: N1_2  and  C2_3 
REMARK    2  A    between atoms: N1_2  and  C9_31 
REMARK    3  A    between atoms: C2_3  and  C3_4 
REMARK    4  A    between atoms: C3_4  and  N2_5 
REMARK    5  A    between atoms: C5_7  and  C6_8 
REMARK    6  A    between atoms: N3_10  and  N4_11 
REMARK    7  A    between atoms: C8_16  and  N6_17 
REMARK    8  A    between atoms: N6_17  and  N7_19 
REMARK    9  A    between atoms: N10_26  and  N11_28 
REMARK   10  A    between atoms: C12_36  and  N13_37 
REMARK   11  A    between atoms: C13_42  and  N15_43 
ROOT
HETATM    1  C2  UNL     1       0.829   1.223   0.730  1.00  0.00     0.119 C 
HETATM    2  N10 UNL     1       1.048   2.101   1.640  1.00  0.00    -0.294 N 
ATOM      3  H10 UNL     1       1.550   1.798   2.475  1.00  0.00     0.187 HD
ENDROOT
BRANCH   1   4
HETATM    4  N1  UNL     1       1.296  -0.096   0.947  1.00  0.00    -0.324 N 
HETATM    5  C1  UNL     1       0.434  -1.075   1.584  1.00  0.00     0.159 C 
BRANCH   4   6
HETATM    6  C9  UNL     1       2.620  -0.461   0.536  1.00  0.00     0.125 A 
HETATM    7  C10 UNL     1       3.055  -1.749   0.755  1.00  0.00     0.137 A 
HETATM    8  N12 UNL     1       4.292  -2.129   0.383  1.00  0.00    -0.356 N 
HETATM    9  C11 UNL     1       5.140  -1.253  -0.218  1.00  0.00     0.122 A 
ATOM     10  H12 UNL     1       4.597  -3.087   0.554  1.00  0.00     0.165 HD
HETATM   11  C12 UNL     1       6.415  -1.591  -0.617  1.00  0.00     0.145 A 
HETATM   12  C14 UNL     1       4.713   0.035  -0.439  1.00  0.00     0.153 A 
HETATM   13  N14 UNL     1       7.224  -0.668  -1.216  1.00  0.00    -0.175 N 
HETATM   14  C13 UNL     1       6.797   0.590  -1.429  1.00  0.00     0.679 A 
ATOM     15  H14 UNL     1       8.165  -0.936  -1.506  1.00  0.00     0.186 HD
HETATM   16  N16 UNL     1       5.554   0.899  -1.033  1.00  0.00    -0.174 N 
ATOM     17  H16 UNL     1       5.225   1.851  -1.193  1.00  0.00     0.186 HD
HETATM   18  N17 UNL     1       3.455   0.393  -0.052  1.00  0.00    -0.325 N 
ATOM     19  H17 UNL     1       3.143   1.350  -0.219  1.00  0.00     0.169 HD
BRANCH  11  20
HETATM   20  N13 UNL     1       6.848  -2.772  -0.430  1.00  0.00    -0.383 N 
ATOM     21 2H13 UNL     1       6.244  -3.461   0.017  1.00  0.00     0.157 HD
ATOM     22 1H13 UNL     1       7.792  -3.022  -0.725  1.00  0.00     0.157 HD
ENDBRANCH  11  20
BRANCH  14  23
HETATM   23  N15 UNL     1       7.578   1.469  -2.004  1.00  0.00    -0.234 N 
ATOM     24 2H15 UNL     1       8.524   1.234  -2.305  1.00  0.00     0.174 HD
ATOM     25 1H15 UNL     1       7.254   2.423  -2.165  1.00  0.00     0.174 HD
ENDBRANCH  14  23
ENDBRANCH   4   6
ENDBRANCH   1   4
BRANCH   1  26
HETATM   26  C3  UNL     1       0.108   1.614  -0.491  1.00  0.00     0.227 C 
BRANCH  26  27
HETATM   27  N2  UNL     1      -1.117   0.834  -0.640  1.00  0.00    -0.280 N 
HETATM   28  C4  UNL     1      -2.332   1.111  -0.187  1.00  0.00     0.144 A 
HETATM   29  C5  UNL     1      -3.165   0.073  -0.578  1.00  0.00     0.082 A 
HETATM   30  N8  UNL     1      -2.402  -0.791  -1.257  1.00  0.00    -0.284 N 
HETATM   31  N9  UNL     1      -1.173  -0.317  -1.284  1.00  0.00    -0.240 N 
ATOM     32  H8  UNL     1      -2.717  -1.664  -1.680  1.00  0.00     0.188 HD
ATOM     33  H9  UNL     1      -0.381  -0.773  -1.736  1.00  0.00     0.208 HD
BRANCH  29  34
HETATM   34  C6  UNL     1      -4.596  -0.018  -0.283  1.00  0.00     0.059 A 
HETATM   35  C7  UNL     1      -5.352   0.899   0.423  1.00  0.00     0.153 A 
HETATM   36  N3  UNL     1      -6.617   0.483   0.493  1.00  0.00    -0.212 N 
HETATM   37  N5  UNL     1      -6.678  -0.668  -0.149  1.00  0.00    -0.263 N 
HETATM   38  C8  UNL     1      -5.460  -1.017  -0.643  1.00  0.00     0.150 A 
ATOM     39  H5  UNL     1      -7.527  -1.223  -0.260  1.00  0.00     0.190 HD
BRANCH  36  40
HETATM   40  N4  UNL     1      -7.681   1.161   1.138  1.00  0.00    -0.324 N 
ATOM     41  H42 UNL     1      -7.634   2.051   1.634  1.00  0.00     0.178 HD
ATOM     42  H41 UNL     1      -8.649   0.843   1.192  1.00  0.00     0.178 HD
ENDBRANCH  36  40
BRANCH  38  43
HETATM   43  N6  UNL     1      -5.205  -2.200  -1.380  1.00  0.00    -0.290 N 
ATOM     44  H6  UNL     1      -4.262  -2.391  -1.717  1.00  0.00     0.188 HD
BRANCH  43  45
HETATM   45  N7  UNL     1      -6.234  -3.110  -1.650  1.00  0.00    -0.344 N 
ATOM     46  H72 UNL     1      -7.172  -2.904  -1.305  1.00  0.00     0.176 HD
ATOM     47  H71 UNL     1      -6.050  -3.962  -2.181  1.00  0.00     0.176 HD
ENDBRANCH  43  45
ENDBRANCH  38  43
ENDBRANCH  29  34
ENDBRANCH  26  27
ENDBRANCH   1  26
BRANCH   2  48
HETATM   48  N11 UNL     1       0.656   3.429   1.578  1.00  0.00    -0.344 N 
ATOM     49 2H11 UNL     1       0.155   3.714   0.736  1.00  0.00     0.176 HD
ATOM     50 1H11 UNL     1       0.830   4.127   2.301  1.00  0.00     0.176 HD
ENDBRANCH   2  48
TORSDOF 11
