REMARK  11 active torsions:
REMARK  status: ('A' for Active; 'I' for Inactive)
REMARK       I    between atoms: N1_2  and  C2_4 
REMARK    1  A    between atoms: C2_4  and  C3_6 
REMARK    2  A    between atoms: C5_13  and  C6_14 
REMARK    3  A    between atoms: C9_21  and  O4_22 
REMARK    4  A    between atoms: C10_24  and  N6_25 
REMARK    5  A    between atoms: N6_25  and  O5_27 
REMARK    6  A    between atoms: C12_29  and  N7_30 
REMARK    7  A    between atoms: N7_30  and  N8_32 
REMARK    8  A    between atoms: N9_34  and  N10_36 
REMARK    9  A    between atoms: N10_36  and  N11_38 
REMARK   10  A    between atoms: N12_41  and  C13_42 
REMARK   11  A    between atoms: C13_42  and  N13_43 
ROOT
HETATM    1  C3  UNL     1       3.667   0.408  -1.025  1.00  0.00     0.148 A 
HETATM    2  N2  UNL     1       3.459  -0.463  -2.090  1.00  0.00    -0.279 N 
ATOM      3  H2  UNL     1       4.169  -0.732  -2.771  1.00  0.00     0.189 HD
HETATM    4  N3  UNL     1       2.238  -0.881  -2.093  1.00  0.00    -0.234 N 
ATOM      5  H3  UNL     1       1.828  -1.526  -2.768  1.00  0.00     0.209 HD
HETATM    6  N4  UNL     1       1.612  -0.328  -1.069  1.00  0.00    -0.231 N 
HETATM    7  C4  UNL     1       2.480   0.478  -0.383  1.00  0.00     0.126 A 
HETATM    8  C5  UNL     1       2.053   1.174   0.727  1.00  0.00     0.143 A 
HETATM    9  N5  UNL     1       0.725   1.032   1.105  1.00  0.00    -0.333 N 
ATOM     10  H5  UNL     1       0.373   1.536   1.919  1.00  0.00     0.168 HD
HETATM   11  C7  UNL     1      -0.092   0.243   0.413  1.00  0.00     0.143 A 
HETATM   12  C8  UNL     1       0.337  -0.449  -0.682  1.00  0.00     0.138 A 
HETATM   13  C9  UNL     1      -0.551  -1.269  -1.387  1.00  0.00     0.131 A 
HETATM   14  C10 UNL     1      -1.852  -1.395  -1.002  1.00  0.00     0.135 A 
HETATM   15  C12 UNL     1      -2.283  -0.672   0.135  1.00  0.00     0.158 A 
HETATM   16  N12 UNL     1      -1.401   0.101   0.781  1.00  0.00    -0.289 N 
ENDROOT
BRANCH  15  17
HETATM   17  N7  UNL     1      -3.481  -0.844   0.437  1.00  0.00    -0.268 N 
ATOM     18  H7  UNL     1      -3.798  -1.497  -0.280  1.00  0.00     0.190 HD
BRANCH  17  19
HETATM   19  N8  UNL     1      -4.525  -0.668   1.128  1.00  0.00    -0.225 N 
HETATM   20  N9  UNL     1      -5.413   0.138   1.295  1.00  0.00    -0.214 N 
ATOM     21  H9  UNL     1      -6.123  -0.090   1.991  1.00  0.00     0.211 HD
ATOM     22  H8  UNL     1      -4.665  -1.466   1.748  1.00  0.00     0.210 HD
BRANCH  20  23
HETATM   23  N10 UNL     1      -5.550   1.336   0.629  1.00  0.00    -0.234 N 
ATOM     24  H10 UNL     1      -5.069   2.176   0.952  1.00  0.00     0.209 HD
BRANCH  23  25
HETATM   25  N11 UNL     1      -6.376   1.365  -0.513  1.00  0.00    -0.330 N 
ATOM     26 2H11 UNL     1      -6.850   0.517  -0.823  1.00  0.00     0.178 HD
ATOM     27 1H11 UNL     1      -6.477   2.252  -1.006  1.00  0.00     0.178 HD
ENDBRANCH  23  25
ENDBRANCH  20  23
ENDBRANCH  17  19
ENDBRANCH  15  17
BRANCH  14  28
HETATM   28  N6  UNL     1      -2.769  -2.236  -1.714  1.00  0.00    -0.261 N 
ATOM     29  H6  UNL     1      -2.887  -2.139  -2.723  1.00  0.00     0.194 HD
BRANCH  28  30
HETATM   30  O5  UNL     1      -3.475  -3.160  -1.025  1.00  0.00    -0.285 OA
HETATM   31  C11 UNL     1      -2.670  -4.272  -0.774  1.00  0.00     0.237 C 
ENDBRANCH  28  30
ENDBRANCH  14  28
BRANCH  16  32
HETATM   32  C13 UNL     1      -1.789   0.843   1.973  1.00  0.00     0.362 C 
BRANCH  32  33
HETATM   33  N13 UNL     1      -2.197   2.185   1.717  1.00  0.00    -0.063 N 
ATOM     34 3H13 UNL     1      -1.473   2.687   1.204  1.00  0.00     0.276 HD
ATOM     35 2H13 UNL     1      -2.945   2.205   1.024  1.00  0.00     0.276 HD
ATOM     36 1H13 UNL     1      -2.469   2.705   2.552  1.00  0.00     0.276 HD
ENDBRANCH  32  33
ENDBRANCH  16  32
BRANCH  13  37
HETATM   37  O4  UNL     1      -0.064  -1.955  -2.498  1.00  0.00    -0.356 OA
ATOM     38  H4  UNL     1      -0.667  -2.512  -2.977  1.00  0.00     0.218 HD
ENDBRANCH  13  37
BRANCH   8  39
HETATM   39  C6  UNL     1       2.893   1.909   1.620  1.00  0.00     0.229 C 
HETATM   40  O2  UNL     1       4.091   1.993   1.715  1.00  0.00    -0.643 OA
HETATM   41  O3  UNL     1       2.213   2.715   2.598  1.00  0.00    -0.643 OA
ENDBRANCH   8  39
BRANCH   1  42
HETATM   42  C2  UNL     1       4.950   1.050  -0.827  1.00  0.00     0.271 C 
HETATM   43  N1  UNL     1       6.037   0.227  -0.418  1.00  0.00    -0.360 N 
HETATM   44  C1  UNL     1       7.328   0.830  -0.213  1.00  0.00     0.149 C 
ATOM     45  H1  UNL     1       5.903  -0.774  -0.273  1.00  0.00     0.162 HD
HETATM   46  O1  UNL     1       5.174   2.279  -0.993  1.00  0.00    -0.266 OA
ENDBRANCH   1  42
TORSDOF 11
