REMARK  9 active torsions:
REMARK  status: ('A' for Active; 'I' for Inactive)
REMARK    1  A    between atoms: N1_2  and  N2_3 
REMARK    2  A    between atoms: N1_2  and  C6_21 
REMARK    3  A    between atoms: N2_3  and  C2_5 
REMARK    4  A    between atoms: C2_5  and  O1_6 
REMARK    5  A    between atoms: C2_5  and  C3_8 
REMARK    6  A    between atoms: C3_8  and  N3_9 
REMARK    7  A    between atoms: C8_24  and  C9_25 
REMARK    8  A    between atoms: C12_31  and  N10_32 
REMARK    9  A    between atoms: C13_35  and  N11_36 
ROOT
HETATM    1  C6  UNL     1      -0.037   0.152  -1.064  1.00  0.00     0.185 C 
HETATM    2  C7  UNL     1       0.391   1.026  -2.182  1.00  0.00     0.123 C 
HETATM    3  S1  UNL     1       2.185   0.697  -2.160  1.00  0.00    -0.108 SA
HETATM    4  C8  UNL     1       2.173   0.119  -0.467  1.00  0.00     0.081 C 
HETATM    5  N12 UNL     1       0.984  -0.082  -0.147  1.00  0.00    -0.365 N 
ATOM      6  H12 UNL     1       0.759  -0.419   0.789  1.00  0.00     0.162 HD
ENDROOT
BRANCH   1   7
HETATM    7  N1  UNL     1      -1.218   0.620  -0.351  1.00  0.00    -0.214 NA
HETATM    8  C1  UNL     1      -1.030   1.881   0.303  1.00  0.00     0.138 C 
BRANCH   7   9
HETATM    9  N2  UNL     1      -2.314   0.755  -1.196  1.00  0.00    -0.321 N 
ATOM     10  H2  UNL     1      -2.443   1.566  -1.801  1.00  0.00     0.177 HD
BRANCH   9  11
HETATM   11  C2  UNL     1      -3.247  -0.327  -1.154  1.00  0.00     0.293 C 
BRANCH  11  12
HETATM   12  O1  UNL     1      -4.271  -0.018  -2.061  1.00  0.00    -0.371 OA
ATOM     13  H1  UNL     1      -4.891  -0.737  -2.033  1.00  0.00     0.212 HD
ENDBRANCH  11  12
BRANCH  11  14
HETATM   14  C3  UNL     1      -3.902  -0.494   0.195  1.00  0.00     0.298 A 
HETATM   15  N4  UNL     1      -4.724   0.636   0.549  1.00  0.00    -0.322 N 
HETATM   16  C4  UNL     1      -5.961   0.283   0.646  1.00  0.00     0.191 A 
ATOM     17  H4  UNL     1      -4.376   1.583   0.702  1.00  0.00     0.165 HD
HETATM   18  N5  UNL     1      -7.091   1.102   0.977  1.00  0.00    -0.063 NA
HETATM   19  N6  UNL     1      -6.065  -1.107   0.367  1.00  0.00    -0.319 N 
HETATM   20  C5  UNL     1      -4.899  -1.601   0.100  1.00  0.00     0.157 A 
ATOM     21  H6  UNL     1      -6.935  -1.639   0.376  1.00  0.00     0.169 HD
HETATM   22  N7  UNL     1      -4.594  -2.950  -0.228  1.00  0.00    -0.083 NA
BRANCH  14  23
HETATM   23  N3  UNL     1      -2.961  -0.818   1.230  1.00  0.00    -0.041 N 
ATOM     24  H33 UNL     1      -2.415  -1.643   0.983  1.00  0.00     0.278 HD
ATOM     25  H32 UNL     1      -2.210  -0.130   1.270  1.00  0.00     0.278 HD
ATOM     26  H31 UNL     1      -3.404  -0.931   2.142  1.00  0.00     0.278 HD
ENDBRANCH  14  23
ENDBRANCH  11  14
ENDBRANCH   9  11
ENDBRANCH   7   9
ENDBRANCH   1   7
BRANCH   4  27
HETATM   27  C9  UNL     1       3.396  -0.049   0.307  1.00  0.00     0.041 A 
HETATM   28  C10 UNL     1       3.366  -0.497   1.626  1.00  0.00     0.106 A 
HETATM   29  N8  UNL     1       4.492  -0.656   2.354  1.00  0.00    -0.351 N 
HETATM   30  C11 UNL     1       5.722  -0.390   1.850  1.00  0.00     0.151 A 
ATOM     31  H8  UNL     1       4.415  -0.987   3.316  1.00  0.00     0.166 HD
HETATM   32  N9  UNL     1       6.904  -0.563   2.632  1.00  0.00    -0.080 NA
HETATM   33  C12 UNL     1       5.802   0.062   0.530  1.00  0.00     0.171 A 
HETATM   34  C13 UNL     1       4.646   0.221  -0.204  1.00  0.00     0.077 A 
BRANCH  33  35
HETATM   35  N10 UNL     1       7.080   0.347  -0.021  1.00  0.00    -0.110 N 
HETATM   36  O2  UNL     1       7.740   1.364   0.301  1.00  0.00    -0.532 OA
HETATM   37  O3  UNL     1       7.680  -0.483  -0.954  1.00  0.00    -0.532 OA
ENDBRANCH  33  35
BRANCH  34  38
HETATM   38  N11 UNL     1       4.736   0.646  -1.439  1.00  0.00    -0.396 N 
ATOM     39 2H11 UNL     1       3.881   0.764  -1.982  1.00  0.00     0.156 HD
ATOM     40 1H11 UNL     1       5.662   0.846  -1.817  1.00  0.00     0.156 HD
ENDBRANCH  34  38
ENDBRANCH   4  27
TORSDOF 9
