REMARK  11 active torsions:
REMARK  status: ('A' for Active; 'I' for Inactive)
REMARK    1  A    between atoms: O1_2  and  C2_3 
REMARK    2  A    between atoms: C7_9  and  O3_10 
REMARK    3  A    between atoms: O3_10  and  C8_11 
REMARK    4  A    between atoms: C9_13  and  C10_14 
REMARK    5  A    between atoms: C10_14  and  O5_15 
REMARK    6  A    between atoms: C11_17  and  O6_19 
REMARK    7  A    between atoms: N1_22  and  O7_24 
REMARK    8  A    between atoms: C14_26  and  N2_27 
REMARK    9  A    between atoms: C15_31  and  N3_32 
REMARK       I    between atoms: N3_32  and  C16_34 
REMARK   10  A    between atoms: C16_34  and  C17_36 
REMARK   11  A    between atoms: C17_36  and  N4_38 
ROOT
HETATM    1  O3  UNL     1       0.184  -0.829  -0.845  1.00  0.00    -0.351 OA
ENDROOT
BRANCH   1   2
HETATM    2  C7  UNL     1      -0.461  -1.282   0.309  1.00  0.00     0.158 C 
HETATM    3  C5  UNL     1      -0.201  -2.766   0.448  1.00  0.00     0.041 C 
HETATM    4  C3  UNL     1      -1.295  -3.608  -0.153  1.00  0.00     0.127 C 
HETATM    5  C6  UNL     1       0.039  -3.159   1.885  1.00  0.00     0.015 C 
HETATM    6  O2  UNL     1      -2.541  -3.309   0.298  1.00  0.00    -0.354 OA
HETATM    7  C4  UNL     1      -1.207  -3.617  -1.681  1.00  0.00     0.040 C 
HETATM    8  C2  UNL     1      -2.787  -2.061   0.737  1.00  0.00     0.284 C 
HETATM    9  C15 UNL     1      -1.909  -0.966   0.206  1.00  0.00     0.169 C 
BRANCH   8  10
HETATM   10  O1  UNL     1      -2.861  -2.070   2.128  1.00  0.00    -0.364 OA
HETATM   11  C1  UNL     1      -4.147  -1.765   2.573  1.00  0.00     0.204 C 
ENDBRANCH   8  10
BRANCH   9  12
HETATM   12  N3  UNL     1      -2.166   0.299   0.852  1.00  0.00    -0.347 N 
HETATM   13  C16 UNL     1      -2.750   1.412   0.242  1.00  0.00     0.248 C 
HETATM   14  O8  UNL     1      -3.107   1.398  -0.974  1.00  0.00    -0.271 OA
ATOM     15  H3  UNL     1      -1.900   0.387   1.833  1.00  0.00     0.163 HD
BRANCH  13  16
HETATM   16  C17 UNL     1      -2.988   2.673   0.978  1.00  0.00     0.270 C 
HETATM   17  C18 UNL     1      -1.666   3.213   1.473  1.00  0.00     0.050 C 
BRANCH  16  18
HETATM   18  N4  UNL     1      -3.569   3.700   0.130  1.00  0.00    -0.067 N 
ATOM     19  H43 UNL     1      -2.999   3.859  -0.701  1.00  0.00     0.275 HD
ATOM     20  H42 UNL     1      -4.422   3.368  -0.320  1.00  0.00     0.275 HD
ATOM     21  H41 UNL     1      -3.733   4.569   0.637  1.00  0.00     0.275 HD
ENDBRANCH  16  18
ENDBRANCH  13  16
ENDBRANCH   9  12
ENDBRANCH   1   2
BRANCH   1  22
HETATM   22  C8  UNL     1       1.259   0.019  -0.569  1.00  0.00     0.297 C 
HETATM   23  O4  UNL     1       2.379  -0.629  -1.088  1.00  0.00    -0.348 OA
HETATM   24  C9  UNL     1       3.568   0.018  -0.911  1.00  0.00     0.188 C 
HETATM   25  C11 UNL     1       3.444   1.516  -0.729  1.00  0.00     0.124 C 
HETATM   26  C12 UNL     1       4.713   2.224  -1.174  1.00  0.00     0.055 C 
HETATM   27  C13 UNL     1       2.300   1.948  -1.569  1.00  0.00     0.081 C 
HETATM   28  N1  UNL     1       2.419   2.769  -2.534  1.00  0.00    -0.272 N 
HETATM   29  C14 UNL     1       0.974   1.345  -1.204  1.00  0.00     0.288 C 
ATOM     30  H1  UNL     1       3.351   3.137  -2.724  1.00  0.00     0.193 HD
BRANCH  24  31
HETATM   31  C10 UNL     1       4.481  -0.555   0.128  1.00  0.00     0.199 C 
BRANCH  31  32
HETATM   32  O5  UNL     1       4.811  -1.878  -0.198  1.00  0.00    -0.398 OA
ATOM     33  H5  UNL     1       5.390  -2.242   0.461  1.00  0.00     0.209 HD
ENDBRANCH  31  32
ENDBRANCH  24  31
BRANCH  25  34
HETATM   34  O6  UNL     1       3.207   1.844   0.583  1.00  0.00    -0.381 OA
ATOM     35  H6  UNL     1       3.129   2.784   0.697  1.00  0.00     0.211 HD
ENDBRANCH  25  34
BRANCH  28  36
HETATM   36  O7  UNL     1       1.408   3.194  -3.330  1.00  0.00    -0.290 OA
ATOM     37  H7  UNL     1       1.497   3.807  -4.050  1.00  0.00     0.244 HD
ENDBRANCH  28  36
BRANCH  29  38
HETATM   38  N2  UNL     1       0.148   1.277  -2.384  1.00  0.00    -0.065 N 
ATOM     39  H23 UNL     1       0.555   0.637  -3.066  1.00  0.00     0.275 HD
ATOM     40  H22 UNL     1      -0.723   0.786  -2.180  1.00  0.00     0.275 HD
ATOM     41  H21 UNL     1      -0.046   2.180  -2.816  1.00  0.00     0.275 HD
ENDBRANCH  29  38
ENDBRANCH   1  22
TORSDOF 11
