REMARK  8 active torsions:
REMARK  status: ('A' for Active; 'I' for Inactive)
REMARK    1  A    between atoms: C1_2  and  C2_7 
REMARK    2  A    between atoms: N2_3  and  O1_5 
REMARK    3  A    between atoms: C5_12  and  C6_13 
REMARK    4  A    between atoms: C6_13  and  N4_14 
REMARK    5  A    between atoms: N5_17  and  C9_18 
REMARK    6  A    between atoms: C9_18  and  C10_19 
REMARK    7  A    between atoms: N7_29  and  O2_30 
REMARK    8  A    between atoms: C18_32  and  N8_33 
REMARK       I    between atoms: N8_33  and  C19_35 
REMARK       I    between atoms: C19_35  and  N9_36 
REMARK       I    between atoms: C19_35  and  N10_40 
ROOT
HETATM    1  C2  UNL     1      -5.328  -0.625  -0.374  1.00  0.00     0.152 A 
HETATM    2  N3  UNL     1      -4.638  -0.691  -1.527  1.00  0.00    -0.322 N 
ATOM      3  H3  UNL     1      -5.108  -0.987  -2.383  1.00  0.00     0.169 HD
HETATM    4  C3  UNL     1      -3.330  -0.369  -1.558  1.00  0.00     0.169 A 
HETATM    5  C4  UNL     1      -2.751   0.020  -0.384  1.00  0.00     0.082 A 
HETATM    6  C5  UNL     1      -1.430   0.280  -0.690  1.00  0.00     0.064 A 
HETATM    7  N6  UNL     1      -1.283   0.040  -2.005  1.00  0.00    -0.274 N 
ATOM      8  H6  UNL     1      -0.404   0.150  -2.511  1.00  0.00     0.189 HD
HETATM    9  N7  UNL     1      -2.405  -0.352  -2.560  1.00  0.00    -0.145 N 
HETATM   10  C18 UNL     1      -3.446   0.100   0.843  1.00  0.00     0.121 A 
HETATM   11  N11 UNL     1      -4.743  -0.235   0.796  1.00  0.00    -0.325 N 
ATOM     12  H11 UNL     1      -5.302  -0.198   1.648  1.00  0.00     0.169 HD
ENDROOT
BRANCH   6  13
HETATM   13  C6  UNL     1      -0.416   0.735   0.293  1.00  0.00     0.182 C 
BRANCH  13  14
HETATM   14  N4  UNL     1       0.890   0.930  -0.255  1.00  0.00    -0.382 N 
HETATM   15  C7  UNL     1       1.532  -0.153  -0.837  1.00  0.00     0.102 C 
HETATM   16  C8  UNL     1       2.956  -0.424  -0.496  1.00  0.00     0.102 C 
HETATM   17  N5  UNL     1       3.703   0.653   0.015  1.00  0.00    -0.383 N 
HETATM   18  C16 UNL     1       3.036   1.661   0.745  1.00  0.00     0.142 C 
HETATM   19  C17 UNL     1       1.647   1.968   0.327  1.00  0.00     0.142 C 
BRANCH  17  20
HETATM   20  C9  UNL     1       4.912   1.008  -0.630  1.00  0.00     0.160 C 
BRANCH  20  21
HETATM   21  C10 UNL     1       5.938  -0.071  -0.638  1.00  0.00    -0.040 A 
HETATM   22  C11 UNL     1       6.137  -0.891  -1.727  1.00  0.00     0.009 A 
HETATM   23  C12 UNL     1       7.083  -1.876  -1.723  1.00  0.00     0.001 A 
HETATM   24  C13 UNL     1       7.887  -2.108  -0.643  1.00  0.00     0.000 A 
HETATM   25  C14 UNL     1       7.696  -1.285   0.467  1.00  0.00     0.001 A 
HETATM   26  C15 UNL     1       6.743  -0.290   0.469  1.00  0.00     0.009 A 
ENDBRANCH  20  21
ENDBRANCH  17  20
ENDBRANCH  13  14
ENDBRANCH   6  13
BRANCH  10  27
HETATM   27  N8  UNL     1      -2.795   0.506   1.855  1.00  0.00    -0.326 N 
HETATM   28  C19 UNL     1      -3.207   0.682   3.183  1.00  0.00     0.481 C 
HETATM   29  N9  UNL     1      -3.895  -0.468   3.695  1.00  0.00    -0.033 N 
HETATM   30  N10 UNL     1      -4.091   1.839   3.264  1.00  0.00    -0.033 N 
ATOM     31  H93 UNL     1      -4.680  -0.725   3.096  1.00  0.00     0.278 HD
ATOM     32  H92 UNL     1      -3.330  -1.311   3.593  1.00  0.00     0.278 HD
ATOM     33  H91 UNL     1      -4.195  -0.340   4.661  1.00  0.00     0.278 HD
ATOM     34 3H10 UNL     1      -3.663   2.680   2.877  1.00  0.00     0.278 HD
ATOM     35 2H10 UNL     1      -4.879   1.769   2.621  1.00  0.00     0.278 HD
ATOM     36 1H10 UNL     1      -4.391   1.967   4.230  1.00  0.00     0.278 HD
ATOM     37  H8  UNL     1      -1.819   0.741   1.673  1.00  0.00     0.164 HD
ENDBRANCH  10  27
BRANCH   9  38
HETATM   38  O2  UNL     1      -2.694  -0.697  -3.864  1.00  0.00    -0.266 OA
ATOM     39  H2  UNL     1      -2.050  -0.685  -4.562  1.00  0.00     0.247 HD
ENDBRANCH   9  38
BRANCH   1  40
HETATM   40  C1  UNL     1      -6.738  -0.962  -0.334  1.00  0.00     0.180 C 
HETATM   41  N1  UNL     1      -7.482  -0.894   0.870  1.00  0.00    -0.077 NA
HETATM   42  N2  UNL     1      -7.379  -1.334  -1.386  1.00  0.00    -0.252 N 
ATOM     43  H2  UNL     1      -8.371  -1.557  -1.306  1.00  0.00     0.195 HD
BRANCH  42  44
HETATM   44  O1  UNL     1      -6.781  -1.439  -2.593  1.00  0.00    -0.288 OA
ATOM     45  H1  UNL     1      -7.254  -1.714  -3.370  1.00  0.00     0.244 HD
ENDBRANCH  42  44
ENDBRANCH   1  40
TORSDOF 8
