REMARK  13 active torsions:
REMARK  status: ('A' for Active; 'I' for Inactive)
REMARK    1  A    between atoms: C2_2  and  C3_3 
REMARK    2  A    between atoms: C4_5  and  C5_6 
REMARK    3  A    between atoms: C5_6  and  N1_7 
REMARK    4  A    between atoms: C6_12  and  O2_13 
REMARK    5  A    between atoms: C7_15  and  O3_16 
REMARK    6  A    between atoms: O3_16  and  C8_17 
REMARK    7  A    between atoms: C9_18  and  N2_19 
REMARK    8  A    between atoms: C11_24  and  N3_25 
REMARK    9  A    between atoms: C12_29  and  O4_30 
REMARK   10  A    between atoms: C13_32  and  O5_33 
REMARK   11  A    between atoms: O5_33  and  C14_34 
REMARK   12  A    between atoms: C17_37  and  N4_38 
REMARK   13  A    between atoms: C18_42  and  N5_43 
ROOT
HETATM    1  C8  UNL     1      -0.249  -1.723  -0.063  1.00  0.00     0.184 C 
HETATM    2  C9  UNL     1      -0.704  -2.993   0.639  1.00  0.00     0.217 C 
HETATM    3  C10 UNL     1       0.267  -4.127   0.392  1.00  0.00     0.071 C 
HETATM    4  C11 UNL     1       0.856  -4.011  -0.970  1.00  0.00     0.216 C 
HETATM    5  C12 UNL     1       1.682  -2.778  -1.093  1.00  0.00     0.180 C 
HETATM    6  C13 UNL     1       1.245  -1.655  -0.166  1.00  0.00     0.186 C 
ENDROOT
BRANCH   1   7
HETATM    7  O3  UNL     1      -0.831  -0.676   0.643  1.00  0.00    -0.370 OA
BRANCH   7   8
HETATM    8  C7  UNL     1      -1.809   0.002  -0.111  1.00  0.00     0.191 C 
HETATM    9  C3  UNL     1      -3.184  -0.183   0.498  1.00  0.00     0.083 C 
HETATM   10  S1  UNL     1      -3.740   1.422   1.136  1.00  0.00    -0.128 SA
HETATM   11  C4  UNL     1      -3.402   2.654  -0.150  1.00  0.00     0.211 C 
HETATM   12  O1  UNL     1      -2.323   2.228  -0.880  1.00  0.00    -0.342 OA
HETATM   13  C6  UNL     1      -1.415   1.442  -0.202  1.00  0.00     0.288 C 
BRANCH   9  14
HETATM   14  C2  UNL     1      -4.176  -0.717  -0.537  1.00  0.00     0.013 C 
HETATM   15  C1  UNL     1      -5.537  -0.903   0.047  1.00  0.00     0.006 C 
ENDBRANCH   9  14
BRANCH  11  16
HETATM   16  C5  UNL     1      -3.232   4.037   0.445  1.00  0.00     0.272 C 
BRANCH  16  17
HETATM   17  N1  UNL     1      -4.473   4.318   1.183  1.00  0.00    -0.076 N 
ATOM     18  H13 UNL     1      -5.315   4.220   0.615  1.00  0.00     0.274 HD
ATOM     19  H12 UNL     1      -4.706   3.604   1.873  1.00  0.00     0.274 HD
ATOM     20  H11 UNL     1      -4.359   5.249   1.584  1.00  0.00     0.274 HD
ENDBRANCH  16  17
ENDBRANCH  11  16
BRANCH  13  21
HETATM   21  O2  UNL     1      -1.201   1.905   1.095  1.00  0.00    -0.369 OA
ATOM     22  H2  UNL     1      -0.576   1.364   1.562  1.00  0.00     0.212 HD
ENDBRANCH  13  21
ENDBRANCH   7   8
ENDBRANCH   1   7
BRANCH   2  23
HETATM   23  N2  UNL     1      -0.937  -2.786   2.053  1.00  0.00    -0.072 N 
ATOM     24  H23 UNL     1      -0.115  -2.388   2.507  1.00  0.00     0.274 HD
ATOM     25  H22 UNL     1      -1.595  -2.023   2.210  1.00  0.00     0.274 HD
ATOM     26  H21 UNL     1      -1.242  -3.638   2.524  1.00  0.00     0.274 HD
ENDBRANCH   2  23
BRANCH   6  27
HETATM   27  O5  UNL     1       1.673  -0.436  -0.615  1.00  0.00    -0.351 OA
BRANCH  27  28
HETATM   28  C14 UNL     1       2.567   0.201   0.234  1.00  0.00     0.263 C 
HETATM   29  C15 UNL     1       3.897   0.250  -0.497  1.00  0.00     0.063 C 
HETATM   30  C16 UNL     1       4.144   1.590  -1.129  1.00  0.00     0.042 C 
HETATM   31  C17 UNL     1       4.114   2.627  -0.034  1.00  0.00     0.239 C 
HETATM   32  C18 UNL     1       3.076   2.325   1.016  1.00  0.00     0.351 C 
HETATM   33  O6  UNL     1       2.127   1.425   0.636  1.00  0.00    -0.327 OA
BRANCH  31  34
HETATM   34  N4  UNL     1       5.450   2.740   0.534  1.00  0.00    -0.071 N 
ATOM     35  H43 UNL     1       5.816   1.843   0.854  1.00  0.00     0.274 HD
ATOM     36  H42 UNL     1       6.160   2.937  -0.172  1.00  0.00     0.274 HD
ATOM     37  H41 UNL     1       5.430   3.441   1.274  1.00  0.00     0.274 HD
ENDBRANCH  31  34
BRANCH  32  38
HETATM   38  N5  UNL     1       3.741   2.006   2.264  1.00  0.00    -0.051 N 
ATOM     39  H53 UNL     1       4.418   1.250   2.160  1.00  0.00     0.277 HD
ATOM     40  H52 UNL     1       4.387   2.739   2.557  1.00  0.00     0.277 HD
ATOM     41  H51 UNL     1       3.038   1.802   2.975  1.00  0.00     0.277 HD
ENDBRANCH  32  38
ENDBRANCH  27  28
ENDBRANCH   6  27
BRANCH   5  42
HETATM   42  O4  UNL     1       1.602  -2.362  -2.439  1.00  0.00    -0.391 OA
ATOM     43  H4  UNL     1       2.129  -1.575  -2.517  1.00  0.00     0.210 HD
ENDBRANCH   5  42
BRANCH   4  44
HETATM   44  N3  UNL     1      -0.191  -4.084  -1.972  1.00  0.00    -0.072 N 
ATOM     45  H33 UNL     1      -0.758  -4.926  -1.871  1.00  0.00     0.274 HD
ATOM     46  H32 UNL     1      -0.922  -3.391  -1.812  1.00  0.00     0.274 HD
ATOM     47  H31 UNL     1       0.213  -4.005  -2.905  1.00  0.00     0.274 HD
ENDBRANCH   4  44
TORSDOF 13
