REMARK  11 active torsions:
REMARK  status: ('A' for Active; 'I' for Inactive)
REMARK    1  A    between atoms: N1_1  and  C1_4 
REMARK    2  A    between atoms: C2_10  and  N4_11 
REMARK    3  A    between atoms: N4_11  and  C3_13 
REMARK    4  A    between atoms: C3_13  and  C4_14 
REMARK    5  A    between atoms: C4_14  and  C5_16 
REMARK    6  A    between atoms: C5_16  and  O3_17 
REMARK    7  A    between atoms: O3_17  and  C6_18 
REMARK    8  A    between atoms: C9_21  and  O4_22 
REMARK    9  A    between atoms: C11_25  and  S1_26 
REMARK   10  A    between atoms: S1_26  and  N5_29 
REMARK       I    between atoms: N5_29  and  C12_31 
REMARK   11  A    between atoms: C13_34  and  O8_35 
ROOT
HETATM    1  C6  UNL     1      -1.074   1.004  -0.068  1.00  0.00     0.187 A 
HETATM    2  C7  UNL     1      -0.217   1.042  -1.173  1.00  0.00     0.081 A 
HETATM    3  C8  UNL     1       1.033   0.640  -0.756  1.00  0.00     0.038 A 
HETATM    4  C9  UNL     1       2.243   0.488  -1.401  1.00  0.00     0.080 A 
HETATM    5  C10 UNL     1       3.329   0.055  -0.671  1.00  0.00     0.065 A 
HETATM    6  C11 UNL     1       3.227  -0.227   0.689  1.00  0.00     0.118 A 
HETATM    7  C13 UNL     1       2.011  -0.065   1.295  1.00  0.00     0.124 A 
HETATM    8  C14 UNL     1       0.885   0.368   0.607  1.00  0.00     0.126 A 
HETATM    9  O9  UNL     1      -0.361   0.601   0.937  1.00  0.00    -0.284 OA
ENDROOT
BRANCH   1  10
HETATM   10  O3  UNL     1      -2.415   1.354  -0.153  1.00  0.00    -0.323 OA
BRANCH  10  11
HETATM   11  C5  UNL     1      -2.814   2.701  -0.052  1.00  0.00     0.258 C 
BRANCH  11  12
HETATM   12  C4  UNL     1      -4.248   2.893  -0.160  1.00  0.00     0.168 C 
HETATM   13  O2  UNL     1      -4.672   4.057  -0.080  1.00  0.00    -0.294 OA
BRANCH  12  14
HETATM   14  C3  UNL     1      -5.258   1.848  -0.355  1.00  0.00     0.202 C 
BRANCH  14  15
HETATM   15  N4  UNL     1      -4.653   0.562  -0.435  1.00  0.00    -0.365 N 
ATOM     16  H4  UNL     1      -3.716   0.501  -0.834  1.00  0.00     0.161 HD
BRANCH  15  17
HETATM   17  C2  UNL     1      -5.211  -0.533  -0.036  1.00  0.00     0.169 A 
HETATM   18  C1  UNL     1      -4.639  -1.782  -0.107  1.00  0.00     0.167 A 
HETATM   19  N2  UNL     1      -5.537  -2.649   0.408  1.00  0.00    -0.222 N 
HETATM   20  O1  UNL     1      -6.579  -1.975   0.765  1.00  0.00    -0.153 OA
ATOM     21  H2  UNL     1      -5.414  -3.657   0.499  1.00  0.00     0.198 HD
HETATM   22  N3  UNL     1      -6.424  -0.710   0.518  1.00  0.00    -0.222 N 
ATOM     23  H3  UNL     1      -7.105   0.024   0.711  1.00  0.00     0.198 HD
BRANCH  18  24
HETATM   24  N1  UNL     1      -3.485  -2.140  -0.559  1.00  0.00    -0.381 N 
ATOM     25  H12 UNL     1      -3.061  -3.066  -0.612  1.00  0.00     0.157 HD
ATOM     26  H11 UNL     1      -2.807  -1.485  -0.948  1.00  0.00     0.157 HD
ENDBRANCH  18  24
ENDBRANCH  15  17
ENDBRANCH  14  15
ENDBRANCH  12  14
ENDBRANCH  11  12
ENDBRANCH  10  11
ENDBRANCH   1  10
BRANCH   4  27
HETATM   27  O4  UNL     1       2.305   0.779  -2.755  1.00  0.00    -0.360 OA
ATOM     28  H4  UNL     1       3.138   0.674  -3.199  1.00  0.00     0.217 HD
ENDBRANCH   4  27
BRANCH   7  29
HETATM   29  O8  UNL     1       1.878  -0.338   2.647  1.00  0.00    -0.357 OA
ATOM     30  H8  UNL     1       1.034  -0.226   3.068  1.00  0.00     0.218 HD
ENDBRANCH   7  29
BRANCH   6  31
HETATM   31  S1  UNL     1       4.637  -0.777   1.587  1.00  0.00     0.269 S 
HETATM   32  O5  UNL     1       4.368  -2.091   2.272  1.00  0.00    -0.200 OA
HETATM   33  O6  UNL     1       4.949   0.285   2.612  1.00  0.00    -0.200 OA
BRANCH  31  34
HETATM   34  N5  UNL     1       6.004  -0.876   0.536  1.00  0.00    -0.234 N 
HETATM   35  C12 UNL     1       6.895  -1.984   0.567  1.00  0.00     0.342 C 
HETATM   36  N6  UNL     1       8.016  -2.080  -0.285  1.00  0.00    -0.039 NA
HETATM   37  O7  UNL     1       6.693  -2.924   1.379  1.00  0.00    -0.250 OA
ATOM     38  H5  UNL     1       6.177  -0.119  -0.125  1.00  0.00     0.183 HD
ENDBRANCH  31  34
ENDBRANCH   6  31
TORSDOF 11
