REMARK  10 active torsions:
REMARK  status: ('A' for Active; 'I' for Inactive)
REMARK    1  A    between atoms: C3_5  and  C4_6 
REMARK    2  A    between atoms: C12_14  and  C13_15 
REMARK    3  A    between atoms: C16_21  and  O1_22 
REMARK    4  A    between atoms: O1_22  and  C17_23 
REMARK    5  A    between atoms: C17_23  and  C18_24 
REMARK    6  A    between atoms: C18_24  and  O2_25 
REMARK    7  A    between atoms: N3_29  and  C21_30 
REMARK    8  A    between atoms: C27_36  and  C28_37 
REMARK       I    between atoms: C28_37  and  N4_39 
REMARK    9  A    between atoms: C31_42  and  C32_43 
REMARK   10  A    between atoms: C32_43  and  O4_44 
ROOT
HETATM    1  C13 UNL     1      -4.127  -1.647  -2.653  1.00  0.00     0.358 C 
HETATM    2  F1  UNL     1      -5.565  -1.765  -3.002  1.00  0.00    -0.184 F 
HETATM    3  F2  UNL     1      -4.109  -3.000  -2.524  1.00  0.00    -0.184 F 
HETATM    4  C14 UNL     1      -3.844  -1.036  -3.946  1.00  0.00     0.143 C 
HETATM    5  N2  UNL     1      -3.579  -0.538  -4.985  1.00  0.00    -0.190 NA
ENDROOT
BRANCH   1   6
HETATM    6  C12 UNL     1      -4.252  -0.784  -1.513  1.00  0.00     0.044 A 
HETATM    7  C11 UNL     1      -3.142  -0.439  -0.744  1.00  0.00     0.017 A 
HETATM    8  C5  UNL     1      -1.826  -0.781  -0.800  1.00  0.00     0.009 A 
HETATM    9  C20 UNL     1      -3.349   0.421   0.355  1.00  0.00     0.050 A 
HETATM   10  C4  UNL     1      -1.246  -0.076   0.323  1.00  0.00     0.073 A 
HETATM   11  C6  UNL     1      -1.060  -1.716  -1.544  1.00  0.00    -0.066 C 
HETATM   12  N3  UNL     1      -2.152   0.609   0.973  1.00  0.00    -0.339 N 
HETATM   13  C7  UNL     1      -0.948  -2.246  -2.847  1.00  0.00     0.035 C 
HETATM   14  C10 UNL     1      -0.593  -2.909  -0.619  1.00  0.00     0.035 C 
HETATM   15  C8  UNL     1       0.499  -2.884  -2.781  1.00  0.00     0.005 C 
HETATM   16  C9  UNL     1       0.653  -3.287  -1.355  1.00  0.00     0.005 C 
HETATM   17  C19 UNL     1      -4.584   0.915   0.679  1.00  0.00     0.067 A 
HETATM   18  C16 UNL     1      -5.687   0.600  -0.048  1.00  0.00     0.071 A 
HETATM   19  C15 UNL     1      -5.476  -0.240  -1.119  1.00  0.00     0.052 A 
BRANCH  10  20
HETATM   20  C3  UNL     1       0.206  -0.003   0.549  1.00  0.00     0.061 A 
HETATM   21  N1  UNL     1       0.898  -0.220   1.686  1.00  0.00    -0.357 N 
HETATM   22  C2  UNL     1       2.198   0.097   1.528  1.00  0.00     0.021 A 
ATOM     23  H1  UNL     1       0.491  -0.577   2.551  1.00  0.00     0.166 HD
HETATM   24  C1  UNL     1       3.255  -0.022   2.583  1.00  0.00     0.069 C 
HETATM   25  C27 UNL     1       2.384   0.540   0.245  1.00  0.00     0.056 A 
HETATM   26  C26 UNL     1       1.154   0.474  -0.346  1.00  0.00     0.051 A 
BRANCH  25  27
HETATM   27  C28 UNL     1       3.653   1.018  -0.335  1.00  0.00     0.255 C 
HETATM   28  O3  UNL     1       3.920   2.279  -0.263  1.00  0.00    -0.267 OA
HETATM   29  N4  UNL     1       4.598   0.214  -0.961  1.00  0.00    -0.348 N 
HETATM   30  C29 UNL     1       5.801   0.773  -1.520  1.00  0.00     0.126 C 
HETATM   31  C34 UNL     1       4.434  -1.210  -1.071  1.00  0.00     0.126 C 
HETATM   32  C30 UNL     1       6.531  -0.256  -2.370  1.00  0.00     0.027 C 
HETATM   33  C31 UNL     1       6.786  -1.544  -1.665  1.00  0.00     0.012 C 
HETATM   34  C33 UNL     1       5.778  -1.794  -0.599  1.00  0.00     0.027 C 
BRANCH  33  35
HETATM   35  C32 UNL     1       8.208  -1.622  -1.131  1.00  0.00     0.168 C 
BRANCH  35  36
HETATM   36  O4  UNL     1       8.444  -0.590  -0.232  1.00  0.00    -0.400 OA
ATOM     37  H4  UNL     1       9.332  -0.639   0.102  1.00  0.00     0.209 HD
ENDBRANCH  35  36
ENDBRANCH  33  35
ENDBRANCH  25  27
ENDBRANCH  10  20
BRANCH  12  38
HETATM   38  C21 UNL     1      -1.920   1.409   2.091  1.00  0.00     0.090 C 
HETATM   39  C22 UNL     1      -2.019   2.931   1.875  1.00  0.00     0.026 C 
HETATM   40  C23 UNL     1      -1.734   3.427   3.298  1.00  0.00     0.002 C 
HETATM   41  C24 UNL     1      -1.723   2.208   4.200  1.00  0.00     0.002 C 
HETATM   42  C25 UNL     1      -2.647   1.277   3.343  1.00  0.00     0.026 C 
ENDBRANCH  12  38
BRANCH  18  43
HETATM   43  O1  UNL     1      -6.930   1.056   0.225  1.00  0.00    -0.349 OA
BRANCH  43  44
HETATM   44  C17 UNL     1      -7.479   1.871   1.163  1.00  0.00     0.201 C 
BRANCH  44  45
HETATM   45  C18 UNL     1      -7.014   3.303   1.217  1.00  0.00     0.190 C 
BRANCH  45  46
HETATM   46  O2  UNL     1      -7.716   3.956   2.262  1.00  0.00    -0.399 OA
ATOM     47  H2  UNL     1      -7.423   4.859   2.296  1.00  0.00     0.209 HD
ENDBRANCH  45  46
ENDBRANCH  44  45
ENDBRANCH  43  44
ENDBRANCH  18  43
ENDBRANCH   1   6
TORSDOF 10
