REMARK  9 active torsions:
REMARK  status: ('A' for Active; 'I' for Inactive)
REMARK    1  A    between atoms: N1_2  and  C2_4 
REMARK    2  A    between atoms: C3_5  and  O1_6 
REMARK    3  A    between atoms: O1_6  and  C4_7 
REMARK    4  A    between atoms: C11_20  and  N4_21 
REMARK    5  A    between atoms: C12_22  and  N5_23 
REMARK    6  A    between atoms: C22_33  and  C24_35 
REMARK    7  A    between atoms: C26_37  and  C27_38 
REMARK    8  A    between atoms: C30_41  and  O2_42 
REMARK    9  A    between atoms: C31_44  and  C32_45 
ROOT
HETATM    1  N4  UNL     1       0.323   1.025  -1.085  1.00  0.00    -0.310 N 
HETATM    2  C12 UNL     1       0.434   2.460  -0.711  1.00  0.00     0.071 C 
HETATM    3  C18 UNL     1      -0.661   3.183  -1.319  1.00  0.00     0.009 C 
HETATM    4  C19 UNL     1      -1.655   3.963  -0.549  1.00  0.00     0.022 C 
HETATM    5  C20 UNL     1      -0.197   4.154  -2.443  1.00  0.00     0.022 C 
HETATM    6  C21 UNL     1      -1.467   2.072  -2.015  1.00  0.00     0.052 C 
HETATM    7  C22 UNL     1      -0.992   0.740  -1.535  1.00  0.00     0.064 C 
HETATM    8  C23 UNL     1      -0.921  -0.105  -2.866  1.00  0.00     0.044 C 
ENDROOT
BRANCH   1   9
HETATM    9  C11 UNL     1       1.460   0.174  -1.105  1.00  0.00     0.141 A 
HETATM   10  C2  UNL     1       1.983  -0.614  -0.139  1.00  0.00     0.124 A 
HETATM   11  C3  UNL     1       3.131  -1.358  -0.411  1.00  0.00     0.179 A 
HETATM   12  N2  UNL     1       3.694  -1.275  -1.639  1.00  0.00    -0.331 N 
HETATM   13  C10 UNL     1       3.195  -0.508  -2.600  1.00  0.00     0.184 A 
ATOM     14  H2  UNL     1       4.533  -1.822  -1.833  1.00  0.00     0.168 HD
HETATM   15  N3  UNL     1       2.111   0.191  -2.329  1.00  0.00    -0.336 N 
ATOM     16  H3  UNL     1       1.727   0.782  -3.066  1.00  0.00     0.168 HD
BRANCH  10  17
HETATM   17  N1  UNL     1       1.354  -0.643   1.123  1.00  0.00    -0.388 N 
HETATM   18  C1  UNL     1       1.806  -1.506   2.175  1.00  0.00     0.146 C 
ATOM     19  H1  UNL     1       0.555  -0.033   1.292  1.00  0.00     0.159 HD
ENDBRANCH  10  17
BRANCH  11  20
HETATM   20  O1  UNL     1       3.669  -2.141   0.536  1.00  0.00    -0.291 OA
BRANCH  20  21
HETATM   21  C4  UNL     1       4.732  -2.967   0.591  1.00  0.00     0.083 A 
HETATM   22  C5  UNL     1       5.124  -3.388   1.888  1.00  0.00     0.079 A 
HETATM   23  C6  UNL     1       6.178  -4.225   2.106  1.00  0.00     0.121 A 
HETATM   24  F1  UNL     1       6.520  -4.604   3.379  1.00  0.00    -0.206 F 
HETATM   25  C7  UNL     1       6.903  -4.688   1.006  1.00  0.00     0.084 A 
HETATM   26  C8  UNL     1       6.527  -4.284  -0.250  1.00  0.00     0.121 A 
HETATM   27  F2  UNL     1       7.221  -4.721  -1.347  1.00  0.00    -0.206 F 
HETATM   28  C9  UNL     1       5.456  -3.432  -0.477  1.00  0.00     0.079 A 
ENDBRANCH  20  21
ENDBRANCH  11  20
ENDBRANCH   1   9
BRANCH   2  29
HETATM   29  N5  UNL     1       1.120   2.769   0.450  1.00  0.00    -0.272 NA
HETATM   30  C13 UNL     1       2.575   3.019   0.298  1.00  0.00     0.096 C 
HETATM   31  C14 UNL     1       2.920   4.429  -0.061  1.00  0.00     0.015 C 
HETATM   32  C15 UNL     1       2.866   5.215   1.256  1.00  0.00     0.002 C 
HETATM   33  C16 UNL     1       1.820   4.500   2.064  1.00  0.00     0.015 C 
HETATM   34  C17 UNL     1       0.709   3.978   1.152  1.00  0.00     0.096 C 
ENDBRANCH   2  29
BRANCH   7  35
HETATM   35  C24 UNL     1      -1.944  -0.033  -0.749  1.00  0.00    -0.029 A 
HETATM   36  C25 UNL     1      -3.109   0.476  -0.177  1.00  0.00     0.020 A 
HETATM   37  C26 UNL     1      -3.969  -0.304   0.528  1.00  0.00    -0.020 A 
HETATM   38  C30 UNL     1      -3.704  -1.657   0.692  1.00  0.00     0.079 A 
HETATM   39  C31 UNL     1      -2.592  -2.221   0.159  1.00  0.00    -0.016 A 
HETATM   40  C36 UNL     1      -1.736  -1.386  -0.553  1.00  0.00     0.020 A 
BRANCH  37  41
HETATM   41  C27 UNL     1      -5.146   0.339   1.119  1.00  0.00     0.013 C 
HETATM   42  C28 UNL     1      -5.395   1.711   0.536  1.00  0.00     0.015 C 
HETATM   43  C29 UNL     1      -6.397  -0.419   1.219  1.00  0.00     0.015 C 
ENDBRANCH  37  41
BRANCH  38  44
HETATM   44  O2  UNL     1      -4.611  -2.361   1.409  1.00  0.00    -0.360 OA
ATOM     45  H2  UNL     1      -4.430  -3.287   1.521  1.00  0.00     0.217 HD
ENDBRANCH  38  44
BRANCH  39  46
HETATM   46  C32 UNL     1      -2.280  -3.655   0.329  1.00  0.00    -0.021 C 
HETATM   47  C33 UNL     1      -2.115  -4.119   1.730  1.00  0.00     0.019 C 
HETATM   48  C34 UNL     1      -0.926  -3.969  -0.372  1.00  0.00     0.019 C 
HETATM   49  C35 UNL     1      -3.286  -4.467  -0.437  1.00  0.00     0.019 C 
ENDBRANCH  39  46
ENDBRANCH   7  35
TORSDOF 9
