REMARK  8 active torsions:
REMARK  status: ('A' for Active; 'I' for Inactive)
REMARK    1  A    between atoms: S1_2  and  C2_3 
REMARK    2  A    between atoms: C3_6  and  C4_7 
REMARK    3  A    between atoms: C4_7  and  O1_8 
REMARK    4  A    between atoms: C4_7  and  C5_10 
REMARK    5  A    between atoms: C12_19  and  N2_20 
REMARK    6  A    between atoms: N2_20  and  C13_22 
REMARK    7  A    between atoms: N3_29  and  C19_30 
REMARK    8  A    between atoms: C19_30  and  C20_31 
ROOT
HETATM    1  C2  UNL     1       0.549   1.707   0.793  1.00  0.00     0.148 A 
HETATM    2  N1  UNL     1       1.486   1.144   1.557  1.00  0.00    -0.334 N 
ATOM      3  H1  UNL     1       2.078   1.637   2.226  1.00  0.00     0.168 HD
HETATM    4  C3  UNL     1       1.527  -0.169   1.307  1.00  0.00     0.103 A 
HETATM    5  C18 UNL     1       0.551  -0.392   0.333  1.00  0.00     0.218 A 
HETATM    6  F2  UNL     1       0.359  -1.654  -0.157  1.00  0.00    -0.184 F 
HETATM    7  N3  UNL     1      -0.047   0.754   0.018  1.00  0.00    -0.302 N 
ENDROOT
BRANCH   4   8
HETATM    8  C4  UNL     1       2.424  -1.135   1.951  1.00  0.00     0.232 C 
BRANCH   8   9
HETATM    9  O1  UNL     1       3.050  -0.534   3.029  1.00  0.00    -0.383 OA
ATOM     10  H1  UNL     1       3.631  -1.160   3.446  1.00  0.00     0.211 HD
ENDBRANCH   8   9
BRANCH   8  11
HETATM   11  C5  UNL     1       3.438  -1.689   0.984  1.00  0.00     0.115 A 
HETATM   12  O2  UNL     1       3.186  -2.600   0.076  1.00  0.00    -0.309 OA
HETATM   13  C6  UNL     1       4.253  -2.900  -0.631  1.00  0.00     0.088 A 
HETATM   14  C7  UNL     1       4.488  -3.779  -1.676  1.00  0.00     0.041 A 
HETATM   15  C11 UNL     1       5.311  -2.142  -0.179  1.00  0.00     0.030 A 
HETATM   16  C8  UNL     1       5.736  -3.888  -2.239  1.00  0.00     0.045 A 
HETATM   17  C9  UNL     1       6.805  -3.138  -1.798  1.00  0.00     0.117 A 
HETATM   18  F1  UNL     1       8.029  -3.258  -2.367  1.00  0.00    -0.206 F 
HETATM   19  C10 UNL     1       6.557  -2.270  -0.760  1.00  0.00     0.059 A 
HETATM   20  C12 UNL     1       4.775  -1.378   0.848  1.00  0.00     0.074 A 
BRANCH  20  21
HETATM   21  N2  UNL     1       5.469  -0.443   1.647  1.00  0.00    -0.382 N 
ATOM     22  H2  UNL     1       5.937  -0.818   2.472  1.00  0.00     0.160 HD
BRANCH  21  23
HETATM   23  C13 UNL     1       5.594   0.957   1.440  1.00  0.00     0.082 C 
HETATM   24  C14 UNL     1       6.445   1.579   2.538  1.00  0.00     0.025 C 
HETATM   25  C15 UNL     1       7.844   1.641   1.959  1.00  0.00     0.002 C 
HETATM   26  C16 UNL     1       7.717   1.531   0.456  1.00  0.00     0.002 C 
HETATM   27  C17 UNL     1       6.240   1.381   0.150  1.00  0.00     0.025 C 
ENDBRANCH  21  23
ENDBRANCH  20  21
ENDBRANCH   8  11
ENDBRANCH   4   8
BRANCH   1  28
HETATM   28  S1  UNL     1       0.163   3.473   0.811  1.00  0.00    -0.098 SA
HETATM   29  C1  UNL     1       1.186   4.358  -0.397  1.00  0.00     0.099 C 
ENDBRANCH   1  28
BRANCH   7  30
HETATM   30  C19 UNL     1      -1.077   0.997  -0.955  1.00  0.00     0.139 C 
BRANCH  30  31
HETATM   31  C20 UNL     1      -2.484   1.023  -0.437  1.00  0.00     0.013 C 
HETATM   32  C21 UNL     1      -2.980  -0.202   0.192  1.00  0.00     0.024 C 
HETATM   33  C22 UNL     1      -4.402  -0.547   0.025  1.00  0.00     0.026 C 
HETATM   34  C23 UNL     1      -4.638  -2.056  -0.150  1.00  0.00     0.023 C 
HETATM   35  C29 UNL     1      -5.201   0.113  -1.025  1.00  0.00     0.003 C 
HETATM   36  C34 UNL     1      -5.261  -0.317   1.224  1.00  0.00     0.144 C 
HETATM   37  C24 UNL     1      -6.092  -2.258   0.298  1.00  0.00    -0.002 C 
HETATM   38  C25 UNL     1      -6.926  -2.861  -0.796  1.00  0.00     0.011 C 
HETATM   39  C26 UNL     1      -6.549  -0.864   0.677  1.00  0.00     0.021 C 
HETATM   40  C27 UNL     1      -7.701  -0.794   1.572  1.00  0.00     0.024 C 
HETATM   41  C28 UNL     1      -6.668  -0.031  -0.590  1.00  0.00     0.023 C 
HETATM   42  C30 UNL     1      -4.823   1.572  -1.109  1.00  0.00     0.015 C 
HETATM   43  C31 UNL     1      -3.364   1.588  -1.526  1.00  0.00    -0.042 C 
HETATM   44  C32 UNL     1      -3.025   3.048  -1.804  1.00  0.00     0.015 C 
HETATM   45  C33 UNL     1      -3.252   0.837  -2.828  1.00  0.00     0.015 C 
HETATM   46  O3  UNL     1      -5.041   0.150   2.299  1.00  0.00    -0.296 OA
ENDBRANCH  30  31
ENDBRANCH   7  30
TORSDOF 8
