REMARK  9 active torsions:
REMARK  status: ('A' for Active; 'I' for Inactive)
REMARK    1  A    between atoms: C2_2  and  O1_3 
REMARK    2  A    between atoms: O1_3  and  C3_4 
REMARK    3  A    between atoms: C6_8  and  C7_9 
REMARK    4  A    between atoms: C8_10  and  C9_11 
REMARK    5  A    between atoms: C9_11  and  C10_15 
REMARK    6  A    between atoms: C11_16  and  N2_17 
REMARK    7  A    between atoms: N2_17  and  C12_19 
REMARK    8  A    between atoms: C20_31  and  C21_32 
REMARK    9  A    between atoms: C27_40  and  O2_41 
ROOT
HETATM    1  C10 UNL     1      -1.766  -0.534   0.593  1.00  0.00     0.041 C 
HETATM    2  C11 UNL     1      -2.965  -0.948   0.922  1.00  0.00     0.088 C 
HETATM    3  S2  UNL     1      -4.126  -0.119  -0.225  1.00  0.00    -0.073 SA
HETATM    4  C19 UNL     1      -2.995   1.184  -0.613  1.00  0.00     0.024 C 
HETATM    5  C20 UNL     1      -3.219   2.402  -0.900  1.00  0.00     0.036 C 
HETATM    6  C25 UNL     1      -1.694   0.463  -0.496  1.00  0.00     0.248 C 
HETATM    7  F1  UNL     1      -1.625  -0.292  -1.673  1.00  0.00    -0.238 F 
ENDROOT
BRANCH   1   8
HETATM    8  C9  UNL     1      -0.539  -0.973   1.287  1.00  0.00     0.038 C 
HETATM    9  N1  UNL     1      -0.715  -1.682   2.381  1.00  0.00    -0.399 N 
ATOM     10  H12 UNL     1       0.133  -1.985   2.860  1.00  0.00     0.156 HD
ATOM     11  H11 UNL     1      -1.685  -1.923   2.585  1.00  0.00     0.156 HD
BRANCH   8  12
HETATM   12  C8  UNL     1       0.833  -0.632   0.999  1.00  0.00     0.030 C 
HETATM   13  C7  UNL     1       1.398  -0.025   0.021  1.00  0.00     0.014 C 
BRANCH  13  14
HETATM   14  C6  UNL     1       2.874   0.199  -0.011  1.00  0.00    -0.032 A 
HETATM   15  C5  UNL     1       3.695  -0.194   1.004  1.00  0.00     0.033 A 
HETATM   16  C4  UNL     1       5.085   0.015   0.969  1.00  0.00     0.048 A 
HETATM   17  C3  UNL     1       5.629   0.635  -0.127  1.00  0.00     0.119 A 
HETATM   18 BR1  UNL     1       6.166  -0.554   2.412  1.00  0.00    -0.048 Br
HETATM   19  C27 UNL     1       4.801   1.038  -1.163  1.00  0.00     0.103 A 
HETATM   20  C26 UNL     1       3.444   0.823  -1.107  1.00  0.00     0.051 A 
BRANCH  17  21
HETATM   21  O1  UNL     1       6.989   0.876  -0.233  1.00  0.00    -0.347 OA
BRANCH  21  22
HETATM   22  C2  UNL     1       7.483   2.109   0.270  1.00  0.00     0.171 C 
HETATM   23  C1  UNL     1       8.976   2.224   0.078  1.00  0.00     0.034 C 
ENDBRANCH  21  22
ENDBRANCH  17  21
BRANCH  19  24
HETATM   24  O2  UNL     1       5.385   1.662  -2.255  1.00  0.00    -0.353 OA
HETATM   25  C28 UNL     1       4.575   2.084  -3.329  1.00  0.00     0.210 C 
ENDBRANCH  19  24
ENDBRANCH  13  14
ENDBRANCH   8  12
ENDBRANCH   1   8
BRANCH   2  26
HETATM   26  N2  UNL     1      -3.455  -1.827   1.905  1.00  0.00    -0.330 N 
ATOM     27  H2  UNL     1      -3.024  -1.867   2.828  1.00  0.00     0.168 HD
BRANCH  26  28
HETATM   28  C12 UNL     1      -4.483  -2.598   1.609  1.00  0.00     0.150 A 
HETATM   29  N3  UNL     1      -5.082  -3.485   2.397  1.00  0.00    -0.335 N 
HETATM   30  C13 UNL     1      -6.101  -4.162   1.920  1.00  0.00     0.051 A 
ATOM     31  H3  UNL     1      -4.757  -3.637   3.352  1.00  0.00     0.168 HD
HETATM   32  C14 UNL     1      -6.857  -5.140   2.608  1.00  0.00     0.031 A 
HETATM   33  C18 UNL     1      -6.484  -3.910   0.632  1.00  0.00     0.035 A 
HETATM   34  C15 UNL     1      -7.899  -5.772   1.988  1.00  0.00     0.002 A 
HETATM   35  C16 UNL     1      -8.293  -5.527   0.693  1.00  0.00     0.002 A 
HETATM   36  C17 UNL     1      -7.562  -4.576   0.017  1.00  0.00     0.021 A 
HETATM   37  S1  UNL     1      -5.366  -2.710   0.155  1.00  0.00    -0.052 SA
ENDBRANCH  26  28
ENDBRANCH   2  26
BRANCH   5  38
HETATM   38  C21 UNL     1      -2.203   3.438  -1.215  1.00  0.00     0.005 A 
HETATM   39  C22 UNL     1      -1.065   3.337  -1.962  1.00  0.00     0.019 A 
HETATM   40  C23 UNL     1      -0.300   4.427  -2.091  1.00  0.00     0.008 A 
HETATM   41  C24 UNL     1      -0.718   5.569  -1.459  1.00  0.00     0.050 A 
HETATM   42  S3  UNL     1      -2.168   5.081  -0.707  1.00  0.00    -0.102 SA
ENDBRANCH   5  38
TORSDOF 9
