REMARK  10 active torsions:
REMARK  status: ('A' for Active; 'I' for Inactive)
REMARK    1  A    between atoms: C12_13  and  O1_14 
REMARK    2  A    between atoms: O1_14  and  C13_15 
REMARK    3  A    between atoms: C13_15  and  C14_17 
REMARK    4  A    between atoms: C14_17  and  O3_18 
REMARK    5  A    between atoms: C14_17  and  C21_30 
REMARK    6  A    between atoms: O3_18  and  C15_19 
REMARK    7  A    between atoms: C15_19  and  O4_20 
REMARK    8  A    between atoms: C15_19  and  C16_22 
REMARK    9  A    between atoms: C18_25  and  O6_26 
REMARK   10  A    between atoms: C30_39  and  C31_40 
ROOT
HETATM    1  C1  UNL     1      -6.709  -0.343  -0.295  1.00  0.00     0.052 C 
HETATM    2  C2  UNL     1      -5.474   0.440  -0.005  1.00  0.00    -0.008 C 
HETATM    3  C3  UNL     1      -4.298  -0.063  -0.307  1.00  0.00    -0.056 C 
HETATM    4  C4  UNL     1      -3.879  -1.357  -0.911  1.00  0.00     0.027 C 
HETATM    5  C5  UNL     1      -4.390  -1.660  -2.248  1.00  0.00     0.012 C 
HETATM    6  C6  UNL     1      -3.376  -1.124  -3.197  1.00  0.00     0.027 C 
HETATM    7  C7  UNL     1      -2.079  -1.302  -2.442  1.00  0.00     0.042 C 
HETATM    8  C8  UNL     1      -1.556  -2.650  -3.003  1.00  0.00     0.033 C 
HETATM    9 CL1  UNL     1      -0.940  -0.146  -3.121  1.00  0.00    -0.119 Cl
HETATM   10  C9  UNL     1      -2.379  -1.312  -1.046  1.00  0.00    -0.007 C 
HETATM   11  C10 UNL     1      -1.746  -2.563  -0.400  1.00  0.00     0.015 C 
HETATM   12  C11 UNL     1      -0.389  -2.389   0.131  1.00  0.00     0.033 C 
HETATM   13  C12 UNL     1       0.036  -1.101   0.712  1.00  0.00     0.132 C 
HETATM   14  C24 UNL     1      -0.648   0.124   0.116  1.00  0.00     0.039 C 
HETATM   15  C25 UNL     1      -2.056  -0.243  -0.072  1.00  0.00     0.012 C 
HETATM   16  C26 UNL     1      -3.100   0.807  -0.098  1.00  0.00    -0.011 C 
HETATM   17  C27 UNL     1      -2.942   1.907  -1.085  1.00  0.00     0.021 C 
HETATM   18  C28 UNL     1      -3.244   1.526   1.257  1.00  0.00     0.057 C 
HETATM   19  C29 UNL     1      -4.450   2.373   1.210  1.00  0.00    -0.006 C 
HETATM   20  C30 UNL     1      -4.448   3.630   1.570  1.00  0.00     0.012 C 
HETATM   21  C33 UNL     1      -5.654   1.672   0.754  1.00  0.00     0.184 C 
HETATM   22  O7  UNL     1      -6.793   2.126   1.013  1.00  0.00    -0.287 OA
ENDROOT
BRANCH  13  23
HETATM   23  O1  UNL     1       1.423  -0.930   0.658  1.00  0.00    -0.314 OA
BRANCH  23  24
HETATM   24  C13 UNL     1       2.228  -0.785   1.781  1.00  0.00     0.288 C 
HETATM   25  O2  UNL     1       1.653  -0.812   2.899  1.00  0.00    -0.262 OA
BRANCH  24  26
HETATM   26  C14 UNL     1       3.701  -0.605   1.728  1.00  0.00     0.227 C 
BRANCH  26  27
HETATM   27  O3  UNL     1       4.173  -0.602   0.420  1.00  0.00    -0.342 OA
BRANCH  27  28
HETATM   28  C15 UNL     1       4.722   0.593   0.015  1.00  0.00     0.295 C 
BRANCH  28  29
HETATM   29  O4  UNL     1       3.849   1.121  -0.948  1.00  0.00    -0.367 OA
ATOM     30  H4  UNL     1       4.228   1.946  -1.228  1.00  0.00     0.213 HD
ENDBRANCH  28  29
BRANCH  28  31
HETATM   31  C16 UNL     1       6.090   0.525  -0.494  1.00  0.00     0.029 A 
HETATM   32  C17 UNL     1       7.183  -0.139   0.004  1.00  0.00     0.157 A 
HETATM   33  O5  UNL     1       8.231   0.074  -0.780  1.00  0.00    -0.299 OA
HETATM   34  C18 UNL     1       7.900   0.840  -1.768  1.00  0.00     0.189 A 
HETATM   35  C19 UNL     1       6.554   1.159  -1.641  1.00  0.00     0.009 A 
HETATM   36  C20 UNL     1       5.771   2.010  -2.555  1.00  0.00     0.054 C 
BRANCH  34  37
HETATM   37  O6  UNL     1       8.780   1.255  -2.777  1.00  0.00    -0.340 OA
ATOM     38  H6  UNL     1       8.537   1.818  -3.503  1.00  0.00     0.220 HD
ENDBRANCH  34  37
ENDBRANCH  28  31
ENDBRANCH  27  28
ENDBRANCH  26  27
BRANCH  26  39
HETATM   39  C21 UNL     1       4.436  -1.603   2.563  1.00  0.00     0.016 C 
HETATM   40  C22 UNL     1       4.194  -3.025   2.156  1.00  0.00     0.012 C 
HETATM   41  C23 UNL     1       4.113  -1.373   4.034  1.00  0.00     0.012 C 
ENDBRANCH  26  39
ENDBRANCH  24  26
ENDBRANCH  23  24
ENDBRANCH  13  23
BRANCH  20  42
HETATM   42  C31 UNL     1      -3.305   4.356   2.055  1.00  0.00     0.012 C 
HETATM   43  C32 UNL     1      -3.407   5.639   2.397  1.00  0.00     0.084 C 
HETATM   44 CL2  UNL     1      -4.945   6.474   2.265  1.00  0.00    -0.097 Cl
ENDBRANCH  20  42
TORSDOF 10
