REMARK  9 active torsions:
REMARK  status: ('A' for Active; 'I' for Inactive)
REMARK    1  A    between atoms: O1_2  and  C2_3 
REMARK    2  A    between atoms: C3_4  and  C4_5 
REMARK    3  A    between atoms: C7_9  and  O3_10 
REMARK    4  A    between atoms: C8_12  and  C9_13 
REMARK    5  A    between atoms: C14_19  and  O5_20 
REMARK    6  A    between atoms: O5_20  and  C15_21 
REMARK       I    between atoms: C15_21  and  N1_23 
REMARK    7  A    between atoms: N1_23  and  C16_25 
REMARK    8  A    between atoms: C19_28  and  C20_29 
REMARK    9  A    between atoms: C20_29  and  C21_30 
ROOT
HETATM    1  C2  UNL     1      -4.706  -2.072  -0.745  1.00  0.00     0.093 A 
HETATM    2  C3  UNL     1      -4.566  -0.881  -0.080  1.00  0.00     0.070 A 
HETATM    3  C5  UNL     1      -3.351  -0.440   0.473  1.00  0.00     0.102 A 
HETATM    4  C6  UNL     1      -2.274  -1.283   0.307  1.00  0.00     0.078 A 
HETATM    5  C7  UNL     1      -2.421  -2.490  -0.366  1.00  0.00     0.091 A 
HETATM    6  C8  UNL     1      -3.635  -2.918  -0.909  1.00  0.00     0.014 A 
HETATM    7  C12 UNL     1      -0.911  -0.971   0.756  1.00  0.00     0.167 C 
HETATM    8  O4  UNL     1      -0.266  -1.812   1.422  1.00  0.00    -0.292 OA
HETATM    9  C13 UNL     1      -0.209   0.332   0.463  1.00  0.00     0.116 C 
HETATM   10  C14 UNL     1       0.797   0.261  -0.618  1.00  0.00     0.141 C 
HETATM   11  C24 UNL     1       0.360   0.843  -1.943  1.00  0.00     0.033 C 
HETATM   12  C25 UNL     1       0.828   2.303  -2.134  1.00  0.00     0.002 C 
HETATM   13  C26 UNL     1      -0.111   3.095  -1.246  1.00  0.00     0.000 C 
HETATM   14  C27 UNL     1      -0.170   4.560  -1.437  1.00  0.00     0.000 C 
HETATM   15  C28 UNL     1      -0.392   5.215  -0.090  1.00  0.00     0.000 C 
HETATM   16  C29 UNL     1      -1.782   5.014   0.486  1.00  0.00     0.000 C 
HETATM   17  C30 UNL     1      -1.964   3.721   1.152  1.00  0.00     0.000 C 
HETATM   18  C31 UNL     1      -2.904   3.574   2.299  1.00  0.00     0.002 C 
HETATM   19  C32 UNL     1      -2.461   2.244   2.944  1.00  0.00     0.032 C 
HETATM   20  C33 UNL     1      -3.212   1.054   2.518  1.00  0.00     0.125 C 
HETATM   21  C34 UNL     1      -2.806  -0.112   3.369  1.00  0.00     0.040 C 
HETATM   22  O7  UNL     1      -3.301   0.775   1.140  1.00  0.00    -0.344 OA
ENDROOT
BRANCH  10  23
HETATM   23  O5  UNL     1       2.052   0.800  -0.333  1.00  0.00    -0.298 OA
BRANCH  23  24
HETATM   24  C15 UNL     1       3.255   0.061  -0.341  1.00  0.00     0.365 C 
HETATM   25  O6  UNL     1       3.073  -1.124  -0.631  1.00  0.00    -0.238 OA
HETATM   26  N1  UNL     1       4.452   0.689  -0.044  1.00  0.00    -0.303 N 
ATOM     27  H1  UNL     1       4.415   1.685   0.172  1.00  0.00     0.171 HD
BRANCH  26  28
HETATM   28  C16 UNL     1       5.718   0.069  -0.015  1.00  0.00     0.039 A 
HETATM   29  C17 UNL     1       6.863   0.887   0.053  1.00  0.00     0.030 A 
HETATM   30  C18 UNL     1       8.119   0.376   0.097  1.00  0.00     0.012 A 
HETATM   31  C19 UNL     1       8.318  -0.994   0.076  1.00  0.00    -0.017 A 
HETATM   32  C22 UNL     1       7.203  -1.801   0.009  1.00  0.00     0.124 A 
HETATM   33  F2  UNL     1       7.352  -3.164  -0.014  1.00  0.00    -0.205 F 
HETATM   34  C23 UNL     1       5.906  -1.279  -0.036  1.00  0.00     0.072 A 
BRANCH  31  35
HETATM   35  C20 UNL     1       9.679  -1.574   0.121  1.00  0.00     0.073 C 
BRANCH  35  36
HETATM   36  C21 UNL     1       9.949  -2.123   1.522  1.00  0.00     0.227 C 
HETATM   37  F1  UNL     1       9.863  -1.141   2.468  1.00  0.00    -0.255 F 
ENDBRANCH  35  36
ENDBRANCH  31  35
ENDBRANCH  26  28
ENDBRANCH  23  24
ENDBRANCH  10  23
BRANCH   5  38
HETATM   38  O3  UNL     1      -1.346  -3.343  -0.533  1.00  0.00    -0.359 OA
ATOM     39  H3  UNL     1      -1.446  -4.168  -0.993  1.00  0.00     0.217 HD
ENDBRANCH   5  38
BRANCH   2  40
HETATM   40  C4  UNL     1      -5.801  -0.071  -0.023  1.00  0.00     0.275 C 
HETATM   41  O2  UNL     1      -6.584  -0.218   0.921  1.00  0.00    -0.301 OA
ENDBRANCH   2  40
BRANCH   6  42
HETATM   42  C9  UNL     1      -3.808  -4.203  -1.629  1.00  0.00     0.016 C 
HETATM   43  C10 UNL     1      -2.605  -5.017  -1.878  1.00  0.00     0.015 C 
HETATM   44  C11 UNL     1      -4.766  -5.043  -0.774  1.00  0.00     0.015 C 
ENDBRANCH   6  42
BRANCH   1  45
HETATM   45  O1  UNL     1      -5.930  -2.484  -1.285  1.00  0.00    -0.354 OA
HETATM   46  C1  UNL     1      -6.321  -2.160  -2.611  1.00  0.00     0.210 C 
ENDBRANCH   1  45
TORSDOF 9
