REMARK  9 active torsions:
REMARK  status: ('A' for Active; 'I' for Inactive)
REMARK    1  A    between atoms: C8_10  and  N1_11 
REMARK       I    between atoms: N1_11  and  C9_13 
REMARK    2  A    between atoms: C9_13  and  C10_15 
REMARK    3  A    between atoms: C10_15  and  S1_16 
REMARK    4  A    between atoms: S1_16  and  C11_17 
REMARK    5  A    between atoms: C13_21  and  N3_22 
REMARK    6  A    between atoms: N3_22  and  C14_24 
REMARK    7  A    between atoms: C18_28  and  C19_29 
REMARK       I    between atoms: N4_32  and  C22_33 
REMARK    8  A    between atoms: C22_33  and  O3_35 
REMARK    9  A    between atoms: O3_35  and  C23_36 
ROOT
HETATM    1  C11 UNL     1       3.158  -0.541   2.897  1.00  0.00     0.113 A 
HETATM    2  N2  UNL     1       2.733  -1.186   1.830  1.00  0.00    -0.342 N 
ATOM      3  H2  UNL     1       3.386  -1.746   1.282  1.00  0.00     0.167 HD
HETATM    4  C12 UNL     1       1.478  -1.113   1.469  1.00  0.00     0.077 A 
HETATM    5  C13 UNL     1       0.895  -1.753   0.348  1.00  0.00     0.057 A 
HETATM    6  C17 UNL     1      -0.425  -1.572   0.112  1.00  0.00     0.039 A 
HETATM    7  C18 UNL     1      -1.289  -0.805   0.874  1.00  0.00    -0.050 A 
HETATM    8  C29 UNL     1      -0.712  -0.186   1.963  1.00  0.00     0.029 A 
HETATM    9  C30 UNL     1       0.653  -0.345   2.246  1.00  0.00     0.037 A 
HETATM   10  S2  UNL     1       1.728   0.224   3.446  1.00  0.00    -0.063 SA
ENDROOT
BRANCH   1  11
HETATM   11  S1  UNL     1       4.822  -0.480   3.596  1.00  0.00    -0.096 SA
BRANCH  11  12
HETATM   12  C10 UNL     1       5.895  -1.483   2.568  1.00  0.00     0.184 C 
BRANCH  12  13
HETATM   13  C9  UNL     1       6.074  -0.929   1.209  1.00  0.00     0.231 C 
HETATM   14  N1  UNL     1       7.104  -0.001   0.957  1.00  0.00    -0.325 N 
ATOM     15  H1  UNL     1       7.708   0.267   1.734  1.00  0.00     0.169 HD
HETATM   16  O1  UNL     1       5.320  -1.276   0.280  1.00  0.00    -0.272 OA
BRANCH  14  17
HETATM   17  C8  UNL     1       7.352   0.584  -0.315  1.00  0.00     0.051 A 
HETATM   18  C2  UNL     1       8.200   0.029  -1.224  1.00  0.00     0.004 A 
HETATM   19  C1  UNL     1       8.891  -1.254  -0.840  1.00  0.00     0.054 C 
HETATM   20  C3  UNL     1       8.412   0.620  -2.435  1.00  0.00     0.126 A 
HETATM   21  F1  UNL     1       9.282  -0.007  -3.290  1.00  0.00    -0.205 F 
HETATM   22  C4  UNL     1       7.782   1.782  -2.774  1.00  0.00     0.067 A 
HETATM   23  C5  UNL     1       6.922   2.345  -1.851  1.00  0.00     0.045 A 
HETATM   24 CL1  UNL     1       6.109   3.853  -2.298  1.00  0.00    -0.084 Cl
HETATM   25  C6  UNL     1       6.710   1.758  -0.645  1.00  0.00    -0.013 A 
HETATM   26  C7  UNL     1       5.773   2.408   0.304  1.00  0.00     0.052 C 
ENDBRANCH  14  17
ENDBRANCH  12  13
ENDBRANCH  11  12
ENDBRANCH   1  11
BRANCH   5  27
HETATM   27  N3  UNL     1       1.674  -2.563  -0.505  1.00  0.00    -0.384 N 
ATOM     28  H3  UNL     1       2.661  -2.649  -0.264  1.00  0.00     0.160 HD
BRANCH  27  29
HETATM   29  C14 UNL     1       1.244  -3.278  -1.668  1.00  0.00     0.073 C 
HETATM   30  C15 UNL     1       0.184  -4.315  -1.424  1.00  0.00     0.031 C 
HETATM   31  C16 UNL     1       0.766  -2.297  -2.722  1.00  0.00     0.031 C 
ENDBRANCH  27  29
ENDBRANCH   5  27
BRANCH   7  32
HETATM   32  C19 UNL     1      -2.715  -0.609   0.626  1.00  0.00     0.022 C 
HETATM   33  C20 UNL     1      -3.148   0.689   1.258  1.00  0.00     0.029 C 
HETATM   34  C21 UNL     1      -4.390   1.277   0.720  1.00  0.00     0.129 C 
HETATM   35  N4  UNL     1      -5.138   0.462  -0.205  1.00  0.00    -0.328 N 
HETATM   36  C22 UNL     1      -6.453   0.908  -0.498  1.00  0.00     0.363 C 
HETATM   37  C27 UNL     1      -4.647  -0.728  -0.821  1.00  0.00     0.129 C 
HETATM   38  O2  UNL     1      -7.149   0.238  -1.296  1.00  0.00    -0.238 OA
HETATM   39  C28 UNL     1      -3.112  -0.645  -0.817  1.00  0.00     0.029 C 
BRANCH  36  40
HETATM   40  O3  UNL     1      -7.024   2.048   0.046  1.00  0.00    -0.294 OA
BRANCH  40  41
HETATM   41  C23 UNL     1      -8.343   2.426  -0.298  1.00  0.00     0.061 C 
HETATM   42  C24 UNL     1      -8.500   2.675  -1.784  1.00  0.00     0.046 C 
HETATM   43  C25 UNL     1      -8.650   3.745   0.395  1.00  0.00     0.046 C 
HETATM   44  C26 UNL     1      -9.350   1.383   0.105  1.00  0.00     0.046 C 
ENDBRANCH  40  41
ENDBRANCH  36  40
ENDBRANCH   7  32
TORSDOF 9
