REMARK  9 active torsions:
REMARK  status: ('A' for Active; 'I' for Inactive)
REMARK    1  A    between atoms: C2_2  and  C4_4 
REMARK    2  A    between atoms: C2_2  and  C12_17 
REMARK    3  A    between atoms: C4_4  and  N1_5 
REMARK    4  A    between atoms: N1_5  and  C5_7 
REMARK    5  A    between atoms: C8_10  and  O1_11 
REMARK    6  A    between atoms: O1_11  and  C9_12 
REMARK    7  A    between atoms: C18_23  and  C20_25 
REMARK    8  A    between atoms: C20_25  and  C21_26 
REMARK    9  A    between atoms: C25_33  and  O5_34 
ROOT
HETATM    1  C12 UNL     1       1.697  -1.567  -0.161  1.00  0.00    -0.065 C 
HETATM    2  C13 UNL     1       1.753  -0.307  -0.611  1.00  0.00    -0.022 C 
HETATM    3  C14 UNL     1       0.549   0.478  -0.253  1.00  0.00     0.040 C 
HETATM    4  C15 UNL     1      -0.002  -0.307   0.876  1.00  0.00     0.058 C 
HETATM    5  C16 UNL     1      -1.387  -0.161   1.208  1.00  0.00     0.050 C 
HETATM    6  C17 UNL     1      -1.539   1.108   1.278  1.00  0.00     0.023 C 
HETATM    7  C18 UNL     1      -2.757   1.956   1.587  1.00  0.00     0.046 C 
HETATM    8  C19 UNL     1      -2.498   2.538   2.955  1.00  0.00     0.028 C 
HETATM    9  C22 UNL     1      -3.934   1.022   1.564  1.00  0.00     0.144 C 
HETATM   10  O4  UNL     1      -4.584   1.306   2.594  1.00  0.00    -0.296 OA
HETATM   11  C23 UNL     1      -4.651  -0.051   0.903  1.00  0.00     0.069 C 
HETATM   12  C24 UNL     1      -5.974   0.463   0.385  1.00  0.00     0.044 C 
HETATM   13  C25 UNL     1      -5.927   1.137  -0.927  1.00  0.00     0.119 C 
HETATM   14  C26 UNL     1      -4.995   0.624  -1.950  1.00  0.00     0.032 C 
HETATM   15  C27 UNL     1      -3.791  -0.089  -1.446  1.00  0.00     0.015 C 
HETATM   16  C28 UNL     1      -4.035  -0.847  -0.183  1.00  0.00    -0.007 C 
HETATM   17  C29 UNL     1      -5.162  -1.850  -0.586  1.00  0.00     0.018 C 
HETATM   18  C30 UNL     1      -2.912  -1.762   0.208  1.00  0.00     0.137 C 
HETATM   19  C31 UNL     1      -1.822  -1.896  -0.845  1.00  0.00     0.034 C 
HETATM   20  C32 UNL     1      -0.579  -2.476  -0.302  1.00  0.00     0.017 C 
HETATM   21  C33 UNL     1       0.376  -1.722   0.490  1.00  0.00    -0.010 C 
HETATM   22  C34 UNL     1       0.547  -2.445   1.852  1.00  0.00     0.021 C 
HETATM   23  O6  UNL     1      -2.318  -1.211   1.397  1.00  0.00    -0.349 OA
ENDROOT
BRANCH   1  24
HETATM   24  C2  UNL     1       2.792  -2.565  -0.384  1.00  0.00    -0.008 C 
HETATM   25  C1  UNL     1       3.276  -3.252   0.867  1.00  0.00     0.021 C 
HETATM   26  C3  UNL     1       2.468  -3.515  -1.481  1.00  0.00     0.021 C 
BRANCH  24  27
HETATM   27  C4  UNL     1       4.035  -1.785  -0.879  1.00  0.00     0.133 C 
BRANCH  27  28
HETATM   28  N1  UNL     1       4.446  -0.861   0.164  1.00  0.00    -0.389 N 
ATOM     29  H1  UNL     1       3.919  -0.826   1.037  1.00  0.00     0.159 HD
BRANCH  28  30
HETATM   30  C5  UNL     1       5.563  -0.008  -0.007  1.00  0.00     0.028 A 
HETATM   31  C6  UNL     1       6.298  -0.009  -1.155  1.00  0.00     0.032 A 
HETATM   32  C7  UNL     1       7.375   0.826  -1.301  1.00  0.00     0.039 A 
HETATM   33  C8  UNL     1       7.767   1.711  -0.285  1.00  0.00     0.075 A 
HETATM   34  C10 UNL     1       7.029   1.711   0.866  1.00  0.00     0.039 A 
HETATM   35  C11 UNL     1       5.945   0.855   0.983  1.00  0.00     0.032 A 
BRANCH  33  36
HETATM   36  O1  UNL     1       8.839   2.535  -0.442  1.00  0.00    -0.290 OA
BRANCH  36  37
HETATM   37  C9  UNL     1       9.308   3.438   0.488  1.00  0.00     0.505 C 
HETATM   38  F1  UNL     1      10.642   3.142   0.826  1.00  0.00    -0.184 F 
HETATM   39  F2  UNL     1       9.385   4.704  -0.118  1.00  0.00    -0.184 F 
ENDBRANCH  36  37
ENDBRANCH  33  36
ENDBRANCH  28  30
ENDBRANCH  27  28
ENDBRANCH  24  27
ENDBRANCH   1  24
BRANCH   7  40
HETATM   40  C20 UNL     1      -2.838   3.097   0.625  1.00  0.00     0.134 C 
BRANCH  40  41
HETATM   41  C21 UNL     1      -3.949   3.997   0.857  1.00  0.00     0.173 C 
HETATM   42  O2  UNL     1      -4.761   3.918   1.784  1.00  0.00    -0.648 OA
HETATM   43  O3  UNL     1      -4.158   5.077  -0.034  1.00  0.00    -0.648 OA
ENDBRANCH  40  41
ENDBRANCH   7  40
BRANCH  13  44
HETATM   44  O5  UNL     1      -7.240   1.005  -1.473  1.00  0.00    -0.396 OA
ATOM     45  H5  UNL     1      -7.210   1.439  -2.318  1.00  0.00     0.210 HD
ENDBRANCH  13  44
TORSDOF 9
