REMARK  12 active torsions:
REMARK  status: ('A' for Active; 'I' for Inactive)
REMARK    1  A    between atoms: C2_2  and  C3_3 
REMARK    2  A    between atoms: C3_3  and  O1_4 
REMARK    3  A    between atoms: C3_3  and  C4_6 
REMARK    4  A    between atoms: C4_6  and  C6_8 
REMARK    5  A    between atoms: C6_8  and  O2_9 
REMARK    6  A    between atoms: O2_9  and  C7_10 
REMARK    7  A    between atoms: C9_12  and  O3_13 
REMARK    8  A    between atoms: C14_20  and  C15_21 
REMARK    9  A    between atoms: C15_21  and  C17_23 
REMARK   10  A    between atoms: C15_21  and  C23_29 
REMARK   11  A    between atoms: C18_24  and  C19_25 
REMARK   12  A    between atoms: C23_29  and  C24_30 
ROOT
HETATM    1  C7  UNL     1       3.582   0.969  -1.085  1.00  0.00     0.091 A 
HETATM    2  C8  UNL     1       3.159  -0.337  -1.178  1.00  0.00     0.075 A 
HETATM    3  C9  UNL     1       1.864  -0.670  -0.921  1.00  0.00     0.082 A 
HETATM    4  C10 UNL     1       0.927   0.313  -0.556  1.00  0.00     0.048 A 
HETATM    5  C11 UNL     1      -0.359  -0.092  -0.322  1.00  0.00     0.062 A 
HETATM    6 CL1  UNL     1      -0.744  -1.796  -0.497  1.00  0.00    -0.082 Cl
HETATM    7  C12 UNL     1      -1.354   0.848   0.038  1.00  0.00     0.021 A 
HETATM    8  C13 UNL     1      -2.648   0.621   0.281  1.00  0.00     0.032 A 
HETATM    9  C14 UNL     1      -3.452   1.684   0.600  1.00  0.00     0.006 A 
HETATM   10  S1  UNL     1      -2.335   2.989   0.546  1.00  0.00    -0.074 SA
HETATM   11  C25 UNL     1      -0.911   2.137   0.123  1.00  0.00     0.087 A 
HETATM   12  N1  UNL     1       0.391   2.507  -0.118  1.00  0.00    -0.348 N 
ATOM     13  H1  UNL     1       0.650   3.490  -0.033  1.00  0.00     0.166 HD
HETATM   14  C26 UNL     1       1.328   1.618  -0.460  1.00  0.00     0.068 A 
HETATM   15  C27 UNL     1       2.635   1.940  -0.720  1.00  0.00     0.072 A 
HETATM   16 BR1  UNL     1       3.187   3.769  -0.588  1.00  0.00    -0.046 Br
ENDROOT
BRANCH   9  17
HETATM   17  C15 UNL     1      -4.915   1.680   0.848  1.00  0.00     0.063 C 
HETATM   18  C16 UNL     1      -5.548   2.729  -0.059  1.00  0.00     0.035 C 
BRANCH  17  19
HETATM   19  C17 UNL     1      -5.411   0.377   0.329  1.00  0.00    -0.090 C 
HETATM   20  C18 UNL     1      -5.793  -0.697  -0.108  1.00  0.00    -0.097 C 
BRANCH  20  21
HETATM   21  C19 UNL     1      -6.227  -1.983  -0.651  1.00  0.00     0.013 C 
HETATM   22  C20 UNL     1      -7.692  -2.274  -0.353  1.00  0.00     0.028 C 
HETATM   23  C21 UNL     1      -5.987  -1.921  -2.146  1.00  0.00     0.028 C 
HETATM   24  C22 UNL     1      -5.397  -3.137  -0.088  1.00  0.00     0.028 C 
ENDBRANCH  20  21
ENDBRANCH  17  19
BRANCH  17  25
HETATM   25  C23 UNL     1      -5.374   1.902   2.226  1.00  0.00     0.140 C 
BRANCH  25  26
HETATM   26  C24 UNL     1      -5.079   3.120   2.916  1.00  0.00     0.174 C 
HETATM   27  O4  UNL     1      -5.935   3.442   3.859  1.00  0.00    -0.648 OA
HETATM   28  O5  UNL     1      -4.069   3.981   2.749  1.00  0.00    -0.648 OA
ENDBRANCH  25  26
ENDBRANCH  17  25
ENDBRANCH   9  17
BRANCH   3  29
HETATM   29  O3  UNL     1       1.485  -1.985  -1.033  1.00  0.00    -0.360 OA
ATOM     30  H3  UNL     1       0.581  -2.217  -0.854  1.00  0.00     0.217 HD
ENDBRANCH   3  29
BRANCH   1  31
HETATM   31  O2  UNL     1       4.860   1.404  -1.342  1.00  0.00    -0.349 OA
BRANCH  31  32
HETATM   32  C6  UNL     1       5.992   0.693  -1.646  1.00  0.00     0.182 C 
BRANCH  32  33
HETATM   33  C4  UNL     1       6.784   0.053  -0.576  1.00  0.00     0.035 C 
HETATM   34  C5  UNL     1       7.694   1.055   0.146  1.00  0.00     0.015 C 
BRANCH  33  35
HETATM   35  C3  UNL     1       6.209  -0.894   0.385  1.00  0.00     0.123 C 
BRANCH  35  36
HETATM   36  C2  UNL     1       7.387  -1.660   1.061  1.00  0.00     0.027 C 
HETATM   37  C1  UNL     1       8.026  -2.505  -0.040  1.00  0.00     0.007 C 
ENDBRANCH  35  36
BRANCH  35  38
HETATM   38  O1  UNL     1       5.577  -0.139   1.422  1.00  0.00    -0.395 OA
ATOM     39  H1  UNL     1       4.859   0.328   1.010  1.00  0.00     0.210 HD
ENDBRANCH  35  38
ENDBRANCH  33  35
ENDBRANCH  32  33
ENDBRANCH  31  32
ENDBRANCH   1  31
TORSDOF 12
