REMARK  8 active torsions:
REMARK  status: ('A' for Active; 'I' for Inactive)
REMARK    1  A    between atoms: C2_2  and  C3_3 
REMARK    2  A    between atoms: C3_3  and  N1_4 
REMARK       I    between atoms: N1_4  and  C4_6 
REMARK       I    between atoms: C4_6  and  N2_8 
REMARK    3  A    between atoms: N2_8  and  C5_10 
REMARK    4  A    between atoms: C10_17  and  C11_18 
REMARK    5  A    between atoms: N3_19  and  N4_21 
REMARK    6  A    between atoms: C12_22  and  C13_23 
REMARK    7  A    between atoms: C13_23  and  O2_24 
REMARK    8  A    between atoms: O2_24  and  C14_25 
ROOT
HETATM    1  C5  UNL     1       0.346   2.302   2.538  1.00  0.00     0.086 A 
HETATM    2  C6  UNL     1       0.273   2.047   3.882  1.00  0.00     0.145 A 
HETATM    3  F1  UNL     1      -0.948   1.968   4.513  1.00  0.00    -0.204 F 
HETATM    4  C7  UNL     1       1.387   1.859   4.653  1.00  0.00     0.063 A 
HETATM    5  C8  UNL     1       2.643   1.926   4.076  1.00  0.00     0.014 A 
HETATM    6 BR1  UNL     1       4.235   1.658   5.093  1.00  0.00    -0.051 Br
HETATM    7  C9  UNL     1       2.737   2.181   2.736  1.00  0.00     0.034 A 
HETATM    8  C10 UNL     1       1.617   2.370   1.963  1.00  0.00     0.012 A 
ENDROOT
BRANCH   8   9
HETATM    9  C11 UNL     1       1.771   2.680   0.523  1.00  0.00     0.121 C 
HETATM   10  N3  UNL     1       2.951   2.764   0.036  1.00  0.00    -0.301 N 
ATOM     11  H3  UNL     1       3.724   2.604   0.682  1.00  0.00     0.186 HD
BRANCH  10  12
HETATM   12  N4  UNL     1       3.286   3.048  -1.271  1.00  0.00    -0.213 N 
HETATM   13  C12 UNL     1       4.340   2.576  -1.932  1.00  0.00     0.145 A 
HETATM   14  N5  UNL     1       4.309   3.114  -3.165  1.00  0.00    -0.283 N 
HETATM   15  N6  UNL     1       3.258   3.911  -3.283  1.00  0.00    -0.273 N 
ATOM     16  H5  UNL     1       4.993   2.935  -3.900  1.00  0.00     0.188 HD
HETATM   17  C20 UNL     1       2.616   3.867  -2.092  1.00  0.00     0.213 A 
ATOM     18  H6  UNL     1       2.987   4.450  -4.106  1.00  0.00     0.189 HD
HETATM   19  S1  UNL     1       1.248   4.743  -1.853  1.00  0.00    -0.037 SA
BRANCH  13  20
HETATM   20  C13 UNL     1       5.384   1.628  -1.449  1.00  0.00     0.255 C 
BRANCH  20  21
HETATM   21  O2  UNL     1       4.908   0.322  -1.355  1.00  0.00    -0.344 OA
BRANCH  21  22
HETATM   22  C14 UNL     1       5.542  -0.801  -0.959  1.00  0.00     0.069 A 
HETATM   23  C15 UNL     1       6.857  -0.777  -0.564  1.00  0.00     0.037 A 
HETATM   24  C16 UNL     1       7.504  -1.940  -0.155  1.00  0.00     0.003 A 
HETATM   25  C17 UNL     1       6.833  -3.139  -0.138  1.00  0.00     0.000 A 
HETATM   26  C18 UNL     1       5.503  -3.166  -0.537  1.00  0.00     0.003 A 
HETATM   27  C19 UNL     1       4.869  -2.005  -0.942  1.00  0.00     0.037 A 
ENDBRANCH  21  22
ENDBRANCH  20  21
ENDBRANCH  13  20
ENDBRANCH  10  12
ENDBRANCH   8   9
BRANCH   1  28
HETATM   28  N2  UNL     1      -0.798   2.522   1.733  1.00  0.00    -0.305 N 
HETATM   29  C4  UNL     1      -1.766   1.455   1.505  1.00  0.00     0.324 C 
HETATM   30  N1  UNL     1      -2.841   1.686   0.670  1.00  0.00    -0.322 N 
HETATM   31  O1  UNL     1      -1.516   0.406   2.110  1.00  0.00    -0.247 OA
ATOM     32  H1  UNL     1      -2.835   2.621   0.262  1.00  0.00     0.169 HD
ATOM     33  H2  UNL     1      -0.947   3.437   1.308  1.00  0.00     0.171 HD
BRANCH  30  34
HETATM   34  C3  UNL     1      -3.925   0.927   0.265  1.00  0.00     0.075 C 
BRANCH  34  35
HETATM   35  C2  UNL     1      -3.805  -0.332  -0.515  1.00  0.00    -0.012 C 
HETATM   36  C1  UNL     1      -3.005  -0.005  -1.761  1.00  0.00     0.021 C 
HETATM   37  C21 UNL     1      -5.312  -0.461  -1.025  1.00  0.00     0.014 C 
HETATM   38  C22 UNL     1      -5.483  -1.623  -1.924  1.00  0.00     0.001 C 
HETATM   39  C23 UNL     1      -6.120  -2.787  -1.202  1.00  0.00     0.000 C 
HETATM   40  C24 UNL     1      -5.159  -3.797  -0.699  1.00  0.00     0.000 C 
HETATM   41  C25 UNL     1      -3.756  -3.679  -1.151  1.00  0.00     0.000 C 
HETATM   42  C26 UNL     1      -2.880  -2.675  -0.532  1.00  0.00     0.001 C 
HETATM   43  C27 UNL     1      -3.502  -1.536   0.224  1.00  0.00     0.014 C 
ENDBRANCH  34  35
ENDBRANCH  30  34
ENDBRANCH   1  28
TORSDOF 8
