REMARK  8 active torsions:
REMARK  status: ('A' for Active; 'I' for Inactive)
REMARK    1  A    between atoms: C4_4  and  N1_5 
REMARK    2  A    between atoms: C10_12  and  N3_13 
REMARK    3  A    between atoms: N3_13  and  C11_15 
REMARK    4  A    between atoms: C15_19  and  C16_20 
REMARK    5  A    between atoms: C17_21  and  N4_22 
REMARK    6  A    between atoms: N4_22  and  C18_24 
REMARK    7  A    between atoms: C21_27  and  O1_28 
REMARK    8  A    between atoms: O1_28  and  C22_29 
ROOT
HETATM    1  C16 UNL     1      -1.276  -3.134   0.745  1.00  0.00     0.069 A 
HETATM    2  C17 UNL     1       0.038  -2.629   0.742  1.00  0.00     0.050 A 
HETATM    3  C32 UNL     1       1.022  -3.501   1.135  1.00  0.00     0.047 A 
HETATM    4  C33 UNL     1       0.771  -4.813   1.518  1.00  0.00     0.093 A 
HETATM    5  N5  UNL     1      -0.497  -5.253   1.505  1.00  0.00    -0.333 N 
ATOM      6  H5  UNL     1      -0.713  -6.211   1.780  1.00  0.00     0.168 HD
HETATM    7  C34 UNL     1      -1.470  -4.425   1.129  1.00  0.00     0.258 A 
HETATM    8  O2  UNL     1      -2.677  -4.842   1.117  1.00  0.00    -0.267 OA
ENDROOT
BRANCH   1   9
HETATM    9  C15 UNL     1      -2.385  -2.264   0.338  1.00  0.00    -0.010 A 
HETATM   10  C2  UNL     1      -2.762  -2.224  -0.984  1.00  0.00    -0.048 A 
HETATM   11  C1  UNL     1      -2.024  -3.074  -1.961  1.00  0.00     0.049 C 
HETATM   12  C3  UNL     1      -3.797  -1.429  -1.424  1.00  0.00     0.039 A 
HETATM   13  C4  UNL     1      -4.481  -0.643  -0.514  1.00  0.00     0.057 A 
HETATM   14  C10 UNL     1      -4.136  -0.654   0.816  1.00  0.00     0.056 A 
HETATM   15  C14 UNL     1      -3.084  -1.472   1.222  1.00  0.00     0.044 A 
BRANCH  13  16
HETATM   16  N1  UNL     1      -5.537   0.218  -0.954  1.00  0.00    -0.376 N 
HETATM   17  C5  UNL     1      -5.359   1.646  -1.037  1.00  0.00     0.142 C 
HETATM   18  C6  UNL     1      -6.594   2.259  -1.629  1.00  0.00     0.136 C 
HETATM   19  N2  UNL     1      -7.813   1.896  -0.973  1.00  0.00    -0.414 N 
HETATM   20  C7  UNL     1      -8.261   2.787   0.041  1.00  0.00     0.143 C 
HETATM   21  C8  UNL     1      -7.930   0.498  -0.681  1.00  0.00     0.136 C 
HETATM   22  C9  UNL     1      -6.833  -0.320  -1.327  1.00  0.00     0.142 C 
ENDBRANCH  13  16
BRANCH  14  23
HETATM   23  N3  UNL     1      -4.841   0.101   1.797  1.00  0.00    -0.383 N 
ATOM     24  H3  UNL     1      -5.680   0.612   1.521  1.00  0.00     0.160 HD
BRANCH  23  25
HETATM   25  C11 UNL     1      -4.403   0.164   3.169  1.00  0.00     0.082 A 
HETATM   26  C12 UNL     1      -3.121   0.794   3.474  1.00  0.00     0.027 A 
HETATM   27  C13 UNL     1      -4.361   1.541   3.803  1.00  0.00     0.027 A 
ENDBRANCH  23  25
ENDBRANCH  14  23
ENDBRANCH   1   9
BRANCH   2  28
HETATM   28  N4  UNL     1       0.231  -1.292   0.383  1.00  0.00    -0.355 N 
ATOM     29  H4  UNL     1      -0.602  -0.710   0.289  1.00  0.00     0.166 HD
BRANCH  28  30
HETATM   30  C18 UNL     1       1.477  -0.677   0.139  1.00  0.00     0.032 A 
HETATM   31  C19 UNL     1       1.684   0.657   0.532  1.00  0.00     0.032 A 
HETATM   32  C20 UNL     1       2.856   1.305   0.283  1.00  0.00     0.039 A 
HETATM   33  C21 UNL     1       3.920   0.679  -0.380  1.00  0.00     0.069 A 
HETATM   34  C30 UNL     1       3.734  -0.609  -0.766  1.00  0.00     0.039 A 
HETATM   35  C31 UNL     1       2.535  -1.267  -0.510  1.00  0.00     0.032 A 
BRANCH  33  36
HETATM   36  O1  UNL     1       5.061   1.390  -0.593  1.00  0.00    -0.345 OA
BRANCH  36  37
HETATM   37  C22 UNL     1       6.247   1.003  -1.226  1.00  0.00     0.137 C 
HETATM   38  C23 UNL     1       6.414   1.888  -2.427  1.00  0.00     0.039 C 
HETATM   39  C24 UNL     1       7.809   2.003  -2.939  1.00  0.00     0.081 C 
HETATM   40  C25 UNL     1       8.640   2.596  -1.791  1.00  0.00     0.244 C 
HETATM   41  F1  UNL     1       7.937   3.697  -1.338  1.00  0.00    -0.206 F 
HETATM   42  F2  UNL     1       9.904   2.900  -2.193  1.00  0.00    -0.206 F 
HETATM   43  C26 UNL     1       8.667   1.560  -0.719  1.00  0.00     0.090 C 
HETATM   44  C27 UNL     1       7.348   1.120  -0.212  1.00  0.00    -0.015 C 
HETATM   45  C28 UNL     1       7.541  -0.291   0.366  1.00  0.00     0.018 C 
HETATM   46  C29 UNL     1       6.946   1.998   0.965  1.00  0.00     0.018 C 
ENDBRANCH  36  37
ENDBRANCH  33  36
ENDBRANCH  28  30
ENDBRANCH   2  28
TORSDOF 8
