REMARK  9 active torsions:
REMARK  status: ('A' for Active; 'I' for Inactive)
REMARK    1  A    between atoms: C3_3  and  C4_4 
REMARK    2  A    between atoms: C3_3  and  C26_36 
REMARK    3  A    between atoms: C5_5  and  O1_6 
REMARK    4  A    between atoms: C14_21  and  C15_22 
REMARK    5  A    between atoms: C19_28  and  O3_29 
REMARK    6  A    between atoms: O3_29  and  C20_30 
REMARK    7  A    between atoms: C20_30  and  C21_31 
REMARK    8  A    between atoms: C21_31  and  C22_32 
REMARK    9  A    between atoms: C26_36  and  C27_37 
ROOT
HETATM    1  C4  UNL     1      -1.134  -1.476  -1.265  1.00  0.00     0.039 A 
HETATM    2  C5  UNL     1      -0.217  -1.798  -2.279  1.00  0.00     0.079 A 
HETATM    3  C6  UNL     1       1.141  -1.761  -1.983  1.00  0.00     0.044 A 
HETATM    4  C7  UNL     1       1.634  -1.418  -0.731  1.00  0.00    -0.050 A 
HETATM    5  C8  UNL     1       3.126  -1.408  -0.512  1.00  0.00     0.049 C 
HETATM    6  C9  UNL     1       0.723  -1.106   0.244  1.00  0.00    -0.007 A 
HETATM    7  C10 UNL     1      -0.658  -1.147  -0.062  1.00  0.00     0.098 A 
HETATM    8  O2  UNL     1      -1.524  -0.834   0.957  1.00  0.00    -0.295 OA
HETATM    9  C11 UNL     1      -1.130  -0.495   2.223  1.00  0.00     0.136 C 
HETATM   10  N1  UNL     1      -1.931   0.169   2.994  1.00  0.00    -0.382 N 
ATOM     11  H11 UNL     1      -1.637   0.422   3.938  1.00  0.00     0.158 HD
ATOM     12  H12 UNL     1      -2.858   0.447   2.673  1.00  0.00     0.158 HD
HETATM   13  C12 UNL     1       0.224  -0.901   2.692  1.00  0.00     0.180 C 
HETATM   14  C13 UNL     1       0.131  -2.299   3.101  1.00  0.00     0.073 C 
HETATM   15  N2  UNL     1       0.036  -3.421   3.420  1.00  0.00    -0.196 NA
HETATM   16  C14 UNL     1       1.240  -0.727   1.578  1.00  0.00     0.080 C 
ENDROOT
BRANCH  16  17
HETATM   17  C15 UNL     1       1.766   0.635   1.681  1.00  0.00    -0.042 A 
HETATM   18  C16 UNL     1       1.017   1.770   1.462  1.00  0.00     0.053 A 
HETATM   19  C17 UNL     1       1.540   3.034   1.591  1.00  0.00     0.158 A 
HETATM   20  F1  UNL     1       0.803   4.157   1.377  1.00  0.00    -0.203 F 
HETATM   21  C18 UNL     1       2.858   3.179   1.949  1.00  0.00     0.188 A 
HETATM   22  F2  UNL     1       3.381   4.416   2.080  1.00  0.00    -0.200 F 
HETATM   23  C19 UNL     1       3.671   2.055   2.184  1.00  0.00     0.111 A 
HETATM   24  C25 UNL     1       3.087   0.833   2.039  1.00  0.00     0.048 A 
BRANCH  23  25
HETATM   25  O3  UNL     1       4.955   2.279   2.531  1.00  0.00    -0.348 OA
BRANCH  25  26
HETATM   26  C20 UNL     1       6.040   1.519   2.825  1.00  0.00     0.176 C 
BRANCH  26  27
HETATM   27  C21 UNL     1       6.587   0.607   1.775  1.00  0.00     0.031 C 
BRANCH  27  28
HETATM   28  C22 UNL     1       7.046   1.294   0.526  1.00  0.00    -0.013 A 
HETATM   29  C23 UNL     1       8.126   2.314   0.567  1.00  0.00     0.005 A 
HETATM   30  C24 UNL     1       6.707   2.655   0.131  1.00  0.00     0.005 A 
ENDBRANCH  27  28
ENDBRANCH  26  27
ENDBRANCH  25  26
ENDBRANCH  23  25
ENDBRANCH  16  17
BRANCH   1  31
HETATM   31  C3  UNL     1      -2.537  -1.645  -1.629  1.00  0.00    -0.028 C 
HETATM   32  C2  UNL     1      -2.897  -2.919  -1.793  1.00  0.00    -0.021 C 
HETATM   33  C1  UNL     1      -1.969  -4.069  -1.614  1.00  0.00     0.036 C 
BRANCH  31  34
HETATM   34  C26 UNL     1      -3.508  -0.568  -1.858  1.00  0.00     0.046 C 
HETATM   35  C33 UNL     1      -4.739  -1.206  -2.544  1.00  0.00     0.026 C 
HETATM   36  C34 UNL     1      -5.723  -0.137  -2.929  1.00  0.00     0.021 C 
HETATM   37  C35 UNL     1      -5.063   0.752  -3.956  1.00  0.00     0.119 C 
HETATM   38  N3  UNL     1      -3.915   1.332  -3.376  1.00  0.00    -0.401 N 
HETATM   39  C36 UNL     1      -2.984   0.512  -2.729  1.00  0.00     0.075 C 
ATOM     40  H3  UNL     1      -3.765   2.340  -3.428  1.00  0.00     0.158 HD
BRANCH  34  41
HETATM   41  C27 UNL     1      -4.144  -0.020  -0.604  1.00  0.00    -0.040 A 
HETATM   42  C28 UNL     1      -4.809  -0.851   0.267  1.00  0.00     0.009 A 
HETATM   43  C29 UNL     1      -5.422  -0.337   1.416  1.00  0.00     0.001 A 
HETATM   44  C30 UNL     1      -5.381   0.993   1.709  1.00  0.00     0.000 A 
HETATM   45  C31 UNL     1      -4.708   1.836   0.831  1.00  0.00     0.001 A 
HETATM   46  C32 UNL     1      -4.112   1.330  -0.288  1.00  0.00     0.009 A 
ENDBRANCH  34  41
ENDBRANCH  31  34
ENDBRANCH   1  31
BRANCH   2  47
HETATM   47  O1  UNL     1      -0.556  -2.146  -3.571  1.00  0.00    -0.360 OA
ATOM     48  H1  UNL     1       0.064  -2.364  -4.257  1.00  0.00     0.217 HD
ENDBRANCH   2  47
TORSDOF 9
