REMARK  10 active torsions:
REMARK  status: ('A' for Active; 'I' for Inactive)
REMARK    1  A    between atoms: C2_2  and  C3_3 
REMARK    2  A    between atoms: C3_3  and  O1_4 
REMARK    3  A    between atoms: C3_3  and  C4_6 
REMARK    4  A    between atoms: C3_3  and  C6_8 
REMARK    5  A    between atoms: C6_8  and  C7_9 
REMARK    6  A    between atoms: C7_9  and  C8_10 
REMARK    7  A    between atoms: C8_10  and  C9_11 
REMARK    8  A    between atoms: C10_12  and  O2_13 
REMARK    9  A    between atoms: C12_15  and  O3_17 
REMARK   10  A    between atoms: C19_24  and  O4_25 
ROOT
HETATM    1  C9  UNL     1       0.877  -0.615   0.354  1.00  0.00    -0.018 C 
HETATM    2  C10 UNL     1       0.293  -1.435  -0.722  1.00  0.00     0.187 C 
HETATM    3  C12 UNL     1      -0.982  -2.176  -0.524  1.00  0.00     0.092 C 
HETATM    4  C13 UNL     1      -0.536  -3.506   0.190  1.00  0.00     0.050 C 
HETATM    5  C14 UNL     1      -2.271  -1.929  -0.129  1.00  0.00     0.002 A 
HETATM    6  C15 UNL     1      -3.380  -2.547  -0.972  1.00  0.00     0.014 C 
HETATM    7  C16 UNL     1      -4.410  -1.395  -1.030  1.00  0.00     0.019 C 
HETATM    8  C17 UNL     1      -3.703  -0.276  -0.312  1.00  0.00     0.034 C 
HETATM    9  C18 UNL     1      -4.591   0.794   0.221  1.00  0.00     0.024 A 
HETATM   10  C19 UNL     1      -5.933   0.658   0.111  1.00  0.00     0.075 A 
HETATM   11  C20 UNL     1      -6.793   1.576   0.697  1.00  0.00     0.040 A 
HETATM   12  C21 UNL     1      -6.338   2.655   1.406  1.00  0.00     0.048 A 
HETATM   13  C22 UNL     1      -4.966   2.780   1.498  1.00  0.00     0.150 A 
HETATM   14  F1  UNL     1      -4.479   3.858   2.222  1.00  0.00    -0.203 F 
HETATM   15  C23 UNL     1      -4.080   1.887   0.923  1.00  0.00     0.117 A 
HETATM   16  O5  UNL     1      -2.711   2.237   1.121  1.00  0.00    -0.339 OA
HETATM   17  C24 UNL     1      -1.836   2.487  -0.012  1.00  0.00     0.166 C 
HETATM   18  C25 UNL     1      -0.486   2.975   0.380  1.00  0.00     0.039 C 
HETATM   19  C26 UNL     1       0.676   1.980   0.136  1.00  0.00     0.045 C 
HETATM   20  C27 UNL     1       0.145   0.688   0.627  1.00  0.00     0.084 C 
HETATM   21  C28 UNL     1       0.108   0.889   2.132  1.00  0.00     0.051 C 
HETATM   22  O6  UNL     1      -0.973   0.508  -0.033  1.00  0.00    -0.360 OA
HETATM   23  C29 UNL     1      -1.659   1.239  -0.832  1.00  0.00     0.117 C 
HETATM   24  C30 UNL     1      -1.153   1.776  -2.160  1.00  0.00     0.052 C 
HETATM   25  C31 UNL     1      -2.851   0.463  -1.241  1.00  0.00     0.221 C 
HETATM   26  F2  UNL     1      -3.621   1.425  -1.930  1.00  0.00    -0.245 F 
HETATM   27  C32 UNL     1      -3.153  -1.133   0.715  1.00  0.00    -0.018 A 
HETATM   28  C33 UNL     1      -4.345  -1.631   1.544  1.00  0.00     0.017 C 
HETATM   29  C34 UNL     1      -2.214  -1.997   1.296  1.00  0.00     0.024 A 
ENDROOT
BRANCH   1  30
HETATM   30  C8  UNL     1       2.325  -0.514   0.559  1.00  0.00    -0.018 C 
BRANCH  30  31
HETATM   31  C7  UNL     1       3.306   0.034  -0.340  1.00  0.00     0.030 C 
BRANCH  31  32
HETATM   32  C6  UNL     1       4.680  -0.116   0.367  1.00  0.00     0.041 C 
BRANCH  32  33
HETATM   33  C3  UNL     1       5.752   0.423  -0.505  1.00  0.00     0.057 C 
BRANCH  33  34
HETATM   34  C2  UNL     1       5.535   1.877  -0.809  1.00  0.00     0.033 C 
HETATM   35  C1  UNL     1       5.572   2.735   0.434  1.00  0.00     0.008 C 
ENDBRANCH  33  34
BRANCH  33  36
HETATM   36  O1  UNL     1       5.688  -0.267  -1.738  1.00  0.00    -0.390 OA
ATOM     37  H1  UNL     1       5.825  -1.187  -1.546  1.00  0.00     0.210 HD
ENDBRANCH  33  36
BRANCH  33  38
HETATM   38  C4  UNL     1       7.142   0.167   0.045  1.00  0.00     0.033 C 
HETATM   39  C5  UNL     1       7.264  -1.308   0.317  1.00  0.00     0.008 C 
ENDBRANCH  33  38
ENDBRANCH  32  33
ENDBRANCH  31  32
ENDBRANCH  30  31
ENDBRANCH   1  30
BRANCH   2  40
HETATM   40  O2  UNL     1       1.247  -2.428  -0.990  1.00  0.00    -0.383 OA
HETATM   41  C11 UNL     1       1.700  -2.570  -2.250  1.00  0.00     0.202 C 
ENDBRANCH   2  40
BRANCH   3  42
HETATM   42  O3  UNL     1      -1.048  -2.771  -1.845  1.00  0.00    -0.386 OA
ATOM     43  H3  UNL     1      -1.862  -3.244  -1.719  1.00  0.00     0.210 HD
ENDBRANCH   3  42
BRANCH  10  44
HETATM   44  O4  UNL     1      -6.494  -0.376  -0.591  1.00  0.00    -0.360 OA
ATOM     45  H4  UNL     1      -7.436  -0.471  -0.668  1.00  0.00     0.217 HD
ENDBRANCH  10  44
TORSDOF 10
