REMARK  5 active torsions:
REMARK  status: ('A' for Active; 'I' for Inactive)
REMARK       I    between atoms: N1_2  and  C2_3 
REMARK    1  A    between atoms: N1_2  and  C8_15 
REMARK    2  A    between atoms: C2_3  and  C3_5 
REMARK    3  A    between atoms: C3_5  and  N2_6 
REMARK    4  A    between atoms: C9_16  and  C10_17 
REMARK    5  A    between atoms: C10_17  and  N4_18 
ROOT
HETATM    1  C8  UNL     1       0.435  -1.804  -0.124  1.00  0.00     0.130 A 
HETATM    2  C9  UNL     1       1.730  -2.083  -0.430  1.00  0.00     0.067 A 
HETATM    3  N8  UNL     1       2.342  -3.193   0.124  1.00  0.00    -0.308 N 
ATOM      4  H8  UNL     1       3.314  -3.386  -0.118  1.00  0.00     0.170 HD
HETATM    5  C13 UNL     1       1.716  -4.022   0.962  1.00  0.00     0.327 A 
HETATM    6  O5  UNL     1       2.290  -5.038   1.463  1.00  0.00    -0.247 OA
HETATM    7  N9  UNL     1       0.439  -3.747   1.265  1.00  0.00    -0.274 N 
ATOM      8  H9  UNL     1      -0.058  -4.368   1.904  1.00  0.00     0.173 HD
HETATM    9  C14 UNL     1      -0.211  -2.687   0.761  1.00  0.00     0.278 A 
HETATM   10  O6  UNL     1      -1.409  -2.422   1.041  1.00  0.00    -0.265 OA
ENDROOT
BRANCH   1  11
HETATM   11  N1  UNL     1      -0.326  -0.724  -0.664  1.00  0.00    -0.315 N 
HETATM   12  C1  UNL     1      -0.605  -0.687  -2.108  1.00  0.00     0.159 C 
HETATM   13  C2  UNL     1      -0.872   0.324   0.120  1.00  0.00     0.242 C 
HETATM   14  O1  UNL     1      -0.650   0.379   1.356  1.00  0.00    -0.271 OA
BRANCH  13  15
HETATM   15  C3  UNL     1      -1.704   1.353  -0.500  1.00  0.00     0.236 C 
BRANCH  15  16
HETATM   16  N2  UNL     1      -2.974   1.533   0.168  1.00  0.00    -0.301 N 
HETATM   17  C4  UNL     1      -4.041   0.807  -0.166  1.00  0.00     0.102 A 
HETATM   18  C5  UNL     1      -5.268   0.933   0.447  1.00  0.00     0.092 A 
HETATM   19  C6  UNL     1      -5.357   1.872   1.457  1.00  0.00     0.250 A 
HETATM   20  O2  UNL     1      -6.468   2.037   2.064  1.00  0.00    -0.268 OA
HETATM   21  N3  UNL     1      -4.278   2.607   1.796  1.00  0.00    -0.275 N 
HETATM   22  C7  UNL     1      -3.089   2.437   1.152  1.00  0.00     0.329 A 
ATOM     23  H3  UNL     1      -4.353   3.298   2.543  1.00  0.00     0.173 HD
HETATM   24  O3  UNL     1      -2.100   3.124   1.477  1.00  0.00    -0.246 OA
ENDBRANCH  15  16
ENDBRANCH  13  15
ENDBRANCH   1  11
BRANCH   2  25
HETATM   25  C10 UNL     1       2.540  -1.240  -1.307  1.00  0.00     0.229 C 
BRANCH  25  26
HETATM   26  N4  UNL     1       3.131  -0.079  -0.656  1.00  0.00    -0.224 N 
HETATM   27  N5  UNL     1       2.681   1.127  -0.521  1.00  0.00    -0.266 N 
HETATM   28  C11 UNL     1       3.514   1.939   0.142  1.00  0.00     0.202 A 
ATOM     29  H5  UNL     1       1.778   1.430  -0.885  1.00  0.00     0.190 HD
HETATM   30  N6  UNL     1       3.341   3.321   0.464  1.00  0.00    -0.075 NA
HETATM   31  C12 UNL     1       4.606   1.141   0.452  1.00  0.00     0.303 A 
HETATM   32  O4  UNL     1       5.630   1.533   1.084  1.00  0.00    -0.263 OA
HETATM   33  N7  UNL     1       4.334  -0.065  -0.047  1.00  0.00    -0.246 N 
ATOM     34  H7  UNL     1       4.955  -0.871   0.023  1.00  0.00     0.192 HD
ENDBRANCH  25  26
ENDBRANCH   2  25
TORSDOF 5
