REMARK  6 active torsions:
REMARK  status: ('A' for Active; 'I' for Inactive)
REMARK    1  A    between atoms: C1_2  and  C2_4 
REMARK    2  A    between atoms: C2_4  and  N1_5 
REMARK    3  A    between atoms: N1_5  and  N2_6 
REMARK       I    between atoms: N2_6  and  C3_8 
REMARK    4  A    between atoms: C3_8  and  C4_10 
REMARK    5  A    between atoms: C4_10  and  N3_11 
REMARK       I    between atoms: N6_21  and  C9_23 
REMARK    6  A    between atoms: C9_23  and  C10_25 
ROOT
HETATM    1  N3  UNL     1       1.334  -0.364  -1.600  1.00  0.00    -0.274 N 
HETATM    2  C5  UNL     1       1.712  -1.627  -1.937  1.00  0.00     0.329 A 
HETATM    3  O4  UNL     1       2.879  -2.071  -2.191  1.00  0.00    -0.246 OA
HETATM    4  N4  UNL     1       0.580  -2.345  -1.965  1.00  0.00    -0.304 N 
ATOM      5  H4  UNL     1       0.554  -3.340  -2.186  1.00  0.00     0.171 HD
HETATM    6  C6  UNL     1      -0.506  -1.633  -1.676  1.00  0.00     0.097 A 
HETATM    7  C7  UNL     1      -1.859  -1.879  -1.605  1.00  0.00     0.139 A 
HETATM    8  N5  UNL     1      -2.739  -0.911  -1.307  1.00  0.00    -0.199 N 
ATOM      9  H5  UNL     1      -3.739  -1.107  -1.256  1.00  0.00     0.183 HD
HETATM   10  C8  UNL     1      -2.262   0.331  -1.076  1.00  0.00     0.686 A 
HETATM   11  N6  UNL     1      -3.022   1.355  -0.841  1.00  0.00    -0.155 N 
ATOM     12  H6  UNL     1      -2.584   2.260  -0.672  1.00  0.00     0.187 HD
HETATM   13  C9  UNL     1      -4.439   1.268  -0.809  1.00  0.00     0.275 C 
HETATM   14  O5  UNL     1      -5.023   1.409  -1.942  1.00  0.00    -0.267 OA
HETATM   15  N8  UNL     1      -0.936   0.605  -1.137  1.00  0.00    -0.174 N 
ATOM     16  H8  UNL     1      -0.616   1.556  -0.951  1.00  0.00     0.186 HD
HETATM   17  C14 UNL     1      -0.025  -0.349  -1.438  1.00  0.00     0.156 A 
ENDROOT
BRANCH  13  18
HETATM   18  C10 UNL     1      -5.270   1.040   0.349  1.00  0.00     0.106 A 
HETATM   19  C11 UNL     1      -4.874   0.871   1.602  1.00  0.00     0.097 A 
HETATM   20  C12 UNL     1      -6.014   0.668   2.484  1.00  0.00     0.249 A 
HETATM   21  O6  UNL     1      -5.987   0.479   3.736  1.00  0.00    -0.268 OA
HETATM   22  N7  UNL     1      -7.193   0.725   1.670  1.00  0.00    -0.290 N 
HETATM   23  C13 UNL     1      -6.724   0.953   0.364  1.00  0.00     0.264 A 
ATOM     24  H7  UNL     1      -8.162   0.622   1.973  1.00  0.00     0.172 HD
HETATM   25  O7  UNL     1      -7.489   1.074  -0.653  1.00  0.00    -0.267 OA
ENDBRANCH  13  18
BRANCH   1  26
HETATM   26  C4  UNL     1       2.191   0.759  -1.506  1.00  0.00     0.239 C 
BRANCH  26  27
HETATM   27  C3  UNL     1       2.837   1.081  -0.205  1.00  0.00     0.251 C 
HETATM   28  N2  UNL     1       3.629   0.161   0.483  1.00  0.00    -0.272 N 
ATOM     29  H2  UNL     1       3.707  -0.758   0.047  1.00  0.00     0.185 HD
HETATM   30  O3  UNL     1       2.654   2.228   0.248  1.00  0.00    -0.270 OA
BRANCH  28  31
HETATM   31  N1  UNL     1       4.324   0.313   1.670  1.00  0.00    -0.128 NA
BRANCH  31  32
HETATM   32  C2  UNL     1       5.701   0.740   1.308  1.00  0.00     0.248 C 
BRANCH  32  33
HETATM   33  C1  UNL     1       6.705  -0.294   1.776  1.00  0.00     0.189 C 
HETATM   34  O1  UNL     1       6.281  -1.292   2.463  1.00  0.00    -0.647 OA
HETATM   35  O2  UNL     1       8.052  -0.254   1.517  1.00  0.00    -0.647 OA
ENDBRANCH  32  33
ENDBRANCH  31  32
ENDBRANCH  28  31
ENDBRANCH  26  27
ENDBRANCH   1  26
TORSDOF 6
