REMARK  7 active torsions:
REMARK  status: ('A' for Active; 'I' for Inactive)
REMARK    1  A    between atoms: O1_2  and  C2_3 
REMARK    2  A    between atoms: C5_9  and  N2_10 
REMARK    3  A    between atoms: N2_10  and  C6_12 
REMARK    4  A    between atoms: C6_12  and  C7_13 
REMARK    5  A    between atoms: C7_13  and  N3_14 
REMARK       I    between atoms: N4_16  and  C9_18 
REMARK    6  A    between atoms: C9_18  and  C10_20 
REMARK    7  A    between atoms: C10_20  and  O4_21 
ROOT
HETATM    1  N3  UNL     1      -1.324   0.158  -0.654  1.00  0.00    -0.172 N 
HETATM    2  C8  UNL     1      -2.451   0.924  -0.540  1.00  0.00     0.689 A 
HETATM    3  N4  UNL     1      -2.428   2.203  -0.406  1.00  0.00    -0.157 N 
ATOM      4  H4  UNL     1      -1.535   2.695  -0.381  1.00  0.00     0.187 HD
HETATM    5  C9  UNL     1      -3.640   2.934  -0.293  1.00  0.00     0.259 C 
HETATM    6  O3  UNL     1      -4.557   2.875  -1.157  1.00  0.00    -0.270 OA
HETATM    7  N5  UNL     1      -3.537   0.172  -0.588  1.00  0.00    -0.173 N 
ATOM      8  H5  UNL     1      -4.498   0.507  -0.525  1.00  0.00     0.186 HD
HETATM    9  C11 UNL     1      -3.161  -1.099  -0.733  1.00  0.00     0.160 A 
HETATM   10  C12 UNL     1      -1.762  -1.104  -0.775  1.00  0.00     0.164 A 
HETATM   11  C13 UNL     1      -1.094  -2.289  -0.920  1.00  0.00     0.280 A 
HETATM   12  O5  UNL     1       0.162  -2.292  -0.957  1.00  0.00    -0.265 OA
HETATM   13  N6  UNL     1      -1.754  -3.450  -1.024  1.00  0.00    -0.273 N 
ATOM     14  H6  UNL     1      -1.250  -4.330  -1.133  1.00  0.00     0.173 HD
HETATM   15  C14 UNL     1      -3.092  -3.427  -0.982  1.00  0.00     0.330 A 
HETATM   16  O6  UNL     1      -3.711  -4.499  -1.078  1.00  0.00    -0.246 OA
HETATM   17  N7  UNL     1      -3.763  -2.289  -0.842  1.00  0.00    -0.287 N 
HETATM   18  C15 UNL     1      -5.210  -2.338  -0.804  1.00  0.00     0.163 C 
ENDROOT
BRANCH   1  19
HETATM   19  C7  UNL     1       0.026   0.654  -0.642  1.00  0.00     0.168 C 
BRANCH  19  20
HETATM   20  C6  UNL     1       0.607   0.713   0.777  1.00  0.00     0.159 C 
BRANCH  20  21
HETATM   21  N2  UNL     1       1.934   1.219   0.660  1.00  0.00    -0.224 N 
ATOM     22  H2  UNL     1       2.042   2.226   0.539  1.00  0.00     0.177 HD
BRANCH  21  23
HETATM   23  C5  UNL     1       3.020   0.500   0.695  1.00  0.00     0.682 A 
HETATM   24  N1  UNL     1       3.020  -0.827   0.848  1.00  0.00    -0.156 N 
HETATM   25  C4  UNL     1       4.153  -1.542   0.881  1.00  0.00     0.263 A 
ATOM     26  H1  UNL     1       2.128  -1.312   0.943  1.00  0.00     0.187 HD
HETATM   27  C3  UNL     1       5.355  -0.884   0.752  1.00  0.00     0.131 A 
HETATM   28  O2  UNL     1       4.132  -2.813   1.029  1.00  0.00    -0.268 OA
HETATM   29  C2  UNL     1       5.391   0.489   0.592  1.00  0.00     0.162 A 
HETATM   30  N8  UNL     1       4.216   1.121   0.571  1.00  0.00    -0.170 N 
ATOM     31  H8  UNL     1       4.219   2.134   0.454  1.00  0.00     0.186 HD
BRANCH  29  32
HETATM   32  O1  UNL     1       6.609   1.151   0.462  1.00  0.00    -0.340 OA
HETATM   33  C1  UNL     1       7.839   0.452   0.488  1.00  0.00     0.211 C 
ENDBRANCH  29  32
ENDBRANCH  21  23
ENDBRANCH  20  21
ENDBRANCH  19  20
ENDBRANCH   1  19
BRANCH   5  34
HETATM   34  C10 UNL     1      -3.831   3.796   0.886  1.00  0.00     0.267 C 
BRANCH  34  35
HETATM   35  O4  UNL     1      -5.071   4.441   0.841  1.00  0.00    -0.392 OA
ATOM     36  H4  UNL     1      -5.194   4.997   1.601  1.00  0.00     0.210 HD
ENDBRANCH  34  35
ENDBRANCH   5  34
TORSDOF 7
