REMARK  8 active torsions:
REMARK  status: ('A' for Active; 'I' for Inactive)
REMARK       I    between atoms: N1_2  and  C2_3 
REMARK    1  A    between atoms: N1_2  and  C12_27 
REMARK    2  A    between atoms: C2_3  and  C3_5 
REMARK    3  A    between atoms: C3_5  and  C4_6 
REMARK    4  A    between atoms: C4_6  and  N2_7 
REMARK    5  A    between atoms: N2_7  and  C5_9 
REMARK    6  A    between atoms: C6_12  and  N4_13 
REMARK    7  A    between atoms: C14_32  and  C15_33 
REMARK    8  A    between atoms: C15_33  and  N9_34 
ROOT
HETATM    1  N2  UNL     1      -1.904  -1.404   0.316  1.00  0.00    -0.373 N 
ATOM      2  H2  UNL     1      -2.377  -2.201  -0.109  1.00  0.00     0.161 HD
ENDROOT
BRANCH   1   3
HETATM    3  C4  UNL     1      -0.507  -1.549   0.570  1.00  0.00     0.130 C 
BRANCH   3   4
HETATM    4  C3  UNL     1       0.350  -0.863  -0.471  1.00  0.00     0.123 C 
BRANCH   4   5
HETATM    5  C2  UNL     1       1.794  -1.030  -0.183  1.00  0.00     0.227 C 
HETATM    6  N1  UNL     1       2.756  -0.458  -1.045  1.00  0.00    -0.294 N 
HETATM    7  C1  UNL     1       2.272   0.293  -2.212  1.00  0.00     0.162 C 
HETATM    8  O1  UNL     1       2.085  -1.689   0.843  1.00  0.00    -0.273 OA
BRANCH   6   9
HETATM    9  C12 UNL     1       4.156  -0.584  -0.829  1.00  0.00     0.187 C 
HETATM   10  N8  UNL     1       5.040  -0.043  -1.637  1.00  0.00    -0.297 N 
HETATM   11  C13 UNL     1       6.352  -0.322  -1.187  1.00  0.00     0.248 C 
ATOM     12  H8  UNL     1       4.813   0.500  -2.470  1.00  0.00     0.172 HD
HETATM   13  O3  UNL     1       7.449  -0.291  -1.782  1.00  0.00    -0.271 OA
HETATM   14  C14 UNL     1       6.177  -0.696   0.260  1.00  0.00     0.202 C 
HETATM   15  N10 UNL     1       4.846  -1.259   0.207  1.00  0.00    -0.347 N 
ATOM     16  H10 UNL     1       4.475  -2.000   0.802  1.00  0.00     0.163 HD
BRANCH  14  17
HETATM   17  C15 UNL     1       6.153   0.564   1.064  1.00  0.00     0.264 C 
BRANCH  17  18
HETATM   18  N9  UNL     1       7.375   1.336   0.927  1.00  0.00    -0.077 N 
ATOM     19  H93 UNL     1       8.193   0.771   1.155  1.00  0.00     0.274 HD
ATOM     20  H92 UNL     1       7.578   1.531  -0.054  1.00  0.00     0.274 HD
ATOM     21  H91 UNL     1       7.359   2.196   1.476  1.00  0.00     0.274 HD
ENDBRANCH  17  18
ENDBRANCH  14  17
ENDBRANCH   6   9
ENDBRANCH   4   5
ENDBRANCH   3   4
ENDBRANCH   1   3
BRANCH   1  22
HETATM   22  C5  UNL     1      -2.621  -0.381   0.566  1.00  0.00     0.146 A 
HETATM   23  N3  UNL     1      -2.105   0.719   1.122  1.00  0.00    -0.175 N 
HETATM   24  C6  UNL     1      -2.865   1.815   1.391  1.00  0.00     0.678 A 
ATOM     25  H3  UNL     1      -1.111   0.738   1.352  1.00  0.00     0.186 HD
HETATM   26  N5  UNL     1      -4.169   1.779   1.085  1.00  0.00    -0.184 N 
HETATM   27  C7  UNL     1      -4.765   0.719   0.527  1.00  0.00     0.147 A 
ATOM     28  H5  UNL     1      -4.736   2.602   1.288  1.00  0.00     0.184 HD
HETATM   29  C8  UNL     1      -6.081   0.631   0.198  1.00  0.00     0.278 A 
HETATM   30  C11 UNL     1      -3.958  -0.398   0.260  1.00  0.00     0.111 A 
HETATM   31  O2  UNL     1      -6.817   1.626   0.432  1.00  0.00    -0.265 OA
HETATM   32  N6  UNL     1      -6.637  -0.466  -0.365  1.00  0.00    -0.313 N 
HETATM   33  C9  UNL     1      -8.043  -0.544  -0.711  1.00  0.00     0.160 C 
HETATM   34  C10 UNL     1      -5.820  -1.520  -0.605  1.00  0.00     0.186 A 
HETATM   35  N7  UNL     1      -4.501  -1.490  -0.298  1.00  0.00    -0.347 N 
ATOM     36  H7  UNL     1      -3.917  -2.303  -0.492  1.00  0.00     0.167 HD
BRANCH  24  37
HETATM   37  N4  UNL     1      -2.317   2.871   1.936  1.00  0.00    -0.234 N 
ATOM     38  H42 UNL     1      -1.324   2.898   2.169  1.00  0.00     0.174 HD
ATOM     39  H41 UNL     1      -2.887   3.693   2.138  1.00  0.00     0.174 HD
ENDBRANCH  24  37
ENDBRANCH   1  22
TORSDOF 8
