REMARK  8 active torsions:
REMARK  status: ('A' for Active; 'I' for Inactive)
REMARK    1  A    between atoms: O1_2  and  C2_3 
REMARK    2  A    between atoms: C2_3  and  C3_5 
REMARK    3  A    between atoms: C3_5  and  N1_6 
REMARK       I    between atoms: N1_6  and  C4_8 
REMARK    4  A    between atoms: C4_8  and  C5_10 
REMARK    5  A    between atoms: C5_10  and  C7_13 
REMARK    6  A    between atoms: C9_19  and  C10_20 
REMARK    7  A    between atoms: C10_20  and  C11_21 
REMARK    8  A    between atoms: N6_24  and  C13_25 
ROOT
HETATM    1  C5  UNL     1      -1.495  -0.364   0.003  1.00  0.00     0.141 C 
HETATM    2  C6  UNL     1      -1.155  -1.358   1.012  1.00  0.00     0.107 C 
HETATM    3  N2  UNL     1      -0.935  -2.178   1.832  1.00  0.00    -0.191 NA
ENDROOT
BRANCH   1   4
HETATM    4  C4  UNL     1      -2.906  -0.329  -0.337  1.00  0.00     0.265 C 
HETATM    5  N1  UNL     1      -3.785  -1.247   0.335  1.00  0.00    -0.347 N 
ATOM      6  H1  UNL     1      -3.393  -1.891   1.022  1.00  0.00     0.163 HD
HETATM    7  O3  UNL     1      -3.416   0.423  -1.155  1.00  0.00    -0.267 OA
BRANCH   5   8
HETATM    8  C3  UNL     1      -5.186  -1.288   0.074  1.00  0.00     0.233 C 
BRANCH   8   9
HETATM    9  C2  UNL     1      -5.898  -0.033   0.382  1.00  0.00     0.276 C 
HETATM   10  O2  UNL     1      -5.353   0.979   0.852  1.00  0.00    -0.263 OA
BRANCH   9  11
HETATM   11  O1  UNL     1      -7.264   0.001   0.124  1.00  0.00    -0.325 OA
HETATM   12  C1  UNL     1      -8.074   1.122   0.365  1.00  0.00     0.213 C 
ENDBRANCH   9  11
ENDBRANCH   8   9
ENDBRANCH   5   8
ENDBRANCH   1   4
BRANCH   1  13
HETATM   13  C7  UNL     1      -0.621   0.433  -0.558  1.00  0.00     0.086 A 
HETATM   14  N3  UNL     1      -0.944   1.365  -1.505  1.00  0.00    -0.349 N 
HETATM   15  C8  UNL     1       0.161   2.036  -1.896  1.00  0.00     0.181 A 
ATOM     16  H3  UNL     1      -1.884   1.530  -1.864  1.00  0.00     0.166 HD
HETATM   17  N4  UNL     1       1.158   1.531  -1.203  1.00  0.00    -0.350 N 
HETATM   18  C9  UNL     1       0.734   0.536  -0.359  1.00  0.00     0.062 A 
ATOM     19  H4  UNL     1       2.127   1.841  -1.283  1.00  0.00     0.166 HD
BRANCH  18  20
HETATM   20  C10 UNL     1       1.540  -0.123   0.437  1.00  0.00     0.052 C 
BRANCH  20  21
HETATM   21  C11 UNL     1       2.979   0.287   0.364  1.00  0.00     0.076 A 
HETATM   22  C12 UNL     1       3.907  -0.542  -0.207  1.00  0.00     0.139 A 
HETATM   23  N5  UNL     1       3.453  -1.785  -0.718  1.00  0.00    -0.081 NA
HETATM   24  N6  UNL     1       5.210  -0.163  -0.269  1.00  0.00    -0.273 N 
HETATM   25  C15 UNL     1       5.590   1.028   0.231  1.00  0.00     0.331 A 
HETATM   26  O4  UNL     1       6.818   1.322   0.143  1.00  0.00    -0.246 OA
HETATM   27  N8  UNL     1       4.690   1.846   0.792  1.00  0.00    -0.274 N 
HETATM   28  C16 UNL     1       3.391   1.500   0.868  1.00  0.00     0.263 A 
ATOM     29  H8  UNL     1       4.993   2.745   1.167  1.00  0.00     0.173 HD
HETATM   30  O5  UNL     1       2.519   2.251   1.391  1.00  0.00    -0.267 OA
BRANCH  24  31
HETATM   31  C13 UNL     1       6.181  -1.035  -0.868  1.00  0.00     0.258 C 
HETATM   32  C14 UNL     1       6.764  -1.939   0.135  1.00  0.00     0.079 C 
HETATM   33  N7  UNL     1       7.208  -2.650   0.929  1.00  0.00    -0.196 NA
ENDBRANCH  24  31
ENDBRANCH  20  21
ENDBRANCH  18  20
ENDBRANCH   1  13
TORSDOF 8
