REMARK  7 active torsions:
REMARK  status: ('A' for Active; 'I' for Inactive)
REMARK    1  A    between atoms: N2_5  and  C3_6 
REMARK    2  A    between atoms: C3_6  and  C4_7 
REMARK       I    between atoms: C4_7  and  N3_9 
REMARK    3  A    between atoms: N3_9  and  C5_10 
REMARK    4  A    between atoms: C5_10  and  C6_11 
REMARK    5  A    between atoms: C6_11  and  O3_12 
REMARK    6  A    between atoms: C10_23  and  C11_24 
REMARK       I    between atoms: C11_24  and  N6_26 
REMARK    7  A    between atoms: N6_26  and  C12_28 
ROOT
HETATM    1  C1  UNL     1       1.627   0.358  -2.995  1.00  0.00     0.161 C 
HETATM    2  N1  UNL     1       0.962   0.350  -1.714  1.00  0.00    -0.299 N 
HETATM    3  C2  UNL     1      -0.420   0.395  -1.743  1.00  0.00     0.336 A 
HETATM    4  O1  UNL     1      -0.922   0.856  -2.807  1.00  0.00    -0.246 OA
HETATM    5  N2  UNL     1      -1.247  -0.019  -0.772  1.00  0.00    -0.232 N 
HETATM    6  C7  UNL     1      -0.661  -0.519   0.340  1.00  0.00     0.285 A 
HETATM    7  O4  UNL     1      -1.361  -0.927   1.316  1.00  0.00    -0.265 OA
HETATM    8  C8  UNL     1       0.680  -0.577   0.428  1.00  0.00     0.135 A 
HETATM    9  N4  UNL     1       1.252  -1.187   1.506  1.00  0.00    -0.302 N 
ATOM     10  H4  UNL     1       0.632  -1.513   2.248  1.00  0.00     0.171 HD
HETATM   11  C9  UNL     1       2.552  -1.388   1.661  1.00  0.00     0.325 A 
HETATM   12  O5  UNL     1       3.104  -1.947   2.606  1.00  0.00    -0.247 OA
HETATM   13  N5  UNL     1       3.396  -0.913   0.619  1.00  0.00    -0.302 N 
ATOM     14  H5  UNL     1       4.411  -1.013   0.642  1.00  0.00     0.171 HD
HETATM   15  C10 UNL     1       2.779  -0.351  -0.346  1.00  0.00     0.135 A 
HETATM   16  C13 UNL     1       1.550  -0.123  -0.614  1.00  0.00     0.103 A 
ENDROOT
BRANCH  15  17
HETATM   17  C11 UNL     1       3.920   0.331  -1.523  1.00  0.00     0.289 C 
HETATM   18  O6  UNL     1       3.064   1.127  -1.765  1.00  0.00    -0.265 OA
HETATM   19  N6  UNL     1       4.781  -0.568  -1.189  1.00  0.00    -0.151 N 
ATOM     20  H6  UNL     1       4.658  -1.448  -1.690  1.00  0.00     0.188 HD
BRANCH  19  21
HETATM   21  C12 UNL     1       5.753  -0.592  -0.366  1.00  0.00     0.716 A 
HETATM   22  N7  UNL     1       6.512  -1.679  -0.188  1.00  0.00    -0.115 N 
HETATM   23  N8  UNL     1       7.399  -1.332   0.759  1.00  0.00    -0.213 N 
ATOM     24  H7  UNL     1       6.434  -2.576  -0.667  1.00  0.00     0.207 HD
HETATM   25  N9  UNL     1       7.236  -0.103   1.165  1.00  0.00    -0.213 N 
ATOM     26  H8  UNL     1       8.119  -1.958   1.120  1.00  0.00     0.210 HD
HETATM   27  N10 UNL     1       6.216   0.336   0.453  1.00  0.00    -0.115 N 
ATOM     28  H9  UNL     1       7.773   0.402   1.870  1.00  0.00     0.210 HD
ATOM     29  H10 UNL     1       5.831   1.278   0.526  1.00  0.00     0.207 HD
ENDBRANCH  19  21
ENDBRANCH  15  17
BRANCH   5  30
HETATM   30  C3  UNL     1      -2.646   0.007  -0.809  1.00  0.00     0.194 C 
BRANCH  30  31
HETATM   31  C4  UNL     1      -3.356   0.837   0.283  1.00  0.00     0.327 C 
HETATM   32  O2  UNL     1      -2.780   1.918   0.511  1.00  0.00    -0.251 OA
HETATM   33  N3  UNL     1      -4.438   0.268   0.801  1.00  0.00    -0.409 NA
BRANCH  33  34
HETATM   34  C5  UNL     1      -5.591  -0.322   1.364  1.00  0.00     0.248 C 
BRANCH  34  35
HETATM   35  C6  UNL     1      -6.864   0.414   1.030  1.00  0.00     0.197 C 
BRANCH  35  36
HETATM   36  O3  UNL     1      -7.925  -0.275   1.593  1.00  0.00    -0.398 OA
ATOM     37  H3  UNL     1      -8.727   0.189   1.383  1.00  0.00     0.209 HD
ENDBRANCH  35  36
ENDBRANCH  34  35
ENDBRANCH  33  34
ENDBRANCH  30  31
ENDBRANCH   5  30
TORSDOF 7
