REMARK  9 active torsions:
REMARK  status: ('A' for Active; 'I' for Inactive)
REMARK    1  A    between atoms: C8_12  and  N3_13 
REMARK    2  A    between atoms: C11_18  and  N4_19 
REMARK    3  A    between atoms: N4_19  and  O4_20 
REMARK    4  A    between atoms: N4_19  and  C12_22 
REMARK    5  A    between atoms: C12_22  and  O5_23 
REMARK    6  A    between atoms: C13_25  and  C14_27 
REMARK    7  A    between atoms: C14_27  and  C15_29 
REMARK    8  A    between atoms: C15_29  and  O7_30 
REMARK    9  A    between atoms: C15_29  and  O8_32 
ROOT
HETATM    1  C1  UNL     1      -1.836  -4.358   0.431  1.00  0.00     0.066 C 
HETATM    2  C2  UNL     1      -1.534  -3.054  -0.260  1.00  0.00     0.038 C 
HETATM    3  N1  UNL     1      -1.228  -3.195  -1.625  1.00  0.00    -0.106 NA
HETATM    4  C3  UNL     1      -1.516  -1.930   0.380  1.00  0.00     0.082 A 
HETATM    5  C4  UNL     1      -1.796  -1.933   1.832  1.00  0.00     0.260 A 
HETATM    6  O1  UNL     1      -2.095  -2.982   2.480  1.00  0.00    -0.267 OA
HETATM    7  N2  UNL     1      -1.716  -0.687   2.500  1.00  0.00    -0.322 N 
ATOM      8  H2  UNL     1      -1.906  -0.666   3.502  1.00  0.00     0.169 HD
HETATM    9  C5  UNL     1      -1.419   0.413   1.919  1.00  0.00     0.047 A 
HETATM   10  C6  UNL     1      -1.394   1.567   2.721  1.00  0.00     0.033 A 
HETATM   11  C7  UNL     1      -1.114   2.802   2.205  1.00  0.00     0.038 A 
HETATM   12  C8  UNL     1      -0.858   2.855   0.845  1.00  0.00     0.103 A 
HETATM   13  C9  UNL     1      -0.872   1.754   0.043  1.00  0.00     0.052 A 
HETATM   14  C10 UNL     1      -1.149   0.501   0.567  1.00  0.00     0.023 A 
HETATM   15  C11 UNL     1      -1.188  -0.607  -0.195  1.00  0.00     0.095 A 
ENDROOT
BRANCH  15  16
HETATM   16  N4  UNL     1      -0.741  -0.478  -1.527  1.00  0.00    -0.198 N 
BRANCH  16  17
HETATM   17  O4  UNL     1      -1.756  -0.668  -2.485  1.00  0.00    -0.280 OA
ATOM     18  H4  UNL     1      -1.455  -0.581  -3.382  1.00  0.00     0.245 HD
ENDBRANCH  16  17
BRANCH  16  19
HETATM   19  C12 UNL     1       0.474  -0.069  -2.069  1.00  0.00     0.196 C 
HETATM   20  C13 UNL     1       1.803   0.185  -1.563  1.00  0.00     0.150 C 
HETATM   21  N5  UNL     1       2.233   1.504  -2.068  1.00  0.00    -0.094 NA
BRANCH  19  22
HETATM   22  O5  UNL     1       0.440   0.138  -3.367  1.00  0.00    -0.343 OA
ATOM     23  H5  UNL     1       1.269   0.417  -3.737  1.00  0.00     0.219 HD
ENDBRANCH  19  22
BRANCH  20  24
HETATM   24  C14 UNL     1       2.211  -0.127  -0.222  1.00  0.00     0.232 C 
HETATM   25  O6  UNL     1       2.020  -1.215   0.261  1.00  0.00    -0.286 OA
BRANCH  24  26
HETATM   26  C15 UNL     1       2.887   0.906   0.599  1.00  0.00     0.332 C 
BRANCH  26  27
HETATM   27  O7  UNL     1       3.216   0.439   1.872  1.00  0.00    -0.365 OA
ATOM     28  H7  UNL     1       3.649   1.101   2.398  1.00  0.00     0.213 HD
ENDBRANCH  26  27
BRANCH  26  29
HETATM   29  O8  UNL     1       4.115   1.279   0.004  1.00  0.00    -0.365 OA
ATOM     30  H8  UNL     1       4.548   1.941   0.530  1.00  0.00     0.213 HD
ENDBRANCH  26  29
ENDBRANCH  24  26
ENDBRANCH  20  24
ENDBRANCH  16  19
ENDBRANCH  15  16
BRANCH  12  31
HETATM   31  N3  UNL     1      -0.569   4.122   0.278  1.00  0.00    -0.116 N 
HETATM   32  O2  UNL     1      -0.546   5.161   0.981  1.00  0.00    -0.532 OA
HETATM   33  O3  UNL     1      -0.311   4.209  -1.061  1.00  0.00    -0.532 OA
ENDBRANCH  12  31
TORSDOF 9
