REMARK  6 active torsions:
REMARK  status: ('A' for Active; 'I' for Inactive)
REMARK    1  A    between atoms: N1_2  and  C3_4 
REMARK    2  A    between atoms: C4_7  and  N3_8 
REMARK    3  A    between atoms: N3_8  and  N4_10 
REMARK    4  A    between atoms: N7_19  and  C6_20 
REMARK    5  A    between atoms: C6_20  and  C7_21 
REMARK    6  A    between atoms: N9_27  and  C10_28 
ROOT
HETATM    1  C10 UNL     1       5.391  -0.929   1.887  1.00  0.00     0.261 C 
HETATM    2  C11 UNL     1       6.287  -1.853   1.192  1.00  0.00     0.079 C 
HETATM    3  N10 UNL     1       6.982  -2.604   0.620  1.00  0.00    -0.196 NA
ENDROOT
BRANCH   1   4
HETATM    4  N9  UNL     1       4.375  -0.416   1.001  1.00  0.00    -0.251 N 
HETATM    5  C9  UNL     1       3.219  -1.069   0.879  1.00  0.00     0.283 A 
HETATM    6  C8  UNL     1       2.216  -0.615   0.039  1.00  0.00     0.147 A 
HETATM    7  O1  UNL     1       2.998  -2.121   1.522  1.00  0.00    -0.265 OA
HETATM    8  N8  UNL     1       0.991  -1.065  -0.269  1.00  0.00    -0.337 N 
HETATM    9  C14 UNL     1       2.437   0.541  -0.678  1.00  0.00     0.145 A 
HETATM   10  C7  UNL     1       0.406  -0.245  -1.160  1.00  0.00     0.103 A 
ATOM     11  H8  UNL     1       0.565  -1.907   0.117  1.00  0.00     0.167 HD
HETATM   12  N12 UNL     1       1.313   0.728  -1.393  1.00  0.00    -0.328 N 
ATOM     13  H12 UNL     1       1.164   1.509  -2.032  1.00  0.00     0.169 HD
HETATM   14  N11 UNL     1       3.605   1.189  -0.545  1.00  0.00    -0.287 N 
HETATM   15  C12 UNL     1       4.572   0.709   0.295  1.00  0.00     0.333 A 
HETATM   16  C13 UNL     1       3.854   2.412  -1.290  1.00  0.00     0.163 C 
HETATM   17  O2  UNL     1       5.680   1.292   0.444  1.00  0.00    -0.246 OA
BRANCH  10  18
HETATM   18  C6  UNL     1      -0.935  -0.462  -1.714  1.00  0.00     0.243 C 
BRANCH  18  19
HETATM   19  N7  UNL     1      -2.029   0.201  -1.104  1.00  0.00    -0.006 N 
HETATM   20  C3  UNL     1      -2.722  -0.361  -0.112  1.00  0.00     0.711 A 
HETATM   21  N2  UNL     1      -3.785   0.320   0.430  1.00  0.00    -0.020 N 
HETATM   22  C4  UNL     1      -4.112   1.530  -0.037  1.00  0.00     0.725 A 
ATOM     23  H2  UNL     1      -4.325  -0.097   1.188  1.00  0.00     0.203 HD
HETATM   24  N5  UNL     1      -3.393   2.067  -1.037  1.00  0.00    -0.020 N 
HETATM   25  C5  UNL     1      -2.354   1.440  -1.592  1.00  0.00     0.707 A 
ATOM     26  H5  UNL     1      -3.651   2.990  -1.386  1.00  0.00     0.203 HD
HETATM   27  N6  UNL     1      -1.683   1.978  -2.568  1.00  0.00    -0.233 N 
ATOM     28  H62 UNL     1      -1.925   2.900  -2.931  1.00  0.00     0.174 HD
ATOM     29  H61 UNL     1      -0.889   1.499  -2.992  1.00  0.00     0.174 HD
BRANCH  20  30
HETATM   30  N1  UNL     1      -2.509  -1.638   0.464  1.00  0.00    -0.225 N 
HETATM   31  C1  UNL     1      -2.882  -2.835  -0.252  1.00  0.00     0.168 C 
HETATM   32  C2  UNL     1      -1.955  -1.830   1.803  1.00  0.00     0.168 C 
ENDBRANCH  20  30
BRANCH  22  33
HETATM   33  N3  UNL     1      -5.110   2.147   0.483  1.00  0.00    -0.138 N 
ATOM     34  H3  UNL     1      -5.347   3.068   0.115  1.00  0.00     0.205 HD
BRANCH  33  35
HETATM   35  N4  UNL     1      -5.887   1.637   1.516  1.00  0.00    -0.331 N 
ATOM     36  H42 UNL     1      -5.635   0.715   1.871  1.00  0.00     0.177 HD
ATOM     37  H41 UNL     1      -6.680   2.127   1.929  1.00  0.00     0.177 HD
ENDBRANCH  33  35
ENDBRANCH  22  33
ENDBRANCH  18  19
ENDBRANCH  10  18
ENDBRANCH   1   4
TORSDOF 6
