REMARK  8 active torsions:
REMARK  status: ('A' for Active; 'I' for Inactive)
REMARK    1  A    between atoms: N1_2  and  C3_4 
REMARK    2  A    between atoms: C3_4  and  C4_5 
REMARK    3  A    between atoms: C4_5  and  N2_6 
REMARK    4  A    between atoms: N2_6  and  C5_8 
REMARK    5  A    between atoms: C10_21  and  N6_22 
REMARK    6  A    between atoms: N7_25  and  S1_26 
REMARK    7  A    between atoms: S1_26  and  C12_29 
REMARK    8  A    between atoms: C12_29  and  N8_30 
ROOT
HETATM    1  C5  UNL     1       0.476   0.005   0.527  1.00  0.00     0.173 C 
HETATM    2  N3  UNL     1       0.658   1.353   0.476  1.00  0.00    -0.323 N 
ATOM      3  H3  UNL     1       1.541   1.711   0.840  1.00  0.00     0.169 HD
HETATM    4  C6  UNL     1      -0.218   2.269  -0.011  1.00  0.00     0.130 A 
HETATM    5  N4  UNL     1       0.370   3.420  -0.363  1.00  0.00    -0.293 N 
ATOM      6  H4  UNL     1       1.378   3.526  -0.252  1.00  0.00     0.172 HD
HETATM    7  C7  UNL     1      -0.366   4.453  -0.869  1.00  0.00     0.328 A 
HETATM    8  O1  UNL     1       0.216   5.520  -1.189  1.00  0.00    -0.247 OA
HETATM    9  N5  UNL     1      -1.706   4.345  -1.030  1.00  0.00    -0.275 N 
ATOM     10  H5  UNL     1      -2.259   5.115  -1.408  1.00  0.00     0.173 HD
HETATM   11  C8  UNL     1      -2.279   3.182  -0.672  1.00  0.00     0.267 A 
HETATM   12  O2  UNL     1      -3.530   3.062  -0.814  1.00  0.00    -0.267 OA
HETATM   13  C9  UNL     1      -1.580   2.121  -0.161  1.00  0.00     0.121 A 
HETATM   14  C10 UNL     1      -2.393   1.009   0.139  1.00  0.00     0.136 C 
HETATM   15  N7  UNL     1      -1.919  -0.211   0.157  1.00  0.00    -0.217 N 
HETATM   16  C13 UNL     1      -0.692  -0.723   0.391  1.00  0.00     0.304 C 
HETATM   17  O4  UNL     1      -0.542  -1.952   0.502  1.00  0.00    -0.263 OA
ENDROOT
BRANCH  15  18
HETATM   18  S1  UNL     1      -3.222  -1.626  -0.216  1.00  0.00     0.056 S 
HETATM   19  C11 UNL     1      -2.419  -1.790  -1.923  1.00  0.00     0.139 C 
HETATM   20  O3  UNL     1      -2.734  -3.295   0.161  1.00  0.00    -0.248 OA
BRANCH  18  21
HETATM   21  C12 UNL     1      -4.892  -1.165  -0.851  1.00  0.00     0.346 C 
BRANCH  21  22
HETATM   22  N8  UNL     1      -6.096  -1.259   0.003  1.00  0.00    -0.068 N 
ATOM     23  H83 UNL     1      -6.150  -2.211   0.366  1.00  0.00     0.275 HD
ATOM     24  H82 UNL     1      -5.922  -0.719   0.851  1.00  0.00     0.275 HD
ATOM     25  H81 UNL     1      -7.019  -1.004  -0.348  1.00  0.00     0.275 HD
ENDBRANCH  21  22
ENDBRANCH  18  21
ENDBRANCH  15  18
BRANCH  14  26
HETATM   26  N6  UNL     1      -3.546   1.291   0.391  1.00  0.00    -0.384 N 
ATOM     27  H62 UNL     1      -3.915   2.242   0.377  1.00  0.00     0.157 HD
ATOM     28  H61 UNL     1      -4.134   0.486   0.608  1.00  0.00     0.157 HD
ENDBRANCH  14  26
BRANCH   1  29
HETATM   29  N2  UNL     1       1.525  -0.693   0.723  1.00  0.00    -0.370 N 
ATOM     30  H2  UNL     1       1.392  -1.704   0.762  1.00  0.00     0.161 HD
BRANCH  29  31
HETATM   31  C4  UNL     1       2.863  -0.227   0.894  1.00  0.00     0.151 C 
BRANCH  31  32
HETATM   32  C3  UNL     1       3.789  -1.384   0.493  1.00  0.00     0.290 C 
BRANCH  32  33
HETATM   33  N1  UNL     1       5.185  -1.042   0.623  1.00  0.00     0.081 N 
HETATM   34  C1  UNL     1       5.555  -0.897   2.000  1.00  0.00     0.309 C 
HETATM   35  C2  UNL     1       5.967  -2.102   0.029  1.00  0.00     0.309 C 
ENDBRANCH  32  33
ENDBRANCH  31  32
ENDBRANCH  29  31
ENDBRANCH   1  29
TORSDOF 8
