REMARK  6 active torsions:
REMARK  status: ('A' for Active; 'I' for Inactive)
REMARK    1  A    between atoms: C2_2  and  C3_3 
REMARK    2  A    between atoms: C3_3  and  N1_4 
REMARK    3  A    between atoms: C8_14  and  C9_15 
REMARK    4  A    between atoms: C10_16  and  C11_17 
REMARK    5  A    between atoms: C13_25  and  N8_26 
REMARK    6  A    between atoms: N9_32  and  O4_33 
ROOT
HETATM    1  N1  UNL     1       2.799  -0.947  -1.916  1.00  0.00    -0.281 N 
HETATM    2  N2  UNL     1       3.770  -1.817  -2.158  1.00  0.00    -0.248 N 
ATOM      3  H2  UNL     1       4.398  -1.663  -2.947  1.00  0.00     0.192 HD
HETATM    4  C4  UNL     1       3.939  -2.896  -1.381  1.00  0.00     0.340 A 
HETATM    5  O1  UNL     1       4.885  -3.694  -1.662  1.00  0.00    -0.245 OA
HETATM    6  N3  UNL     1       3.119  -3.114  -0.334  1.00  0.00    -0.290 N 
ATOM      7  H3  UNL     1       3.259  -3.939   0.249  1.00  0.00     0.172 HD
HETATM    8  C5  UNL     1       2.123  -2.265  -0.046  1.00  0.00     0.165 A 
HETATM    9  C6  UNL     1       1.981  -1.151  -0.883  1.00  0.00     0.098 A 
HETATM   10  C7  UNL     1       0.985  -0.270  -0.607  1.00  0.00     0.049 A 
HETATM   11  C8  UNL     1       0.151  -0.508   0.487  1.00  0.00     0.002 A 
HETATM   12  C14 UNL     1       0.286  -1.596   1.303  1.00  0.00     0.049 A 
HETATM   13  C15 UNL     1      -0.600  -1.925   2.449  1.00  0.00     0.072 C 
HETATM   14  N9  UNL     1       1.297  -2.449   0.989  1.00  0.00    -0.209 N 
ENDROOT
BRANCH  11  15
HETATM   15  C9  UNL     1      -0.922   0.457   0.751  1.00  0.00     0.023 C 
HETATM   16  C10 UNL     1      -0.842   1.407   1.660  1.00  0.00     0.136 C 
HETATM   17  N4  UNL     1      -2.028   2.186   1.679  1.00  0.00    -0.247 N 
HETATM   18  N5  UNL     1      -2.867   3.053   2.368  1.00  0.00    -0.008 NA
HETATM   19  C12 UNL     1      -2.662   2.004   0.387  1.00  0.00     0.251 C 
HETATM   20  N6  UNL     1      -4.053   3.181   1.671  1.00  0.00    -0.015 NA
HETATM   21  N7  UNL     1      -4.042   2.143   0.704  1.00  0.00    -0.099 NA
HETATM   22  C13 UNL     1      -2.233   0.561   0.099  1.00  0.00     0.261 C 
BRANCH  16  23
HETATM   23  C11 UNL     1       0.275   1.712   2.571  1.00  0.00     0.228 C 
HETATM   24  O2  UNL     1       1.365   1.092   2.613  1.00  0.00    -0.643 OA
HETATM   25  O3  UNL     1       0.150   2.752   3.464  1.00  0.00    -0.643 OA
ENDBRANCH  16  23
BRANCH  22  26
HETATM   26  N8  UNL     1      -3.156  -0.369   0.728  1.00  0.00    -0.068 N 
ATOM     27  H83 UNL     1      -2.800  -1.325   0.731  1.00  0.00     0.275 HD
ATOM     28  H82 UNL     1      -3.214  -0.233   1.737  1.00  0.00     0.275 HD
ATOM     29  H81 UNL     1      -4.067  -0.297   0.275  1.00  0.00     0.275 HD
ENDBRANCH  22  26
ENDBRANCH  11  15
BRANCH  14  30
HETATM   30  O4  UNL     1       1.469  -3.555   1.783  1.00  0.00    -0.281 OA
ATOM     31  H4  UNL     1       0.882  -3.686   2.518  1.00  0.00     0.245 HD
ENDBRANCH  14  30
BRANCH   1  32
HETATM   32  C3  UNL     1       2.637   0.206  -2.810  1.00  0.00     0.176 C 
BRANCH  32  33
HETATM   33  C2  UNL     1       1.809  -0.195  -3.956  1.00  0.00    -0.015 C 
HETATM   34  C1  UNL     1       0.678   0.398  -4.229  1.00  0.00     0.008 C 
ENDBRANCH  32  33
ENDBRANCH   1  32
TORSDOF 6
