REMARK  7 active torsions:
REMARK  status: ('A' for Active; 'I' for Inactive)
REMARK    1  A    between atoms: C1_2  and  C2_4 
REMARK    2  A    between atoms: C2_4  and  N2_5 
REMARK    3  A    between atoms: C2_4  and  C11_20 
REMARK    4  A    between atoms: N2_5  and  C3_7 
REMARK    5  A    between atoms: C10_17  and  O2_18 
REMARK       I    between atoms: C11_20  and  N5_22 
REMARK    6  A    between atoms: N5_22  and  C12_24 
REMARK    7  A    between atoms: N9_31  and  C13_32 
ROOT
HETATM    1  C11 UNL     1      -1.160  -1.833  -1.506  1.00  0.00     0.267 C 
HETATM    2  O3  UNL     1      -1.195  -2.303  -2.640  1.00  0.00    -0.270 OA
HETATM    3  N5  UNL     1      -2.156  -1.243  -0.818  1.00  0.00    -0.154 N 
ATOM      4  H5  UNL     1      -2.350  -0.356  -1.284  1.00  0.00     0.187 HD
ENDROOT
BRANCH   1   5
HETATM    5  C2  UNL     1       0.254  -1.947  -0.788  1.00  0.00     0.265 C 
BRANCH   5   6
HETATM    6  C1  UNL     1       0.163  -3.113   0.074  1.00  0.00     0.263 C 
HETATM    7  N1  UNL     1       0.816  -3.125   1.351  1.00  0.00    -0.060 NA
HETATM    8  O1  UNL     1      -0.507  -4.157  -0.222  1.00  0.00    -0.274 OA
ENDBRANCH   5   6
BRANCH   5   9
HETATM    9  N2  UNL     1       0.281  -0.678  -0.095  1.00  0.00    -0.365 N 
ATOM     10  H2  UNL     1      -0.380  -0.555   0.672  1.00  0.00     0.161 HD
BRANCH   9  11
HETATM   11  C3  UNL     1       1.139   0.409  -0.383  1.00  0.00     0.093 A 
HETATM   12  C4  UNL     1       2.453   0.523  -0.056  1.00  0.00     0.023 A 
HETATM   13  C5  UNL     1       3.315  -0.318   0.618  1.00  0.00     0.016 A 
HETATM   14  C9  UNL     1       2.906   1.706  -0.608  1.00  0.00     0.071 A 
HETATM   15  C6  UNL     1       4.678   0.001   0.749  1.00  0.00     0.003 A 
HETATM   16  C7  UNL     1       5.126   1.157   0.213  1.00  0.00     0.029 A 
HETATM   17  C8  UNL     1       4.251   2.013  -0.470  1.00  0.00     0.074 A 
HETATM   18  N3  UNL     1       4.741   3.216  -1.121  1.00  0.00    -0.100 NA
HETATM   19  N4  UNL     1       1.979   2.335  -1.219  1.00  0.00    -0.333 N 
HETATM   20  C10 UNL     1       0.805   1.590  -1.154  1.00  0.00     0.168 A 
ATOM     21  H4  UNL     1       2.082   3.239  -1.681  1.00  0.00     0.168 HD
BRANCH  20  22
HETATM   22  O2  UNL     1      -0.377   1.838  -1.648  1.00  0.00    -0.344 OA
ATOM     23  H2  UNL     1      -0.596   2.612  -2.153  1.00  0.00     0.219 HD
ENDBRANCH  20  22
ENDBRANCH   9  11
ENDBRANCH   5   9
ENDBRANCH   1   5
BRANCH   3  24
HETATM   24  C12 UNL     1      -2.942  -1.321   0.147  1.00  0.00     0.738 A 
HETATM   25  N6  UNL     1      -3.054  -2.332   1.041  1.00  0.00    -0.114 N 
HETATM   26  N7  UNL     1      -3.923  -2.032   1.977  1.00  0.00    -0.212 N 
ATOM     27  H6  UNL     1      -2.533  -3.208   0.993  1.00  0.00     0.207 HD
HETATM   28  N8  UNL     1      -4.379  -0.855   1.748  1.00  0.00    -0.191 N 
ATOM     29  H7  UNL     1      -4.191  -2.634   2.756  1.00  0.00     0.210 HD
HETATM   30  N9  UNL     1      -3.792  -0.393   0.612  1.00  0.00     0.109 N 
ATOM     31  H8  UNL     1      -5.061  -0.354   2.317  1.00  0.00     0.211 HD
BRANCH  30  32
HETATM   32  C13 UNL     1      -4.210   0.882   0.079  1.00  0.00     0.735 A 
HETATM   33  N10 UNL     1      -4.450   1.991   0.756  1.00  0.00    -0.183 N 
HETATM   34  C14 UNL     1      -4.929   2.946  -0.098  1.00  0.00     0.215 A 
ATOM     35  H10 UNL     1      -4.301   2.115   1.757  1.00  0.00     0.185 HD
HETATM   36  N11 UNL     1      -4.982   2.417  -1.330  1.00  0.00    -0.281 N 
HETATM   37  N12 UNL     1      -4.542   1.154  -1.200  1.00  0.00    -0.129 N 
ATOM     38  H11 UNL     1      -5.291   2.877  -2.186  1.00  0.00     0.188 HD
ATOM     39  H12 UNL     1      -4.469   0.487  -1.969  1.00  0.00     0.205 HD
ENDBRANCH  30  32
ENDBRANCH   3  24
TORSDOF 7
