REMARK  10 active torsions:
REMARK  status: ('A' for Active; 'I' for Inactive)
REMARK    1  A    between atoms: N1_2  and  C2_4 
REMARK    2  A    between atoms: C3_7  and  N3_8 
REMARK    3  A    between atoms: C9_18  and  N6_19 
REMARK    4  A    between atoms: N6_19  and  C10_20 
REMARK    5  A    between atoms: C10_20  and  C11_21 
REMARK    6  A    between atoms: C11_21  and  N7_22 
REMARK    7  A    between atoms: N7_22  and  C12_24 
REMARK    8  A    between atoms: C15_31  and  C16_32 
REMARK    9  A    between atoms: C16_32  and  N10_33 
REMARK   10  A    between atoms: C16_32  and  N11_37 
ROOT
HETATM    1  N6  UNL     1       0.580  -0.585   0.583  1.00  0.00    -0.413 NA
ENDROOT
BRANCH   1   2
HETATM    2  C9  UNL     1      -0.472  -1.140   0.553  1.00  0.00     0.282 A 
HETATM    3  N5  UNL     1      -1.602  -0.423   0.240  1.00  0.00    -0.148 N 
HETATM    4  C3  UNL     1      -2.819  -0.934   0.176  1.00  0.00     0.698 A 
ATOM      5  H5  UNL     1      -1.494   0.572   0.044  1.00  0.00     0.188 HD
HETATM    6  N2  UNL     1      -2.950  -2.245   0.436  1.00  0.00    -0.022 N 
HETATM    7  C2  UNL     1      -1.907  -3.033   0.752  1.00  0.00     0.695 A 
ATOM      8  H2  UNL     1      -3.880  -2.661   0.392  1.00  0.00     0.203 HD
HETATM    9  N12 UNL     1      -0.707  -2.467   0.802  1.00  0.00    -0.148 N 
ATOM     10  H12 UNL     1       0.090  -3.057   1.041  1.00  0.00     0.188 HD
BRANCH   4  11
HETATM   11  N3  UNL     1      -3.932  -0.112  -0.154  1.00  0.00    -0.207 N 
HETATM   12  C4  UNL     1      -3.684   1.310  -0.430  1.00  0.00     0.161 C 
HETATM   13  C5  UNL     1      -4.853   1.943  -1.114  1.00  0.00     0.145 C 
HETATM   14  N4  UNL     1      -5.982   1.817  -0.181  1.00  0.00    -0.354 N 
HETATM   15  C6  UNL     1      -6.803   2.912   0.229  1.00  0.00     0.152 C 
HETATM   16  C7  UNL     1      -6.207   0.496   0.298  1.00  0.00     0.237 C 
HETATM   17  O1  UNL     1      -7.124   0.242   1.118  1.00  0.00    -0.272 OA
HETATM   18  C8  UNL     1      -5.282  -0.567  -0.237  1.00  0.00     0.244 C 
ENDBRANCH   4  11
BRANCH   7  19
HETATM   19  N1  UNL     1      -2.125  -4.279   0.986  1.00  0.00    -0.230 N 
HETATM   20  C1  UNL     1      -3.470  -4.802   0.906  1.00  0.00     0.165 C 
ATOM     21  H1  UNL     1      -1.350  -4.897   1.228  1.00  0.00     0.177 HD
ENDBRANCH   7  19
ENDBRANCH   1   2
BRANCH   1  22
HETATM   22  C10 UNL     1       1.757   0.036   0.616  1.00  0.00     0.241 C 
BRANCH  22  23
HETATM   23  C11 UNL     1       2.949  -0.920   0.475  1.00  0.00     0.154 C 
BRANCH  23  24
HETATM   24  N7  UNL     1       4.165  -0.136   0.527  1.00  0.00    -0.373 N 
ATOM     25  H7  UNL     1       4.656  -0.059   1.418  1.00  0.00     0.161 HD
BRANCH  24  26
HETATM   26  C12 UNL     1       4.657   0.469  -0.498  1.00  0.00     0.113 A 
HETATM   27  N8  UNL     1       4.074   0.423  -1.722  1.00  0.00    -0.338 N 
HETATM   28  C13 UNL     1       4.655   1.084  -2.740  1.00  0.00     0.181 A 
ATOM     29  H8  UNL     1       3.212  -0.102  -1.868  1.00  0.00     0.168 HD
HETATM   30  N9  UNL     1       5.792   1.788  -2.581  1.00  0.00    -0.361 N 
HETATM   31  C14 UNL     1       6.378   1.842  -1.372  1.00  0.00     0.103 A 
ATOM     32  H9  UNL     1       6.207   2.278  -3.374  1.00  0.00     0.166 HD
HETATM   33  C15 UNL     1       5.824   1.182  -0.296  1.00  0.00     0.058 A 
BRANCH  33  34
HETATM   34  C16 UNL     1       6.471   1.240   1.040  1.00  0.00     0.416 C 
BRANCH  34  35
HETATM   35  N10 UNL     1       7.889   1.028   0.846  1.00  0.00    -0.046 N 
ATOM     36 3H10 UNL     1       8.097   0.167   0.341  1.00  0.00     0.277 HD
ATOM     37 2H10 UNL     1       8.300   1.678   0.176  1.00  0.00     0.277 HD
ATOM     38 1H10 UNL     1       8.333   1.068   1.763  1.00  0.00     0.277 HD
ENDBRANCH  34  35
BRANCH  34  39
HETATM   39  N11 UNL     1       5.877   0.223   1.898  1.00  0.00    -0.046 N 
ATOM     40 3H11 UNL     1       4.862   0.306   1.954  1.00  0.00     0.277 HD
ATOM     41 2H11 UNL     1       5.921  -0.708   1.485  1.00  0.00     0.277 HD
ATOM     42 1H11 UNL     1       6.321   0.263   2.815  1.00  0.00     0.277 HD
ENDBRANCH  34  39
ENDBRANCH  33  34
ENDBRANCH  24  26
ENDBRANCH  23  24
ENDBRANCH  22  23
ENDBRANCH   1  22
TORSDOF 10
