REMARK  3 active torsions:
REMARK  status: ('A' for Active; 'I' for Inactive)
REMARK    1  A    between atoms: C2_2  and  C3_3 
REMARK    2  A    between atoms: C3_3  and  C4_4 
REMARK    3  A    between atoms: N1_9  and  C8_10 
ROOT
HETATM    1  C8  UNL     1      -3.857   1.169  -0.505  1.00  0.00     0.249 C 
HETATM    2  C9  UNL     1      -4.236   2.448   0.046  1.00  0.00     0.079 C 
HETATM    3  N2  UNL     1      -4.528   3.476   0.477  1.00  0.00    -0.196 NA
ENDROOT
BRANCH   1   4
HETATM    4  N1  UNL     1      -2.511   0.760  -0.091  1.00  0.00    -0.338 N 
HETATM    5  C7  UNL     1      -1.451   1.148  -0.901  1.00  0.00     0.220 C 
HETATM    6  C6  UNL     1      -0.013   1.336  -0.547  1.00  0.00     0.105 C 
HETATM    7  O1  UNL     1      -1.711   1.385  -2.134  1.00  0.00    -0.273 OA
HETATM    8  C5  UNL     1       0.881   0.329  -1.258  1.00  0.00     0.042 C 
HETATM    9  C4  UNL     1       1.854  -0.403  -0.429  1.00  0.00     0.186 C 
HETATM   10  N4  UNL     1       1.511  -1.819  -0.151  1.00  0.00    -0.069 N 
HETATM   11  C13 UNL     1       0.141  -1.791   0.236  1.00  0.00     0.251 C 
ATOM     12  H42 UNL     1       1.711  -2.454  -0.924  1.00  0.00     0.277 HD
ATOM     13  H41 UNL     1       2.125  -2.269   0.528  1.00  0.00     0.277 HD
HETATM   14  C12 UNL     1      -0.431  -2.879   1.079  1.00  0.00     0.141 C 
HETATM   15  N3  UNL     1      -1.609  -2.298   1.753  1.00  0.00    -0.418 N 
HETATM   16  C11 UNL     1      -2.453  -1.496   0.946  1.00  0.00     0.133 C 
ATOM     17  H3  UNL     1      -1.804  -2.464   2.740  1.00  0.00     0.153 HD
HETATM   18  C10 UNL     1      -2.443  -0.023   1.152  1.00  0.00     0.146 C 
BRANCH   9  19
HETATM   19  C3  UNL     1       3.296  -0.314  -0.850  1.00  0.00     0.032 C 
BRANCH  19  20
HETATM   20  C2  UNL     1       3.733   1.135  -0.813  1.00  0.00    -0.002 C 
HETATM   21  C1  UNL     1       3.595   1.703   0.576  1.00  0.00     0.005 C 
ENDBRANCH  19  20
ENDBRANCH   9  19
ENDBRANCH   1   4
TORSDOF 3
