REMARK  5 active torsions:
REMARK  status: ('A' for Active; 'I' for Inactive)
REMARK    1  A    between atoms: C2_2  and  C3_3 
REMARK    2  A    between atoms: N1_4  and  N2_6 
REMARK    3  A    between atoms: N2_6  and  C4_8 
REMARK    4  A    between atoms: C4_8  and  N3_10 
REMARK    5  A    between atoms: N3_10  and  C5_12 
ROOT
HETATM    1  N3  UNL     1      -0.535   0.561  -0.554  1.00  0.00    -0.361 N 
ATOM      2  H3  UNL     1      -0.753   0.794  -1.523  1.00  0.00     0.162 HD
ENDROOT
BRANCH   1   3
HETATM    3  C4  UNL     1       0.805   0.711  -0.113  1.00  0.00     0.186 C 
HETATM    4  S1  UNL     1       1.240   0.359   1.436  1.00  0.00    -0.040 SA
BRANCH   3   5
HETATM    5  N2  UNL     1       1.772   1.172  -1.026  1.00  0.00    -0.277 N 
ATOM      6  H2  UNL     1       1.505   1.392  -1.986  1.00  0.00     0.189 HD
BRANCH   5   7
HETATM    7  N1  UNL     1       3.088   1.326  -0.618  1.00  0.00    -0.314 N 
HETATM    8  C3  UNL     1       3.704   0.285  -0.160  1.00  0.00     0.080 C 
ATOM      9  H1  UNL     1       3.555   2.231  -0.677  1.00  0.00     0.185 HD
BRANCH   8  10
HETATM   10  C2  UNL     1       5.115   0.395   0.292  1.00  0.00     0.041 C 
HETATM   11  C1  UNL     1       5.808  -0.906   0.038  1.00  0.00     0.010 C 
ENDBRANCH   8  10
ENDBRANCH   5   7
ENDBRANCH   3   5
ENDBRANCH   1   3
BRANCH   1  12
HETATM   12  C5  UNL     1      -1.602   0.098   0.290  1.00  0.00     0.091 C 
HETATM   13  C6  UNL     1      -1.448  -1.269   0.846  1.00  0.00     0.028 C 
HETATM   14  C7  UNL     1      -2.890  -1.655   1.178  1.00  0.00     0.036 C 
HETATM   15  C8  UNL     1      -3.782  -0.629   0.571  1.00  0.00     0.154 C 
HETATM   16  O1  UNL     1      -4.018   0.471   1.393  1.00  0.00    -0.281 OA
HETATM   17  C10 UNL     1      -2.884   0.006  -0.469  1.00  0.00     0.056 C 
HETATM   18  N4  UNL     1      -4.262   1.524   0.585  1.00  0.00    -0.100 NA
HETATM   19  C9  UNL     1      -3.470   1.380  -0.594  1.00  0.00     0.152 C 
ENDBRANCH   1  12
TORSDOF 5
