REMARK  6 active torsions:
REMARK  status: ('A' for Active; 'I' for Inactive)
REMARK    1  A    between atoms: N1_2  and  C2_3 
REMARK    2  A    between atoms: N1_2  and  C5_10 
REMARK    3  A    between atoms: C2_3  and  C3_4 
REMARK    4  A    between atoms: C3_4  and  C4_5 
REMARK    5  A    between atoms: C4_5  and  N2_6 
REMARK    6  A    between atoms: C16_27  and  N5_28 
ROOT
HETATM    1  C5  UNL     1       2.285  -1.071  -0.341  1.00  0.00     0.683 A 
HETATM    2  N3  UNL     1       1.738   0.118  -0.624  1.00  0.00    -0.184 N 
ATOM      3  H3  UNL     1       2.350   0.887  -0.898  1.00  0.00     0.185 HD
HETATM    4  C6  UNL     1       0.393   0.341  -0.560  1.00  0.00     0.107 A 
HETATM    5  S1  UNL     1      -0.583   1.709  -0.832  1.00  0.00    -0.073 SA
HETATM    6  C7  UNL     1      -2.101   1.045  -0.501  1.00  0.00     0.022 A 
HETATM    7  C8  UNL     1      -1.806  -0.282  -0.173  1.00  0.00    -0.024 A 
HETATM    8  C9  UNL     1      -0.514  -0.636  -0.204  1.00  0.00     0.074 A 
HETATM    9  C10 UNL     1       0.078  -1.879   0.091  1.00  0.00     0.273 A 
HETATM   10  O1  UNL     1      -0.577  -2.896   0.438  1.00  0.00    -0.267 OA
HETATM   11  N4  UNL     1       1.411  -2.028   0.009  1.00  0.00    -0.155 N 
ATOM     12  H4  UNL     1       1.792  -2.948   0.232  1.00  0.00     0.187 HD
HETATM   13  C11 UNL     1      -2.866  -1.306   0.172  1.00  0.00     0.041 C 
HETATM   14  C12 UNL     1      -3.629  -0.869   1.409  1.00  0.00     0.005 C 
HETATM   15  C13 UNL     1      -5.055  -0.502   1.119  1.00  0.00     0.000 C 
HETATM   16  C14 UNL     1      -5.229   0.498   0.020  1.00  0.00     0.002 C 
HETATM   17  C15 UNL     1      -4.373   1.684   0.332  1.00  0.00     0.038 C 
HETATM   18  C16 UNL     1      -3.265   1.959  -0.618  1.00  0.00     0.223 C 
ENDROOT
BRANCH   1  19
HETATM   19  N1  UNL     1       3.679  -1.326  -0.413  1.00  0.00    -0.222 N 
HETATM   20  C1  UNL     1       4.217  -1.967  -1.602  1.00  0.00     0.168 C 
BRANCH  19  21
HETATM   21  C2  UNL     1       4.567  -0.991   0.648  1.00  0.00     0.142 C 
BRANCH  21  22
HETATM   22  C3  UNL     1       5.575   0.062   0.380  1.00  0.00     0.048 C 
BRANCH  22  23
HETATM   23  C4  UNL     1       5.082   1.417   0.031  1.00  0.00     0.231 C 
BRANCH  23  24
HETATM   24  N2  UNL     1       4.280   2.070   1.033  1.00  0.00    -0.079 N 
ATOM     25  H23 UNL     1       3.496   1.472   1.294  1.00  0.00     0.274 HD
ATOM     26  H22 UNL     1       4.788   2.102   1.917  1.00  0.00     0.274 HD
ATOM     27  H21 UNL     1       3.941   3.002   0.793  1.00  0.00     0.274 HD
ENDBRANCH  23  24
ENDBRANCH  22  23
ENDBRANCH  21  22
ENDBRANCH  19  21
ENDBRANCH   1  19
BRANCH  18  28
HETATM   28  N5  UNL     1      -3.623   2.075  -1.996  1.00  0.00    -0.070 N 
ATOM     29  H53 UNL     1      -2.839   2.367  -2.579  1.00  0.00     0.275 HD
ATOM     30  H52 UNL     1      -3.794   1.169  -2.432  1.00  0.00     0.275 HD
ATOM     31  H51 UNL     1      -4.423   2.703  -2.076  1.00  0.00     0.275 HD
ENDBRANCH  18  28
TORSDOF 6
