REMARK  8 active torsions:
REMARK  status: ('A' for Active; 'I' for Inactive)
REMARK    1  A    between atoms: N1_1  and  C1_4 
REMARK    2  A    between atoms: C1_4  and  C2_5 
REMARK    3  A    between atoms: C2_5  and  C3_6 
REMARK    4  A    between atoms: N2_9  and  C6_10 
REMARK    5  A    between atoms: C6_10  and  C7_11 
REMARK    6  A    between atoms: C7_11  and  N3_12 
REMARK    7  A    between atoms: C8_13  and  O1_14 
REMARK    8  A    between atoms: C11_18  and  O2_19 
ROOT
HETATM    1  N3  UNL     1      -1.610   0.668   0.277  1.00  0.00    -0.306 N 
HETATM    2  C8  UNL     1      -2.393  -0.075   1.100  1.00  0.00     0.152 A 
HETATM    3  C9  UNL     1      -3.698   0.228   0.841  1.00  0.00     0.012 A 
HETATM    4  C10 UNL     1      -3.713   1.181  -0.168  1.00  0.00     0.012 A 
HETATM    5  C11 UNL     1      -2.397   1.427  -0.490  1.00  0.00     0.152 A 
HETATM    6  C12 UNL     1      -5.153   1.485  -0.424  1.00  0.00     0.047 C 
HETATM    7  C13 UNL     1      -5.754   0.259  -0.984  1.00  0.00    -0.021 C 
HETATM    8  C14 UNL     1      -5.735  -0.663  -0.012  1.00  0.00    -0.021 C 
HETATM    9  C15 UNL     1      -5.119  -0.037   1.186  1.00  0.00     0.047 C 
HETATM   10  C16 UNL     1      -5.681   1.391   1.022  1.00  0.00     0.026 C 
ENDROOT
BRANCH   1  11
HETATM   11  C7  UNL     1      -0.170   0.610   0.272  1.00  0.00     0.163 C 
BRANCH  11  12
HETATM   12  C6  UNL     1       0.348  -0.415  -0.680  1.00  0.00     0.292 C 
BRANCH  12  13
HETATM   13  N2  UNL     1       1.789  -0.514  -0.717  1.00  0.00     0.092 N 
HETATM   14  C5  UNL     1       2.262  -1.035   0.512  1.00  0.00     0.275 C 
HETATM   15  C4  UNL     1       3.445  -1.920   0.470  1.00  0.00     0.063 C 
HETATM   16  C3  UNL     1       4.478  -1.677  -0.541  1.00  0.00     0.135 C 
HETATM   17  O3  UNL     1       4.277  -0.616  -1.395  1.00  0.00    -0.383 OA
HETATM   18  C18 UNL     1       3.900   0.562  -0.801  1.00  0.00     0.198 C 
HETATM   19  C17 UNL     1       2.409   0.719  -1.152  1.00  0.00     0.298 C 
BRANCH  16  20
HETATM   20  C2  UNL     1       5.816  -1.505   0.076  1.00  0.00     0.136 C 
BRANCH  20  21
HETATM   21  C1  UNL     1       6.517  -0.402  -0.018  1.00  0.00    -0.075 C 
BRANCH  21  22
HETATM   22  N1  UNL     1       7.085   0.740   0.160  1.00  0.00    -0.370 N 
ATOM     23  H12 UNL     1       6.636   0.861   1.068  1.00  0.00     0.165 HD
ATOM     24  H11 UNL     1       7.631   1.599   0.087  1.00  0.00     0.165 HD
ENDBRANCH  21  22
ENDBRANCH  20  21
ENDBRANCH  16  20
ENDBRANCH  12  13
ENDBRANCH  11  12
ENDBRANCH   1  11
BRANCH   2  25
HETATM   25  O1  UNL     1      -1.974  -1.005   2.065  1.00  0.00    -0.345 OA
ATOM     26  H1  UNL     1      -2.522  -1.525   2.641  1.00  0.00     0.219 HD
ENDBRANCH   2  25
BRANCH   5  27
HETATM   27  O2  UNL     1      -1.965   2.327  -1.463  1.00  0.00    -0.345 OA
ATOM     28  H2  UNL     1      -2.525   2.867  -2.009  1.00  0.00     0.219 HD
ENDBRANCH   5  27
TORSDOF 8
