REMARK  5 active torsions:
REMARK  status: ('A' for Active; 'I' for Inactive)
REMARK    1  A    between atoms: C2_2  and  C3_3 
REMARK    2  A    between atoms: C3_3  and  C4_4 
REMARK    3  A    between atoms: C6_8  and  N2_9 
REMARK    4  A    between atoms: C7_14  and  N4_15 
REMARK    5  A    between atoms: C13_24  and  C14_25 
ROOT
HETATM    1  C4  UNL     1      -2.757   0.392  -0.932  1.00  0.00     0.041 A 
HETATM    2  N1  UNL     1      -2.072  -0.230  -1.956  1.00  0.00    -0.339 N 
ATOM      3  H1  UNL     1      -2.475  -0.570  -2.829  1.00  0.00     0.167 HD
HETATM    4  C5  UNL     1      -0.803  -0.307  -1.604  1.00  0.00     0.173 A 
HETATM    5  C6  UNL     1       0.294  -0.840  -2.283  1.00  0.00     0.161 A 
HETATM    6  N3  UNL     1       1.468  -0.773  -1.678  1.00  0.00    -0.172 N 
ATOM      7  H3  UNL     1       2.278  -1.159  -2.163  1.00  0.00     0.186 HD
HETATM    8  C7  UNL     1       1.659  -0.234  -0.476  1.00  0.00     0.697 A 
HETATM    9  N5  UNL     1       0.558   0.281   0.164  1.00  0.00    -0.123 N 
ATOM     10  H5  UNL     1       0.677   0.700   1.086  1.00  0.00     0.206 HD
HETATM   11  N6  UNL     1      -0.650   0.253  -0.373  1.00  0.00    -0.219 N 
HETATM   12  C13 UNL     1      -1.874   0.700   0.065  1.00  0.00     0.094 A 
ENDROOT
BRANCH  12  13
HETATM   13  C14 UNL     1      -2.133   1.420   1.334  1.00  0.00     0.028 A 
HETATM   14  C15 UNL     1      -1.276   1.715   2.359  1.00  0.00     0.122 A 
HETATM   15  N7  UNL     1      -1.958   2.441   3.311  1.00  0.00    -0.311 N 
HETATM   16  N8  UNL     1      -3.182   2.618   2.950  1.00  0.00    -0.311 N 
ATOM     17  H7  UNL     1      -1.551   2.789   4.179  1.00  0.00     0.186 HD
HETATM   18  C16 UNL     1      -3.326   2.003   1.738  1.00  0.00     0.122 A 
ATOM     19  H8  UNL     1      -3.903   3.120   3.468  1.00  0.00     0.186 HD
ENDBRANCH  12  13
BRANCH   1  20
HETATM   20  C3  UNL     1      -4.224   0.594  -0.999  1.00  0.00     0.059 C 
BRANCH  20  21
HETATM   21  C2  UNL     1      -5.012  -0.461  -0.253  1.00  0.00     0.002 C 
HETATM   22  C1  UNL     1      -4.752  -1.843  -0.824  1.00  0.00     0.005 C 
ENDBRANCH  20  21
ENDBRANCH   1  20
BRANCH   5  23
HETATM   23  N2  UNL     1       0.120  -1.366  -3.450  1.00  0.00    -0.382 N 
ATOM     24  H22 UNL     1      -0.786  -1.418  -3.917  1.00  0.00     0.157 HD
ATOM     25  H21 UNL     1       0.922  -1.755  -3.946  1.00  0.00     0.157 HD
ENDBRANCH   5  23
BRANCH   8  26
HETATM   26  N4  UNL     1       2.929  -0.166   0.151  1.00  0.00    -0.216 N 
HETATM   27  C8  UNL     1       3.810   0.981   0.109  1.00  0.00     0.141 C 
HETATM   28  C9  UNL     1       5.216   0.586   0.536  1.00  0.00     0.020 C 
HETATM   29  C10 UNL     1       5.640  -0.720  -0.051  1.00  0.00     0.003 C 
HETATM   30  C11 UNL     1       4.634  -1.810   0.105  1.00  0.00     0.020 C 
HETATM   31  C12 UNL     1       3.409  -1.319   0.879  1.00  0.00     0.141 C 
ENDBRANCH   8  26
TORSDOF 5
