REMARK  6 active torsions:
REMARK  status: ('A' for Active; 'I' for Inactive)
REMARK    1  A    between atoms: C3_4  and  N1_5 
REMARK    2  A    between atoms: C4_6  and  N2_7 
REMARK    3  A    between atoms: C6_13  and  S1_14 
REMARK    4  A    between atoms: S1_14  and  C7_15 
REMARK    5  A    between atoms: C7_15  and  C8_16 
REMARK    6  A    between atoms: C16_25  and  O3_26 
ROOT
HETATM    1  N1  UNL     1      -1.862   0.038   0.718  1.00  0.00    -0.119 N 
HETATM    2  C4  UNL     1      -1.475   0.457   1.937  1.00  0.00     0.683 A 
HETATM    3  N3  UNL     1      -0.286   0.095   2.468  1.00  0.00    -0.200 N 
ATOM      4  H3  UNL     1      -0.032   0.435   3.395  1.00  0.00     0.183 HD
HETATM    5  C5  UNL     1       0.566  -0.697   1.810  1.00  0.00     0.130 A 
HETATM    6  C6  UNL     1       0.231  -1.158   0.561  1.00  0.00     0.085 A 
HETATM    7  C14 UNL     1      -1.016  -0.752   0.056  1.00  0.00     0.282 A 
HETATM    8  O2  UNL     1      -1.361  -1.161  -1.099  1.00  0.00    -0.266 OA
ENDROOT
BRANCH   1   9
HETATM    9  C3  UNL     1      -3.140   0.456   0.201  1.00  0.00     0.252 C 
HETATM   10  O1  UNL     1      -3.910   0.964   1.226  1.00  0.00    -0.358 OA
HETATM   11  C2  UNL     1      -5.149   1.115   0.601  1.00  0.00     0.148 C 
HETATM   12  C1  UNL     1      -5.083   2.346  -0.287  1.00  0.00     0.042 C 
HETATM   13  C16 UNL     1      -5.374  -0.147  -0.183  1.00  0.00     0.150 C 
HETATM   14  C15 UNL     1      -3.952  -0.659  -0.394  1.00  0.00     0.089 C 
BRANCH  13  15
HETATM   15  O3  UNL     1      -6.078  -1.037   0.628  1.00  0.00    -0.393 OA
ATOM     16  H3  UNL     1      -6.220  -1.835   0.132  1.00  0.00     0.210 HD
ENDBRANCH  13  15
ENDBRANCH   1   9
BRANCH   2  17
HETATM   17  N2  UNL     1      -2.277   1.225   2.601  1.00  0.00    -0.234 N 
ATOM     18  H22 UNL     1      -3.174   1.498   2.200  1.00  0.00     0.174 HD
ATOM     19  H21 UNL     1      -1.984   1.543   3.525  1.00  0.00     0.174 HD
ENDBRANCH   2  17
BRANCH   6  20
HETATM   20  S1  UNL     1       1.250  -2.175  -0.432  1.00  0.00    -0.123 SA
BRANCH  20  21
HETATM   21  C7  UNL     1       2.945  -2.355  -0.018  1.00  0.00     0.084 C 
BRANCH  21  22
HETATM   22  C8  UNL     1       3.900  -1.266  -0.371  1.00  0.00    -0.005 C 
HETATM   23  C9  UNL     1       3.571   0.027   0.238  1.00  0.00     0.005 C 
HETATM   24  C10 UNL     1       4.604   1.109  -0.090  1.00  0.00     0.000 C 
HETATM   25  C11 UNL     1       4.442   1.296  -1.607  1.00  0.00     0.000 C 
HETATM   26  C12 UNL     1       4.962   0.044  -2.230  1.00  0.00     0.000 C 
HETATM   27  C13 UNL     1       4.213  -1.208  -1.846  1.00  0.00     0.005 C 
ENDBRANCH  21  22
ENDBRANCH  20  21
ENDBRANCH   6  20
TORSDOF 6
