REMARK  6 active torsions:
REMARK  status: ('A' for Active; 'I' for Inactive)
REMARK    1  A    between atoms: C3_5  and  C4_6 
REMARK    2  A    between atoms: C4_6  and  N2_7 
REMARK    3  A    between atoms: N2_7  and  C5_9 
REMARK    4  A    between atoms: C8_13  and  C9_14 
REMARK    5  A    between atoms: C15_20  and  O2_21 
REMARK    6  A    between atoms: C16_23  and  O3_24 
ROOT
HETATM    1  C5  UNL     1       1.304  -0.573   0.155  1.00  0.00     0.179 C 
HETATM    2  C6  UNL     1       0.528   0.093   1.224  1.00  0.00     0.155 C 
HETATM    3  O1  UNL     1       1.034   0.299   2.342  1.00  0.00    -0.295 OA
HETATM    4  C7  UNL     1      -0.870   0.525   0.976  1.00  0.00     0.117 C 
HETATM    5  C8  UNL     1      -1.647  -0.698   0.504  1.00  0.00    -0.040 C 
HETATM    6  C15 UNL     1      -0.833  -1.807  -0.027  1.00  0.00     0.179 C 
HETATM    7  C16 UNL     1       0.429  -1.333  -0.753  1.00  0.00     0.180 C 
ENDROOT
BRANCH   1   8
HETATM    8  N2  UNL     1       2.188   0.350  -0.431  1.00  0.00    -0.403 N 
ATOM      9  H2  UNL     1       2.218   1.323  -0.125  1.00  0.00     0.154 HD
BRANCH   8  10
HETATM   10  C4  UNL     1       3.057  -0.137  -1.490  1.00  0.00     0.172 C 
BRANCH  10  11
HETATM   11  C3  UNL     1       4.468  -0.127  -0.852  1.00  0.00     0.034 A 
HETATM   12  N1  UNL     1       5.001   0.945  -0.399  1.00  0.00    -0.356 N 
HETATM   13  C2  UNL     1       6.162   0.857   0.256  1.00  0.00     0.047 A 
ATOM     14  H1  UNL     1       4.548   1.849  -0.535  1.00  0.00     0.166 HD
HETATM   15  C1  UNL     1       6.964   1.979   0.892  1.00  0.00     0.076 C 
HETATM   16  S1  UNL     1       6.487  -0.816   0.208  1.00  0.00    -0.087 SA
HETATM   17  C17 UNL     1       5.115  -1.326  -0.651  1.00  0.00     0.078 A 
ENDBRANCH  10  11
ENDBRANCH   8  10
ENDBRANCH   1   8
BRANCH   7  18
HETATM   18  O3  UNL     1       1.084  -2.552  -1.087  1.00  0.00    -0.390 OA
ATOM     19  H3  UNL     1       0.519  -3.042  -1.673  1.00  0.00     0.210 HD
ENDBRANCH   7  18
BRANCH   6  20
HETATM   20  O2  UNL     1      -0.366  -2.606   1.035  1.00  0.00    -0.389 OA
ATOM     21  H2  UNL     1       0.158  -3.320   0.693  1.00  0.00     0.210 HD
ENDBRANCH   6  20
BRANCH   5  22
HETATM   22  C9  UNL     1      -2.912  -0.372  -0.223  1.00  0.00    -0.074 C 
HETATM   23  C10 UNL     1      -2.833   0.814  -1.125  1.00  0.00     0.034 C 
HETATM   24  C11 UNL     1      -4.239   1.117  -1.633  1.00  0.00     0.004 C 
HETATM   25  C12 UNL     1      -5.153   1.490  -0.508  1.00  0.00     0.001 C 
HETATM   26  C13 UNL     1      -4.708   0.949   0.821  1.00  0.00     0.004 C 
HETATM   27  C14 UNL     1      -4.168  -0.448   0.567  1.00  0.00     0.034 C 
ENDBRANCH   5  22
TORSDOF 6
