REMARK  5 active torsions:
REMARK  status: ('A' for Active; 'I' for Inactive)
REMARK    1  A    between atoms: N1_1  and  C1_4 
REMARK    2  A    between atoms: N4_13  and  C5_14 
REMARK    3  A    between atoms: C5_14  and  N5_15 
REMARK    4  A    between atoms: N5_15  and  C6_17 
REMARK    5  A    between atoms: N7_20  and  N8_21 
ROOT
HETATM    1  C1  UNL     1      -3.552   1.123   0.496  1.00  0.00     0.680 A 
HETATM    2  N2  UNL     1      -4.560   0.223   0.465  1.00  0.00    -0.154 N 
ATOM      3  H2  UNL     1      -5.491   0.483   0.790  1.00  0.00     0.187 HD
HETATM    4  C2  UNL     1      -4.325  -1.019   0.001  1.00  0.00     0.290 A 
HETATM    5  O1  UNL     1      -5.257  -1.865  -0.032  1.00  0.00    -0.265 OA
HETATM    6  C3  UNL     1      -3.053  -1.310  -0.422  1.00  0.00     0.147 A 
HETATM    7  N3  UNL     1      -2.547  -2.441  -0.920  1.00  0.00    -0.345 N 
ATOM      8  H3  UNL     1      -3.058  -3.311  -1.070  1.00  0.00     0.167 HD
HETATM    9  C4  UNL     1      -1.246  -2.232  -1.189  1.00  0.00     0.187 A 
HETATM   10  N4  UNL     1      -0.901  -0.964  -0.867  1.00  0.00    -0.310 N 
HETATM   11  C7  UNL     1      -2.022  -0.388  -0.390  1.00  0.00     0.158 A 
HETATM   12  N11 UNL     1      -2.305   0.836   0.080  1.00  0.00    -0.174 N 
ATOM     13  H11 UNL     1      -1.576   1.548   0.122  1.00  0.00     0.186 HD
ENDROOT
BRANCH  10  14
HETATM   14  C5  UNL     1       0.401  -0.349  -1.005  1.00  0.00     0.257 C 
BRANCH  14  15
HETATM   15  N5  UNL     1       1.148  -0.559   0.211  1.00  0.00    -0.343 N 
ATOM     16  H5  UNL     1       0.721  -1.076   0.980  1.00  0.00     0.164 HD
BRANCH  15  17
HETATM   17  C6  UNL     1       2.469  -0.057   0.353  1.00  0.00     0.211 C 
HETATM   18  N6  UNL     1       3.163   0.559  -0.545  1.00  0.00    -0.235 N 
HETATM   19  N7  UNL     1       4.416   0.893  -0.019  1.00  0.00    -0.119 N 
ATOM     20  H6  UNL     1       2.847   0.770  -1.492  1.00  0.00     0.193 HD
HETATM   21  N9  UNL     1       4.262   0.835   1.371  1.00  0.00     0.020 NA
HETATM   22  N10 UNL     1       3.276  -0.143   1.522  1.00  0.00    -0.251 N 
ATOM     23  H10 UNL     1       3.159  -0.785   2.306  1.00  0.00     0.187 HD
BRANCH  19  24
HETATM   24  N8  UNL     1       5.591   1.219  -0.700  1.00  0.00    -0.310 N 
ATOM     25  H82 UNL     1       5.703   1.261  -1.713  1.00  0.00     0.180 HD
ATOM     26  H81 UNL     1       6.504   1.462  -0.317  1.00  0.00     0.180 HD
ENDBRANCH  19  24
ENDBRANCH  15  17
ENDBRANCH  14  15
ENDBRANCH  10  14
BRANCH   1  27
HETATM   27  N1  UNL     1      -3.760   2.326   0.940  1.00  0.00    -0.234 N 
ATOM     28  H12 UNL     1      -4.705   2.544   1.255  1.00  0.00     0.174 HD
ATOM     29  H11 UNL     1      -2.999   3.005   0.963  1.00  0.00     0.174 HD
ENDBRANCH   1  27
TORSDOF 5
