REMARK  7 active torsions:
REMARK  status: ('A' for Active; 'I' for Inactive)
REMARK    1  A    between atoms: N1_1  and  C1_4 
REMARK    2  A    between atoms: C2_7  and  N3_8 
REMARK    3  A    between atoms: N3_8  and  N4_10 
REMARK    4  A    between atoms: C3_13  and  N5_14 
REMARK    5  A    between atoms: N5_14  and  N6_16 
REMARK    6  A    between atoms: N7_18  and  N8_20 
REMARK    7  A    between atoms: N8_20  and  C4_22 
ROOT
HETATM    1  C1  UNL     1      -3.160   1.429   1.014  1.00  0.00     0.680 A 
HETATM    2  N2  UNL     1      -2.944   1.041  -0.245  1.00  0.00    -0.173 N 
ATOM      3  H2  UNL     1      -3.471   1.466  -1.008  1.00  0.00     0.186 HD
HETATM    4  C2  UNL     1      -2.019   0.077  -0.509  1.00  0.00     0.169 A 
HETATM    5  C3  UNL     1      -1.310  -0.494   0.527  1.00  0.00     0.164 A 
HETATM    6  C5  UNL     1      -1.579  -0.049   1.808  1.00  0.00     0.291 A 
HETATM    7  O1  UNL     1      -0.921  -0.584   2.740  1.00  0.00    -0.265 OA
HETATM    8  N13 UNL     1      -2.494   0.902   2.062  1.00  0.00    -0.154 N 
ATOM      9  H13 UNL     1      -2.679   1.215   3.015  1.00  0.00     0.187 HD
ENDROOT
BRANCH   5  10
HETATM   10  N5  UNL     1      -0.341  -1.498   0.268  1.00  0.00    -0.277 N 
ATOM     11  H5  UNL     1      -0.619  -2.479   0.228  1.00  0.00     0.189 HD
BRANCH  10  12
HETATM   12  N6  UNL     1       0.994  -1.141   0.068  1.00  0.00    -0.227 N 
HETATM   13  N7  UNL     1       1.279   0.046  -0.172  1.00  0.00    -0.214 N 
ATOM     14  H7  UNL     1       0.487   0.688  -0.205  1.00  0.00     0.210 HD
ATOM     15  H6  UNL     1       1.729  -1.847   0.118  1.00  0.00     0.210 HD
BRANCH  13  16
HETATM   16  N8  UNL     1       2.502   0.613  -0.398  1.00  0.00    -0.114 N 
ATOM     17  H8  UNL     1       2.482   1.577  -0.732  1.00  0.00     0.207 HD
BRANCH  16  18
HETATM   18  C4  UNL     1       3.659   0.113  -0.252  1.00  0.00     0.729 A 
HETATM   19  N9  UNL     1       3.925  -1.122   0.170  1.00  0.00    -0.114 N 
HETATM   20  N10 UNL     1       5.253  -1.254   0.187  1.00  0.00    -0.213 N 
ATOM     21  H9  UNL     1       3.242  -1.833   0.431  1.00  0.00     0.207 HD
HETATM   22  N11 UNL     1       5.812  -0.128  -0.215  1.00  0.00    -0.213 N 
ATOM     23  H10 UNL     1       5.758  -2.095   0.467  1.00  0.00     0.210 HD
HETATM   24  N12 UNL     1       4.821   0.719  -0.487  1.00  0.00    -0.114 N 
ATOM     25  H11 UNL     1       6.811   0.058  -0.301  1.00  0.00     0.210 HD
ATOM     26  H12 UNL     1       4.934   1.676  -0.821  1.00  0.00     0.207 HD
ENDBRANCH  16  18
ENDBRANCH  13  16
ENDBRANCH  10  12
ENDBRANCH   5  10
BRANCH   4  27
HETATM   27  N3  UNL     1      -1.765  -0.360  -1.827  1.00  0.00    -0.290 N 
ATOM     28  H3  UNL     1      -1.053   0.111  -2.386  1.00  0.00     0.188 HD
BRANCH  27  29
HETATM   29  N4  UNL     1      -2.472  -1.423  -2.372  1.00  0.00    -0.344 N 
ATOM     30  H42 UNL     1      -3.180  -1.883  -1.800  1.00  0.00     0.176 HD
ATOM     31  H41 UNL     1      -2.288  -1.739  -3.324  1.00  0.00     0.176 HD
ENDBRANCH  27  29
ENDBRANCH   4  27
BRANCH   1  32
HETATM   32  N1  UNL     1      -4.038   2.343   1.260  1.00  0.00    -0.234 N 
ATOM     33  H12 UNL     1      -4.542   2.741   0.468  1.00  0.00     0.174 HD
ATOM     34  H11 UNL     1      -4.203   2.639   2.222  1.00  0.00     0.174 HD
ENDBRANCH   1  32
TORSDOF 7
