REMARK  2 active torsions:
REMARK  status: ('A' for Active; 'I' for Inactive)
REMARK       I    between atoms: C1_2  and  N2_4 
REMARK    1  A    between atoms: N2_4  and  S1_6 
REMARK    2  A    between atoms: S1_6  and  C2_8 
REMARK       I    between atoms: N5_16  and  C6_17 
REMARK       I    between atoms: C6_17  and  N6_18 
REMARK       I    between atoms: C6_17  and  N7_22 
ROOT
HETATM    1  C2  UNL     1       0.927  -0.939  -0.503  1.00  0.00     0.139 A 
HETATM    2  C3  UNL     1       1.059  -1.100  -1.860  1.00  0.00     0.131 A 
HETATM    3  N3  UNL     1       0.095  -0.715  -2.739  1.00  0.00    -0.346 N 
ATOM      4  H3  UNL     1       0.230  -0.852  -3.741  1.00  0.00     0.167 HD
HETATM    5  C4  UNL     1      -1.036  -0.153  -2.281  1.00  0.00     0.164 A 
HETATM    6  C5  UNL     1      -1.148  -0.001  -0.906  1.00  0.00     0.171 A 
HETATM    7  N4  UNL     1      -0.202  -0.378  -0.032  1.00  0.00    -0.328 N 
ATOM      8  H4  UNL     1      -0.336  -0.242   0.970  1.00  0.00     0.168 HD
HETATM    9  N5  UNL     1      -2.424   0.613  -0.656  1.00  0.00    -0.202 N 
HETATM   10  C6  UNL     1      -3.188   0.567   0.572  1.00  0.00     0.501 C 
HETATM   11  N6  UNL     1      -2.486   1.109   1.699  1.00  0.00    -0.031 N 
ATOM     12  H61 UNL     1      -3.025   1.077   2.565  1.00  0.00     0.279 HD
ATOM     13  H62 UNL     1      -2.169   2.059   1.505  1.00  0.00     0.279 HD
ATOM     14  H63 UNL     1      -1.583   0.650   1.817  1.00  0.00     0.279 HD
HETATM   15  N7  UNL     1      -3.718  -0.752   0.834  1.00  0.00    -0.031 N 
ATOM     16  H71 UNL     1      -4.257  -0.784   1.700  1.00  0.00     0.279 HD
ATOM     17  H72 UNL     1      -2.978  -1.454   0.833  1.00  0.00     0.279 HD
ATOM     18  H73 UNL     1      -4.266  -1.093   0.045  1.00  0.00     0.279 HD
HETATM   19  N8  UNL     1      -2.747   1.255  -1.877  1.00  0.00    -0.013 NA
HETATM   20  N9  UNL     1      -2.228   0.365  -2.822  1.00  0.00    -0.266 N 
ATOM     21  H9  UNL     1      -2.635   0.135  -3.729  1.00  0.00     0.186 HD
ENDROOT
BRANCH   1  22
HETATM   22  S1  UNL     1       2.232  -1.470   0.554  1.00  0.00     0.172 S 
HETATM   23  O2  UNL     1       1.648  -1.908   2.064  1.00  0.00    -0.228 OA
BRANCH  22  24
HETATM   24  N2  UNL     1       3.365  -0.168   0.790  1.00  0.00    -0.255 N 
HETATM   25  C1  UNL     1       4.725  -0.457   1.078  1.00  0.00     0.340 C 
HETATM   26  N1  UNL     1       5.647   0.601   1.271  1.00  0.00    -0.039 NA
HETATM   27  O1  UNL     1       5.103  -1.652   1.162  1.00  0.00    -0.250 OA
ATOM     28  H2  UNL     1       3.052   0.800   0.721  1.00  0.00     0.181 HD
ENDBRANCH  22  24
ENDBRANCH   1  22
TORSDOF 2
