REMARK  6 active torsions:
REMARK  status: ('A' for Active; 'I' for Inactive)
REMARK    1  A    between atoms: N1_1  and  N2_4 
REMARK       I    between atoms: N2_4  and  C1_6 
REMARK    2  A    between atoms: C1_6  and  C2_8 
REMARK    3  A    between atoms: C2_8  and  N3_9 
REMARK    4  A    between atoms: C2_8  and  C7_25 
REMARK    5  A    between atoms: N3_9  and  C3_11 
REMARK    6  A    between atoms: C4_14  and  N5_15 
ROOT
HETATM    1  C2  UNL     1      -1.372   0.571  -0.587  1.00  0.00     0.262 C 
ENDROOT
BRANCH   1   2
HETATM    2  C1  UNL     1      -1.690  -0.795  -0.107  1.00  0.00     0.266 C 
HETATM    3  N2  UNL     1      -2.785  -1.495  -0.629  1.00  0.00    -0.275 N 
ATOM      4  H2  UNL     1      -3.357  -1.046  -1.344  1.00  0.00     0.189 HD
HETATM    5  O1  UNL     1      -0.972  -1.318   0.769  1.00  0.00    -0.269 OA
BRANCH   3   6
HETATM    6  N1  UNL     1      -3.126  -2.783  -0.210  1.00  0.00    -0.343 N 
ATOM      7  H12 UNL     1      -2.544  -3.217   0.506  1.00  0.00     0.176 HD
ATOM      8  H11 UNL     1      -3.923  -3.293  -0.590  1.00  0.00     0.176 HD
ENDBRANCH   3   6
ENDBRANCH   1   2
BRANCH   1   9
HETATM    9  N3  UNL     1      -0.224   1.135   0.054  1.00  0.00    -0.206 N 
ATOM     10  H3  UNL     1      -0.344   2.001   0.580  1.00  0.00     0.179 HD
BRANCH   9  11
HETATM   11  C3  UNL     1       1.080   0.555  -0.001  1.00  0.00     0.674 C 
HETATM   12  N4  UNL     1       1.655   0.211   1.103  1.00  0.00    -0.180 N 
HETATM   13  C4  UNL     1       2.960  -0.389   1.292  1.00  0.00     0.400 C 
ATOM     14  H4  UNL     1       1.120   0.385   1.954  1.00  0.00     0.181 HD
HETATM   15  N6  UNL     1       3.269  -1.492   0.506  1.00  0.00    -0.358 N 
HETATM   16  C5  UNL     1       2.819  -1.613  -0.802  1.00  0.00     0.079 C 
ATOM     17  H6  UNL     1       3.844  -2.236   0.902  1.00  0.00     0.162 HD
HETATM   18  C6  UNL     1       2.815  -0.390  -1.658  1.00  0.00     0.182 C 
HETATM   19  N7  UNL     1       1.637   0.406  -1.301  1.00  0.00    -0.222 N 
ATOM     20  H7  UNL     1       1.171   0.902  -2.060  1.00  0.00     0.178 HD
BRANCH  13  21
HETATM   21  N5  UNL     1       4.025   0.610   1.164  1.00  0.00    -0.040 N 
ATOM     22  H53 UNL     1       3.966   1.109   0.276  1.00  0.00     0.279 HD
ATOM     23  H52 UNL     1       3.879   1.397   1.796  1.00  0.00     0.279 HD
ATOM     24  H51 UNL     1       4.944   0.188   1.297  1.00  0.00     0.279 HD
ENDBRANCH  13  21
ENDBRANCH   9  11
ENDBRANCH   1   9
BRANCH   1  25
HETATM   25  C7  UNL     1      -2.559   1.418  -0.301  1.00  0.00     0.130 A 
HETATM   26  N8  UNL     1      -2.629   2.780  -0.356  1.00  0.00    -0.338 N 
HETATM   27  C8  UNL     1      -3.869   3.180  -0.030  1.00  0.00     0.198 A 
ATOM     28  H8  UNL     1      -1.858   3.399  -0.606  1.00  0.00     0.168 HD
HETATM   29  N9  UNL     1      -4.585   2.079   0.230  1.00  0.00    -0.295 N 
HETATM   30  N10 UNL     1      -3.799   1.043   0.067  1.00  0.00    -0.286 N 
ATOM     31  H9  UNL     1      -5.567   2.051   0.506  1.00  0.00     0.187 HD
ATOM     32  H10 UNL     1      -4.090   0.075   0.202  1.00  0.00     0.188 HD
ENDBRANCH   1  25
TORSDOF 6
