REMARK  7 active torsions:
REMARK  status: ('A' for Active; 'I' for Inactive)
REMARK       I    between atoms: C2_3  and  N2_5 
REMARK    1  A    between atoms: N2_5  and  N3_7 
REMARK    2  A    between atoms: C3_9  and  C4_10 
REMARK    3  A    between atoms: C3_9  and  N5_15 
REMARK    4  A    between atoms: C4_10  and  N4_11 
REMARK    5  A    between atoms: N5_15  and  N6_17 
REMARK    6  A    between atoms: N6_17  and  C5_19 
REMARK    7  A    between atoms: C7_26  and  N10_27 
ROOT
HETATM    1  N1  UNL     1      -3.277   3.969   0.554  1.00  0.00    -0.186 NA
HETATM    2  C1  UNL     1      -3.082   2.856   0.811  1.00  0.00     0.163 C 
HETATM    3  C2  UNL     1      -2.820   1.481   1.118  1.00  0.00     0.340 C 
HETATM    4  O1  UNL     1      -2.040   1.217   2.057  1.00  0.00    -0.254 OA
HETATM    5  N2  UNL     1      -3.459   0.475   0.343  1.00  0.00    -0.256 N 
ATOM      6  H2  UNL     1      -4.093   0.714  -0.419  1.00  0.00     0.191 HD
ENDROOT
BRANCH   5   7
HETATM    7  N3  UNL     1      -3.178  -0.873   0.673  1.00  0.00    -0.283 N 
HETATM    8  C3  UNL     1      -2.089  -1.409   0.218  1.00  0.00     0.137 C 
ATOM      9  H3  UNL     1      -3.819  -1.411   1.256  1.00  0.00     0.188 HD
BRANCH   8  10
HETATM   10  C4  UNL     1      -1.783  -2.823   0.557  1.00  0.00     0.308 C 
BRANCH  10  11
HETATM   11  N4  UNL     1      -0.508  -2.880   1.283  1.00  0.00    -0.073 N 
ATOM     12  H43 UNL     1       0.251  -2.432   0.769  1.00  0.00     0.274 HD
ATOM     13  H42 UNL     1      -0.503  -2.275   2.104  1.00  0.00     0.274 HD
ATOM     14  H41 UNL     1      -0.298  -3.851   1.516  1.00  0.00     0.274 HD
ENDBRANCH  10  11
ENDBRANCH   8  10
BRANCH   8  15
HETATM   15  N5  UNL     1      -1.195  -0.659  -0.595  1.00  0.00    -0.272 N 
ATOM     16  H5  UNL     1      -1.551   0.127  -1.139  1.00  0.00     0.189 HD
BRANCH  15  17
HETATM   17  N6  UNL     1       0.140  -0.976  -0.660  1.00  0.00    -0.130 N 
ATOM     18  H6  UNL     1       0.391  -1.964  -0.693  1.00  0.00     0.205 HD
BRANCH  17  19
HETATM   19  C5  UNL     1       1.098  -0.113  -0.682  1.00  0.00     0.713 A 
HETATM   20  N7  UNL     1       2.368  -0.539  -0.747  1.00  0.00    -0.161 N 
HETATM   21  C6  UNL     1       3.417   0.328  -0.773  1.00  0.00     0.221 A 
ATOM     22  H7  UNL     1       2.553  -1.542  -0.778  1.00  0.00     0.187 HD
HETATM   23  N8  UNL     1       4.766  -0.135  -0.842  1.00  0.00    -0.062 NA
HETATM   24  N9  UNL     1       3.120   1.641  -0.730  1.00  0.00    -0.163 N 
HETATM   25  C7  UNL     1       1.849   2.070  -0.665  1.00  0.00     0.692 A 
ATOM     26  H9  UNL     1       3.877   2.324  -0.747  1.00  0.00     0.187 HD
HETATM   27  N11 UNL     1       0.812   1.201  -0.639  1.00  0.00    -0.021 N 
ATOM     28  H11 UNL     1      -0.152   1.530  -0.589  1.00  0.00     0.203 HD
BRANCH  25  29
HETATM   29  N10 UNL     1       1.541   3.330  -0.622  1.00  0.00    -0.234 N 
ATOM     30 2H10 UNL     1       2.323   3.985  -0.642  1.00  0.00     0.174 HD
ATOM     31 1H10 UNL     1       0.576   3.656  -0.573  1.00  0.00     0.174 HD
ENDBRANCH  25  29
ENDBRANCH  17  19
ENDBRANCH  15  17
ENDBRANCH   8  15
ENDBRANCH   5   7
TORSDOF 7
