REMARK  10 active torsions:
REMARK  status: ('A' for Active; 'I' for Inactive)
REMARK    1  A    between atoms: O1_2  and  C2_3 
REMARK    2  A    between atoms: C2_3  and  S1_5 
REMARK    3  A    between atoms: S1_5  and  N1_6 
REMARK    4  A    between atoms: S1_5  and  N2_9 
REMARK    5  A    between atoms: S1_5  and  O3_12 
REMARK    6  A    between atoms: S1_5  and  N3_14 
REMARK    7  A    between atoms: N3_14  and  N4_16 
REMARK    8  A    between atoms: N4_16  and  C3_18 
REMARK    9  A    between atoms: C4_23  and  N7_24 
REMARK   10  A    between atoms: N8_27  and  N9_28 
ROOT
HETATM    1  N3  UNL     1       0.272  -0.573  -0.471  1.00  0.00    -0.229 N 
ATOM      2  H3  UNL     1       0.790  -0.923  -1.277  1.00  0.00     0.199 HD
ENDROOT
BRANCH   1   3
HETATM    3  S1  UNL     1      -1.304  -1.158  -0.239  1.00  0.00     0.107 SA
BRANCH   3   4
HETATM    4  C2  UNL     1      -2.947   0.011  -0.494  1.00  0.00     0.369 C 
HETATM    5  O2  UNL     1      -2.665   1.180  -0.799  1.00  0.00    -0.247 OA
BRANCH   4   6
HETATM    6  O1  UNL     1      -4.204  -0.435  -0.345  1.00  0.00    -0.314 OA
HETATM    7  C1  UNL     1      -5.290   0.497  -0.547  1.00  0.00     0.214 C 
ENDBRANCH   4   6
ENDBRANCH   3   4
BRANCH   3   8
HETATM    8  N1  UNL     1      -1.781  -2.999   0.080  1.00  0.00    -0.343 N 
ATOM      9  H12 UNL     1      -2.745  -3.330   0.114  1.00  0.00     0.167 HD
ATOM     10  H11 UNL     1      -0.956  -3.586   0.208  1.00  0.00     0.167 HD
ENDBRANCH   3   8
BRANCH   3  11
HETATM   11  N2  UNL     1      -1.472  -0.804   1.473  1.00  0.00    -0.343 N 
ATOM     12  H22 UNL     1      -2.107  -0.260   2.057  1.00  0.00     0.167 HD
ATOM     13  H21 UNL     1      -0.647  -1.391   1.601  1.00  0.00     0.167 HD
ENDBRANCH   3  11
BRANCH   3  14
HETATM   14  O3  UNL     1      -1.592  -1.553  -1.791  1.00  0.00    -0.305 OA
ATOM     15  H3  UNL     1      -0.824  -2.099  -1.672  1.00  0.00     0.230 HD
ENDBRANCH   3  14
ENDBRANCH   1   3
BRANCH   1  16
HETATM   16  N4  UNL     1       0.929   0.371   0.375  1.00  0.00    -0.120 N 
ATOM     17  H4  UNL     1       0.369   1.079   0.850  1.00  0.00     0.206 HD
BRANCH  16  18
HETATM   18  C3  UNL     1       2.328   0.359   0.578  1.00  0.00     0.748 A 
HETATM   19  N5  UNL     1       2.973  -0.332   1.531  1.00  0.00    -0.114 N 
HETATM   20  N6  UNL     1       4.282  -0.116   1.438  1.00  0.00    -0.116 N 
ATOM     21  H5  UNL     1       2.526  -0.933   2.223  1.00  0.00     0.206 HD
HETATM   22  C4  UNL     1       4.495   0.724   0.413  1.00  0.00     0.727 A 
ATOM     23  H6  UNL     1       4.999  -0.519   2.041  1.00  0.00     0.206 HD
HETATM   24  N8  UNL     1       3.274   1.009  -0.110  1.00  0.00     0.087 N 
BRANCH  22  25
HETATM   25  N7  UNL     1       5.615   1.189  -0.018  1.00  0.00    -0.231 N 
ATOM     26  H72 UNL     1       6.532   0.975   0.375  1.00  0.00     0.174 HD
ATOM     27  H71 UNL     1       5.777   1.827  -0.797  1.00  0.00     0.174 HD
ENDBRANCH  22  25
BRANCH  24  28
HETATM   28  N9  UNL     1       3.039   1.845  -1.188  1.00  0.00    -0.309 N 
ATOM     29  H92 UNL     1       2.122   2.059  -1.581  1.00  0.00     0.178 HD
ATOM     30  H91 UNL     1       3.760   2.340  -1.712  1.00  0.00     0.178 HD
ENDBRANCH  24  28
ENDBRANCH  16  18
ENDBRANCH   1  16
TORSDOF 10
