REMARK  6 active torsions:
REMARK  status: ('A' for Active; 'I' for Inactive)
REMARK    1  A    between atoms: N1_1  and  C1_4 
REMARK    2  A    between atoms: C2_7  and  C3_8 
REMARK       I    between atoms: C3_8  and  N3_10 
REMARK    3  A    between atoms: N3_10  and  N4_12 
REMARK       I    between atoms: N4_12  and  C4_13 
REMARK       I    between atoms: C4_13  and  N5_14 
REMARK       I    between atoms: C4_13  and  N6_18 
REMARK    4  A    between atoms: C5_22  and  N7_23 
REMARK    5  A    between atoms: N8_26  and  C6_27 
REMARK    6  A    between atoms: C6_27  and  O4_29 
ROOT
HETATM    1  C1  UNL     1       2.738   1.417   0.507  1.00  0.00     0.688 A 
HETATM    2  N2  UNL     1       1.468   1.720   0.404  1.00  0.00    -0.182 N 
ATOM      3  H2  UNL     1       1.064   2.588   0.755  1.00  0.00     0.184 HD
HETATM    4  C2  UNL     1       0.749   0.758  -0.218  1.00  0.00     0.169 A 
HETATM    5  C5  UNL     1       1.707  -0.225  -0.521  1.00  0.00     0.232 A 
HETATM    6  N8  UNL     1       2.921   0.174  -0.077  1.00  0.00    -0.089 N 
ENDROOT
BRANCH   4   7
HETATM    7  C3  UNL     1      -0.656   0.869  -0.466  1.00  0.00     0.288 C 
HETATM    8  O1  UNL     1      -1.052   2.020  -0.922  1.00  0.00    -0.264 OA
HETATM    9  N3  UNL     1      -1.649  -0.067  -0.280  1.00  0.00    -0.265 N 
ATOM     10  H3  UNL     1      -1.398  -0.984   0.088  1.00  0.00     0.185 HD
BRANCH   9  11
HETATM   11  N4  UNL     1      -3.001   0.198  -0.581  1.00  0.00    -0.078 NA
HETATM   12  C4  UNL     1      -3.791   0.011   0.605  1.00  0.00     0.490 C 
HETATM   13  N5  UNL     1      -3.729  -1.348   1.105  1.00  0.00    -0.035 N 
HETATM   14  N6  UNL     1      -5.161   0.407   0.447  1.00  0.00    -0.035 N 
ATOM     15  H53 UNL     1      -3.990  -2.018   0.381  1.00  0.00     0.278 HD
ATOM     16  H52 UNL     1      -2.763  -1.639   1.258  1.00  0.00     0.278 HD
ATOM     17  H51 UNL     1      -4.290  -1.481   1.947  1.00  0.00     0.278 HD
ATOM     18  H63 UNL     1      -5.223   1.371   0.120  1.00  0.00     0.278 HD
ATOM     19  H62 UNL     1      -5.585  -0.070  -0.349  1.00  0.00     0.278 HD
ATOM     20  H61 UNL     1      -5.722   0.274   1.289  1.00  0.00     0.278 HD
ENDBRANCH   9  11
ENDBRANCH   4   7
BRANCH   5  21
HETATM   21  N7  UNL     1       1.418  -1.363  -1.279  1.00  0.00    -0.094 N 
HETATM   22  O2  UNL     1       0.287  -1.483  -1.862  1.00  0.00    -0.530 OA
HETATM   23  O3  UNL     1       2.237  -2.394  -1.559  1.00  0.00    -0.530 OA
ENDBRANCH   5  21
BRANCH   1  24
HETATM   24  N1  UNL     1       3.692   2.136   1.057  1.00  0.00    -0.234 N 
ATOM     25  H12 UNL     1       3.557   3.051   1.487  1.00  0.00     0.174 HD
ATOM     26  H11 UNL     1       4.681   1.900   1.137  1.00  0.00     0.174 HD
ENDBRANCH   1  24
BRANCH   6  27
HETATM   27  C6  UNL     1       4.190  -0.424  -0.123  1.00  0.00     0.253 C 
HETATM   28  N9  UNL     1       4.608  -1.660  -0.639  1.00  0.00    -0.055 NA
BRANCH  27  29
HETATM   29  O4  UNL     1       5.161   0.284   0.404  1.00  0.00    -0.334 OA
ATOM     30  H4  UNL     1       6.020  -0.121   0.373  1.00  0.00     0.220 HD
ENDBRANCH  27  29
ENDBRANCH   6  27
TORSDOF 6
