REMARK  10 active torsions:
REMARK  status: ('A' for Active; 'I' for Inactive)
REMARK    1  A    between atoms: N1_1  and  C1_4 
REMARK    2  A    between atoms: C2_7  and  N3_8 
REMARK    3  A    between atoms: N4_11  and  C3_12 
REMARK    4  A    between atoms: C3_12  and  O1_13 
REMARK    5  A    between atoms: C3_12  and  C4_15 
REMARK    6  A    between atoms: C4_15  and  S1_16 
REMARK    7  A    between atoms: C4_15  and  C6_19 
REMARK    8  A    between atoms: S1_16  and  C5_17 
REMARK    9  A    between atoms: C7_22  and  N5_23 
REMARK   10  A    between atoms: N5_23  and  N6_25 
ROOT
HETATM    1  C1  UNL     1      -3.132  -0.296  -0.037  1.00  0.00     0.705 A 
HETATM    2  N2  UNL     1      -2.598  -0.491  -1.269  1.00  0.00    -0.022 N 
ATOM      3  H2  UNL     1      -3.189  -0.848  -2.019  1.00  0.00     0.203 HD
HETATM    4  C2  UNL     1      -1.302  -0.222  -1.521  1.00  0.00     0.709 A 
HETATM    5  N4  UNL     1      -0.483   0.250  -0.562  1.00  0.00     0.017 N 
HETATM    6  C7  UNL     1      -1.024   0.448   0.687  1.00  0.00     0.730 A 
HETATM    7  N7  UNL     1      -2.313   0.177   0.925  1.00  0.00    -0.020 N 
ATOM      8  H7  UNL     1      -2.687   0.333   1.861  1.00  0.00     0.203 HD
ENDROOT
BRANCH   5   9
HETATM    9  C3  UNL     1       0.881   0.560  -0.735  1.00  0.00     0.286 C 
BRANCH   9  10
HETATM   10  O1  UNL     1       1.095   1.570  -1.705  1.00  0.00    -0.373 OA
ATOM     11  H1  UNL     1       2.014   1.779  -1.822  1.00  0.00     0.212 HD
ENDBRANCH   9  10
BRANCH   9  12
HETATM   12  C4  UNL     1       1.784  -0.573  -1.106  1.00  0.00     0.205 C 
BRANCH  12  13
HETATM   13  S1  UNL     1       3.462   0.180  -1.246  1.00  0.00    -0.081 SA
BRANCH  13  14
HETATM   14  C5  UNL     1       3.953   0.715   0.364  1.00  0.00     0.305 C 
HETATM   15  O2  UNL     1       4.856   0.094   0.930  1.00  0.00    -0.295 OA
ENDBRANCH  13  14
ENDBRANCH  12  13
BRANCH  12  16
HETATM   16  C6  UNL     1       1.899  -1.619  -0.080  1.00  0.00     0.192 C 
HETATM   17  O3  UNL     1       1.522  -2.789  -0.426  1.00  0.00    -0.647 OA
HETATM   18  O4  UNL     1       2.381  -1.392   1.198  1.00  0.00    -0.647 OA
ENDBRANCH  12  16
ENDBRANCH   9  12
ENDBRANCH   5   9
BRANCH   4  19
HETATM   19  N3  UNL     1      -0.839  -0.416  -2.688  1.00  0.00    -0.233 N 
ATOM     20  H32 UNL     1      -1.459  -0.774  -3.414  1.00  0.00     0.174 HD
ATOM     21  H31 UNL     1       0.142  -0.212  -2.879  1.00  0.00     0.174 HD
ENDBRANCH   4  19
BRANCH   6  22
HETATM   22  N5  UNL     1      -0.305   0.897   1.639  1.00  0.00    -0.137 N 
ATOM     23  H5  UNL     1       0.671   1.094   1.419  1.00  0.00     0.205 HD
BRANCH  22  24
HETATM   24  N6  UNL     1      -0.708   1.144   2.935  1.00  0.00    -0.331 N 
ATOM     25  H62 UNL     1      -1.687   0.941   3.136  1.00  0.00     0.177 HD
ATOM     26  H61 UNL     1      -0.133   1.503   3.697  1.00  0.00     0.177 HD
ENDBRANCH  22  24
ENDBRANCH   6  22
BRANCH   1  27
HETATM   27  N1  UNL     1      -4.361  -0.545   0.225  1.00  0.00    -0.234 N 
ATOM     28  H12 UNL     1      -4.980  -0.903  -0.502  1.00  0.00     0.174 HD
ATOM     29  H11 UNL     1      -4.762  -0.398   1.151  1.00  0.00     0.174 HD
ENDBRANCH   1  27
TORSDOF 10
