REMARK  10 active torsions:
REMARK  status: ('A' for Active; 'I' for Inactive)
REMARK       I    between atoms: C2_2  and  N1_4 
REMARK    1  A    between atoms: N1_4  and  N2_6 
REMARK       I    between atoms: N2_6  and  C3_8 
REMARK       I    between atoms: C3_8  and  N3_10 
REMARK    2  A    between atoms: N3_10  and  N4_12 
REMARK    3  A    between atoms: N4_12  and  C4_13 
REMARK    4  A    between atoms: C4_13  and  O3_14 
REMARK    5  A    between atoms: C4_13  and  C5_16 
REMARK    6  A    between atoms: C5_16  and  N5_17 
REMARK    7  A    between atoms: C5_16  and  C6_21 
REMARK    8  A    between atoms: C7_24  and  C8_25 
REMARK    9  A    between atoms: C8_25  and  N7_26 
REMARK   10  A    between atoms: N7_26  and  O4_28 
ROOT
HETATM    1  C5  UNL     1       1.650  -0.993  -1.001  1.00  0.00     0.297 C 
ENDROOT
BRANCH   1   2
HETATM    2  C4  UNL     1       0.548  -1.269  -0.055  1.00  0.00     0.269 C 
BRANCH   2   3
HETATM    3  N4  UNL     1      -0.071  -0.085   0.497  1.00  0.00    -0.102 NA
BRANCH   3   4
HETATM    4  N3  UNL     1      -1.361  -0.465   0.933  1.00  0.00    -0.252 N 
HETATM    5  C3  UNL     1      -2.498   0.336   0.584  1.00  0.00     0.350 C 
HETATM    6  N2  UNL     1      -3.785  -0.040   1.018  1.00  0.00    -0.248 N 
HETATM    7  O2  UNL     1      -2.347   1.388  -0.119  1.00  0.00    -0.244 OA
ATOM      8  H2  UNL     1      -3.922  -0.879   1.582  1.00  0.00     0.192 HD
ATOM      9  H3  UNL     1      -1.483  -1.308   1.495  1.00  0.00     0.187 HD
BRANCH   6  10
HETATM   10  N1  UNL     1      -4.870   0.764   0.657  1.00  0.00    -0.266 N 
HETATM   11  C2  UNL     1      -5.743   0.337  -0.350  1.00  0.00     0.232 C 
HETATM   12  C1  UNL     1      -6.897   1.200  -0.729  1.00  0.00     0.119 C 
HETATM   13  O1  UNL     1      -5.619  -0.742  -0.965  1.00  0.00    -0.272 OA
ATOM     14  H1  UNL     1      -5.025   1.657   1.125  1.00  0.00     0.190 HD
ENDBRANCH   6  10
ENDBRANCH   3   4
ENDBRANCH   2   3
BRANCH   2  15
HETATM   15  O3  UNL     1       0.794  -2.172   0.942  1.00  0.00    -0.375 OA
ATOM     16  H3  UNL     1       1.201  -2.950   0.579  1.00  0.00     0.211 HD
ENDBRANCH   2  15
ENDBRANCH   1   2
BRANCH   1  17
HETATM   17  N5  UNL     1       2.021  -2.249  -1.657  1.00  0.00    -0.064 N 
ATOM     18  H53 UNL     1       2.251  -2.986  -0.991  1.00  0.00     0.275 HD
ATOM     19  H52 UNL     1       1.227  -2.708  -2.103  1.00  0.00     0.275 HD
ATOM     20  H51 UNL     1       2.781  -2.059  -2.310  1.00  0.00     0.275 HD
ENDBRANCH   1  17
BRANCH   1  21
HETATM   21  C6  UNL     1       2.805  -0.259  -0.461  1.00  0.00     0.132 A 
HETATM   22  N6  UNL     1       3.857  -0.780   0.191  1.00  0.00    -0.327 N 
HETATM   23  C7  UNL     1       4.730   0.198   0.535  1.00  0.00     0.139 A 
ATOM     24  H6  UNL     1       3.981  -1.771   0.398  1.00  0.00     0.169 HD
HETATM   25  N8  UNL     1       4.192   1.343   0.081  1.00  0.00    -0.283 N 
HETATM   26  N9  UNL     1       3.050   1.060  -0.508  1.00  0.00    -0.285 N 
ATOM     27  H8  UNL     1       4.600   2.273   0.177  1.00  0.00     0.188 HD
ATOM     28  H9  UNL     1       2.435   1.749  -0.941  1.00  0.00     0.188 HD
BRANCH  23  29
HETATM   29  C8  UNL     1       5.994   0.044   1.246  1.00  0.00     0.163 C 
BRANCH  29  30
HETATM   30  N7  UNL     1       6.745   1.045   1.511  1.00  0.00    -0.277 N 
ATOM     31  H7  UNL     1       7.615   0.863   2.011  1.00  0.00     0.193 HD
BRANCH  30  32
HETATM   32  O4  UNL     1       6.469   2.341   1.174  1.00  0.00    -0.290 OA
ATOM     33  H4  UNL     1       7.027   3.084   1.371  1.00  0.00     0.244 HD
ENDBRANCH  30  32
ENDBRANCH  29  30
ENDBRANCH  23  29
ENDBRANCH   1  21
TORSDOF 10
