REMARK  7 active torsions:
REMARK  status: ('A' for Active; 'I' for Inactive)
REMARK    1  A    between atoms: C2_7  and  C3_8 
REMARK    2  A    between atoms: C3_8  and  O1_9 
REMARK    3  A    between atoms: O1_9  and  N3_10 
REMARK       I    between atoms: N3_10  and  C4_12 
REMARK    4  A    between atoms: C4_12  and  C5_14 
REMARK    5  A    between atoms: N4_15  and  O3_17 
REMARK    6  A    between atoms: N5_19  and  C6_20 
REMARK    7  A    between atoms: C8_27  and  N8_28 
ROOT
HETATM    1  N1  UNL     1      -0.746  -2.468   3.059  1.00  0.00    -0.370 N 
ATOM      2  H11 UNL     1      -0.966  -2.028   3.952  1.00  0.00     0.159 HD
ATOM      3  H12 UNL     1      -0.402  -3.396   3.307  1.00  0.00     0.159 HD
HETATM    4  C1  UNL     1      -0.876  -1.959   1.883  1.00  0.00     0.190 C 
HETATM    5  N2  UNL     1      -0.569  -2.572   0.639  1.00  0.00    -0.336 N 
ATOM      6  H2  UNL     1      -0.554  -3.569   0.423  1.00  0.00     0.164 HD
HETATM    7  C2  UNL     1      -0.279  -1.458  -0.265  1.00  0.00     0.253 C 
HETATM    8  N5  UNL     1      -1.325  -0.538   0.134  1.00  0.00    -0.094 N 
HETATM    9  N10 UNL     1      -1.361  -0.652   1.534  1.00  0.00    -0.253 N 
ATOM     10  H10 UNL     1      -1.676   0.066   2.187  1.00  0.00     0.191 HD
ENDROOT
BRANCH   8  11
HETATM   11  C6  UNL     1      -2.142   0.295  -0.683  1.00  0.00     0.719 A 
HETATM   12  N6  UNL     1      -2.025   0.308  -2.022  1.00  0.00    -0.139 N 
HETATM   13  C7  UNL     1      -2.783   1.085  -2.808  1.00  0.00     0.352 A 
ATOM     14  H6  UNL     1      -1.331  -0.299  -2.458  1.00  0.00     0.189 HD
HETATM   15  O4  UNL     1      -2.608   1.035  -4.047  1.00  0.00    -0.246 OA
HETATM   16  N7  UNL     1      -3.693   1.878  -2.226  1.00  0.00    -0.141 N 
HETATM   17  C8  UNL     1      -3.866   1.918  -0.896  1.00  0.00     0.694 A 
ATOM     18  H7  UNL     1      -4.275   2.473  -2.815  1.00  0.00     0.189 HD
HETATM   19  N9  UNL     1      -3.074   1.113  -0.146  1.00  0.00    -0.021 N 
ATOM     20  H9  UNL     1      -3.186   1.125   0.868  1.00  0.00     0.203 HD
BRANCH  17  21
HETATM   21  N8  UNL     1      -4.749   2.687  -0.332  1.00  0.00    -0.234 N 
ATOM     22  H82 UNL     1      -5.345   3.293  -0.896  1.00  0.00     0.174 HD
ATOM     23  H81 UNL     1      -4.881   2.717   0.679  1.00  0.00     0.174 HD
ENDBRANCH  17  21
ENDBRANCH   8  11
BRANCH   7  24
HETATM   24  C3  UNL     1       1.097  -0.974   0.152  1.00  0.00     0.250 C 
BRANCH  24  25
HETATM   25  O1  UNL     1       1.562   0.091  -0.592  1.00  0.00    -0.274 OA
BRANCH  25  26
HETATM   26  N3  UNL     1       2.790   0.408  -0.111  1.00  0.00    -0.230 N 
HETATM   27  C4  UNL     1       3.946  -0.324  -0.417  1.00  0.00     0.282 C 
HETATM   28  O2  UNL     1       3.827  -1.346  -1.195  1.00  0.00    -0.265 OA
ATOM     29  H3  UNL     1       2.877   1.218   0.503  1.00  0.00     0.197 HD
BRANCH  27  30
HETATM   30  C5  UNL     1       5.274  -0.024   0.076  1.00  0.00     0.189 C 
HETATM   31  N4  UNL     1       5.626   0.917   0.844  1.00  0.00    -0.275 N 
ATOM     32  H4  UNL     1       6.623   0.934   1.058  1.00  0.00     0.193 HD
BRANCH  31  33
HETATM   33  O3  UNL     1       4.921   1.895   1.426  1.00  0.00    -0.290 OA
ATOM     34  H3  UNL     1       5.185   2.602   2.003  1.00  0.00     0.244 HD
ENDBRANCH  31  33
ENDBRANCH  27  30
ENDBRANCH  25  26
ENDBRANCH  24  25
ENDBRANCH   7  24
TORSDOF 7
