REMARK  10 active torsions:
REMARK  status: ('A' for Active; 'I' for Inactive)
REMARK    1  A    between atoms: C2_2  and  O1_3 
REMARK    2  A    between atoms: C2_2  and  N1_5 
REMARK    3  A    between atoms: N1_5  and  N2_6 
REMARK    4  A    between atoms: N2_6  and  C3_7 
REMARK    5  A    between atoms: C3_7  and  C4_8 
REMARK    6  A    between atoms: C3_7  and  C5_11 
REMARK    7  A    between atoms: C5_11  and  O3_12 
REMARK    8  A    between atoms: C5_11  and  N4_14 
REMARK    9  A    between atoms: C7_16  and  N5_17 
REMARK   10  A    between atoms: N5_17  and  N6_19 
ROOT
HETATM    1  N4  UNL     1       1.418  -0.075   0.063  1.00  0.00    -0.264 N 
HETATM    2  C6  UNL     1       2.557   0.564  -0.361  1.00  0.00     0.152 A 
HETATM    3  C7  UNL     1       3.825   0.113  -0.142  1.00  0.00     0.137 A 
HETATM    4  N7  UNL     1       3.960  -1.042   0.537  1.00  0.00    -0.322 N 
ATOM      5  H7  UNL     1       4.894  -1.409   0.718  1.00  0.00     0.169 HD
HETATM    6  C8  UNL     1       2.892  -1.719   0.980  1.00  0.00     0.170 A 
HETATM    7  N8  UNL     1       2.973  -2.826   1.635  1.00  0.00    -0.381 N 
ATOM      8  H81 UNL     1       2.160  -3.341   1.972  1.00  0.00     0.157 HD
ATOM      9  H82 UNL     1       3.904  -3.200   1.821  1.00  0.00     0.157 HD
HETATM   10  C9  UNL     1       1.607  -1.203   0.723  1.00  0.00     0.297 A 
HETATM   11  O4  UNL     1       0.642  -1.893   1.164  1.00  0.00    -0.263 OA
ENDROOT
BRANCH   1  12
HETATM   12  C5  UNL     1       0.173   0.473  -0.251  1.00  0.00     0.155 C 
BRANCH  12  13
HETATM   13  C3  UNL     1      -1.111  -0.073   0.166  1.00  0.00     0.259 C 
BRANCH  13  14
HETATM   14  N2  UNL     1      -2.203   0.507  -0.697  1.00  0.00    -0.123 NA
BRANCH  14  15
HETATM   15  N1  UNL     1      -3.351  -0.165  -0.317  1.00  0.00    -0.116 NA
BRANCH  15  16
HETATM   16  C2  UNL     1      -4.575   0.505  -0.676  1.00  0.00     0.223 C 
HETATM   17  C1  UNL     1      -5.775  -0.329  -0.297  1.00  0.00     0.059 C 
BRANCH  16  18
HETATM   18  O1  UNL     1      -4.617   0.942  -1.974  1.00  0.00    -0.379 OA
ATOM     19  H1  UNL     1      -3.862   1.467  -2.212  1.00  0.00     0.211 HD
ENDBRANCH  16  18
ENDBRANCH  15  16
ENDBRANCH  14  15
ENDBRANCH  13  14
BRANCH  13  20
HETATM   20  C4  UNL     1      -1.471   0.496   1.502  1.00  0.00     0.259 C 
HETATM   21  N3  UNL     1      -0.481   1.000   2.373  1.00  0.00    -0.060 NA
HETATM   22  O2  UNL     1      -2.652   0.545   1.873  1.00  0.00    -0.274 OA
ENDBRANCH  13  20
ENDBRANCH  12  13
BRANCH  12  23
HETATM   23  O3  UNL     1       0.174   1.560  -0.977  1.00  0.00    -0.347 OA
ATOM     24  H3  UNL     1       1.012   1.916  -1.249  1.00  0.00     0.219 HD
ENDBRANCH  12  23
ENDBRANCH   1  12
BRANCH   3  25
HETATM   25  N5  UNL     1       4.975   0.814  -0.596  1.00  0.00    -0.291 N 
ATOM     26  H5  UNL     1       5.386   1.548  -0.020  1.00  0.00     0.188 HD
BRANCH  25  27
HETATM   27  N6  UNL     1       5.535   0.500  -1.818  1.00  0.00    -0.344 N 
ATOM     28  H62 UNL     1       5.112  -0.237  -2.382  1.00  0.00     0.176 HD
ATOM     29  H61 UNL     1       6.360   1.003  -2.144  1.00  0.00     0.176 HD
ENDBRANCH  25  27
ENDBRANCH   3  25
TORSDOF 10
