REMARK  9 active torsions:
REMARK  status: ('A' for Active; 'I' for Inactive)
REMARK    1  A    between atoms: C3_4  and  C4_5 
REMARK    2  A    between atoms: C3_4  and  C17_23 
REMARK    3  A    between atoms: C5_6  and  C6_7 
REMARK    4  A    between atoms: C7_8  and  C8_9 
REMARK    5  A    between atoms: C10_12  and  O3_13 
REMARK    6  A    between atoms: C10_12  and  C11_15 
REMARK    7  A    between atoms: C14_18  and  O4_19 
REMARK    8  A    between atoms: C17_23  and  O5_24 
REMARK    9  A    between atoms: C19_27  and  O6_28 
ROOT
HETATM    1  C6  UNL     1       0.075  -0.084  -1.625  1.00  0.00    -0.001 C 
HETATM    2  C7  UNL     1      -1.170   0.119  -1.378  1.00  0.00     0.011 C 
ENDROOT
BRANCH   2   3
HETATM    3  C8  UNL     1      -1.868   0.672  -0.231  1.00  0.00     0.085 C 
HETATM    4  C9  UNL     1      -1.222   1.964   0.252  1.00  0.00     0.051 C 
HETATM    5  O2  UNL     1      -3.170   1.047  -0.685  1.00  0.00    -0.337 OA
HETATM    6  C10 UNL     1      -3.969  -0.064  -0.640  1.00  0.00     0.192 C 
HETATM    7  C14 UNL     1      -3.312  -1.094   0.215  1.00  0.00     0.187 C 
HETATM    8  C15 UNL     1      -2.230  -0.252   0.867  1.00  0.00     0.054 C 
HETATM    9  C16 UNL     1      -1.180  -1.031   1.530  1.00  0.00     0.016 C 
BRANCH   6  10
HETATM   10  O3  UNL     1      -4.235  -0.627  -1.902  1.00  0.00    -0.363 OA
ATOM     11  H3  UNL     1      -4.789  -1.398  -1.871  1.00  0.00     0.213 HD
ENDBRANCH   6  10
BRANCH   6  12
HETATM   12  C11 UNL     1      -5.327   0.373  -0.112  1.00  0.00     0.043 C 
HETATM   13  C12 UNL     1      -6.302  -0.759  -0.012  1.00  0.00     0.015 C 
HETATM   14  C13 UNL     1      -5.229   1.206   1.137  1.00  0.00     0.015 C 
ENDBRANCH   6  12
BRANCH   7  15
HETATM   15  O4  UNL     1      -4.119  -1.597   1.219  1.00  0.00    -0.390 OA
ATOM     16  H4  UNL     1      -3.700  -2.253   1.764  1.00  0.00     0.210 HD
ENDBRANCH   7  15
ENDBRANCH   2   3
BRANCH   1  17
HETATM   17  C5  UNL     1       1.246   0.189  -0.795  1.00  0.00    -0.001 C 
HETATM   18  C4  UNL     1       2.468  -0.086  -1.215  1.00  0.00     0.013 C 
BRANCH  18  19
HETATM   19  C3  UNL     1       3.644   0.188  -0.380  1.00  0.00     0.103 C 
HETATM   20  O1  UNL     1       4.675   0.776  -1.118  1.00  0.00    -0.366 OA
HETATM   21  C2  UNL     1       5.846   0.127  -0.843  1.00  0.00     0.147 C 
HETATM   22  C1  UNL     1       6.542   0.560   0.405  1.00  0.00     0.042 C 
HETATM   23  C19 UNL     1       5.423  -1.329  -0.656  1.00  0.00     0.150 C 
HETATM   24  C18 UNL     1       4.152  -1.146   0.120  1.00  0.00     0.078 C 
BRANCH  23  25
HETATM   25  O6  UNL     1       6.377  -2.078  -0.012  1.00  0.00    -0.393 OA
ATOM     26  H6  UNL     1       6.114  -2.983   0.104  1.00  0.00     0.210 HD
ENDBRANCH  23  25
BRANCH  19  27
HETATM   27  C17 UNL     1       3.256   1.103   0.757  1.00  0.00     0.206 C 
BRANCH  27  28
HETATM   28  O5  UNL     1       2.800   2.309   0.270  1.00  0.00    -0.398 OA
ATOM     29  H5  UNL     1       2.556   2.885   0.985  1.00  0.00     0.209 HD
ENDBRANCH  27  28
ENDBRANCH  19  27
ENDBRANCH  18  19
ENDBRANCH   1  17
TORSDOF 9
