REMARK  8 active torsions:
REMARK  status: ('A' for Active; 'I' for Inactive)
REMARK    1  A    between atoms: C2_2  and  C3_3 
REMARK    2  A    between atoms: C5_5  and  N1_6 
REMARK    3  A    between atoms: C8_13  and  N3_14 
REMARK    4  A    between atoms: N3_14  and  C9_16 
REMARK    5  A    between atoms: C9_16  and  C11_18 
REMARK    6  A    between atoms: C11_18  and  C12_19 
REMARK    7  A    between atoms: C15_24  and  O2_25 
REMARK    8  A    between atoms: C16_27  and  O3_28 
ROOT
HETATM    1  N1  UNL     1       1.908   0.779  -0.437  1.00  0.00    -0.293 N 
HETATM    2  S1  UNL     1       1.859   1.011  -2.082  1.00  0.00    -0.001 SA
HETATM    3  C6  UNL     1       0.208   0.870  -1.764  1.00  0.00     0.135 A 
HETATM    4  C7  UNL     1      -1.126   0.849  -2.162  1.00  0.00     0.281 A 
HETATM    5  O1  UNL     1      -1.335   1.012  -3.392  1.00  0.00    -0.266 OA
HETATM    6  N2  UNL     1      -2.092   0.665  -1.264  1.00  0.00    -0.155 N 
ATOM      7  H2  UNL     1      -3.065   0.652  -1.568  1.00  0.00     0.187 HD
HETATM    8  C8  UNL     1      -1.806   0.498   0.023  1.00  0.00     0.683 A 
HETATM    9  N4  UNL     1      -0.490   0.522   0.394  1.00  0.00    -0.174 N 
ATOM     10  H4  UNL     1      -0.276   0.394   1.383  1.00  0.00     0.186 HD
HETATM   11  C14 UNL     1       0.552   0.703  -0.454  1.00  0.00     0.154 A 
ENDROOT
BRANCH   1  12
HETATM   12  C5  UNL     1       2.966   0.694   0.596  1.00  0.00     0.131 C 
HETATM   13  C4  UNL     1       3.394  -0.717   0.829  1.00  0.00     0.040 C 
HETATM   14  C3  UNL     1       4.848  -0.780   0.407  1.00  0.00     0.041 C 
HETATM   15  C16 UNL     1       5.078   0.472  -0.432  1.00  0.00     0.156 C 
HETATM   16  C15 UNL     1       4.163   1.496   0.207  1.00  0.00     0.171 C 
BRANCH  14  17
HETATM   17  C2  UNL     1       5.016  -1.975  -0.451  1.00  0.00    -0.030 C 
HETATM   18  C1  UNL     1       5.942  -2.861  -0.151  1.00  0.00     0.007 C 
ENDBRANCH  14  17
BRANCH  15  19
HETATM   19  O3  UNL     1       6.397   0.921  -0.324  1.00  0.00    -0.392 OA
ATOM     20  H3  UNL     1       6.540   1.701  -0.847  1.00  0.00     0.210 HD
ENDBRANCH  15  19
BRANCH  16  21
HETATM   21  O2  UNL     1       4.779   1.977   1.376  1.00  0.00    -0.391 OA
ATOM     22  H2  UNL     1       5.541   2.488   1.128  1.00  0.00     0.210 HD
ENDBRANCH  16  21
ENDBRANCH   1  12
BRANCH   8  23
HETATM   23  N3  UNL     1      -2.625   0.317   0.959  1.00  0.00    -0.222 N 
ATOM     24  H3  UNL     1      -2.195   0.211   1.878  1.00  0.00     0.178 HD
BRANCH  23  25
HETATM   25  C9  UNL     1      -4.041   0.234   0.964  1.00  0.00     0.095 C 
HETATM   26  C10 UNL     1      -4.606   1.497   0.432  1.00  0.00     0.032 C 
BRANCH  25  27
HETATM   27  C11 UNL     1      -4.450  -1.059   0.365  1.00  0.00     0.025 C 
BRANCH  27  28
HETATM   28  C12 UNL     1      -5.895  -1.381   0.297  1.00  0.00    -0.002 C 
HETATM   29  C13 UNL     1      -6.720  -0.474  -0.542  1.00  0.00     0.005 C 
ENDBRANCH  27  28
ENDBRANCH  25  27
ENDBRANCH  23  25
ENDBRANCH   8  23
TORSDOF 8
