REMARK  7 active torsions:
REMARK  status: ('A' for Active; 'I' for Inactive)
REMARK    1  A    between atoms: C4_4  and  C5_5 
REMARK    2  A    between atoms: C5_5  and  C6_6 
REMARK    3  A    between atoms: C6_6  and  C7_7 
REMARK    4  A    between atoms: C8_8  and  C9_9 
REMARK    5  A    between atoms: C9_9  and  O1_10 
REMARK    6  A    between atoms: N1_12  and  O2_14 
REMARK    7  A    between atoms: C12_20  and  C13_21 
ROOT
HETATM    1  C7  UNL     1      -0.661  -0.679   0.486  1.00  0.00     0.037 C 
HETATM    2  C8  UNL     1      -1.299  -1.916   0.059  1.00  0.00     0.072 C 
HETATM    3  C10 UNL     1      -1.905  -1.132  -1.131  1.00  0.00     0.057 C 
HETATM    4  C11 UNL     1      -1.659   0.110  -0.331  1.00  0.00     0.091 C 
HETATM    5  N2  UNL     1      -2.812   0.527   0.361  1.00  0.00    -0.389 N 
ATOM      6  H2  UNL     1      -3.460  -0.176   0.716  1.00  0.00     0.155 HD
HETATM    7  C12 UNL     1      -3.091   1.880   0.574  1.00  0.00     0.190 C 
HETATM    8  C14 UNL     1      -1.960   2.686   1.231  1.00  0.00     0.122 C 
HETATM    9  S1  UNL     1      -0.881   3.173  -0.179  1.00  0.00    -0.092 SA
HETATM   10  S2  UNL     1      -0.880   1.373  -1.366  1.00  0.00    -0.066 SA
ENDROOT
BRANCH   1  11
HETATM   11  C6  UNL     1       0.722  -0.294   0.160  1.00  0.00     0.009 C 
BRANCH  11  12
HETATM   12  C5  UNL     1       1.836  -1.139   0.638  1.00  0.00     0.005 C 
BRANCH  12  13
HETATM   13  C4  UNL     1       3.143  -0.493   0.151  1.00  0.00    -0.010 A 
HETATM   14  C2  UNL     1       3.359   0.899   0.659  1.00  0.00    -0.014 A 
HETATM   15  C1  UNL     1       4.078   1.899  -0.230  1.00  0.00     0.010 C 
HETATM   16  C3  UNL     1       4.211  -0.215   1.202  1.00  0.00     0.009 A 
ENDBRANCH  12  13
ENDBRANCH  11  12
ENDBRANCH   1  11
BRANCH   2  17
HETATM   17  C9  UNL     1      -0.580  -3.098  -0.378  1.00  0.00     0.140 C 
HETATM   18  N1  UNL     1      -0.469  -4.114   0.381  1.00  0.00    -0.251 N 
ATOM     19  H1  UNL     1      -0.896  -4.085   1.307  1.00  0.00     0.196 HD
BRANCH  17  20
HETATM   20  O1  UNL     1      -0.007  -3.135  -1.627  1.00  0.00    -0.348 OA
ATOM     21  H1  UNL     1       0.464  -3.909  -1.913  1.00  0.00     0.219 HD
ENDBRANCH  17  20
BRANCH  18  22
HETATM   22  O2  UNL     1       0.209  -5.256  -0.004  1.00  0.00    -0.288 OA
ATOM     23  H2  UNL     1       0.292  -6.014   0.562  1.00  0.00     0.244 HD
ENDBRANCH  18  22
ENDBRANCH   2  17
BRANCH   7  24
HETATM   24  C13 UNL     1      -3.670   2.619  -0.552  1.00  0.00     0.197 C 
HETATM   25  O3  UNL     1      -3.914   2.075  -1.643  1.00  0.00    -0.646 OA
HETATM   26  O4  UNL     1      -3.954   3.958  -0.402  1.00  0.00    -0.646 OA
ENDBRANCH   7  24
TORSDOF 7
