REMARK  6 active torsions:
REMARK  status: ('A' for Active; 'I' for Inactive)
REMARK    1  A    between atoms: N1_1  and  C1_4 
REMARK    2  A    between atoms: C2_7  and  C3_8 
REMARK    3  A    between atoms: C3_8  and  C4_16 
REMARK    4  A    between atoms: N3_9  and  N4_11 
REMARK    5  A    between atoms: N4_11  and  N5_13 
REMARK    6  A    between atoms: C5_19  and  N7_20 
ROOT
HETATM    1  C1  UNL     1       1.541   2.113   0.544  1.00  0.00     0.677 A 
HETATM    2  N2  UNL     1       0.424   1.425   0.501  1.00  0.00    -0.187 N 
ATOM      3  H2  UNL     1      -0.438   1.913   0.744  1.00  0.00     0.184 HD
HETATM    4  C2  UNL     1       0.322   0.080   0.149  1.00  0.00     0.119 A 
HETATM    5  C5  UNL     1       1.506  -0.480  -0.153  1.00  0.00     0.174 A 
HETATM    6  C6  UNL     1       2.723   0.250  -0.113  1.00  0.00     0.167 A 
HETATM    7  N8  UNL     1       3.931  -0.425  -0.449  1.00  0.00    -0.079 NA
HETATM    8  N9  UNL     1       2.679   1.524   0.238  1.00  0.00    -0.177 N 
ATOM      9  H9  UNL     1       3.545   2.062   0.273  1.00  0.00     0.185 HD
ENDROOT
BRANCH   4  10
HETATM   10  C3  UNL     1      -1.022  -0.450   0.121  1.00  0.00     0.144 C 
HETATM   11  N3  UNL     1      -1.886   0.461   0.573  1.00  0.00    -0.280 N 
ATOM     12  H3  UNL     1      -1.447   1.340   0.846  1.00  0.00     0.188 HD
BRANCH  11  13
HETATM   13  N4  UNL     1      -3.191   0.452   0.737  1.00  0.00    -0.249 N 
ATOM     14  H4  UNL     1      -3.560  -0.092   1.517  1.00  0.00     0.207 HD
BRANCH  13  15
HETATM   15  N5  UNL     1      -4.133   1.138  -0.082  1.00  0.00    -0.331 N 
ATOM     16  H52 UNL     1      -3.746   1.677  -0.857  1.00  0.00     0.178 HD
ATOM     17  H51 UNL     1      -5.145   1.131   0.045  1.00  0.00     0.178 HD
ENDBRANCH  13  15
ENDBRANCH  11  13
BRANCH  10  18
HETATM   18  C4  UNL     1      -1.608  -1.672  -0.277  1.00  0.00     0.285 C 
HETATM   19  N6  UNL     1      -3.054  -1.895  -0.151  1.00  0.00    -0.056 NA
HETATM   20  O1  UNL     1      -1.089  -2.687  -0.761  1.00  0.00    -0.269 OA
ENDBRANCH  10  18
ENDBRANCH   4  10
BRANCH   5  21
HETATM   21  N7  UNL     1       1.662  -1.840  -0.508  1.00  0.00    -0.110 N 
HETATM   22  O2  UNL     1       1.737  -2.730   0.356  1.00  0.00    -0.532 OA
HETATM   23  O3  UNL     1       1.830  -2.141  -1.850  1.00  0.00    -0.532 OA
ENDBRANCH   5  21
BRANCH   1  24
HETATM   24  N1  UNL     1       1.583   3.365   0.882  1.00  0.00    -0.234 N 
ATOM     25  H12 UNL     1       0.702   3.821   1.119  1.00  0.00     0.174 HD
ATOM     26  H11 UNL     1       2.451   3.900   0.915  1.00  0.00     0.174 HD
ENDBRANCH   1  24
TORSDOF 6
