REMARK  7 active torsions:
REMARK  status: ('A' for Active; 'I' for Inactive)
REMARK    1  A    between atoms: C9_9  and  O1_10 
REMARK    2  A    between atoms: O1_10  and  C10_11 
REMARK    3  A    between atoms: C10_11  and  C11_13 
REMARK    4  A    between atoms: C20_23  and  O3_24 
REMARK    5  A    between atoms: O3_24  and  N1_25 
REMARK    6  A    between atoms: C21_27  and  C22_28 
REMARK       I    between atoms: C22_28  and  N2_30 
REMARK    7  A    between atoms: N2_30  and  C23_32 
ROOT
HETATM    1  C1  UNL     1      -0.781  -5.127  -1.777  1.00  0.00     0.015 C 
HETATM    2  C2  UNL     1      -0.432  -4.358  -0.505  1.00  0.00    -0.040 C 
HETATM    3  C3  UNL     1       0.848  -4.925   0.064  1.00  0.00     0.015 C 
HETATM    4  C4  UNL     1      -1.543  -4.615   0.488  1.00  0.00     0.010 C 
HETATM    5  C5  UNL     1      -2.457  -3.422   0.414  1.00  0.00     0.007 C 
HETATM    6  C6  UNL     1      -1.673  -2.291  -0.216  1.00  0.00     0.003 C 
HETATM    7  C7  UNL     1      -1.418  -1.225   0.821  1.00  0.00     0.024 C 
HETATM    8  C8  UNL     1      -2.705  -0.580   1.195  1.00  0.00     0.042 C 
HETATM    9  C9  UNL     1      -2.830   0.756   0.549  1.00  0.00     0.133 C 
HETATM   10  C17 UNL     1      -1.728   1.647   1.137  1.00  0.00     0.037 C 
HETATM   11  C18 UNL     1      -0.452   1.182   0.463  1.00  0.00     0.040 C 
HETATM   12  C19 UNL     1      -0.349  -0.283   0.412  1.00  0.00    -0.043 C 
HETATM   13  C20 UNL     1       0.779  -0.817  -0.031  1.00  0.00     0.080 C 
HETATM   14  C28 UNL     1       0.837  -2.302  -0.066  1.00  0.00     0.077 C 
HETATM   15  C29 UNL     1      -0.386  -2.887  -0.742  1.00  0.00    -0.027 C 
HETATM   16  C30 UNL     1      -0.274  -2.556  -2.212  1.00  0.00     0.016 C 
ENDROOT
BRANCH  13  17
HETATM   17  O3  UNL     1       1.843  -0.071  -0.438  1.00  0.00    -0.242 OA
BRANCH  17  18
HETATM   18  N1  UNL     1       1.858   0.971  -1.301  1.00  0.00    -0.267 N 
HETATM   19  C21 UNL     1       2.879   1.744  -1.400  1.00  0.00     0.188 C 
ATOM     20  H1  UNL     1       1.041   1.146  -1.886  1.00  0.00     0.194 HD
BRANCH  19  21
HETATM   21  C22 UNL     1       4.040   1.500  -0.574  1.00  0.00     0.259 C 
HETATM   22  O4  UNL     1       4.038   0.538   0.229  1.00  0.00    -0.267 OA
HETATM   23  N2  UNL     1       5.191   2.349  -0.666  1.00  0.00    -0.352 N 
ATOM     24  H2  UNL     1       5.175   3.128  -1.325  1.00  0.00     0.163 HD
BRANCH  23  25
HETATM   25  C23 UNL     1       6.362   2.146   0.131  1.00  0.00     0.084 C 
HETATM   26  C24 UNL     1       7.604   1.889  -0.658  1.00  0.00     0.025 C 
HETATM   27  C25 UNL     1       8.661   2.825  -0.080  1.00  0.00     0.002 C 
HETATM   28  C26 UNL     1       8.156   3.048   1.351  1.00  0.00     0.002 C 
HETATM   29  C27 UNL     1       6.673   3.262   1.085  1.00  0.00     0.025 C 
ENDBRANCH  23  25
ENDBRANCH  19  21
ENDBRANCH  17  18
ENDBRANCH  13  17
BRANCH   9  30
HETATM   30  O1  UNL     1      -4.058   1.402   0.835  1.00  0.00    -0.312 OA
BRANCH  30  31
HETATM   31  C10 UNL     1      -4.938   1.816  -0.153  1.00  0.00     0.293 C 
HETATM   32  O2  UNL     1      -4.636   1.610  -1.354  1.00  0.00    -0.259 OA
BRANCH  31  33
HETATM   33  C11 UNL     1      -6.196   2.479   0.131  1.00  0.00     0.039 A 
HETATM   34  C12 UNL     1      -6.548   2.718   1.436  1.00  0.00     0.020 A 
HETATM   35  C13 UNL     1      -7.759   3.356   1.734  1.00  0.00     0.043 A 
HETATM   36  C14 UNL     1      -8.595   3.743   0.720  1.00  0.00     0.116 A 
HETATM   37  F1  UNL     1      -9.784   4.369   0.990  1.00  0.00    -0.206 F 
HETATM   38  C15 UNL     1      -8.259   3.512  -0.594  1.00  0.00     0.043 A 
HETATM   39  C16 UNL     1      -7.058   2.880  -0.860  1.00  0.00     0.020 A 
ENDBRANCH  31  33
ENDBRANCH  30  31
ENDBRANCH   9  30
TORSDOF 7
