REMARK  7 active torsions:
REMARK  status: ('A' for Active; 'I' for Inactive)
REMARK    1  A    between atoms: C4_4  and  C5_5 
REMARK    2  A    between atoms: C5_5  and  C6_6 
REMARK    3  A    between atoms: C19_21  and  O3_22 
REMARK    4  A    between atoms: C20_24  and  C21_25 
REMARK    5  A    between atoms: C21_25  and  C22_26 
REMARK    6  A    between atoms: C22_26  and  C23_27 
REMARK    7  A    between atoms: C23_27  and  C24_28 
ROOT
HETATM    1  C6  UNL     1       3.914  -0.834   0.805  1.00  0.00    -0.062 C 
HETATM    2  C7  UNL     1       3.060  -1.712   1.275  1.00  0.00    -0.022 C 
HETATM    3  C8  UNL     1       1.664  -1.262   1.082  1.00  0.00     0.037 C 
HETATM    4  C9  UNL     1       1.686  -0.041   0.247  1.00  0.00     0.054 C 
HETATM    5  C10 UNL     1       3.161   0.315   0.263  1.00  0.00     0.075 C 
HETATM    6  C11 UNL     1       3.602   0.728  -1.114  1.00  0.00     0.031 C 
HETATM    7  C12 UNL     1       3.334   1.391   1.288  1.00  0.00     0.272 C 
HETATM    8  O1  UNL     1       4.259   2.240   1.224  1.00  0.00    -0.264 OA
HETATM    9  O2  UNL     1       2.419   1.416   2.332  1.00  0.00    -0.312 OA
HETATM   10  C13 UNL     1       0.999   1.462   2.101  1.00  0.00     0.172 C 
HETATM   11  C14 UNL     1       0.590   2.902   2.259  1.00  0.00     0.036 C 
HETATM   12  C15 UNL     1      -0.443   3.398   1.325  1.00  0.00     0.008 C 
HETATM   13  C16 UNL     1      -1.311   2.301   0.793  1.00  0.00     0.006 C 
HETATM   14  C17 UNL     1      -2.306   2.750  -0.215  1.00  0.00     0.016 C 
HETATM   15  C18 UNL     1      -1.719   3.712  -1.232  1.00  0.00     0.013 C 
HETATM   16  C19 UNL     1      -2.922   1.631  -0.959  1.00  0.00     0.133 C 
HETATM   17  C20 UNL     1      -2.843   0.258  -0.336  1.00  0.00     0.085 C 
HETATM   18  C29 UNL     1      -1.504   0.035   0.320  1.00  0.00     0.141 C 
HETATM   19  O4  UNL     1      -1.388  -1.014   0.877  1.00  0.00    -0.297 OA
HETATM   20  C30 UNL     1      -0.564   1.137   0.169  1.00  0.00     0.103 C 
HETATM   21  C31 UNL     1       0.812   1.090   0.641  1.00  0.00     0.146 C 
HETATM   22  F1  UNL     1       1.384   2.227  -0.007  1.00  0.00    -0.239 F 
ENDROOT
BRANCH  17  23
HETATM   23  C21 UNL     1      -4.025   0.062   0.553  1.00  0.00     0.015 C 
BRANCH  23  24
HETATM   24  C22 UNL     1      -4.199  -1.223   1.254  1.00  0.00     0.005 C 
BRANCH  24  25
HETATM   25  C23 UNL     1      -4.380  -2.433   0.393  1.00  0.00     0.038 C 
BRANCH  25  26
HETATM   26  C24 UNL     1      -5.597  -2.401  -0.444  1.00  0.00    -0.056 A 
HETATM   27  C25 UNL     1      -6.822  -2.872   0.032  1.00  0.00     0.024 A 
HETATM   28  C26 UNL     1      -7.928  -2.833  -0.783  1.00  0.00     0.088 A 
HETATM   29  N1  UNL     1      -7.889  -2.357  -2.034  1.00  0.00    -0.375 N 
HETATM   30  C27 UNL     1      -6.725  -1.910  -2.483  1.00  0.00     0.088 A 
ATOM     31  H1  UNL     1      -8.724  -2.339  -2.619  1.00  0.00     0.164 HD
HETATM   32  C28 UNL     1      -5.569  -1.921  -1.712  1.00  0.00     0.024 A 
ENDBRANCH  25  26
ENDBRANCH  24  25
ENDBRANCH  23  24
ENDBRANCH  17  23
BRANCH  16  33
HETATM   33  O3  UNL     1      -2.534   1.558  -2.296  1.00  0.00    -0.394 OA
ATOM     34  H3  UNL     1      -2.930   0.839  -2.774  1.00  0.00     0.210 HD
ENDBRANCH  16  33
BRANCH   1  35
HETATM   35  C5  UNL     1       5.361  -1.036   0.871  1.00  0.00     0.062 C 
BRANCH  35  36
HETATM   36  C4  UNL     1       6.088  -1.069  -0.411  1.00  0.00    -0.020 C 
HETATM   37  C2  UNL     1       6.753  -2.132  -0.845  1.00  0.00    -0.091 C 
HETATM   38  C1  UNL     1       6.812  -3.394  -0.048  1.00  0.00     0.042 C 
HETATM   39  C3  UNL     1       7.446  -2.042  -2.154  1.00  0.00     0.042 C 
ENDBRANCH  35  36
ENDBRANCH   1  35
TORSDOF 7
