REMARK  7 active torsions:
REMARK  status: ('A' for Active; 'I' for Inactive)
REMARK    1  A    between atoms: C2_2  and  C3_3 
REMARK    2  A    between atoms: C3_3  and  C4_4 
REMARK    3  A    between atoms: C5_5  and  C7_7 
REMARK    4  A    between atoms: C7_7  and  C8_9 
REMARK    5  A    between atoms: C9_10  and  C10_11 
REMARK    6  A    between atoms: C10_11  and  C13_14 
REMARK    7  A    between atoms: C14_16  and  O3_17 
ROOT
HETATM    1  C13 UNL     1       0.059  -0.317   0.840  1.00  0.00     0.157 C 
HETATM    2  O2  UNL     1       0.144  -0.169   2.223  1.00  0.00    -0.331 OA
HETATM    3  C14 UNL     1      -0.591  -0.384   3.304  1.00  0.00     0.411 C 
HETATM    4  O4  UNL     1      -1.910  -0.069   3.395  1.00  0.00    -0.335 OA
HETATM    5  C15 UNL     1      -2.588   1.112   3.030  1.00  0.00     0.207 C 
HETATM    6  C16 UNL     1      -3.953   0.689   2.631  1.00  0.00    -0.064 C 
HETATM    7  C17 UNL     1      -4.917   0.408   3.758  1.00  0.00     0.045 C 
HETATM    8  C18 UNL     1      -4.432   0.527   1.434  1.00  0.00    -0.017 C 
HETATM    9  C19 UNL     1      -3.702   0.735   0.120  1.00  0.00     0.020 C 
HETATM   10  C20 UNL     1      -4.462   1.776  -0.581  1.00  0.00     0.087 C 
HETATM   11  C21 UNL     1      -4.720   1.687  -2.004  1.00  0.00     0.127 C 
HETATM   12  O5  UNL     1      -3.785   2.028  -2.708  1.00  0.00    -0.298 OA
HETATM   13  C22 UNL     1      -5.881   1.271  -2.874  1.00  0.00     0.078 C 
HETATM   14  C23 UNL     1      -5.769  -0.192  -3.103  1.00  0.00     0.008 C 
HETATM   15  C24 UNL     1      -5.498  -0.908  -1.771  1.00  0.00     0.005 C 
HETATM   16  C25 UNL     1      -4.023  -1.113  -1.654  1.00  0.00    -0.014 C 
HETATM   17  C26 UNL     1      -3.798  -2.621  -1.647  1.00  0.00     0.010 C 
HETATM   18  C27 UNL     1      -3.355  -0.546  -0.447  1.00  0.00    -0.001 C 
HETATM   19  C28 UNL     1      -1.842  -0.570  -0.767  1.00  0.00     0.028 C 
HETATM   20  C29 UNL     1      -1.032  -1.167   0.366  1.00  0.00     0.113 C 
HETATM   21 CL1  UNL     1      -0.706  -2.849  -0.028  1.00  0.00    -0.122 Cl
ENDROOT
BRANCH   1  22
HETATM   22  C10 UNL     1       1.496  -0.683   0.358  1.00  0.00    -0.002 C 
HETATM   23  C11 UNL     1       1.831  -1.989   1.022  1.00  0.00     0.021 C 
HETATM   24  C12 UNL     1       1.488  -0.752  -1.126  1.00  0.00     0.021 C 
BRANCH  22  25
HETATM   25  C9  UNL     1       2.294   0.466   0.844  1.00  0.00    -0.011 C 
HETATM   26  C8  UNL     1       3.714   0.604   0.800  1.00  0.00     0.052 C 
BRANCH  26  27
HETATM   27  C7  UNL     1       4.517   0.755  -0.398  1.00  0.00     0.178 C 
HETATM   28  O1  UNL     1       4.038   0.986  -1.531  1.00  0.00    -0.288 OA
BRANCH  27  29
HETATM   29  C5  UNL     1       5.988   0.650  -0.395  1.00  0.00    -0.005 C 
HETATM   30  C4  UNL     1       6.694   0.800  -1.508  1.00  0.00     0.061 C 
HETATM   31  C6  UNL     1       6.676   0.303   0.857  1.00  0.00     0.053 C 
BRANCH  30  32
HETATM   32  C3  UNL     1       8.155   0.595  -1.434  1.00  0.00    -0.155 C 
BRANCH  32  33
HETATM   33  C2  UNL     1       9.319   0.433  -1.381  1.00  0.00     0.080 C 
HETATM   34  C1  UNL     1      10.069   0.028  -0.082  1.00  0.00     0.017 C 
ENDBRANCH  32  33
ENDBRANCH  30  32
ENDBRANCH  27  29
ENDBRANCH  26  27
ENDBRANCH  22  25
ENDBRANCH   1  22
BRANCH   3  35
HETATM   35  O3  UNL     1      -0.105  -0.928   4.395  1.00  0.00    -0.349 OA
ATOM     36  H3  UNL     1      -0.632  -1.082   5.170  1.00  0.00     0.215 HD
ENDBRANCH   3  35
TORSDOF 7
