REMARK  5 active torsions:
REMARK  status: ('A' for Active; 'I' for Inactive)
REMARK    1  A    between atoms: C3_3  and  C4_4 
REMARK    2  A    between atoms: N1_23  and  O1_25 
REMARK    3  A    between atoms: O1_25  and  C22_26 
REMARK    4  A    between atoms: C22_26  and  C23_27 
REMARK    5  A    between atoms: C23_27  and  N2_28 
ROOT
HETATM    1  C1  UNL     1      -2.206   0.563  -1.100  1.00  0.00     0.011 C 
HETATM    2  C2  UNL     1      -2.098   0.256   0.327  1.00  0.00    -0.000 C 
HETATM    3  C3  UNL     1      -2.965   1.140   1.253  1.00  0.00     0.024 C 
HETATM    4  C10 UNL     1      -4.022   0.251   1.805  1.00  0.00     0.019 C 
HETATM    5  C11 UNL     1      -3.868  -1.020   1.114  1.00  0.00    -0.035 C 
HETATM    6  C12 UNL     1      -4.744  -1.103  -0.077  1.00  0.00     0.016 C 
HETATM    7  C13 UNL     1      -4.026  -2.312   1.832  1.00  0.00     0.010 C 
HETATM    8  C14 UNL     1      -3.197  -3.222   0.925  1.00  0.00     0.007 C 
HETATM    9  C15 UNL     1      -2.273  -2.320   0.112  1.00  0.00     0.007 C 
HETATM   10  C16 UNL     1      -0.906  -2.894  -0.116  1.00  0.00    -0.016 C 
HETATM   11  C17 UNL     1      -0.634  -4.167   0.631  1.00  0.00     0.020 C 
HETATM   12  C18 UNL     1      -0.743  -3.229  -1.580  1.00  0.00     0.014 C 
HETATM   13  C19 UNL     1       0.573  -3.670  -2.042  1.00  0.00     0.007 C 
HETATM   14  C20 UNL     1       1.308  -2.430  -2.580  1.00  0.00     0.059 C 
HETATM   15  C21 UNL     1       1.792  -1.608  -1.432  1.00  0.00     0.032 C 
HETATM   16  N1  UNL     1       2.917  -1.053  -1.686  1.00  0.00    -0.271 N 
ATOM     17  H1  UNL     1       3.316  -1.240  -2.606  1.00  0.00     0.194 HD
HETATM   18  C28 UNL     1       1.183  -1.383  -0.152  1.00  0.00     0.030 C 
HETATM   19  C29 UNL     1       0.082  -1.911   0.377  1.00  0.00    -0.069 C 
HETATM   20  C30 UNL     1      -0.102  -1.346   1.726  1.00  0.00     0.036 C 
HETATM   21  C31 UNL     1      -1.579  -1.217   2.125  1.00  0.00     0.015 C 
HETATM   22  C32 UNL     1      -2.372  -1.058   0.849  1.00  0.00    -0.024 C 
ENDROOT
BRANCH  16  23
HETATM   23  O1  UNL     1       3.639  -0.245  -0.871  1.00  0.00    -0.279 OA
BRANCH  23  24
HETATM   24  C22 UNL     1       3.416   1.148  -0.875  1.00  0.00     0.231 C 
BRANCH  24  25
HETATM   25  C23 UNL     1       4.346   1.838   0.120  1.00  0.00     0.301 C 
BRANCH  25  26
HETATM   26  N2  UNL     1       5.684   1.562  -0.281  1.00  0.00     0.094 N 
HETATM   27  C24 UNL     1       6.035   2.213  -1.494  1.00  0.00     0.298 C 
HETATM   28  C25 UNL     1       7.416   2.839  -1.363  1.00  0.00     0.198 C 
HETATM   29  O2  UNL     1       7.331   3.709  -0.267  1.00  0.00    -0.388 OA
HETATM   30  C26 UNL     1       7.348   2.955   0.883  1.00  0.00     0.198 C 
HETATM   31  C27 UNL     1       6.594   1.666   0.804  1.00  0.00     0.298 C 
ENDBRANCH  25  26
ENDBRANCH  24  25
ENDBRANCH  23  24
ENDBRANCH  16  23
BRANCH   3  32
HETATM   32  C4  UNL     1      -3.354   2.398   0.640  1.00  0.00    -0.051 A 
HETATM   33  C5  UNL     1      -2.388   3.370   0.537  1.00  0.00     0.007 A 
HETATM   34  C6  UNL     1      -2.651   4.602  -0.014  1.00  0.00     0.004 A 
HETATM   35  C7  UNL     1      -3.922   4.870  -0.478  1.00  0.00     0.042 A 
HETATM   36  C8  UNL     1      -4.884   3.888  -0.370  1.00  0.00     0.116 A 
HETATM   37  F1  UNL     1      -6.124   4.210  -0.843  1.00  0.00    -0.206 F 
HETATM   38  C9  UNL     1      -4.614   2.656   0.183  1.00  0.00     0.049 A 
ENDBRANCH   3  32
TORSDOF 5
