REMARK  10 active torsions:
REMARK  status: ('A' for Active; 'I' for Inactive)
REMARK    1  A    between atoms: C2_2  and  O1_3 
REMARK    2  A    between atoms: C2_2  and  C3_5 
REMARK    3  A    between atoms: C3_5  and  N1_6 
REMARK    4  A    between atoms: C3_5  and  C15_41 
REMARK       I    between atoms: N1_6  and  C4_8 
REMARK       I    between atoms: C4_8  and  N2_10 
REMARK    5  A    between atoms: C7_13  and  N3_14 
REMARK       I    between atoms: N3_14  and  C8_16 
REMARK    6  A    between atoms: C8_16  and  C9_18 
REMARK    7  A    between atoms: C9_18  and  C10_19 
REMARK    8  A    between atoms: C12_31  and  N9_32 
REMARK    9  A    between atoms: C15_41  and  O5_42 
REMARK   10  A    between atoms: N11_44  and  O6_46 
ROOT
HETATM    1  N3  UNL     1       1.839  -0.592  -0.027  1.00  0.00    -0.323 N 
ATOM      2  H3  UNL     1       2.403  -1.389  -0.324  1.00  0.00     0.169 HD
HETATM    3  C8  UNL     1       2.471   0.569   0.476  1.00  0.00     0.277 C 
HETATM    4  O3  UNL     1       1.911   1.596   0.865  1.00  0.00    -0.269 OA
ENDROOT
BRANCH   3   5
HETATM    5  C9  UNL     1       3.973   0.560   0.546  1.00  0.00     0.348 C 
HETATM    6  N8  UNL     1       4.509   1.779   1.067  1.00  0.00     0.005 N 
HETATM    7  C12 UNL     1       5.603   1.460   1.930  1.00  0.00     0.487 C 
ATOM      8  H82 UNL     1       4.768   2.438   0.333  1.00  0.00     0.284 HD
ATOM      9  H81 UNL     1       3.802   2.353   1.526  1.00  0.00     0.284 HD
HETATM   10  N10 UNL     1       5.688   0.017   1.999  1.00  0.00    -0.308 N 
HETATM   11  C13 UNL     1       4.451  -0.465   1.504  1.00  0.00     0.275 C 
ATOM     12  H10 UNL     1       6.475  -0.538   2.334  1.00  0.00     0.166 HD
HETATM   13  O4  UNL     1       3.890  -1.545   1.825  1.00  0.00    -0.270 OA
BRANCH   5  14
HETATM   14  C10 UNL     1       4.552   0.215  -0.801  1.00  0.00     0.170 A 
HETATM   15  N4  UNL     1       4.159   0.721  -1.982  1.00  0.00    -0.269 N 
HETATM   16  N5  UNL     1       4.911   0.165  -2.904  1.00  0.00    -0.225 N 
ATOM     17  H4  UNL     1       3.418   1.406  -2.133  1.00  0.00     0.190 HD
HETATM   18  N6  UNL     1       5.771  -0.674  -2.377  1.00  0.00    -0.223 N 
ATOM     19  H5  UNL     1       4.836   0.360  -3.902  1.00  0.00     0.210 HD
HETATM   20  C11 UNL     1       6.750  -1.459  -3.104  1.00  0.00     0.202 C 
HETATM   21  N7  UNL     1       5.544  -0.639  -1.073  1.00  0.00    -0.267 N 
ATOM     22  H7  UNL     1       6.052  -1.184  -0.377  1.00  0.00     0.190 HD
ENDBRANCH   5  14
BRANCH   7  23
HETATM   23  N9  UNL     1       6.827   2.065   1.440  1.00  0.00    -0.033 N 
ATOM     24  H93 UNL     1       7.018   1.805   0.472  1.00  0.00     0.278 HD
ATOM     25  H92 UNL     1       6.727   3.072   1.309  1.00  0.00     0.278 HD
ATOM     26  H91 UNL     1       7.608   1.837   2.056  1.00  0.00     0.278 HD
ENDBRANCH   7  23
ENDBRANCH   3   5
BRANCH   1  27
HETATM   27  C7  UNL     1       0.428  -0.654  -0.121  1.00  0.00     0.052 A 
HETATM   28  C6  UNL     1      -0.223  -1.792  -0.616  1.00  0.00     0.048 A 
HETATM   29  C5  UNL     1      -1.564  -1.494  -0.560  1.00  0.00     0.103 A 
HETATM   30  N2  UNL     1      -1.780  -0.284  -0.079  1.00  0.00    -0.283 N 
HETATM   31  C4  UNL     1      -3.033   0.384   0.132  1.00  0.00     0.327 C 
HETATM   32  C14 UNL     1      -0.551   0.237   0.193  1.00  0.00     0.130 A 
HETATM   33  N1  UNL     1      -4.252  -0.254  -0.187  1.00  0.00    -0.328 N 
HETATM   34  O2  UNL     1      -3.029   1.557   0.609  1.00  0.00    -0.246 OA
ATOM     35  H1  UNL     1      -4.247  -1.199  -0.571  1.00  0.00     0.165 HD
BRANCH  33  36
HETATM   36  C3  UNL     1      -5.498   0.427   0.029  1.00  0.00     0.191 C 
BRANCH  36  37
HETATM   37  C2  UNL     1      -6.456  -0.342   0.908  1.00  0.00     0.144 C 
HETATM   38  C1  UNL     1      -6.792  -1.696   0.355  1.00  0.00     0.042 C 
BRANCH  37  39
HETATM   39  O1  UNL     1      -7.623   0.402   1.055  1.00  0.00    -0.393 OA
ATOM     40  H1  UNL     1      -7.410   1.259   1.405  1.00  0.00     0.210 HD
ENDBRANCH  37  39
ENDBRANCH  36  37
BRANCH  36  41
HETATM   41  C15 UNL     1      -6.116   0.666  -1.323  1.00  0.00     0.161 C 
HETATM   42  N11 UNL     1      -7.302   0.225  -1.537  1.00  0.00    -0.249 N 
ATOM     43  H11 UNL     1      -7.808  -0.275  -0.806  1.00  0.00     0.196 HD
BRANCH  41  44
HETATM   44  O5  UNL     1      -5.433   1.342  -2.313  1.00  0.00    -0.346 OA
ATOM     45  H5  UNL     1      -5.823   1.493  -3.166  1.00  0.00     0.219 HD
ENDBRANCH  41  44
BRANCH  42  46
HETATM   46  O6  UNL     1      -7.877   0.436  -2.762  1.00  0.00    -0.288 OA
ATOM     47  H6  UNL     1      -8.755   0.110  -2.920  1.00  0.00     0.244 HD
ENDBRANCH  42  46
ENDBRANCH  36  41
ENDBRANCH  33  36
ENDBRANCH   1  27
TORSDOF 10
