REMARK  12 active torsions:
REMARK  status: ('A' for Active; 'I' for Inactive)
REMARK    1  A    between atoms: N1_2  and  O1_3 
REMARK    2  A    between atoms: N1_2  and  C2_5 
REMARK    3  A    between atoms: C2_5  and  C3_6 
REMARK    4  A    between atoms: C2_5  and  C8_33 
REMARK    5  A    between atoms: C3_6  and  N2_7 
REMARK    6  A    between atoms: C3_6  and  N3_10 
REMARK    7  A    between atoms: N3_10  and  C4_12 
REMARK    8  A    between atoms: C5_18  and  N6_19 
REMARK    9  A    between atoms: N6_19  and  C6_21 
REMARK   10  A    between atoms: C6_21  and  N7_22 
REMARK       I    between atoms: N7_22  and  C7_24 
REMARK       I    between atoms: C7_24  and  N8_25 
REMARK       I    between atoms: C7_24  and  N9_29 
REMARK   11  A    between atoms: C9_36  and  N11_37 
REMARK   12  A    between atoms: N11_37  and  C10_39 
ROOT
HETATM    1  C3  UNL     1       0.253   0.109   0.989  1.00  0.00     0.105 C 
ENDROOT
BRANCH   1   2
HETATM    2  C2  UNL     1       1.215   0.235  -0.153  1.00  0.00     0.227 C 
BRANCH   2   3
HETATM    3  N1  UNL     1       1.369   1.611  -0.454  1.00  0.00    -0.184 NA
HETATM    4  C1  UNL     1       1.920   2.421   0.572  1.00  0.00     0.145 C 
BRANCH   3   5
HETATM    5  O1  UNL     1       0.185   2.105  -0.873  1.00  0.00    -0.312 OA
ATOM      6  H1  UNL     1      -0.184   1.563  -1.560  1.00  0.00     0.237 HD
ENDBRANCH   3   5
ENDBRANCH   2   3
BRANCH   2   7
HETATM    7  C8  UNL     1       2.433  -0.489   0.193  1.00  0.00     0.170 C 
HETATM    8  N10 UNL     1       3.570   0.116   0.210  1.00  0.00    -0.170 N 
HETATM    9  C9  UNL     1       4.885  -0.356   0.509  1.00  0.00     0.700 C 
ATOM     10  H10 UNL     1       3.523   1.106  -0.033  1.00  0.00     0.186 HD
HETATM   11  N13 UNL     1       5.207  -1.599   0.637  1.00  0.00    -0.129 N 
HETATM   12  N14 UNL     1       4.469  -2.789   0.538  1.00  0.00    -0.253 N 
ATOM     13  H13 UNL     1       6.193  -1.746   0.853  1.00  0.00     0.205 HD
HETATM   14  C13 UNL     1       3.183  -2.889   0.473  1.00  0.00     0.253 C 
ATOM     15  H14 UNL     1       5.000  -3.660   0.515  1.00  0.00     0.190 HD
HETATM   16  N15 UNL     1       2.679  -4.207   0.379  1.00  0.00    -0.054 NA
HETATM   17  O3  UNL     1       2.245  -1.833   0.487  1.00  0.00    -0.265 OA
BRANCH   9  18
HETATM   18  N11 UNL     1       5.916   0.603   0.680  1.00  0.00    -0.169 N 
ATOM     19  H11 UNL     1       5.991   1.151   1.537  1.00  0.00     0.186 HD
BRANCH  18  20
HETATM   20  C10 UNL     1       6.772   0.760  -0.308  1.00  0.00     0.163 A 
HETATM   21  N12 UNL     1       6.807   0.125  -1.482  1.00  0.00    -0.346 N 
HETATM   22  C11 UNL     1       7.746   0.431  -2.329  1.00  0.00     0.097 A 
ATOM     23  H12 UNL     1       6.112  -0.586  -1.710  1.00  0.00     0.167 HD
HETATM   24  C12 UNL     1       8.651   1.393  -1.968  1.00  0.00     0.070 A 
HETATM   25  S1  UNL     1       8.107   1.820  -0.408  1.00  0.00    -0.064 SA
ENDBRANCH  18  20
ENDBRANCH   9  18
ENDBRANCH   2   7
ENDBRANCH   1   2
BRANCH   1  26
HETATM   26  N2  UNL     1       0.620  -0.425   2.095  1.00  0.00    -0.387 N 
ATOM     27  H22 UNL     1       1.578  -0.763   2.182  1.00  0.00     0.157 HD
ATOM     28  H21 UNL     1      -0.035  -0.511   2.872  1.00  0.00     0.157 HD
ENDBRANCH   1  26
BRANCH   1  29
HETATM   29  N3  UNL     1      -1.094   0.584   0.867  1.00  0.00    -0.326 N 
ATOM     30  H3  UNL     1      -1.286   1.576   0.726  1.00  0.00     0.169 HD
BRANCH  29  31
HETATM   31  C4  UNL     1      -2.070  -0.282   0.941  1.00  0.00     0.177 A 
HETATM   32  N4  UNL     1      -2.005  -1.607   1.120  1.00  0.00    -0.262 N 
HETATM   33  N5  UNL     1      -3.243  -2.060   1.126  1.00  0.00    -0.198 N 
ATOM     34  H4  UNL     1      -1.157  -2.162   1.231  1.00  0.00     0.190 HD
HETATM   35  O2  UNL     1      -4.086  -1.059   0.955  1.00  0.00    -0.201 OA
ATOM     36  H5  UNL     1      -3.509  -3.037   1.245  1.00  0.00     0.216 HD
HETATM   37  C5  UNL     1      -3.400   0.061   0.836  1.00  0.00     0.215 A 
BRANCH  37  38
HETATM   38  N6  UNL     1      -3.878   1.256   0.656  1.00  0.00    -0.350 N 
ATOM     39  H6  UNL     1      -3.243   2.051   0.579  1.00  0.00     0.163 HD
BRANCH  38  40
HETATM   40  C6  UNL     1      -5.326   1.467   0.563  1.00  0.00     0.244 C 
BRANCH  40  41
HETATM   41  N7  UNL     1      -5.871   0.422  -0.247  1.00  0.00    -0.359 N 
HETATM   42  C7  UNL     1      -7.283   0.467  -0.451  1.00  0.00     0.477 C 
HETATM   43  N8  UNL     1      -7.674  -0.668  -1.275  1.00  0.00    -0.033 N 
HETATM   44  N9  UNL     1      -7.788   1.660  -1.054  1.00  0.00    -0.033 N 
ATOM     45  H83 UNL     1      -7.155  -0.710  -2.152  1.00  0.00     0.278 HD
ATOM     46  H82 UNL     1      -7.365  -1.558  -0.884  1.00  0.00     0.278 HD
ATOM     47  H81 UNL     1      -8.683  -0.636  -1.421  1.00  0.00     0.278 HD
ATOM     48  H93 UNL     1      -7.489   2.474  -0.517  1.00  0.00     0.278 HD
ATOM     49  H92 UNL     1      -7.304   1.835  -1.935  1.00  0.00     0.278 HD
ATOM     50  H91 UNL     1      -8.797   1.692  -1.200  1.00  0.00     0.278 HD
ATOM     51  H7  UNL     1      -5.288  -0.309  -0.653  1.00  0.00     0.158 HD
ENDBRANCH  40  41
ENDBRANCH  38  40
ENDBRANCH  37  38
ENDBRANCH  29  31
ENDBRANCH   1  29
TORSDOF 12
