REMARK  12 active torsions:
REMARK  status: ('A' for Active; 'I' for Inactive)
REMARK    1  A    between atoms: C2_2  and  O2_4 
REMARK    2  A    between atoms: O2_4  and  C3_5 
REMARK    3  A    between atoms: C3_5  and  C4_6 
REMARK    4  A    between atoms: C4_6  and  O3_7 
REMARK    5  A    between atoms: C4_6  and  O4_9 
REMARK    6  A    between atoms: O4_9  and  C5_10 
REMARK    7  A    between atoms: C5_10  and  C6_12 
REMARK    8  A    between atoms: C6_12  and  N1_13 
REMARK    9  A    between atoms: N1_13  and  C8_15 
REMARK   10  A    between atoms: C11_21  and  N4_22 
REMARK   11  A    between atoms: C12_25  and  O6_26 
REMARK       I    between atoms: N7_35  and  C15_37 
REMARK       I    between atoms: C15_37  and  N8_38 
REMARK       I    between atoms: C15_37  and  N9_42 
REMARK   12  A    between atoms: C16_46  and  N10_47 
ROOT
HETATM    1  C6  UNL     1      -0.892   0.113   0.103  1.00  0.00     0.199 C 
HETATM    2  C12 UNL     1      -2.233   0.025  -0.598  1.00  0.00     0.260 C 
HETATM    3  N5  UNL     1      -3.328  -0.325   0.276  1.00  0.00    -0.346 N 
ATOM      4  H5  UNL     1      -4.153   0.260   0.410  1.00  0.00     0.163 HD
HETATM    5  C13 UNL     1      -3.130  -1.598   0.943  1.00  0.00     0.121 C 
HETATM    6  N6  UNL     1      -4.008  -2.108   1.671  1.00  0.00    -0.384 N 
ATOM      7  H61 UNL     1      -3.869  -3.003   2.140  1.00  0.00     0.157 HD
ATOM      8  H62 UNL     1      -4.930  -1.716   1.865  1.00  0.00     0.157 HD
HETATM    9  C14 UNL     1      -1.798  -2.164   0.663  1.00  0.00     0.085 C 
HETATM   10  N7  UNL     1      -1.650  -3.359   0.354  1.00  0.00    -0.340 N 
ATOM     11  H7  UNL     1      -0.659  -3.547   0.206  1.00  0.00     0.163 HD
HETATM   12  C15 UNL     1      -2.369  -4.518   0.143  1.00  0.00     0.480 C 
HETATM   13  N8  UNL     1      -3.710  -4.372  -0.423  1.00  0.00    -0.033 N 
ATOM     14  H81 UNL     1      -4.241  -5.229  -0.579  1.00  0.00     0.278 HD
ATOM     15  H82 UNL     1      -3.657  -3.841  -1.292  1.00  0.00     0.278 HD
ATOM     16  H83 UNL     1      -4.256  -3.733   0.155  1.00  0.00     0.278 HD
HETATM   17  N9  UNL     1      -2.512  -5.338   1.356  1.00  0.00    -0.033 N 
ATOM     18  H91 UNL     1      -3.043  -6.195   1.200  1.00  0.00     0.278 HD
ATOM     19  H92 UNL     1      -2.916  -4.793   2.117  1.00  0.00     0.278 HD
ATOM     20  H93 UNL     1      -1.600  -5.545   1.764  1.00  0.00     0.278 HD
HETATM   21  C16 UNL     1      -0.599  -1.230   0.755  1.00  0.00     0.279 C 
ENDROOT
BRANCH   1  22
HETATM   22  C5  UNL     1       0.123   0.259  -0.958  1.00  0.00     0.297 C 
HETATM   23  O5  UNL     1       0.080  -0.464  -2.018  1.00  0.00    -0.262 OA
BRANCH  22  24
HETATM   24  O4  UNL     1       1.174   1.141  -0.923  1.00  0.00    -0.285 OA
BRANCH  24  25
HETATM   25  C4  UNL     1       2.135   1.261  -1.947  1.00  0.00     0.290 C 
BRANCH  25  26
HETATM   26  C3  UNL     1       3.545   1.130  -1.421  1.00  0.00     0.239 C 
BRANCH  26  27
HETATM   27  O2  UNL     1       3.705  -0.169  -0.852  1.00  0.00    -0.317 OA
BRANCH  27  28
HETATM   28  C2  UNL     1       4.898  -0.575  -0.291  1.00  0.00     0.254 C 
HETATM   29  C1  UNL     1       5.076  -1.921   0.302  1.00  0.00     0.126 C 
HETATM   30  O1  UNL     1       5.849   0.244  -0.295  1.00  0.00    -0.266 OA
ENDBRANCH  27  28
ENDBRANCH  26  27
ENDBRANCH  25  26
BRANCH  25  31
HETATM   31  O3  UNL     1       2.021   2.557  -2.498  1.00  0.00    -0.369 OA
ATOM     32  H3  UNL     1       1.134   2.639  -2.829  1.00  0.00     0.212 HD
ENDBRANCH  25  31
ENDBRANCH  24  25
ENDBRANCH  22  24
ENDBRANCH   1  22
BRANCH   1  33
HETATM   33  N1  UNL     1      -0.801   1.188   1.054  1.00  0.00    -0.357 N 
HETATM   34  C7  UNL     1      -1.604   1.130   2.307  1.00  0.00     0.151 C 
BRANCH  33  35
HETATM   35  C8  UNL     1      -0.045   2.380   0.970  1.00  0.00     0.093 A 
HETATM   36  C9  UNL     1       1.126   2.676   1.695  1.00  0.00     0.140 A 
HETATM   37  N2  UNL     1       1.556   3.894   1.351  1.00  0.00    -0.306 N 
HETATM   38  N3  UNL     1       0.742   4.404   0.455  1.00  0.00    -0.280 N 
ATOM     39  H2  UNL     1       2.385   4.355   1.725  1.00  0.00     0.186 HD
HETATM   40  C10 UNL     1       0.817   5.703  -0.201  1.00  0.00     0.179 C 
HETATM   41  C11 UNL     1      -0.250   3.502   0.199  1.00  0.00     0.144 A 
BRANCH  41  42
HETATM   42  N4  UNL     1      -1.181   3.745  -0.620  1.00  0.00    -0.382 N 
ATOM     43  H42 UNL     1      -1.922   3.071  -0.811  1.00  0.00     0.157 HD
ATOM     44  H41 UNL     1      -1.333   4.576  -1.191  1.00  0.00     0.157 HD
ENDBRANCH  41  42
ENDBRANCH  33  35
ENDBRANCH   1  33
BRANCH   2  45
HETATM   45  O6  UNL     1      -2.137  -1.047  -1.501  1.00  0.00    -0.374 OA
ATOM     46  H6  UNL     1      -2.977  -1.102  -1.940  1.00  0.00     0.212 HD
ENDBRANCH   2  45
BRANCH  21  47
HETATM   47  N10 UNL     1       0.491  -1.927   0.105  1.00  0.00    -0.066 N 
ATOM     48 3H10 UNL     1       0.318  -2.032  -0.895  1.00  0.00     0.275 HD
ATOM     49 2H10 UNL     1       1.328  -1.346   0.064  1.00  0.00     0.275 HD
ATOM     50 1H10 UNL     1       0.687  -2.827   0.542  1.00  0.00     0.275 HD
ENDBRANCH  21  47
TORSDOF 12
