REMARK  14 active torsions:
REMARK  status: ('A' for Active; 'I' for Inactive)
REMARK    1  A    between atoms: C2_2  and  O1_3 
REMARK    2  A    between atoms: C2_2  and  C3_5 
REMARK    3  A    between atoms: C4_7  and  N1_8 
REMARK    4  A    between atoms: N1_8  and  C5_10 
REMARK    5  A    between atoms: C5_10  and  O2_11 
REMARK    6  A    between atoms: C5_10  and  C6_13 
REMARK    7  A    between atoms: C9_21  and  N4_22 
REMARK       I    between atoms: N4_22  and  C10_23 
REMARK       I    between atoms: C10_23  and  N5_24 
REMARK       I    between atoms: C10_23  and  N6_28 
REMARK    8  A    between atoms: C11_32  and  C12_33 
REMARK    9  A    between atoms: C12_33  and  O3_34 
REMARK   10  A    between atoms: C12_33  and  O4_36 
REMARK   11  A    between atoms: C13_44  and  C14_45 
REMARK   12  A    between atoms: C14_45  and  N10_46 
REMARK   13  A    between atoms: C14_45  and  C15_50 
REMARK   14  A    between atoms: C15_50  and  O5_51 
ROOT
HETATM    1  C6  UNL     1      -1.499   0.230   0.130  1.00  0.00     0.099 C 
HETATM    2  C7  UNL     1      -1.776  -1.011   0.690  1.00  0.00     0.123 C 
HETATM    3  N2  UNL     1      -2.724  -1.884   0.296  1.00  0.00    -0.348 N 
ATOM      4  H2  UNL     1      -2.471  -2.871   0.260  1.00  0.00     0.167 HD
HETATM    5  C8  UNL     1      -3.956  -1.557  -0.047  1.00  0.00     0.142 C 
HETATM    6  N3  UNL     1      -4.805  -2.485  -0.100  1.00  0.00    -0.383 N 
ATOM      7  H31 UNL     1      -5.757  -2.232  -0.365  1.00  0.00     0.157 HD
ATOM      8  H32 UNL     1      -4.396  -3.396   0.107  1.00  0.00     0.157 HD
HETATM    9  C9  UNL     1      -4.532  -0.275  -0.339  1.00  0.00     0.175 C 
HETATM   10  C11 UNL     1      -3.731   0.865  -0.419  1.00  0.00     0.109 C 
HETATM   11  N7  UNL     1      -2.390   0.949  -0.538  1.00  0.00    -0.348 N 
ATOM     12  H7  UNL     1      -2.027   1.630  -1.205  1.00  0.00     0.166 HD
ENDROOT
BRANCH   1  13
HETATM   13  C5  UNL     1      -0.198   0.686   0.421  1.00  0.00     0.170 C 
BRANCH  13  14
HETATM   14  N1  UNL     1       0.598   1.882   0.056  1.00  0.00    -0.314 N 
ATOM     15  H1  UNL     1       0.297   2.855   0.121  1.00  0.00     0.170 HD
BRANCH  14  16
HETATM   16  C4  UNL     1       1.835   1.424  -0.392  1.00  0.00     0.166 A 
HETATM   17  S1  UNL     1       2.291  -0.142  -0.560  1.00  0.00    -0.048 SA
HETATM   18  C3  UNL     1       3.971  -0.450  -0.384  1.00  0.00     0.063 A 
HETATM   19  C13 UNL     1       4.689   0.698  -0.141  1.00  0.00     0.078 A 
HETATM   20  N9  UNL     1       4.065   1.904  -0.063  1.00  0.00    -0.299 N 
HETATM   21  N8  UNL     1       2.863   2.268  -0.138  1.00  0.00    -0.279 N 
ATOM     22  H9  UNL     1       4.710   2.680   0.089  1.00  0.00     0.186 HD
ATOM     23  H8  UNL     1       2.651   3.256   0.001  1.00  0.00     0.189 HD
BRANCH  18  24
HETATM   24  C2  UNL     1       4.438  -1.823  -0.339  1.00  0.00     0.058 C 
HETATM   25  C1  UNL     1       3.993  -2.744  -1.505  1.00  0.00     0.077 C 
BRANCH  24  26
HETATM   26  O1  UNL     1       5.526  -2.196   0.375  1.00  0.00    -0.364 OA
ATOM     27  H1  UNL     1       5.799  -1.632   1.089  1.00  0.00     0.217 HD
ENDBRANCH  24  26
ENDBRANCH  18  24
BRANCH  19  28
HETATM   28  C14 UNL     1       6.137   0.529   0.122  1.00  0.00     0.259 C 
BRANCH  28  29
HETATM   29  N10 UNL     1       6.866  -0.069  -0.932  1.00  0.00    -0.068 N 
ATOM     30 3H10 UNL     1       6.447  -0.963  -1.189  1.00  0.00     0.275 HD
ATOM     31 2H10 UNL     1       6.723   0.449  -1.799  1.00  0.00     0.275 HD
ATOM     32 1H10 UNL     1       7.863  -0.185  -0.751  1.00  0.00     0.275 HD
ENDBRANCH  28  29
BRANCH  28  33
HETATM   33  C15 UNL     1       6.751   1.919   0.274  1.00  0.00     0.203 C 
BRANCH  33  34
HETATM   34  O5  UNL     1       8.142   1.805   0.568  1.00  0.00    -0.398 OA
ATOM     35  H5  UNL     1       8.524   2.670   0.663  1.00  0.00     0.209 HD
ENDBRANCH  33  34
ENDBRANCH  28  33
ENDBRANCH  19  28
ENDBRANCH  14  16
ENDBRANCH  13  14
BRANCH  13  36
HETATM   36  O2  UNL     1       0.524  -0.154   1.198  1.00  0.00    -0.344 OA
ATOM     37  H2  UNL     1       0.014  -0.921   1.432  1.00  0.00     0.219 HD
ENDBRANCH  13  36
ENDBRANCH   1  13
BRANCH  10  38
HETATM   38  C12 UNL     1      -4.488   2.126  -0.425  1.00  0.00     0.308 C 
BRANCH  38  39
HETATM   39  O3  UNL     1      -3.963   2.925  -1.489  1.00  0.00    -0.366 OA
ATOM     40  H3  UNL     1      -4.452   3.739  -1.493  1.00  0.00     0.213 HD
ENDBRANCH  38  39
BRANCH  38  41
HETATM   41  O4  UNL     1      -4.168   2.849   0.782  1.00  0.00    -0.366 OA
ATOM     42  H4  UNL     1      -4.657   3.663   0.778  1.00  0.00     0.213 HD
ENDBRANCH  38  41
ENDBRANCH  10  38
BRANCH   9  43
HETATM   43  N4  UNL     1      -5.701  -0.278  -0.478  1.00  0.00    -0.384 NA
HETATM   44  C10 UNL     1      -7.044  -0.252  -0.644  1.00  0.00     0.555 C 
HETATM   45  N5  UNL     1      -7.645   0.389   0.585  1.00  0.00    -0.021 N 
HETATM   46  N6  UNL     1      -7.754  -1.549  -0.617  1.00  0.00    -0.021 N 
ATOM     47  H53 UNL     1      -7.361  -0.070   1.451  1.00  0.00     0.280 HD
ATOM     48  H52 UNL     1      -7.252   1.309   0.785  1.00  0.00     0.280 HD
ATOM     49  H51 UNL     1      -8.657   0.409   0.460  1.00  0.00     0.280 HD
ATOM     50  H63 UNL     1      -7.339  -2.177  -1.306  1.00  0.00     0.280 HD
ATOM     51  H62 UNL     1      -7.529  -2.041   0.248  1.00  0.00     0.280 HD
ATOM     52  H61 UNL     1      -8.766  -1.529  -0.742  1.00  0.00     0.280 HD
ENDBRANCH   9  43
TORSDOF 14
