REMARK  11 active torsions:
REMARK  status: ('A' for Active; 'I' for Inactive)
REMARK    1  A    between atoms: N1_2  and  C2_4 
REMARK    2  A    between atoms: N2_5  and  C3_6 
REMARK    3  A    between atoms: C3_6  and  C4_7 
REMARK    4  A    between atoms: C4_7  and  N3_8 
REMARK    5  A    between atoms: C6_14  and  C7_15 
REMARK    6  A    between atoms: C7_15  and  C8_20 
REMARK    7  A    between atoms: N5_16  and  O1_18 
REMARK    8  A    between atoms: C9_23  and  C10_24 
REMARK    9  A    between atoms: C12_29  and  N9_30 
REMARK   10  A    between atoms: N13_43  and  C15_44 
REMARK   11  A    between atoms: C15_44  and  O4_45 
ROOT
HETATM    1  C7  UNL     1       0.230  -0.620  -0.003  1.00  0.00     0.118 C 
HETATM    2  N5  UNL     1       0.424  -1.417   1.056  1.00  0.00    -0.264 N 
ATOM      3  H5  UNL     1      -0.345  -1.609   1.699  1.00  0.00     0.194 HD
ENDROOT
BRANCH   1   4
HETATM    4  C6  UNL     1      -1.099  -0.094  -0.134  1.00  0.00     0.107 A 
HETATM    5  C5  UNL     1      -2.079  -0.497   0.781  1.00  0.00     0.152 A 
HETATM    6  N2  UNL     1      -3.325   0.025   0.819  1.00  0.00    -0.167 N 
HETATM    7  N4  UNL     1      -1.773  -1.471   1.746  1.00  0.00    -0.081 NA
HETATM    8  C2  UNL     1      -3.677   0.984  -0.047  1.00  0.00     0.691 A 
HETATM    9  N13 UNL     1      -2.710   1.387  -0.956  1.00  0.00    -0.124 N 
HETATM   10  C14 UNL     1      -1.478   0.877  -1.003  1.00  0.00     0.279 A 
HETATM   11  O3  UNL     1      -0.709   1.365  -1.893  1.00  0.00    -0.266 OA
BRANCH   6  12
HETATM   12  C3  UNL     1      -4.270  -0.468   1.801  1.00  0.00     0.176 C 
BRANCH  12  13
HETATM   13  C4  UNL     1      -5.152  -1.585   1.306  1.00  0.00     0.250 C 
BRANCH  13  14
HETATM   14  N3  UNL     1      -4.456  -2.772   0.880  1.00  0.00    -0.078 N 
ATOM     15  H33 UNL     1      -3.759  -2.536   0.174  1.00  0.00     0.274 HD
ATOM     16  H32 UNL     1      -3.848  -3.109   1.626  1.00  0.00     0.274 HD
ATOM     17  H31 UNL     1      -5.053  -3.528   0.545  1.00  0.00     0.274 HD
ENDBRANCH  13  14
ENDBRANCH  12  13
ENDBRANCH   6  12
BRANCH   8  18
HETATM   18  N1  UNL     1      -4.747   1.589  -0.086  1.00  0.00    -0.211 N 
HETATM   19  C1  UNL     1      -5.966   1.796   0.412  1.00  0.00     0.137 C 
ATOM     20  H1  UNL     1      -4.661   2.238  -0.868  1.00  0.00     0.182 HD
ENDBRANCH   8  18
BRANCH   9  21
HETATM   21  C15 UNL     1      -3.075   2.435  -1.918  1.00  0.00     0.317 C 
BRANCH  21  22
HETATM   22  O4  UNL     1      -2.795   3.694  -1.414  1.00  0.00    -0.381 OA
ATOM     23  H4  UNL     1      -3.031   4.372  -2.036  1.00  0.00     0.211 HD
ENDBRANCH  21  22
ENDBRANCH   9  21
ENDBRANCH   1   4
BRANCH   1  24
HETATM   24  C8  UNL     1       1.416  -0.410  -0.806  1.00  0.00     0.151 A 
HETATM   25  N6  UNL     1       2.699  -0.498  -0.286  1.00  0.00    -0.324 N 
HETATM   26  C9  UNL     1       3.614  -0.379  -1.228  1.00  0.00     0.141 A 
ATOM     27  H6  UNL     1       2.909  -0.637   0.702  1.00  0.00     0.169 HD
HETATM   28  N11 UNL     1       2.965  -0.214  -2.379  1.00  0.00    -0.283 N 
HETATM   29  N12 UNL     1       1.648  -0.237  -2.106  1.00  0.00    -0.282 N 
ATOM     30  H11 UNL     1       3.389  -0.092  -3.299  1.00  0.00     0.188 HD
ATOM     31  H12 UNL     1       0.916  -0.134  -2.809  1.00  0.00     0.188 HD
BRANCH  26  32
HETATM   32  C10 UNL     1       5.091  -0.418  -1.060  1.00  0.00     0.119 A 
HETATM   33  C11 UNL     1       5.745   0.757  -0.824  1.00  0.00     0.151 A 
HETATM   34  N7  UNL     1       5.036   1.987  -0.741  1.00  0.00    -0.081 NA
HETATM   35  N8  UNL     1       7.087   0.699  -0.674  1.00  0.00    -0.178 N 
HETATM   36  C12 UNL     1       7.785  -0.446  -0.747  1.00  0.00     0.680 A 
ATOM     37  H8  UNL     1       7.594   1.566  -0.497  1.00  0.00     0.185 HD
HETATM   38  N10 UNL     1       7.102  -1.576  -0.980  1.00  0.00    -0.155 N 
HETATM   39  C13 UNL     1       5.772  -1.631  -1.144  1.00  0.00     0.277 A 
ATOM     40  H10 UNL     1       7.627  -2.449  -1.036  1.00  0.00     0.187 HD
HETATM   41  O2  UNL     1       5.146  -2.694  -1.361  1.00  0.00    -0.267 OA
BRANCH  36  42
HETATM   42  N9  UNL     1       9.087  -0.454  -0.596  1.00  0.00    -0.234 N 
ATOM     43  H92 UNL     1       9.607   0.406  -0.419  1.00  0.00     0.174 HD
ATOM     44  H91 UNL     1       9.617  -1.324  -0.651  1.00  0.00     0.174 HD
ENDBRANCH  36  42
ENDBRANCH  26  32
ENDBRANCH   1  24
BRANCH   2  45
HETATM   45  O1  UNL     1       1.631  -1.963   1.270  1.00  0.00    -0.289 OA
ATOM     46  H1  UNL     1       1.769  -2.528   2.021  1.00  0.00     0.244 HD
ENDBRANCH   2  45
TORSDOF 11
