REMARK  11 active torsions:
REMARK  status: ('A' for Active; 'I' for Inactive)
REMARK    1  A    between atoms: C3_8  and  N4_9 
REMARK       I    between atoms: N4_9  and  C4_11 
REMARK       I    between atoms: C4_11  and  N5_13 
REMARK    2  A    between atoms: N5_13  and  N6_14 
REMARK    3  A    between atoms: N5_13  and  N7_17 
REMARK    4  A    between atoms: N8_19  and  C5_21 
REMARK    5  A    between atoms: C6_24  and  N10_25 
REMARK       I    between atoms: N10_25  and  C7_27 
REMARK    6  A    between atoms: C7_27  and  C8_29 
REMARK    7  A    between atoms: C8_29  and  O3_30 
REMARK    8  A    between atoms: C8_29  and  C9_32 
REMARK    9  A    between atoms: C9_32  and  O4_33 
REMARK   10  A    between atoms: C9_32  and  O5_35 
REMARK   11  A    between atoms: C11_41  and  N12_42 
ROOT
HETATM    1  C5  UNL     1      -0.484  -0.371   0.804  1.00  0.00     0.175 A 
HETATM    2  N9  UNL     1      -1.561   0.415   0.614  1.00  0.00    -0.172 N 
ATOM      3  H9  UNL     1      -1.468   1.247   0.031  1.00  0.00     0.186 HD
HETATM    4  C6  UNL     1      -2.753   0.140   1.166  1.00  0.00     0.689 A 
HETATM    5  N11 UNL     1      -2.840  -0.967   1.932  1.00  0.00    -0.154 N 
ATOM      6  H11 UNL     1      -3.737  -1.193   2.361  1.00  0.00     0.187 HD
HETATM    7  C10 UNL     1      -1.797  -1.787   2.156  1.00  0.00     0.296 A 
HETATM    8  O6  UNL     1      -1.887  -2.825   2.877  1.00  0.00    -0.265 OA
HETATM    9  C11 UNL     1      -0.560  -1.505   1.584  1.00  0.00     0.216 A 
ENDROOT
BRANCH   1  10
HETATM   10  N8  UNL     1       0.781  -0.073   0.206  1.00  0.00    -0.267 N 
HETATM   11  N7  UNL     1       1.346  -0.892  -0.580  1.00  0.00    -0.216 N 
ATOM     12  H7  UNL     1       0.860  -1.769  -0.765  1.00  0.00     0.210 HD
ATOM     13  H8  UNL     1       1.237   0.815   0.416  1.00  0.00     0.190 HD
BRANCH  11  14
HETATM   14  N5  UNL     1       2.563  -0.701  -1.208  1.00  0.00    -0.134 N 
HETATM   15  C4  UNL     1       3.568   0.213  -0.735  1.00  0.00     0.362 C 
HETATM   16  N4  UNL     1       4.773   0.334  -1.456  1.00  0.00    -0.302 N 
HETATM   17  O1  UNL     1       3.369   0.882   0.292  1.00  0.00    -0.243 OA
ATOM     18  H4  UNL     1       4.874  -0.243  -2.291  1.00  0.00     0.171 HD
BRANCH  16  19
HETATM   19  C3  UNL     1       5.852   1.181  -1.127  1.00  0.00     0.096 A 
HETATM   20  C1  UNL     1       7.043   1.282  -1.870  1.00  0.00     0.159 A 
HETATM   21  N1  UNL     1       7.377   0.574  -3.056  1.00  0.00    -0.079 NA
HETATM   22  N2  UNL     1       7.789   2.176  -1.234  1.00  0.00    -0.286 N 
HETATM   23  N3  UNL     1       7.161   2.635  -0.161  1.00  0.00    -0.308 N 
ATOM     24  H2  UNL     1       8.720   2.470  -1.531  1.00  0.00     0.188 HD
HETATM   25  C2  UNL     1       5.949   2.037  -0.062  1.00  0.00     0.140 A 
ATOM     26  H3  UNL     1       7.532   3.329   0.488  1.00  0.00     0.186 HD
ENDBRANCH  16  19
BRANCH  14  27
HETATM   27  N6  UNL     1       2.794  -1.463  -2.375  1.00  0.00    -0.319 N 
ATOM     28  H62 UNL     1       3.692  -1.322  -2.838  1.00  0.00     0.179 HD
ATOM     29  H61 UNL     1       2.081  -2.111  -2.710  1.00  0.00     0.179 HD
ENDBRANCH  14  27
ENDBRANCH  11  14
ENDBRANCH   1  10
BRANCH   9  30
HETATM   30  N12 UNL     1       0.572  -2.323   1.778  1.00  0.00    -0.106 N 
HETATM   31  O7  UNL     1       1.480  -1.920   2.520  1.00  0.00    -0.531 OA
HETATM   32  O8  UNL     1       0.719  -3.548   1.184  1.00  0.00    -0.531 OA
ENDBRANCH   9  30
BRANCH   4  33
HETATM   33  N10 UNL     1      -3.804   0.893   0.991  1.00  0.00    -0.157 N 
HETATM   34  C7  UNL     1      -5.048   0.573   1.590  1.00  0.00     0.269 C 
HETATM   35  O2  UNL     1      -5.242   0.898   2.783  1.00  0.00    -0.270 OA
ATOM     36  H10 UNL     1      -3.729   1.729   0.411  1.00  0.00     0.187 HD
BRANCH  34  37
HETATM   37  C8  UNL     1      -6.141  -0.131   0.876  1.00  0.00     0.265 C 
BRANCH  37  38
HETATM   38  O3  UNL     1      -7.236  -0.363   1.684  1.00  0.00    -0.381 OA
ATOM     39  H3  UNL     1      -7.936  -0.814   1.227  1.00  0.00     0.210 HD
ENDBRANCH  37  38
BRANCH  37  40
HETATM   40  C9  UNL     1      -6.672   0.696  -0.304  1.00  0.00     0.291 C 
BRANCH  40  41
HETATM   41  O4  UNL     1      -7.640  -0.103  -0.910  1.00  0.00    -0.368 OA
ATOM     42  H4  UNL     1      -7.968   0.409  -1.640  1.00  0.00     0.212 HD
ENDBRANCH  40  41
BRANCH  40  43
HETATM   43  O5  UNL     1      -7.337   1.808   0.243  1.00  0.00    -0.368 OA
ATOM     44  H5  UNL     1      -7.665   2.320  -0.487  1.00  0.00     0.212 HD
ENDBRANCH  40  43
ENDBRANCH  37  40
ENDBRANCH  34  37
ENDBRANCH   4  33
TORSDOF 11
