REMARK  12 active torsions:
REMARK  status: ('A' for Active; 'I' for Inactive)
REMARK    1  A    between atoms: N1_1  and  C1_4 
REMARK    2  A    between atoms: C2_7  and  S1_8 
REMARK    3  A    between atoms: S1_8  and  N3_9 
REMARK    4  A    between atoms: C5_16  and  C6_17 
REMARK    5  A    between atoms: C6_17  and  O1_18 
REMARK    6  A    between atoms: C6_17  and  C7_20 
REMARK    7  A    between atoms: C7_20  and  N5_21 
REMARK    8  A    between atoms: C7_20  and  C8_25 
REMARK    9  A    between atoms: C8_25  and  C9_27 
REMARK   10  A    between atoms: C10_30  and  N6_31 
REMARK   11  A    between atoms: C13_42  and  N9_43 
REMARK   12  A    between atoms: N9_43  and  N10_45 
ROOT
HETATM    1  C1  UNL     1       0.892   2.026   2.530  1.00  0.00     0.677 A 
HETATM    2  N2  UNL     1       2.118   2.164   2.035  1.00  0.00    -0.183 N 
ATOM      3  H2  UNL     1       2.785   2.797   2.476  1.00  0.00     0.185 HD
HETATM    4  C2  UNL     1       2.476   1.438   0.914  1.00  0.00     0.122 A 
HETATM    5  C3  UNL     1       1.602   0.595   0.318  1.00  0.00     0.069 A 
HETATM    6  C4  UNL     1       0.305   0.469   0.867  1.00  0.00     0.052 A 
HETATM    7  N4  UNL     1      -0.001   1.186   1.947  1.00  0.00    -0.194 N 
ATOM      8  H4  UNL     1      -0.935   1.101   2.348  1.00  0.00     0.184 HD
HETATM    9  C5  UNL     1      -0.697  -0.437   0.318  1.00  0.00     0.103 C 
HETATM   10  C10 UNL     1      -0.112  -1.864   0.391  1.00  0.00     0.254 C 
HETATM   11  C11 UNL     1       0.763  -2.205  -0.757  1.00  0.00     0.252 A 
HETATM   12  C12 UNL     1       1.152  -3.668  -0.815  1.00  0.00     0.299 A 
HETATM   13  N7  UNL     1       0.272  -3.104  -1.792  1.00  0.00    -0.041 N 
ATOM     14  H71 UNL     1       0.291  -3.071  -2.811  1.00  0.00     0.280 HD
ATOM     15  H72 UNL     1      -0.664  -3.352  -2.114  1.00  0.00     0.280 HD
HETATM   16  N8  UNL     1       1.726  -1.291  -1.171  1.00  0.00    -0.339 N 
ATOM     17  H8  UNL     1       2.235  -1.637  -1.984  1.00  0.00     0.163 HD
HETATM   18  C13 UNL     1       2.168  -0.094  -0.804  1.00  0.00     0.138 C 
ENDROOT
BRANCH   9  19
HETATM   19  C6  UNL     1      -2.041  -0.521   0.858  1.00  0.00     0.168 C 
BRANCH  19  20
HETATM   20  O1  UNL     1      -2.122  -0.927   2.204  1.00  0.00    -0.392 OA
ATOM     21  H1  UNL     1      -3.002  -0.982   2.558  1.00  0.00     0.210 HD
ENDBRANCH  19  20
BRANCH  19  22
HETATM   22  C7  UNL     1      -3.038   0.562   0.555  1.00  0.00     0.293 C 
BRANCH  22  23
HETATM   23  N5  UNL     1      -4.398   0.025   0.820  1.00  0.00    -0.065 N 
ATOM     24  H53 UNL     1      -4.587  -0.838   0.310  1.00  0.00     0.275 HD
ATOM     25  H52 UNL     1      -4.497  -0.349   1.764  1.00  0.00     0.275 HD
ATOM     26  H51 UNL     1      -5.075   0.760   0.614  1.00  0.00     0.275 HD
ENDBRANCH  22  23
BRANCH  22  27
HETATM   27  C8  UNL     1      -2.990   0.993  -0.850  1.00  0.00     0.257 C 
HETATM   28  O2  UNL     1      -1.997   1.676  -1.280  1.00  0.00    -0.283 OA
BRANCH  27  29
HETATM   29  C9  UNL     1      -4.013   0.695  -1.817  1.00  0.00     0.249 C 
HETATM   30  O3  UNL     1      -5.048   0.028  -1.527  1.00  0.00    -0.642 OA
HETATM   31  O4  UNL     1      -3.936   1.122  -3.150  1.00  0.00    -0.642 OA
ENDBRANCH  27  29
ENDBRANCH  22  27
ENDBRANCH  19  22
ENDBRANCH   9  19
BRANCH  10  32
HETATM   32  N6  UNL     1       0.588  -2.020   1.636  1.00  0.00    -0.070 N 
ATOM     33  H63 UNL     1       1.299  -1.301   1.775  1.00  0.00     0.274 HD
ATOM     34  H62 UNL     1       0.002  -1.799   2.441  1.00  0.00     0.274 HD
ATOM     35  H61 UNL     1       0.974  -2.963   1.684  1.00  0.00     0.274 HD
ENDBRANCH  10  32
BRANCH   4  36
HETATM   36  S1  UNL     1       4.139   1.642   0.392  1.00  0.00    -0.002 SA
BRANCH  36  37
HETATM   37  N3  UNL     1       4.408   3.110  -0.532  1.00  0.00    -0.369 N 
ATOM     38  H32 UNL     1       3.659   3.771  -0.737  1.00  0.00     0.164 HD
ATOM     39  H31 UNL     1       5.375   3.229  -0.835  1.00  0.00     0.164 HD
ENDBRANCH  36  37
ENDBRANCH   4  36
BRANCH  18  40
HETATM   40  N9  UNL     1       3.190   0.417  -1.613  1.00  0.00    -0.225 N 
ATOM     41  H9  UNL     1       4.180   0.289  -1.404  1.00  0.00     0.195 HD
BRANCH  40  42
HETATM   42  N10 UNL     1       2.735   1.118  -2.732  1.00  0.00    -0.037 N 
HETATM   43  O5  UNL     1       1.670   1.771  -2.760  1.00  0.00    -0.516 OA
HETATM   44  O6  UNL     1       3.441   1.149  -3.934  1.00  0.00    -0.516 OA
ENDBRANCH  40  42
ENDBRANCH  18  40
BRANCH   1  45
HETATM   45  N1  UNL     1       0.538   2.681   3.558  1.00  0.00    -0.234 N 
ATOM     46  H12 UNL     1       1.209   3.312   3.996  1.00  0.00     0.174 HD
ATOM     47  H11 UNL     1      -0.403   2.575   3.938  1.00  0.00     0.174 HD
ENDBRANCH   1  45
TORSDOF 12
