REMARK  11 active torsions:
REMARK  status: ('A' for Active; 'I' for Inactive)
REMARK    1  A    between atoms: C2_2  and  O1_3 
REMARK    2  A    between atoms: C2_2  and  C3_5 
REMARK    3  A    between atoms: C3_5  and  O2_6 
REMARK    4  A    between atoms: C3_5  and  C4_8 
REMARK    5  A    between atoms: C4_8  and  O3_9 
REMARK    6  A    between atoms: C4_8  and  O4_11 
REMARK    7  A    between atoms: O4_11  and  C5_12 
REMARK    8  A    between atoms: C5_12  and  N1_13 
REMARK    9  A    between atoms: C8_21  and  C9_22 
REMARK   10  A    between atoms: N7_34  and  N8_35 
REMARK   11  A    between atoms: C14_40  and  N10_41 
ROOT
HETATM    1  N1  UNL     1      -1.939   1.728  -0.361  1.00  0.00    -0.219 N 
HETATM    2  C6  UNL     1      -1.529   1.804   0.942  1.00  0.00     0.336 A 
HETATM    3  O5  UNL     1      -2.332   2.229   1.828  1.00  0.00    -0.246 OA
HETATM    4  N2  UNL     1      -0.295   1.434   1.273  1.00  0.00    -0.293 N 
ATOM      5  H2  UNL     1       0.004   1.493   2.246  1.00  0.00     0.172 HD
HETATM    6  C7  UNL     1       0.567   0.981   0.337  1.00  0.00     0.130 A 
HETATM    7  N3  UNL     1       1.818   0.600   0.641  1.00  0.00    -0.324 N 
ATOM      8  H3  UNL     1       2.106   0.662   1.618  1.00  0.00     0.169 HD
HETATM    9  C8  UNL     1       2.719   0.143  -0.245  1.00  0.00     0.155 A 
HETATM   10  N9  UNL     1       2.344   0.059  -1.533  1.00  0.00    -0.325 N 
ATOM     11  H9  UNL     1       3.004  -0.284  -2.231  1.00  0.00     0.169 HD
HETATM   12  C14 UNL     1       1.098   0.426  -1.912  1.00  0.00     0.120 A 
HETATM   13  C15 UNL     1       0.188   0.892  -0.993  1.00  0.00     0.120 A 
HETATM   14  C16 UNL     1      -1.100   1.284  -1.309  1.00  0.00     0.274 A 
HETATM   15  O7  UNL     1      -1.404   1.193  -2.527  1.00  0.00    -0.266 OA
ENDROOT
BRANCH   9  16
HETATM   16  C9  UNL     1       4.052  -0.242   0.211  1.00  0.00     0.176 A 
HETATM   17  N4  UNL     1       4.372  -0.137   1.511  1.00  0.00    -0.303 N 
HETATM   18  C10 UNL     1       5.601  -0.482   1.987  1.00  0.00     0.277 A 
ATOM     19  H4  UNL     1       3.671   0.213   2.164  1.00  0.00     0.171 HD
HETATM   20  O6  UNL     1       5.893  -0.380   3.206  1.00  0.00    -0.265 OA
HETATM   21  C11 UNL     1       6.561  -0.957   1.118  1.00  0.00     0.148 A 
HETATM   22  N5  UNL     1       7.834  -1.373   1.258  1.00  0.00    -0.345 N 
HETATM   23  C13 UNL     1       6.234  -1.064  -0.213  1.00  0.00     0.162 A 
HETATM   24  C12 UNL     1       8.329  -1.743   0.055  1.00  0.00     0.182 A 
ATOM     25  H5  UNL     1       8.348  -1.404   2.139  1.00  0.00     0.167 HD
HETATM   26  N6  UNL     1       7.332  -1.544  -0.824  1.00  0.00    -0.335 N 
ATOM     27  H6  UNL     1       7.399  -1.732  -1.824  1.00  0.00     0.168 HD
HETATM   28  N7  UNL     1       4.995  -0.705  -0.626  1.00  0.00    -0.224 N 
BRANCH  28  29
HETATM   29  N8  UNL     1       4.661  -0.813  -1.971  1.00  0.00    -0.335 N 
ATOM     30  H82 UNL     1       3.728  -0.543  -2.282  1.00  0.00     0.177 HD
ATOM     31  H81 UNL     1       5.377  -1.165  -2.607  1.00  0.00     0.177 HD
ENDBRANCH  28  29
ENDBRANCH   9  16
BRANCH  12  32
HETATM   32  N10 UNL     1       0.713   0.352  -3.159  1.00  0.00    -0.384 N 
ATOM     33 2H10 UNL     1       1.388   0.006  -3.841  1.00  0.00     0.157 HD
ATOM     34 1H10 UNL     1      -0.226   0.629  -3.445  1.00  0.00     0.157 HD
ENDBRANCH  12  32
BRANCH   1  35
HETATM   35  C5  UNL     1      -3.265   2.183  -0.626  1.00  0.00     0.245 C 
BRANCH  35  36
HETATM   36  O4  UNL     1      -4.236   1.304  -0.404  1.00  0.00    -0.312 OA
BRANCH  36  37
HETATM   37  C4  UNL     1      -4.406   0.123  -0.968  1.00  0.00     0.295 C 
BRANCH  37  38
HETATM   38  C3  UNL     1      -4.357  -0.985   0.079  1.00  0.00     0.201 C 
BRANCH  38  39
HETATM   39  C2  UNL     1      -5.489  -0.946   1.049  1.00  0.00     0.147 C 
HETATM   40  C1  UNL     1      -5.569   0.309   1.878  1.00  0.00     0.042 C 
BRANCH  39  41
HETATM   41  O1  UNL     1      -5.286  -2.016   1.953  1.00  0.00    -0.393 OA
ATOM     42  H1  UNL     1      -5.236  -2.808   1.430  1.00  0.00     0.210 HD
ENDBRANCH  39  41
ENDBRANCH  38  39
BRANCH  38  43
HETATM   43  O2  UNL     1      -4.324  -2.204  -0.607  1.00  0.00    -0.388 OA
ATOM     44  H2  UNL     1      -3.603  -2.229  -1.225  1.00  0.00     0.210 HD
ENDBRANCH  38  43
ENDBRANCH  37  38
BRANCH  37  45
HETATM   45  O3  UNL     1      -5.586  -0.005  -1.735  1.00  0.00    -0.368 OA
ATOM     46  H3  UNL     1      -5.617   0.685  -2.387  1.00  0.00     0.212 HD
ENDBRANCH  37  45
ENDBRANCH  36  37
ENDBRANCH  35  36
ENDBRANCH   1  35
TORSDOF 11
