REMARK  14 active torsions:
REMARK  status: ('A' for Active; 'I' for Inactive)
REMARK    1  A    between atoms: C2_2  and  O1_3 
REMARK    2  A    between atoms: C4_6  and  N1_7 
REMARK    3  A    between atoms: N1_7  and  N2_8 
REMARK    4  A    between atoms: C6_14  and  S1_15 
REMARK    5  A    between atoms: S1_15  and  C7_16 
REMARK    6  A    between atoms: C7_16  and  C8_17 
REMARK    7  A    between atoms: C8_17  and  O2_18 
REMARK    8  A    between atoms: C8_17  and  C9_20 
REMARK    9  A    between atoms: C9_20  and  O3_21 
REMARK   10  A    between atoms: C9_20  and  C10_23 
REMARK   11  A    between atoms: C10_23  and  O4_24 
REMARK   12  A    between atoms: C12_33  and  C13_34 
REMARK   13  A    between atoms: C13_34  and  O5_35 
REMARK   14  A    between atoms: C13_34  and  O6_37 
ROOT
HETATM    1  C1  UNL     1      -3.321   2.375  -0.461  1.00  0.00     0.052 C 
HETATM    2  C2  UNL     1      -2.459   1.204  -0.367  1.00  0.00     0.121 C 
HETATM    3  C3  UNL     1      -2.923   0.031  -1.237  1.00  0.00     0.118 C 
HETATM    4  C4  UNL     1      -1.860  -1.010  -1.314  1.00  0.00     0.179 C 
HETATM    5  C5  UNL     1      -0.844  -0.894  -0.221  1.00  0.00     0.127 A 
HETATM    6  N3  UNL     1       0.311  -1.545  -0.413  1.00  0.00    -0.324 N 
ATOM      7  H3  UNL     1       0.448  -2.095  -1.261  1.00  0.00     0.169 HD
HETATM    8  C6  UNL     1       1.293  -1.477   0.508  1.00  0.00     0.161 A 
HETATM    9  N4  UNL     1       1.070  -0.740   1.611  1.00  0.00    -0.170 N 
ATOM     10  H4  UNL     1       1.799  -0.674   2.322  1.00  0.00     0.186 HD
HETATM   11  C11 UNL     1      -0.109  -0.078   1.802  1.00  0.00     0.684 A 
HETATM   12  N5  UNL     1      -0.212   0.612   2.883  1.00  0.00    -0.234 N 
ATOM     13  H51 UNL     1      -1.093   1.106   3.026  1.00  0.00     0.174 HD
ATOM     14  H52 UNL     1       0.528   0.668   3.583  1.00  0.00     0.174 HD
HETATM   15  N6  UNL     1      -1.074  -0.151   0.889  1.00  0.00    -0.129 N 
HETATM   16  C12 UNL     1      -2.361   0.476   0.943  1.00  0.00     0.242 C 
HETATM   17  O7  UNL     1      -3.271  -0.622   0.854  1.00  0.00    -0.313 OA
HETATM   18  C14 UNL     1      -3.989  -0.489  -0.290  1.00  0.00     0.197 A 
HETATM   19  C15 UNL     1      -5.320  -0.214  -0.525  1.00  0.00     0.240 A 
HETATM   20  O8  UNL     1      -4.778  -1.568  -0.634  1.00  0.00    -0.347 OA
ENDROOT
BRANCH   8  21
HETATM   21  S1  UNL     1       2.797  -2.354   0.203  1.00  0.00    -0.091 SA
BRANCH  21  22
HETATM   22  C7  UNL     1       4.010  -1.375  -0.684  1.00  0.00     0.116 C 
BRANCH  22  23
HETATM   23  C8  UNL     1       4.508  -0.223   0.129  1.00  0.00     0.158 C 
BRANCH  23  24
HETATM   24  O2  UNL     1       3.496   0.656   0.500  1.00  0.00    -0.392 OA
ATOM     25  H2  UNL     1       3.812   1.388   1.017  1.00  0.00     0.210 HD
ENDBRANCH  23  24
BRANCH  23  26
HETATM   26  C9  UNL     1       5.587   0.562  -0.563  1.00  0.00     0.171 C 
BRANCH  26  27
HETATM   27  O3  UNL     1       6.645  -0.235  -0.976  1.00  0.00    -0.391 OA
ATOM     28  H3  UNL     1       7.327   0.261  -1.413  1.00  0.00     0.210 HD
ENDBRANCH  26  27
BRANCH  26  29
HETATM   29  C10 UNL     1       6.116   1.593   0.443  1.00  0.00     0.198 C 
BRANCH  29  30
HETATM   30  O4  UNL     1       6.664   0.920   1.533  1.00  0.00    -0.398 OA
ATOM     31  H4  UNL     1       6.991   1.558   2.156  1.00  0.00     0.209 HD
ENDBRANCH  29  30
ENDBRANCH  26  29
ENDBRANCH  23  26
ENDBRANCH  22  23
ENDBRANCH  21  22
ENDBRANCH   8  21
BRANCH   4  32
HETATM   32  N1  UNL     1      -2.382  -2.352  -1.281  1.00  0.00    -0.135 NA
BRANCH  32  33
HETATM   33  N2  UNL     1      -1.353  -3.309  -1.308  1.00  0.00    -0.348 N 
ATOM     34  H22 UNL     1      -0.363  -3.067  -1.346  1.00  0.00     0.172 HD
ATOM     35  H21 UNL     1      -1.723  -4.259  -1.285  1.00  0.00     0.172 HD
ENDBRANCH  32  33
ENDBRANCH   4  32
BRANCH  16  36
HETATM   36  C13 UNL     1      -2.791   1.186   2.137  1.00  0.00     0.314 C 
BRANCH  36  37
HETATM   37  O5  UNL     1      -4.121   1.644   1.905  1.00  0.00    -0.367 OA
ATOM     38  H5  UNL     1      -4.402   2.108   2.685  1.00  0.00     0.212 HD
ENDBRANCH  36  37
BRANCH  36  39
HETATM   39  O6  UNL     1      -3.039   0.244   3.178  1.00  0.00    -0.367 OA
ATOM     40  H6  UNL     1      -3.320   0.708   3.958  1.00  0.00     0.212 HD
ENDBRANCH  36  39
ENDBRANCH  16  36
BRANCH   2  41
HETATM   41  O1  UNL     1      -1.195   1.546  -0.884  1.00  0.00    -0.384 OA
ATOM     42  H1  UNL     1      -0.633   0.783  -0.823  1.00  0.00     0.210 HD
ENDBRANCH   2  41
TORSDOF 14
