REMARK  12 active torsions:
REMARK  status: ('A' for Active; 'I' for Inactive)
REMARK    1  A    between atoms: O1_2  and  C2_3 
REMARK    2  A    between atoms: C2_3  and  C3_4 
REMARK    3  A    between atoms: C2_3  and  C5_10 
REMARK    4  A    between atoms: C3_4  and  O2_5 
REMARK    5  A    between atoms: C3_4  and  C4_7 
REMARK    6  A    between atoms: C4_7  and  O3_8 
REMARK    7  A    between atoms: C5_10  and  O4_11 
REMARK    8  A    between atoms: C5_10  and  C6_13 
REMARK    9  A    between atoms: N3_18  and  C7_19 
REMARK   10  A    between atoms: C7_19  and  O5_20 
REMARK   11  A    between atoms: C13_35  and  N8_36 
REMARK   12  A    between atoms: C15_44  and  O7_45 
ROOT
HETATM    1  C7  UNL     1       1.321   1.079   0.256  1.00  0.00     0.195 C 
HETATM    2  C8  UNL     1       2.064   0.066  -0.150  1.00  0.00     0.118 A 
HETATM    3  N4  UNL     1       1.522  -1.103  -0.724  1.00  0.00    -0.347 N 
ATOM      4  H4  UNL     1       0.512  -1.196  -0.833  1.00  0.00     0.167 HD
HETATM    5  C9  UNL     1       2.392  -2.164  -1.156  1.00  0.00     0.182 A 
HETATM    6  N5  UNL     1       3.662  -2.062  -1.027  1.00  0.00    -0.336 N 
ATOM      7  H5  UNL     1       4.256  -2.828  -1.343  1.00  0.00     0.168 HD
HETATM    8  C10 UNL     1       4.263  -0.912  -0.457  1.00  0.00     0.164 A 
HETATM    9  C11 UNL     1       3.512   0.155  -0.015  1.00  0.00     0.125 A 
HETATM   10  N6  UNL     1       4.334   1.103   0.476  1.00  0.00    -0.184 N 
ATOM     11  H6  UNL     1       4.049   1.999   0.871  1.00  0.00     0.184 HD
HETATM   12  C12 UNL     1       5.596   0.657   0.352  1.00  0.00     0.709 A 
HETATM   13  N7  UNL     1       6.787   1.225   0.690  1.00  0.00    -0.022 N 
ATOM     14  H7  UNL     1       6.818   2.150   1.118  1.00  0.00     0.203 HD
HETATM   15  C13 UNL     1       7.921   0.545   0.449  1.00  0.00     0.694 A 
HETATM   16  N9  UNL     1       7.857  -0.686  -0.122  1.00  0.00    -0.140 N 
ATOM     17  H9  UNL     1       8.722  -1.197  -0.302  1.00  0.00     0.189 HD
HETATM   18  C14 UNL     1       6.682  -1.248  -0.456  1.00  0.00     0.361 A 
HETATM   19  O6  UNL     1       6.602  -2.383  -0.984  1.00  0.00    -0.245 OA
HETATM   20  N10 UNL     1       5.556  -0.560  -0.211  1.00  0.00    -0.077 N 
ENDROOT
BRANCH   1  21
HETATM   21  N3  UNL     1      -0.087   0.971   0.100  1.00  0.00    -0.193 N 
HETATM   22  N2  UNL     1      -0.644   1.065  -1.118  1.00  0.00    -0.232 N 
HETATM   23  N1  UNL     1      -1.945   0.923  -0.957  1.00  0.00    -0.283 N 
ATOM     24  H2  UNL     1      -0.154   1.217  -2.000  1.00  0.00     0.209 HD
HETATM   25  C6  UNL     1      -2.229   0.740   0.344  1.00  0.00     0.111 A 
ATOM     26  H1  UNL     1      -2.634   0.948  -1.709  1.00  0.00     0.188 HD
HETATM   27  C15 UNL     1      -1.029   0.771   1.037  1.00  0.00     0.192 A 
BRANCH  25  28
HETATM   28  C5  UNL     1      -3.581   0.564   0.968  1.00  0.00     0.205 C 
BRANCH  28  29
HETATM   29  C2  UNL     1      -4.633   0.230  -0.083  1.00  0.00     0.186 C 
BRANCH  29  30
HETATM   30  O1  UNL     1      -5.911   0.327   0.448  1.00  0.00    -0.385 OA
HETATM   31  C1  UNL     1      -6.674   1.356  -0.051  1.00  0.00     0.202 C 
ENDBRANCH  29  30
BRANCH  29  32
HETATM   32  C3  UNL     1      -4.381  -1.118  -0.705  1.00  0.00     0.173 C 
BRANCH  32  33
HETATM   33  O2  UNL     1      -4.501  -2.185   0.183  1.00  0.00    -0.391 OA
ATOM     34  H2  UNL     1      -4.342  -3.035  -0.209  1.00  0.00     0.210 HD
ENDBRANCH  32  33
BRANCH  32  35
HETATM   35  C4  UNL     1      -5.180  -1.313  -1.950  1.00  0.00     0.198 C 
BRANCH  35  36
HETATM   36  O3  UNL     1      -6.532  -1.491  -1.712  1.00  0.00    -0.398 OA
ATOM     37  H3  UNL     1      -7.041  -1.615  -2.505  1.00  0.00     0.209 HD
ENDBRANCH  35  36
ENDBRANCH  32  35
ENDBRANCH  29  32
ENDBRANCH  28  29
BRANCH  28  38
HETATM   38  O4  UNL     1      -3.943   1.874   1.407  1.00  0.00    -0.387 OA
ATOM     39  H4  UNL     1      -3.287   2.082   2.062  1.00  0.00     0.210 HD
ENDBRANCH  28  38
ENDBRANCH  25  28
BRANCH  27  40
HETATM   40  O7  UNL     1      -0.791   0.630   2.397  1.00  0.00    -0.343 OA
ATOM     41  H7  UNL     1       0.031   0.651   2.872  1.00  0.00     0.219 HD
ENDBRANCH  27  40
ENDBRANCH   1  21
BRANCH   1  42
HETATM   42  O5  UNL     1       1.899   2.214   0.818  1.00  0.00    -0.343 OA
ATOM     43  H5  UNL     1       2.840   2.286   0.922  1.00  0.00     0.219 HD
ENDBRANCH   1  42
BRANCH  15  44
HETATM   44  N8  UNL     1       9.085   1.016   0.742  1.00  0.00    -0.234 N 
ATOM     45  H82 UNL     1       9.133   1.940   1.171  1.00  0.00     0.174 HD
ATOM     46  H81 UNL     1       9.946   0.500   0.559  1.00  0.00     0.174 HD
ENDBRANCH  15  44
TORSDOF 12
