REMARK  15 active torsions:
REMARK  status: ('A' for Active; 'I' for Inactive)
REMARK    1  A    between atoms: C2_2  and  C3_3 
REMARK    2  A    between atoms: C3_3  and  O2_5 
REMARK    3  A    between atoms: O2_5  and  C4_6 
REMARK    4  A    between atoms: C5_7  and  N1_8 
REMARK       I    between atoms: N1_8  and  C6_10 
REMARK    5  A    between atoms: C9_14  and  O4_15 
REMARK    6  A    between atoms: C13_23  and  O6_24 
REMARK    7  A    between atoms: C13_23  and  C14_26 
REMARK    8  A    between atoms: C14_26  and  O7_27 
REMARK    9  A    between atoms: C14_26  and  C15_29 
REMARK   10  A    between atoms: C15_29  and  O8_30 
REMARK   11  A    between atoms: C16_32  and  O9_33 
REMARK   12  A    between atoms: C16_32  and  O10_35 
REMARK   13  A    between atoms: O10_35  and  N3_36 
REMARK   14  A    between atoms: N3_36  and  N4_37 
REMARK   15  A    between atoms: N3_36  and  N5_40 
ROOT
HETATM    1  C4  UNL     1       0.592   0.309   0.155  1.00  0.00     0.229 C 
HETATM    2  C5  UNL     1       1.021  -1.119  -0.065  1.00  0.00     0.158 C 
HETATM    3  C8  UNL     1       0.357  -1.801  -1.152  1.00  0.00     0.037 A 
HETATM    4  C9  UNL     1       1.166  -2.580  -1.924  1.00  0.00     0.092 A 
HETATM    5  C10 UNL     1       0.547  -3.268  -2.994  1.00  0.00     0.124 A 
HETATM    6  N2  UNL     1      -0.759  -3.172  -3.252  1.00  0.00    -0.370 N 
ATOM      7  H2  UNL     1      -1.150  -3.691  -4.039  1.00  0.00     0.164 HD
HETATM    8  C11 UNL     1      -1.565  -2.416  -2.508  1.00  0.00     0.125 A 
HETATM    9  C12 UNL     1      -1.001  -1.722  -1.446  1.00  0.00     0.099 A 
HETATM   10  O5  UNL     1      -1.938  -0.988  -0.769  1.00  0.00    -0.304 OA
HETATM   11  C13 UNL     1      -1.952   0.189  -0.038  1.00  0.00     0.258 C 
HETATM   12  C16 UNL     1      -0.736   0.578   0.696  1.00  0.00     0.274 C 
ENDROOT
BRANCH  12  13
HETATM   13  O9  UNL     1      -0.809   2.006   0.771  1.00  0.00    -0.358 OA
ATOM     14  H9  UNL     1      -1.674   2.181   1.123  1.00  0.00     0.213 HD
ENDBRANCH  12  13
BRANCH  12  15
HETATM   15  O10 UNL     1      -0.804   0.200   2.039  1.00  0.00    -0.217 OA
BRANCH  15  16
HETATM   16  N3  UNL     1       0.046   0.820   2.846  1.00  0.00    -0.012 NA
BRANCH  16  17
HETATM   17  N4  UNL     1       0.010   0.124   4.086  1.00  0.00    -0.322 NA
ATOM     18  H42 UNL     1       0.290  -0.829   3.853  1.00  0.00     0.175 HD
ATOM     19  H41 UNL     1       0.664   0.601   4.707  1.00  0.00     0.175 HD
ENDBRANCH  16  17
BRANCH  16  20
HETATM   20  N5  UNL     1      -0.338   2.126   3.165  1.00  0.00    -0.322 NA
ATOM     21  H52 UNL     1      -0.312   2.625   2.276  1.00  0.00     0.175 HD
ATOM     22  H51 UNL     1       0.316   2.603   3.786  1.00  0.00     0.175 HD
ENDBRANCH  16  20
ENDBRANCH  15  16
ENDBRANCH  12  15
BRANCH   1  23
HETATM   23  O2  UNL     1       0.922   1.046  -1.009  1.00  0.00    -0.308 OA
BRANCH  23  24
HETATM   24  C3  UNL     1       1.948   1.995  -1.055  1.00  0.00     0.259 C 
HETATM   25  O1  UNL     1       2.572   2.155   0.030  1.00  0.00    -0.265 OA
BRANCH  24  26
HETATM   26  C2  UNL     1       2.301   2.762  -2.244  1.00  0.00     0.106 C 
HETATM   27  C1  UNL     1       3.447   3.681  -1.918  1.00  0.00     0.015 C 
ENDBRANCH  24  26
ENDBRANCH  23  24
ENDBRANCH   1  23
BRANCH  11  28
HETATM   28  O6  UNL     1      -2.929  -0.085   0.984  1.00  0.00    -0.359 OA
ATOM     29  H6  UNL     1      -2.939   0.722   1.485  1.00  0.00     0.213 HD
ENDBRANCH  11  28
BRANCH  11  30
HETATM   30  C14 UNL     1      -2.604   1.343  -0.781  1.00  0.00     0.210 C 
BRANCH  30  31
HETATM   31  O7  UNL     1      -2.033   1.656  -1.978  1.00  0.00    -0.388 OA
ATOM     32  H7  UNL     1      -2.441   2.377  -2.443  1.00  0.00     0.210 HD
ENDBRANCH  30  31
BRANCH  30  33
HETATM   33  C15 UNL     1      -4.060   1.022  -0.973  1.00  0.00     0.201 C 
BRANCH  33  34
HETATM   34  O8  UNL     1      -4.171  -0.049  -1.844  1.00  0.00    -0.398 OA
ATOM     35  H8  UNL     1      -5.091  -0.252  -1.965  1.00  0.00     0.209 HD
ENDBRANCH  33  34
ENDBRANCH  30  33
ENDBRANCH  11  30
BRANCH   2  36
HETATM   36  N1  UNL     1       0.861  -1.916   1.136  1.00  0.00    -0.350 N 
HETATM   37  C6  UNL     1       1.913  -2.370   1.964  1.00  0.00     0.214 C 
HETATM   38  C7  UNL     1       1.638  -3.195   3.185  1.00  0.00     0.117 C 
HETATM   39  O3  UNL     1       3.125  -2.127   1.750  1.00  0.00    -0.274 OA
ATOM     40  H1  UNL     1      -0.089  -2.170   1.406  1.00  0.00     0.163 HD
ENDBRANCH   2  36
BRANCH   4  41
HETATM   41  O4  UNL     1       2.498  -2.716  -1.712  1.00  0.00    -0.359 OA
ATOM     42  H4  UNL     1       3.062  -3.259  -2.250  1.00  0.00     0.217 HD
ENDBRANCH   4  41
TORSDOF 15
