REMARK  11 active torsions:
REMARK  status: ('A' for Active; 'I' for Inactive)
REMARK    1  A    between atoms: C2_2  and  C3_3 
REMARK       I    between atoms: C3_3  and  N1_5 
REMARK    2  A    between atoms: N1_5  and  S1_7 
REMARK    3  A    between atoms: S1_7  and  C4_10 
REMARK    4  A    between atoms: C4_10  and  C5_11 
REMARK    5  A    between atoms: C6_14  and  N3_15 
REMARK    6  A    between atoms: C9_22  and  O4_23 
REMARK    7  A    between atoms: C10_28  and  N6_29 
REMARK    8  A    between atoms: N6_29  and  C11_31 
REMARK    9  A    between atoms: C12_36  and  O5_37 
REMARK   10  A    between atoms: O5_37  and  O6_38 
REMARK   11  A    between atoms: C13_40  and  N9_41 
ROOT
HETATM    1  C5  UNL     1       1.565  -0.165   0.618  1.00  0.00     0.099 A 
HETATM    2  N2  UNL     1       1.302   0.944   1.311  1.00  0.00    -0.330 N 
ATOM      3  H2  UNL     1       1.963   1.265   2.019  1.00  0.00     0.168 HD
HETATM    4  C6  UNL     1       0.175   1.644   1.087  1.00  0.00     0.129 A 
HETATM    5  C7  UNL     1      -0.732   1.239   0.145  1.00  0.00     0.102 A 
HETATM    6  C8  UNL     1      -0.445   0.074  -0.576  1.00  0.00     0.097 A 
HETATM    7  N4  UNL     1       0.679  -0.570  -0.310  1.00  0.00    -0.343 N 
ATOM      8  H4  UNL     1       0.885  -1.419  -0.836  1.00  0.00     0.167 HD
HETATM    9  C9  UNL     1      -1.451  -0.335  -1.584  1.00  0.00     0.376 C 
HETATM   10  N5  UNL     1      -2.754  -0.200  -0.990  1.00  0.00    -0.004 N 
ATOM     11  H51 UNL     1      -2.848  -0.833  -0.196  1.00  0.00     0.285 HD
ATOM     12  H52 UNL     1      -3.467  -0.586  -1.609  1.00  0.00     0.285 HD
HETATM   13  C10 UNL     1      -3.101   1.135  -0.605  1.00  0.00     0.407 C 
HETATM   14  N11 UNL     1      -1.945   1.919  -0.148  1.00  0.00    -0.341 N 
ATOM     15  H11 UNL     1      -2.012   2.931  -0.043  1.00  0.00     0.163 HD
ENDROOT
BRANCH  13  16
HETATM   16  N6  UNL     1      -4.054   1.000   0.489  1.00  0.00    -0.178 N 
ATOM     17  H6  UNL     1      -3.753   1.182   1.446  1.00  0.00     0.181 HD
BRANCH  16  18
HETATM   18  C11 UNL     1      -5.249   0.660   0.264  1.00  0.00     0.697 A 
HETATM   19  N7  UNL     1      -5.694   0.413  -0.961  1.00  0.00    -0.130 N 
HETATM   20  N8  UNL     1      -6.950   0.039  -1.194  1.00  0.00    -0.260 N 
ATOM     21  H7  UNL     1      -5.054   0.513  -1.749  1.00  0.00     0.205 HD
HETATM   22  C12 UNL     1      -7.817  -0.102  -0.186  1.00  0.00     0.237 A 
ATOM     23  H8  UNL     1      -7.254  -0.142  -2.151  1.00  0.00     0.190 HD
HETATM   24  C13 UNL     1      -7.387   0.148   1.110  1.00  0.00     0.170 A 
HETATM   25  N10 UNL     1      -6.113   0.523   1.306  1.00  0.00    -0.171 N 
ATOM     26  H10 UNL     1      -5.786   0.709   2.254  1.00  0.00     0.186 HD
BRANCH  22  27
HETATM   27  O5  UNL     1      -9.118  -0.488  -0.416  1.00  0.00    -0.176 OA
BRANCH  27  28
HETATM   28  O6  UNL     1      -9.466  -1.797  -0.312  1.00  0.00    -0.243 OA
ATOM     29  H6  UNL     1     -10.364  -2.063  -0.471  1.00  0.00     0.254 HD
ENDBRANCH  27  28
ENDBRANCH  22  27
BRANCH  24  30
HETATM   30  N9  UNL     1      -8.238   0.006   2.052  1.00  0.00    -0.381 N 
ATOM     31  H92 UNL     1      -9.206  -0.279   1.903  1.00  0.00     0.157 HD
ATOM     32  H91 UNL     1      -7.922   0.190   3.004  1.00  0.00     0.157 HD
ENDBRANCH  24  30
ENDBRANCH  16  18
ENDBRANCH  13  16
BRANCH   9  33
HETATM   33  O4  UNL     1      -1.312  -1.689  -1.923  1.00  0.00    -0.365 OA
ATOM     34  H4  UNL     1      -1.957  -1.951  -2.569  1.00  0.00     0.212 HD
ENDBRANCH   9  33
BRANCH   4  35
HETATM   35  N3  UNL     1      -0.125   2.733   1.741  1.00  0.00    -0.384 N 
ATOM     36  H32 UNL     1       0.551   3.035   2.443  1.00  0.00     0.157 HD
ATOM     37  H31 UNL     1      -0.979   3.264   1.571  1.00  0.00     0.157 HD
ENDBRANCH   4  35
BRANCH   1  38
HETATM   38  C4  UNL     1       2.787  -0.965   0.832  1.00  0.00     0.239 C 
BRANCH  38  39
HETATM   39  S1  UNL     1       4.022  -0.327  -0.301  1.00  0.00     0.239 S 
HETATM   40  O2  UNL     1       4.193   1.144   0.024  1.00  0.00    -0.205 OA
HETATM   41  O3  UNL     1       3.415  -0.402  -1.671  1.00  0.00    -0.205 OA
BRANCH  39  42
HETATM   42  N1  UNL     1       5.495  -1.168  -0.176  1.00  0.00    -0.254 N 
HETATM   43  C3  UNL     1       6.706  -0.490   0.049  1.00  0.00     0.230 C 
HETATM   44  O1  UNL     1       6.757   0.770   0.168  1.00  0.00    -0.273 OA
ATOM     45  H1  UNL     1       5.500  -2.184  -0.266  1.00  0.00     0.181 HD
BRANCH  43  46
HETATM   46  C2  UNL     1       7.962  -1.251   0.150  1.00  0.00     0.099 C 
HETATM   47  C1  UNL     1       9.128  -0.343   0.376  1.00  0.00     0.014 C 
ENDBRANCH  43  46
ENDBRANCH  39  42
ENDBRANCH  38  39
ENDBRANCH   1  38
TORSDOF 11
