REMARK  6 active torsions:
REMARK  status: ('A' for Active; 'I' for Inactive)
REMARK    1  A    between atoms: C3_6  and  O1_7 
REMARK    2  A    between atoms: O1_7  and  C4_8 
REMARK    3  A    between atoms: C4_8  and  C5_9 
REMARK    4  A    between atoms: C6_11  and  N3_12 
REMARK    5  A    between atoms: N3_12  and  C7_14 
REMARK    6  A    between atoms: C9_20  and  N6_21 
ROOT
HETATM    1  N1  UNL     1      -4.322  -3.007   0.494  1.00  0.00    -0.190 NA
HETATM    2  C1  UNL     1      -3.424  -2.314   0.326  1.00  0.00     0.121 C 
HETATM    3  C2  UNL     1      -2.313  -1.437   0.106  1.00  0.00     0.157 A 
HETATM    4  N2  UNL     1      -2.549  -0.095   0.039  1.00  0.00    -0.322 N 
ATOM      5  H2  UNL     1      -3.505   0.245   0.146  1.00  0.00     0.169 HD
HETATM    6  C3  UNL     1      -1.565   0.787  -0.163  1.00  0.00     0.189 A 
HETATM    7  C6  UNL     1      -0.286   0.301  -0.306  1.00  0.00     0.174 A 
HETATM    8  N8  UNL     1      -0.027  -1.034  -0.243  1.00  0.00    -0.325 N 
ATOM      9  H8  UNL     1       0.927  -1.379  -0.350  1.00  0.00     0.169 HD
HETATM   10  C10 UNL     1      -1.043  -1.894  -0.038  1.00  0.00     0.155 A 
HETATM   11  N9  UNL     1      -0.758  -3.288   0.025  1.00  0.00    -0.079 NA
ENDROOT
BRANCH   6  12
HETATM   12  O1  UNL     1      -1.767   2.142  -0.235  1.00  0.00    -0.326 OA
BRANCH  12  13
HETATM   13  C4  UNL     1      -2.984   2.799  -0.114  1.00  0.00     0.246 C 
BRANCH  13  14
HETATM   14  C5  UNL     1      -3.668   2.585   1.171  1.00  0.00     0.257 C 
HETATM   15  O2  UNL     1      -4.737   3.121   1.361  1.00  0.00    -0.305 OA
ENDBRANCH  13  14
ENDBRANCH  12  13
ENDBRANCH   6  12
BRANCH   7  16
HETATM   16  N3  UNL     1       0.709   1.094  -0.504  1.00  0.00    -0.171 N 
ATOM     17  H3  UNL     1       0.543   2.099  -0.556  1.00  0.00     0.186 HD
BRANCH  16  18
HETATM   18  C7  UNL     1       2.043   0.597  -0.653  1.00  0.00     0.700 A 
HETATM   19  N4  UNL     1       2.454   0.114  -1.829  1.00  0.00    -0.132 N 
HETATM   20  N5  UNL     1       3.674  -0.349  -1.995  1.00  0.00    -0.294 N 
ATOM     21  H4  UNL     1       1.806   0.104  -2.617  1.00  0.00     0.205 HD
HETATM   22  C8  UNL     1       4.567  -0.362  -0.997  1.00  0.00     0.156 A 
ATOM     23  H5  UNL     1       3.948  -0.708  -2.910  1.00  0.00     0.186 HD
HETATM   24  C9  UNL     1       4.137   0.137   0.213  1.00  0.00     0.131 A 
HETATM   25  N7  UNL     1       2.891   0.609   0.379  1.00  0.00    -0.174 N 
ATOM     26  H7  UNL     1       2.595   0.973   1.285  1.00  0.00     0.186 HD
BRANCH  24  27
HETATM   27  N6  UNL     1       4.956   0.150   1.211  1.00  0.00    -0.384 N 
ATOM     28  H62 UNL     1       5.903  -0.209   1.085  1.00  0.00     0.157 HD
ATOM     29  H61 UNL     1       4.638   0.519   2.107  1.00  0.00     0.157 HD
ENDBRANCH  24  27
ENDBRANCH  16  18
ENDBRANCH   7  16
TORSDOF 6
