REMARK  7 active torsions:
REMARK  status: ('A' for Active; 'I' for Inactive)
REMARK    1  A    between atoms: N1_1  and  N2_4 
REMARK    2  A    between atoms: N2_4  and  C1_6 
REMARK    3  A    between atoms: C3_11  and  C4_12 
REMARK    4  A    between atoms: C4_12  and  O2_13 
REMARK    5  A    between atoms: C4_12  and  O3_15 
REMARK    6  A    between atoms: C5_17  and  C6_18 
REMARK    7  A    between atoms: C8_22  and  N5_23 
ROOT
HETATM    1  C1  UNL     1       2.842  -0.870  -0.255  1.00  0.00     0.246 A 
HETATM    2  N3  UNL     1       1.817  -1.711  -0.442  1.00  0.00    -0.300 N 
ATOM      3  H3  UNL     1       1.962  -2.670  -0.757  1.00  0.00     0.171 HD
HETATM    4  C2  UNL     1       0.582  -1.227  -0.193  1.00  0.00     0.167 A 
HETATM    5  O1  UNL     1      -0.587  -1.852  -0.300  1.00  0.00    -0.291 OA
HETATM    6  C3  UNL     1      -1.505  -1.020   0.034  1.00  0.00     0.126 A 
HETATM    7  C5  UNL     1      -0.931   0.233   0.387  1.00  0.00     0.083 A 
HETATM    8  C7  UNL     1       0.415   0.073   0.230  1.00  0.00     0.091 A 
HETATM    9  C8  UNL     1       1.484   0.909   0.411  1.00  0.00     0.233 A 
HETATM   10  O7  UNL     1       2.687   0.350   0.142  1.00  0.00    -0.254 OA
ENDROOT
BRANCH   1  11
HETATM   11  N2  UNL     1       4.038  -1.356  -0.501  1.00  0.00    -0.271 N 
ATOM     12  H2  UNL     1       4.154  -2.320  -0.815  1.00  0.00     0.190 HD
BRANCH  11  13
HETATM   13  N1  UNL     1       5.147  -0.526  -0.324  1.00  0.00    -0.342 N 
ATOM     14  H12 UNL     1       5.014   0.435  -0.010  1.00  0.00     0.176 HD
ATOM     15  H11 UNL     1       6.075  -0.903  -0.515  1.00  0.00     0.176 HD
ENDBRANCH  11  13
ENDBRANCH   1  11
BRANCH   9  16
HETATM   16  N5  UNL     1       1.461   2.232   0.825  1.00  0.00    -0.089 N 
HETATM   17  O5  UNL     1       2.635   2.773   0.923  1.00  0.00    -0.530 OA
HETATM   18  O6  UNL     1       0.509   3.070   1.146  1.00  0.00    -0.530 OA
ENDBRANCH   9  16
BRANCH   6  19
HETATM   19  C4  UNL     1      -2.955  -1.303   0.057  1.00  0.00     0.313 C 
BRANCH  19  20
HETATM   20  O2  UNL     1      -3.340  -1.988  -1.112  1.00  0.00    -0.365 OA
ATOM     21  H2  UNL     1      -4.272  -2.170  -1.097  1.00  0.00     0.213 HD
ENDBRANCH  19  20
BRANCH  19  22
HETATM   22  O3  UNL     1      -3.317  -2.130   1.123  1.00  0.00    -0.365 OA
ATOM     23  H3  UNL     1      -4.249  -2.312   1.138  1.00  0.00     0.213 HD
ENDBRANCH  19  22
ENDBRANCH   6  19
BRANCH   7  24
HETATM   24  C6  UNL     1      -1.768   1.333   0.804  1.00  0.00     0.268 C 
HETATM   25  N4  UNL     1      -2.365   2.141  -0.227  1.00  0.00    -0.057 NA
HETATM   26  O4  UNL     1      -2.031   1.647   1.987  1.00  0.00    -0.271 OA
ENDBRANCH   7  24
TORSDOF 7
