REMARK  5 active torsions:
REMARK  status: ('A' for Active; 'I' for Inactive)
REMARK    1  A    between atoms: C3_4  and  N2_5 
REMARK    2  A    between atoms: C4_8  and  C5_9 
REMARK    3  A    between atoms: N3_10  and  N4_12 
REMARK    4  A    between atoms: N4_12  and  C6_14 
REMARK    5  A    between atoms: C9_21  and  O3_22 
ROOT
HETATM    1  N1  UNL     1       6.152  -1.859   1.215  1.00  0.00    -0.191 NA
HETATM    2  C1  UNL     1       5.278  -1.211   0.827  1.00  0.00     0.107 C 
HETATM    3  C2  UNL     1       4.168  -0.417   0.339  1.00  0.00     0.146 A 
HETATM    4  C3  UNL     1       2.881  -0.904   0.294  1.00  0.00     0.145 A 
HETATM    5  C4  UNL     1       1.826  -0.144  -0.171  1.00  0.00     0.066 A 
HETATM    6  C9  UNL     1       2.085   1.132  -0.600  1.00  0.00     0.157 A 
HETATM    7  N7  UNL     1       3.359   1.617  -0.556  1.00  0.00    -0.302 N 
ATOM      8  H7  UNL     1       3.534   2.569  -0.878  1.00  0.00     0.171 HD
HETATM    9  C10 UNL     1       4.400   0.881  -0.101  1.00  0.00     0.270 A 
HETATM   10  O4  UNL     1       5.580   1.292  -0.048  1.00  0.00    -0.266 OA
ENDROOT
BRANCH   4  11
HETATM   11  N2  UNL     1       2.621  -2.227   0.737  1.00  0.00    -0.113 N 
HETATM   12  O1  UNL     1       2.990  -3.174  -0.003  1.00  0.00    -0.532 OA
HETATM   13  O2  UNL     1       1.985  -2.495   1.940  1.00  0.00    -0.532 OA
ENDBRANCH   4  11
BRANCH   5  14
HETATM   14  C5  UNL     1       0.479  -0.715  -0.195  1.00  0.00     0.125 C 
HETATM   15  N3  UNL     1      -0.543  -0.068  -0.613  1.00  0.00    -0.308 N 
ATOM     16  H3  UNL     1      -0.443   0.890  -0.950  1.00  0.00     0.186 HD
BRANCH  15  17
HETATM   17  N4  UNL     1      -1.788  -0.681  -0.604  1.00  0.00    -0.272 N 
ATOM     18  H4  UNL     1      -1.822  -1.677  -0.822  1.00  0.00     0.190 HD
BRANCH  17  19
HETATM   19  C6  UNL     1      -3.022  -0.031  -0.315  1.00  0.00     0.190 C 
HETATM   20  N5  UNL     1      -3.631   0.801  -1.063  1.00  0.00    -0.360 N 
HETATM   21  C7  UNL     1      -4.872   1.280  -0.469  1.00  0.00     0.142 C 
ATOM     22  H5  UNL     1      -3.288   1.099  -1.976  1.00  0.00     0.162 HD
HETATM   23  C8  UNL     1      -5.180   0.157   0.507  1.00  0.00     0.142 C 
HETATM   24  N6  UNL     1      -3.801  -0.198   0.885  1.00  0.00    -0.360 N 
ATOM     25  H6  UNL     1      -3.469  -0.498   1.801  1.00  0.00     0.162 HD
ENDBRANCH  17  19
ENDBRANCH  15  17
ENDBRANCH   5  14
BRANCH   6  26
HETATM   26  O3  UNL     1       1.048   1.941  -1.081  1.00  0.00    -0.345 OA
ATOM     27  H3  UNL     1       1.227   2.825  -1.378  1.00  0.00     0.219 HD
ENDBRANCH   6  26
TORSDOF 5
