REMARK  5 active torsions:
REMARK  status: ('A' for Active; 'I' for Inactive)
REMARK    1  A    between atoms: C2_7  and  N3_8 
REMARK    2  A    between atoms: N3_8  and  O1_10 
REMARK    3  A    between atoms: N5_17  and  C6_18 
REMARK    4  A    between atoms: C6_18  and  O2_19 
REMARK    5  A    between atoms: O2_19  and  N6_20 
ROOT
HETATM    1  N1  UNL     1      -0.913   2.402  -0.853  1.00  0.00    -0.384 N 
ATOM      2  H11 UNL     1       0.101   2.418  -0.963  1.00  0.00     0.157 HD
ATOM      3  H12 UNL     1      -1.474   3.202  -1.145  1.00  0.00     0.157 HD
HETATM    4  C1  UNL     1      -1.474   1.374  -0.345  1.00  0.00     0.127 A 
HETATM    5  N2  UNL     1      -2.844   1.352  -0.197  1.00  0.00    -0.175 N 
ATOM      6  H2  UNL     1      -3.395   2.158  -0.493  1.00  0.00     0.186 HD
HETATM    7  C2  UNL     1      -3.459   0.292   0.328  1.00  0.00     0.705 A 
HETATM    8  N4  UNL     1      -2.752  -0.773   0.722  1.00  0.00    -0.168 N 
ATOM      9  H4  UNL     1      -3.230  -1.580   1.123  1.00  0.00     0.186 HD
HETATM   10  C3  UNL     1      -1.395  -0.784   0.589  1.00  0.00     0.169 A 
HETATM   11  C4  UNL     1      -0.719   0.297   0.048  1.00  0.00     0.066 A 
HETATM   12  C5  UNL     1       0.714   0.464  -0.165  1.00  0.00     0.322 C 
HETATM   13  N5  UNL     1       1.510  -0.630   0.354  1.00  0.00     0.120 N 
HETATM   14  C7  UNL     1       1.196  -1.890  -0.275  1.00  0.00     0.302 C 
HETATM   15  C8  UNL     1       0.236  -2.720   0.556  1.00  0.00     0.207 C 
HETATM   16  O5  UNL     1      -0.840  -1.971   1.051  1.00  0.00    -0.333 OA
ENDROOT
BRANCH  13  17
HETATM   17  C6  UNL     1       2.899  -0.314   0.071  1.00  0.00     0.480 C 
BRANCH  17  18
HETATM   18  O2  UNL     1       3.221   0.898   0.711  1.00  0.00    -0.191 OA
BRANCH  18  19
HETATM   19  N6  UNL     1       4.448   1.490   0.654  1.00  0.00     0.006 N 
HETATM   20  O3  UNL     1       5.255   1.325  -0.281  1.00  0.00    -0.511 OA
HETATM   21  O4  UNL     1       4.816   2.316   1.689  1.00  0.00    -0.511 OA
ENDBRANCH  18  19
ENDBRANCH  17  18
ENDBRANCH  13  17
BRANCH   7  22
HETATM   22  N3  UNL     1      -4.755   0.323   0.446  1.00  0.00    -0.098 N 
ATOM     23  H3  UNL     1      -5.229  -0.486   0.848  1.00  0.00     0.213 HD
BRANCH  22  24
HETATM   24  O1  UNL     1      -5.499   1.383   0.058  1.00  0.00    -0.276 OA
ATOM     25  H1  UNL     1      -6.445   1.406   0.144  1.00  0.00     0.245 HD
ENDBRANCH  22  24
ENDBRANCH   7  22
TORSDOF 5
