REMARK  4 active torsions:
REMARK  status: ('A' for Active; 'I' for Inactive)
REMARK    1  A    between atoms: N1_1  and  C1_4 
REMARK    2  A    between atoms: C2_7  and  N3_8 
REMARK    3  A    between atoms: C7_17  and  S1_18 
REMARK    4  A    between atoms: S1_18  and  C8_19 
ROOT
HETATM    1  C1  UNL     1       0.449  -3.291   0.808  1.00  0.00     0.692 A 
HETATM    2  N2  UNL     1      -0.505  -2.325   0.811  1.00  0.00    -0.022 N 
ATOM      3  H2  UNL     1      -1.449  -2.574   1.106  1.00  0.00     0.203 HD
HETATM    4  C2  UNL     1      -0.262  -1.056   0.443  1.00  0.00     0.697 A 
HETATM    5  N5  UNL     1       1.006  -0.765   0.056  1.00  0.00    -0.169 N 
ATOM      6  H5  UNL     1       1.224   0.189  -0.230  1.00  0.00     0.186 HD
HETATM    7  C7  UNL     1       1.985  -1.683   0.035  1.00  0.00     0.182 A 
HETATM    8  N10 UNL     1       1.691  -2.938   0.413  1.00  0.00    -0.169 N 
ATOM      9  H10 UNL     1       2.427  -3.644   0.401  1.00  0.00     0.186 HD
ENDROOT
BRANCH   7  10
HETATM   10  S1  UNL     1       3.663  -1.292  -0.478  1.00  0.00    -0.014 SA
BRANCH  10  11
HETATM   11  C8  UNL     1       3.789   0.427  -0.926  1.00  0.00     0.183 A 
HETATM   12  N6  UNL     1       3.599   1.019  -2.123  1.00  0.00    -0.263 N 
HETATM   13  N7  UNL     1       3.813   2.332  -1.942  1.00  0.00    -0.226 N 
ATOM     14  H6  UNL     1       3.343   0.559  -2.996  1.00  0.00     0.190 HD
HETATM   15  N8  UNL     1       4.125   2.580  -0.695  1.00  0.00    -0.226 N 
ATOM     16  H7  UNL     1       3.742   3.038  -2.674  1.00  0.00     0.210 HD
HETATM   17  N9  UNL     1       4.110   1.411  -0.075  1.00  0.00    -0.263 N 
ATOM     18  H8  UNL     1       4.337   3.490  -0.285  1.00  0.00     0.210 HD
ATOM     19  H9  UNL     1       4.315   1.277   0.915  1.00  0.00     0.190 HD
ENDBRANCH  10  11
ENDBRANCH   7  10
BRANCH   4  20
HETATM   20  N3  UNL     1      -1.270  -0.054   0.450  1.00  0.00    -0.214 N 
HETATM   21  C3  UNL     1      -2.592  -0.432   0.872  1.00  0.00     0.160 C 
HETATM   22  C4  UNL     1      -3.543   0.450   0.054  1.00  0.00     0.134 C 
HETATM   23  N4  UNL     1      -3.303   1.792   0.492  1.00  0.00    -0.418 N 
HETATM   24  C5  UNL     1      -1.995   2.289   0.250  1.00  0.00     0.134 C 
ATOM     25  H4  UNL     1      -4.023   2.353   0.947  1.00  0.00     0.153 HD
HETATM   26  C6  UNL     1      -0.935   1.281   0.041  1.00  0.00     0.160 C 
ENDBRANCH   4  20
BRANCH   1  27
HETATM   27  N1  UNL     1       0.174  -4.502   1.170  1.00  0.00    -0.234 N 
ATOM     28  H12 UNL     1      -0.764  -4.769   1.468  1.00  0.00     0.174 HD
ATOM     29  H11 UNL     1       0.891  -5.228   1.168  1.00  0.00     0.174 HD
ENDBRANCH   1  27
TORSDOF 4
