REMARK  1 active torsions:
REMARK  status: ('A' for Active; 'I' for Inactive)
REMARK    1  A    between atoms: N1_1  and  C1_4 
ROOT
HETATM    1  C1  UNL     1      -1.852   0.787  -0.108  1.00  0.00     0.680 A 
HETATM    2  N2  UNL     1      -2.203  -0.478  -0.381  1.00  0.00    -0.154 N 
ATOM      3  H2  UNL     1      -3.184  -0.701  -0.552  1.00  0.00     0.187 HD
HETATM    4  C2  UNL     1      -1.282  -1.459  -0.433  1.00  0.00     0.290 A 
HETATM    5  O1  UNL     1      -1.664  -2.632  -0.694  1.00  0.00    -0.265 OA
HETATM    6  C3  UNL     1       0.062  -1.167  -0.201  1.00  0.00     0.153 A 
HETATM    7  N3  UNL     1       0.891  -2.215  -0.277  1.00  0.00    -0.316 N 
ATOM      8  H3  UNL     1       0.568  -3.159  -0.489  1.00  0.00     0.175 HD
HETATM    9  S1  UNL     1       2.520  -1.847   0.008  1.00  0.00     0.023 SA
HETATM   10  C4  UNL     1       2.758  -0.182   0.338  1.00  0.00     0.160 A 
HETATM   11  N4  UNL     1       3.936   0.287   0.580  1.00  0.00    -0.379 N 
ATOM     12  H41 UNL     1       4.078   1.278   0.776  1.00  0.00     0.158 HD
ATOM     13  H42 UNL     1       4.786  -0.277   0.593  1.00  0.00     0.158 HD
HETATM   14  N5  UNL     1       1.655   0.550   0.321  1.00  0.00    -0.320 N 
ATOM     15  H5  UNL     1       1.766   1.545   0.515  1.00  0.00     0.169 HD
HETATM   16  C5  UNL     1       0.405   0.122   0.076  1.00  0.00     0.156 A 
HETATM   17  N6  UNL     1      -0.563   1.086   0.119  1.00  0.00    -0.174 N 
ATOM     18  H6  UNL     1      -0.301   2.050   0.327  1.00  0.00     0.186 HD
ENDROOT
BRANCH   1  19
HETATM   19  N1  UNL     1      -2.734   1.731  -0.057  1.00  0.00    -0.234 N 
ATOM     20  H12 UNL     1      -3.713   1.504  -0.229  1.00  0.00     0.174 HD
ATOM     21  H11 UNL     1      -2.467   2.693   0.151  1.00  0.00     0.174 HD
ENDBRANCH   1  19
TORSDOF 1
