REMARK  4 active torsions:
REMARK  status: ('A' for Active; 'I' for Inactive)
REMARK    1  A    between atoms: N4_9  and  C4_11 
REMARK    2  A    between atoms: C4_11  and  C5_15 
REMARK    3  A    between atoms: C5_15  and  N6_16 
REMARK    4  A    between atoms: C5_15  and  N7_20 
ROOT
HETATM    1  N1  UNL     1       6.221  -0.407   0.936  1.00  0.00    -0.189 NA
HETATM    2  C1  UNL     1       5.073  -0.413   0.794  1.00  0.00     0.127 C 
HETATM    3  C2  UNL     1       3.630  -0.431   0.590  1.00  0.00     0.173 A 
HETATM    4  N2  UNL     1       2.672  -0.054   1.424  1.00  0.00    -0.283 N 
ATOM      5  H2  UNL     1       2.914   0.306   2.347  1.00  0.00     0.188 HD
HETATM    6  N3  UNL     1       1.453  -0.139   1.077  1.00  0.00    -0.278 N 
ATOM      7  H3  UNL     1       0.713   0.150   1.717  1.00  0.00     0.189 HD
HETATM    8  C3  UNL     1       1.151  -0.610  -0.132  1.00  0.00     0.167 A 
HETATM    9  N4  UNL     1      -0.022  -0.782  -0.690  1.00  0.00    -0.322 N 
ATOM     10  H4  UNL     1      -0.117  -1.157  -1.634  1.00  0.00     0.169 HD
HETATM   11  S1  UNL     1       2.719  -0.935  -0.766  1.00  0.00    -0.022 SA
ENDROOT
BRANCH   9  12
HETATM   12  C4  UNL     1      -1.154  -0.420   0.086  1.00  0.00     0.135 C 
HETATM   13  N5  UNL     1      -1.542  -1.086   1.115  1.00  0.00    -0.386 N 
ATOM     14  H52 UNL     1      -1.023  -1.916   1.400  1.00  0.00     0.157 HD
ATOM     15  H51 UNL     1      -2.355  -0.826   1.673  1.00  0.00     0.157 HD
BRANCH  12  16
HETATM   16  C5  UNL     1      -1.907   0.784  -0.328  1.00  0.00     0.444 C 
BRANCH  16  17
HETATM   17  N6  UNL     1      -3.013   0.979   0.584  1.00  0.00    -0.043 N 
ATOM     18  H63 UNL     1      -3.608   0.154   0.657  1.00  0.00     0.277 HD
ATOM     19  H62 UNL     1      -2.712   1.023   1.558  1.00  0.00     0.277 HD
ATOM     20  H61 UNL     1      -3.532   1.809   0.299  1.00  0.00     0.277 HD
ENDBRANCH  16  17
BRANCH  16  21
HETATM   21  N7  UNL     1      -2.389   0.584  -1.695  1.00  0.00    -0.043 N 
ATOM     22  H73 UNL     1      -1.638   0.350  -2.344  1.00  0.00     0.277 HD
ATOM     23  H72 UNL     1      -2.934  -0.272  -1.796  1.00  0.00     0.277 HD
ATOM     24  H71 UNL     1      -2.908   1.414  -1.980  1.00  0.00     0.277 HD
ENDBRANCH  16  21
ENDBRANCH  12  16
ENDBRANCH   9  12
TORSDOF 4
