REMARK  4 active torsions:
REMARK  status: ('A' for Active; 'I' for Inactive)
REMARK    1  A    between atoms: N1_2  and  O1_3 
REMARK    2  A    between atoms: N1_2  and  C2_7 
REMARK    3  A    between atoms: O1_3  and  N2_4 
REMARK    4  A    between atoms: C5_12  and  N5_13 
ROOT
HETATM    1  C2  UNL     1       0.351  -0.441   0.310  1.00  0.00     0.169 A 
HETATM    2  C3  UNL     1      -0.561   0.623   0.364  1.00  0.00     0.168 A 
HETATM    3  N3  UNL     1      -0.072   1.937   0.168  1.00  0.00    -0.079 NA
HETATM    4  N4  UNL     1      -1.847   0.331   0.598  1.00  0.00    -0.172 N 
HETATM    5  C4  UNL     1      -2.822   1.415   0.661  1.00  0.00     0.177 C 
HETATM    6  C5  UNL     1      -2.224  -0.948   0.773  1.00  0.00     0.682 A 
HETATM    7  N6  UNL     1      -1.372  -1.966   0.724  1.00  0.00    -0.154 N 
ATOM      8  H6  UNL     1      -1.710  -2.918   0.862  1.00  0.00     0.187 HD
HETATM    9  C6  UNL     1      -0.044  -1.742   0.489  1.00  0.00     0.292 A 
HETATM   10  O2  UNL     1       0.722  -2.745   0.453  1.00  0.00    -0.265 OA
ENDROOT
BRANCH   1  11
HETATM   11  N1  UNL     1       1.732  -0.174   0.062  1.00  0.00    -0.230 N 
HETATM   12  C1  UNL     1       2.745  -1.199  -0.012  1.00  0.00     0.188 C 
BRANCH  11  13
HETATM   13  O1  UNL     1       2.142   1.104  -0.118  1.00  0.00    -0.162 OA
BRANCH  13  14
HETATM   14  N2  UNL     1       3.059   1.185  -1.109  1.00  0.00    -0.286 N 
ATOM     15  H22 UNL     1       3.388   0.380  -1.642  1.00  0.00     0.186 HD
ATOM     16  H21 UNL     1       3.368   2.148  -1.245  1.00  0.00     0.186 HD
ENDBRANCH  13  14
ENDBRANCH  11  13
ENDBRANCH   1  11
BRANCH   6  17
HETATM   17  N5  UNL     1      -3.472  -1.196   0.997  1.00  0.00    -0.234 N 
ATOM     18  H52 UNL     1      -4.126  -0.414   1.035  1.00  0.00     0.174 HD
ATOM     19  H51 UNL     1      -3.758  -2.166   1.130  1.00  0.00     0.174 HD
ENDBRANCH   6  17
TORSDOF 4
