REMARK  2 active torsions:
REMARK  status: ('A' for Active; 'I' for Inactive)
REMARK    1  A    between atoms: C5_10  and  O2_11 
REMARK    2  A    between atoms: C6_13  and  C7_14 
ROOT
HETATM    1  N1  UNL     1       0.559  -2.730   1.793  1.00  0.00    -0.191 NA
HETATM    2  C1  UNL     1       0.241  -1.758   1.239  1.00  0.00     0.104 C 
HETATM    3  C2  UNL     1      -0.176  -0.579   0.572  1.00  0.00     0.104 A 
HETATM    4  C3  UNL     1      -1.546  -0.288   0.616  1.00  0.00     0.141 A 
HETATM    5  N2  UNL     1      -2.454  -1.128   1.289  1.00  0.00    -0.081 NA
HETATM    6  N3  UNL     1      -2.004   0.816   0.003  1.00  0.00    -0.308 N 
ATOM      7  H3  UNL     1      -2.999   1.037   0.029  1.00  0.00     0.170 HD
HETATM    8  C4  UNL     1      -1.154   1.628  -0.644  1.00  0.00     0.281 A 
HETATM    9  O1  UNL     1      -1.611   2.661  -1.213  1.00  0.00    -0.265 OA
HETATM   10  C5  UNL     1       0.204   1.357  -0.699  1.00  0.00     0.151 A 
HETATM   11  C6  UNL     1       0.724   0.217  -0.073  1.00  0.00     0.092 A 
ENDROOT
BRANCH  11  12
HETATM   12  C7  UNL     1       2.156  -0.065  -0.132  1.00  0.00     0.269 C 
HETATM   13  N4  UNL     1       2.805  -1.165   0.447  1.00  0.00    -0.057 NA
HETATM   14  O3  UNL     1       2.931   0.743  -0.764  1.00  0.00    -0.271 OA
ENDBRANCH  11  12
BRANCH  10  15
HETATM   15  O2  UNL     1       1.051   2.194  -1.360  1.00  0.00    -0.355 OA
ATOM     16  H2  UNL     1       1.982   2.008  -1.398  1.00  0.00     0.218 HD
ENDBRANCH  10  15
TORSDOF 2
