REMARK  1 active torsions:
REMARK  status: ('A' for Active; 'I' for Inactive)
REMARK       I    between atoms: C2_4  and  N3_6 
REMARK    1  A    between atoms: N3_6  and  C3_8 
ROOT
HETATM    1  C3  UNL     1       1.399  -0.360  -0.124  1.00  0.00     0.716 A 
HETATM    2  N4  UNL     1       1.506   0.796   0.550  1.00  0.00    -0.115 N 
ATOM      3  H4  UNL     1       0.738   1.415   0.811  1.00  0.00     0.207 HD
HETATM    4  N5  UNL     1       2.806   0.990   0.818  1.00  0.00    -0.213 N 
ATOM      5  H5  UNL     1       3.186   1.792   1.321  1.00  0.00     0.210 HD
HETATM    6  N6  UNL     1       3.517  -0.002   0.338  1.00  0.00    -0.213 N 
ATOM      7  H6  UNL     1       4.529  -0.117   0.396  1.00  0.00     0.210 HD
HETATM    8  N7  UNL     1       2.653  -0.825  -0.238  1.00  0.00    -0.115 N 
ATOM      9  H7  UNL     1       2.907  -1.695  -0.705  1.00  0.00     0.207 HD
ENDROOT
BRANCH   1  10
HETATM   10  N3  UNL     1       0.335  -0.948  -0.589  1.00  0.00    -0.161 N 
HETATM   11  C2  UNL     1      -0.955  -0.419  -0.443  1.00  0.00     0.202 C 
HETATM   12  N1  UNL     1      -1.146   0.841  -0.372  1.00  0.00    -0.368 N 
HETATM   13  N2  UNL     1      -2.048  -1.334  -0.376  1.00  0.00    -0.063 NA
HETATM   14  C1  UNL     1      -2.411   1.489  -0.223  1.00  0.00     0.148 C 
ATOM     15  H1  UNL     1      -0.322   1.439  -0.427  1.00  0.00     0.161 HD
ATOM     16  H3  UNL     1       0.445  -1.834  -1.082  1.00  0.00     0.187 HD
ENDBRANCH   1  10
TORSDOF 1
