REMARK  2 active torsions:
REMARK  status: ('A' for Active; 'I' for Inactive)
REMARK       I    between atoms: N1_1  and  C1_4 
REMARK       I    between atoms: C1_4  and  N3_6 
REMARK    1  A    between atoms: N3_6  and  C2_8 
REMARK    2  A    between atoms: N6_15  and  N7_16 
ROOT
HETATM    1  C2  UNL     1      -0.224   0.055  -0.102  1.00  0.00     0.724 A 
HETATM    2  N4  UNL     1      -0.151  -1.225   0.304  1.00  0.00    -0.126 N 
ATOM      3  H4  UNL     1       0.711  -1.741   0.478  1.00  0.00     0.206 HD
HETATM    4  N5  UNL     1      -1.375  -1.709   0.442  1.00  0.00    -0.235 N 
ATOM      5  H5  UNL     1      -1.604  -2.657   0.740  1.00  0.00     0.192 HD
HETATM    6  C3  UNL     1      -2.273  -0.751   0.126  1.00  0.00     0.375 A 
HETATM    7  O1  UNL     1      -3.537  -0.871   0.147  1.00  0.00    -0.243 OA
HETATM    8  N6  UNL     1      -1.539   0.324  -0.205  1.00  0.00    -0.035 N 
ENDROOT
BRANCH   1   9
HETATM    9  N3  UNL     1       0.765   0.873  -0.348  1.00  0.00    -0.161 N 
HETATM   10  C1  UNL     1       2.088   0.397  -0.180  1.00  0.00     0.200 C 
HETATM   11  N1  UNL     1       2.540  -0.455  -1.027  1.00  0.00    -0.373 N 
HETATM   12  N2  UNL     1       2.872   0.862   0.901  1.00  0.00    -0.063 NA
ATOM     13  H12 UNL     1       3.493  -0.798  -0.906  1.00  0.00     0.158 HD
ATOM     14  H11 UNL     1       1.974  -0.790  -1.807  1.00  0.00     0.158 HD
ATOM     15  H3  UNL     1       0.588   1.830  -0.653  1.00  0.00     0.187 HD
ENDBRANCH   1   9
BRANCH   8  16
HETATM   16  N7  UNL     1      -2.082   1.562  -0.604  1.00  0.00    -0.320 N 
ATOM     17  H72 UNL     1      -1.525   2.378  -0.855  1.00  0.00     0.178 HD
ATOM     18  H71 UNL     1      -3.078   1.766  -0.682  1.00  0.00     0.178 HD
ENDBRANCH   8  16
TORSDOF 2
