REMARK  2 active torsions:
REMARK  status: ('A' for Active; 'I' for Inactive)
REMARK       I    between atoms: C1_4  and  N3_6 
REMARK    1  A    between atoms: N3_6  and  C2_8 
REMARK    2  A    between atoms: N5_12  and  O1_13 
ROOT
HETATM    1  C2  UNL     1       0.485  -0.286   0.300  1.00  0.00     0.702 A 
HETATM    2  N4  UNL     1       0.616   0.986  -0.087  1.00  0.00    -0.182 N 
ATOM      3  H4  UNL     1      -0.160   1.617  -0.286  1.00  0.00     0.185 HD
HETATM    4  C3  UNL     1       1.928   1.320  -0.178  1.00  0.00     0.251 A 
HETATM    5  N5  UNL     1       2.607   0.216   0.163  1.00  0.00    -0.144 N 
HETATM    6  N6  UNL     1       1.730  -0.762   0.454  1.00  0.00    -0.104 N 
ATOM      7  H6  UNL     1       1.972  -1.710   0.744  1.00  0.00     0.208 HD
ENDROOT
BRANCH   1   8
HETATM    8  N3  UNL     1      -0.581  -0.968   0.499  1.00  0.00    -0.162 N 
HETATM    9  C1  UNL     1      -1.891  -0.475   0.339  1.00  0.00     0.200 C 
HETATM   10  N1  UNL     1      -2.332   0.631   0.830  1.00  0.00    -0.373 N 
HETATM   11  N2  UNL     1      -2.788  -1.256  -0.420  1.00  0.00    -0.063 NA
ATOM     12  H12 UNL     1      -3.280   0.988   0.714  1.00  0.00     0.158 HD
ATOM     13  H11 UNL     1      -1.684   1.196   1.379  1.00  0.00     0.158 HD
ATOM     14  H3  UNL     1      -0.474  -1.938   0.795  1.00  0.00     0.187 HD
ENDBRANCH   1   8
BRANCH   5  15
HETATM   15  O1  UNL     1       3.990   0.116   0.205  1.00  0.00    -0.267 OA
ATOM     16  H1  UNL     1       4.471  -0.667   0.447  1.00  0.00     0.247 HD
ENDBRANCH   5  15
TORSDOF 2
