REMARK  9 active torsions:
REMARK  status: ('A' for Active; 'I' for Inactive)
REMARK    1  A    between atoms: C2_2  and  C3_3 
REMARK    2  A    between atoms: C3_3  and  C4_4 
REMARK    3  A    between atoms: C4_4  and  C5_5 
REMARK    4  A    between atoms: C4_4  and  C6_12 
REMARK    5  A    between atoms: C5_5  and  O1_6 
REMARK    6  A    between atoms: N1_8  and  O2_10 
REMARK    7  A    between atoms: C6_12  and  C7_13 
REMARK    8  A    between atoms: C6_12  and  C13_24 
REMARK    9  A    between atoms: C7_13  and  C8_15 
REMARK       I    between atoms: C8_15  and  N2_17 
ROOT
HETATM    1  C6  UNL     1      -0.787   0.311  -0.553  1.00  0.00     0.012 C 
ENDROOT
BRANCH   1   2
HETATM    2  C4  UNL     1      -1.464  -0.499   0.412  1.00  0.00     0.103 C 
BRANCH   2   3
HETATM    3  C3  UNL     1      -2.921  -0.824   0.270  1.00  0.00     0.044 C 
BRANCH   3   4
HETATM    4  C2  UNL     1      -3.346  -1.527   1.544  1.00  0.00    -0.036 C 
HETATM    5  C1  UNL     1      -4.301  -1.005   2.302  1.00  0.00     0.007 C 
ENDBRANCH   3   4
ENDBRANCH   2   3
BRANCH   2   6
HETATM    6  C5  UNL     1      -0.805  -1.814   0.603  1.00  0.00     0.144 C 
HETATM    7  N1  UNL     1      -1.291  -2.823  -0.033  1.00  0.00    -0.251 N 
ATOM      8  H1  UNL     1      -2.101  -2.686  -0.638  1.00  0.00     0.196 HD
BRANCH   6   9
HETATM    9  O1  UNL     1       0.295  -2.040   1.413  1.00  0.00    -0.348 OA
ATOM     10  H1  UNL     1       0.717  -2.882   1.535  1.00  0.00     0.219 HD
ENDBRANCH   6   9
BRANCH   7  11
HETATM   11  O2  UNL     1      -0.747  -4.077   0.082  1.00  0.00    -0.288 OA
ATOM     12  H2  UNL     1      -1.105  -4.821  -0.387  1.00  0.00     0.244 HD
ENDBRANCH   7  11
ENDBRANCH   2   6
ENDBRANCH   1   2
BRANCH   1  13
HETATM   13  C7  UNL     1       0.679   0.492  -0.189  1.00  0.00     0.247 C 
HETATM   14  O3  UNL     1       0.948   1.441   0.626  1.00  0.00    -0.282 OA
BRANCH  13  15
HETATM   15  C8  UNL     1       1.736  -0.315  -0.682  1.00  0.00     0.302 C 
HETATM   16  O4  UNL     1       1.373  -1.194  -1.556  1.00  0.00    -0.263 OA
HETATM   17  N2  UNL     1       3.100  -0.330  -0.389  1.00  0.00    -0.257 N 
HETATM   18  C9  UNL     1       4.001  -1.343  -1.009  1.00  0.00     0.140 C 
HETATM   19  C12 UNL     1       3.769   0.573   0.466  1.00  0.00     0.369 C 
HETATM   20  C10 UNL     1       4.870  -1.961   0.035  1.00  0.00     0.047 C 
HETATM   21  C11 UNL     1       5.543  -1.004   0.964  1.00  0.00     0.182 C 
HETATM   22  O5  UNL     1       4.649   0.027   1.409  1.00  0.00    -0.304 OA
HETATM   23  O6  UNL     1       3.558   1.803   0.353  1.00  0.00    -0.238 OA
ENDBRANCH  13  15
ENDBRANCH   1  13
BRANCH   1  24
HETATM   24  C13 UNL     1      -1.211   1.580  -1.123  1.00  0.00    -0.069 C 
HETATM   25  C14 UNL     1      -2.444   1.698  -1.920  1.00  0.00     0.035 C 
HETATM   26  C15 UNL     1      -2.483   3.219  -2.161  1.00  0.00     0.005 C 
HETATM   27  C16 UNL     1      -2.213   3.722  -0.752  1.00  0.00     0.005 C 
HETATM   28  C17 UNL     1      -1.134   2.779  -0.204  1.00  0.00     0.035 C 
ENDBRANCH   1  24
TORSDOF 9
