REMARK  9 active torsions:
REMARK  status: ('A' for Active; 'I' for Inactive)
REMARK    1  A    between atoms: O1_1  and  C1_3 
REMARK    2  A    between atoms: C1_3  and  C2_4 
REMARK    3  A    between atoms: C2_4  and  C3_5 
REMARK    4  A    between atoms: C4_6  and  C5_7 
REMARK    5  A    between atoms: C5_7  and  C6_8 
REMARK    6  A    between atoms: C12_15  and  C13_16 
REMARK    7  A    between atoms: C13_16  and  O3_17 
REMARK    8  A    between atoms: N1_20  and  C15_21 
REMARK    9  A    between atoms: C15_21  and  C16_22 
ROOT
HETATM    1  C3  UNL     1      -0.156  -1.103   0.261  1.00  0.00     0.114 C 
HETATM    2  C4  UNL     1       0.790  -1.221  -0.827  1.00  0.00     0.145 C 
HETATM    3  O2  UNL     1       0.196  -1.463  -2.101  1.00  0.00    -0.375 OA
HETATM    4  C12 UNL     1      -0.767  -0.520  -2.362  1.00  0.00     0.163 C 
HETATM    5  C14 UNL     1      -1.900  -0.869  -1.363  1.00  0.00     0.156 C 
HETATM    6  N1  UNL     1      -1.400  -0.441  -0.113  1.00  0.00    -0.381 N 
ENDROOT
BRANCH   2   7
HETATM    7  C5  UNL     1       1.892  -0.267  -1.085  1.00  0.00     0.038 C 
BRANCH   7   8
HETATM    8  C6  UNL     1       2.955  -0.134  -0.081  1.00  0.00    -0.012 C 
HETATM    9  C7  UNL     1       2.601   0.345   1.264  1.00  0.00     0.005 C 
HETATM   10  C8  UNL     1       3.878   0.990   1.869  1.00  0.00     0.000 C 
HETATM   11  C9  UNL     1       4.087   2.282   1.111  1.00  0.00     0.000 C 
HETATM   12  C10 UNL     1       4.219   2.018  -0.374  1.00  0.00     0.000 C 
HETATM   13  C11 UNL     1       4.194   0.547  -0.671  1.00  0.00     0.005 C 
ENDBRANCH   7   8
ENDBRANCH   2   7
BRANCH   1  14
HETATM   14  C2  UNL     1      -0.503  -2.460   0.864  1.00  0.00     0.054 C 
BRANCH  14  15
HETATM   15  C1  UNL     1       0.638  -3.199   1.457  1.00  0.00     0.166 C 
BRANCH  15  16
HETATM   16  O1  UNL     1       0.167  -4.430   1.996  1.00  0.00    -0.401 OA
ATOM     17  H1  UNL     1       0.898  -4.903   2.376  1.00  0.00     0.209 HD
ENDBRANCH  15  16
ENDBRANCH  14  15
ENDBRANCH   1  14
BRANCH   6  18
HETATM   18  C15 UNL     1      -2.271  -0.127   0.928  1.00  0.00     0.090 C 
BRANCH  18  19
HETATM   19  C16 UNL     1      -3.496   0.622   0.421  1.00  0.00     0.159 C 
HETATM   20  C17 UNL     1      -4.434   0.952   1.570  1.00  0.00     0.039 C 
HETATM   21  C18 UNL     1      -4.995   2.309   1.182  1.00  0.00     0.029 C 
HETATM   22  C19 UNL     1      -3.823   2.853   0.378  1.00  0.00     0.168 C 
HETATM   23  O4  UNL     1      -3.187   1.792  -0.206  1.00  0.00    -0.381 OA
ENDBRANCH  18  19
ENDBRANCH   6  18
BRANCH   4  24
HETATM   24  C13 UNL     1      -1.270  -0.523  -3.761  1.00  0.00     0.197 C 
BRANCH  24  25
HETATM   25  O3  UNL     1      -0.201  -0.273  -4.616  1.00  0.00    -0.398 OA
ATOM     26  H3  UNL     1      -0.522  -0.275  -5.510  1.00  0.00     0.209 HD
ENDBRANCH  24  25
ENDBRANCH   4  24
TORSDOF 9
