REMARK  7 active torsions:
REMARK  status: ('A' for Active; 'I' for Inactive)
REMARK    1  A    between atoms: C3_3  and  N1_4 
REMARK    2  A    between atoms: N1_4  and  C4_5 
REMARK    3  A    between atoms: N1_4  and  C9_16 
REMARK    4  A    between atoms: C4_5  and  C5_6 
REMARK    5  A    between atoms: C5_6  and  C6_7 
REMARK    6  A    between atoms: C8_10  and  N2_11 
REMARK    7  A    between atoms: C12_19  and  O1_20 
ROOT
HETATM    1  C1  UNL     1       1.059  -3.971   1.705  1.00  0.00     0.013 C 
HETATM    2  C2  UNL     1       1.081  -3.399   0.643  1.00  0.00    -0.087 C 
HETATM    3  C3  UNL     1       1.093  -2.708  -0.674  1.00  0.00     0.365 C 
ENDROOT
BRANCH   3   4
HETATM    4  N1  UNL     1       0.832  -1.308  -0.512  1.00  0.00     0.104 N 
BRANCH   4   5
HETATM    5  C4  UNL     1       1.832  -0.580   0.149  1.00  0.00     0.280 C 
BRANCH   5   6
HETATM    6  C5  UNL     1       3.071  -0.571  -0.774  1.00  0.00     0.087 C 
BRANCH   6   7
HETATM    7  C6  UNL     1       4.103   0.236  -0.007  1.00  0.00     0.019 A 
HETATM    8  C7  UNL     1       4.948  -0.401   0.857  1.00  0.00     0.078 A 
HETATM    9  S1  UNL     1       5.896   0.893   1.444  1.00  0.00    -0.064 SA
HETATM   10  C8  UNL     1       5.167   2.156   0.563  1.00  0.00     0.142 A 
HETATM   11  N3  UNL     1       4.228   1.531  -0.144  1.00  0.00    -0.340 N 
ATOM     12  H3  UNL     1       3.620   2.050  -0.778  1.00  0.00     0.167 HD
BRANCH  10  13
HETATM   13  N2  UNL     1       5.442   3.444   0.557  1.00  0.00    -0.380 N 
ATOM     14  H22 UNL     1       6.161   3.923   1.099  1.00  0.00     0.158 HD
ATOM     15  H21 UNL     1       5.006   4.200   0.030  1.00  0.00     0.158 HD
ENDBRANCH  10  13
ENDBRANCH   6   7
ENDBRANCH   5   6
ENDBRANCH   4   5
BRANCH   4  16
HETATM   16  C9  UNL     1      -0.537  -1.163  -0.102  1.00  0.00     0.224 C 
HETATM   17  C10 UNL     1      -1.403  -1.639  -1.218  1.00  0.00     0.039 C 
HETATM   18  C11 UNL     1      -2.617  -0.902  -1.577  1.00  0.00     0.048 C 
HETATM   19  C12 UNL     1      -2.975   0.289  -0.679  1.00  0.00     0.124 C 
HETATM   20  C14 UNL     1      -3.716   1.352  -1.407  1.00  0.00     0.161 C 
HETATM   21  C17 UNL     1      -1.642   0.956  -0.457  1.00  0.00     0.030 C 
HETATM   22  O2  UNL     1      -4.513   1.282  -2.306  1.00  0.00    -0.295 OA
HETATM   23  C15 UNL     1      -3.260   2.639  -0.779  1.00  0.00     0.082 C 
HETATM   24  C16 UNL     1      -1.952   2.346  -0.088  1.00  0.00     0.015 C 
HETATM   25  C18 UNL     1      -0.920   0.114   0.545  1.00  0.00     0.044 C 
BRANCH  19  26
HETATM   26  O1  UNL     1      -3.622  -0.203   0.387  1.00  0.00    -0.377 OA
HETATM   27  C13 UNL     1      -4.198   0.573   1.323  1.00  0.00     0.203 C 
ENDBRANCH  19  26
ENDBRANCH   4  16
ENDBRANCH   3   4
TORSDOF 7
