REMARK  9 active torsions:
REMARK  status: ('A' for Active; 'I' for Inactive)
REMARK    1  A    between atoms: C2_2  and  O1_4 
REMARK    2  A    between atoms: O1_4  and  C4_5 
REMARK    3  A    between atoms: C4_5  and  C5_6 
REMARK    4  A    between atoms: C5_6  and  O2_7 
REMARK    5  A    between atoms: C5_6  and  C6_9 
REMARK    6  A    between atoms: C6_9  and  N1_10 
REMARK    7  A    between atoms: C11_16  and  C12_17 
REMARK    8  A    between atoms: C12_17  and  C13_18 
REMARK    9  A    between atoms: C13_18  and  O3_19 
ROOT
HETATM    1  N1  UNL     1      -0.806   0.331  -0.036  1.00  0.00    -0.341 N 
HETATM    2  C7  UNL     1      -0.342  -0.174   1.223  1.00  0.00     0.200 C 
HETATM    3  S1  UNL     1       1.438  -0.092   1.431  1.00  0.00    -0.139 SA
HETATM    4  C8  UNL     1       2.165   0.780   0.016  1.00  0.00     0.018 C 
HETATM    5  C9  UNL     1       2.326  -0.227  -1.097  1.00  0.00     0.021 C 
HETATM    6  C10 UNL     1       3.273  -1.294  -0.570  1.00  0.00     0.006 C 
HETATM    7  C11 UNL     1       4.641  -0.726  -0.282  1.00  0.00    -0.012 C 
HETATM    8  C14 UNL     1       4.672   0.753  -0.170  1.00  0.00     0.006 C 
HETATM    9  C15 UNL     1       3.464   1.381   0.438  1.00  0.00     0.021 C 
HETATM   10  C16 UNL     1       1.155   1.865  -0.376  1.00  0.00     0.123 C 
HETATM   11  C17 UNL     1      -0.034   1.146  -0.904  1.00  0.00     0.222 C 
HETATM   12  O4  UNL     1      -0.350   1.262  -2.112  1.00  0.00    -0.273 OA
ENDROOT
BRANCH   1  13
HETATM   13  C6  UNL     1      -2.156  -0.023  -0.435  1.00  0.00     0.160 C 
BRANCH  13  14
HETATM   14  C5  UNL     1      -3.063   1.077   0.121  1.00  0.00     0.160 C 
BRANCH  14  15
HETATM   15  C4  UNL     1      -4.491   0.900  -0.357  1.00  0.00     0.201 C 
BRANCH  15  16
HETATM   16  O1  UNL     1      -4.996  -0.256   0.201  1.00  0.00    -0.384 OA
BRANCH  16  17
HETATM   17  C2  UNL     1      -6.311  -0.446  -0.222  1.00  0.00     0.113 C 
HETATM   18  C1  UNL     1      -6.385  -1.785  -0.907  1.00  0.00     0.039 C 
HETATM   19  C3  UNL     1      -7.211  -0.405   0.990  1.00  0.00     0.039 C 
ENDBRANCH  16  17
ENDBRANCH  15  16
ENDBRANCH  14  15
BRANCH  14  20
HETATM   20  O2  UNL     1      -2.603   2.269  -0.479  1.00  0.00    -0.392 OA
ATOM     21  H2  UNL     1      -1.708   2.380  -0.180  1.00  0.00     0.210 HD
ENDBRANCH  14  20
ENDBRANCH  13  14
ENDBRANCH   1  13
BRANCH   7  22
HETATM   22  C12 UNL     1       5.213  -1.467   0.884  1.00  0.00     0.030 C 
BRANCH  22  23
HETATM   23  C13 UNL     1       6.577  -1.018   1.297  1.00  0.00     0.164 C 
BRANCH  23  24
HETATM   24  O3  UNL     1       7.454  -1.193   0.227  1.00  0.00    -0.401 OA
ATOM     25  H3  UNL     1       8.321  -0.908   0.490  1.00  0.00     0.209 HD
ENDBRANCH  23  24
ENDBRANCH  22  23
ENDBRANCH   7  22
TORSDOF 9
