REMARK  8 active torsions:
REMARK  status: ('A' for Active; 'I' for Inactive)
REMARK    1  A    between atoms: C2_2  and  C3_3 
REMARK    2  A    between atoms: C3_3  and  O1_4 
REMARK    3  A    between atoms: O1_4  and  C4_5 
REMARK    4  A    between atoms: C4_5  and  O2_6 
REMARK    5  A    between atoms: C4_5  and  C5_8 
REMARK    6  A    between atoms: C5_8  and  C6_9 
REMARK    7  A    between atoms: N1_14  and  C11_15 
REMARK    8  A    between atoms: C15_20  and  C16_21 
ROOT
HETATM    1  C6  UNL     1       0.872  -0.302  -0.426  1.00  0.00     0.230 C 
HETATM    2  C7  UNL     1      -0.419   0.159  -1.097  1.00  0.00     0.074 C 
HETATM    3  C8  UNL     1      -1.440   0.222   0.020  1.00  0.00     0.068 C 
HETATM    4  C9  UNL     1      -1.646  -1.164   0.514  1.00  0.00     0.069 C 
HETATM    5  C10 UNL     1      -0.329  -1.698   1.029  1.00  0.00     0.276 C 
HETATM    6  N1  UNL     1       0.727  -1.655   0.030  1.00  0.00     0.093 N 
HETATM    7  O3  UNL     1      -0.938   1.087   0.988  1.00  0.00    -0.380 OA
HETATM    8  C13 UNL     1      -1.808   1.276   2.042  1.00  0.00     0.169 C 
HETATM    9  C14 UNL     1      -3.158   1.781   1.655  1.00  0.00     0.042 C 
HETATM   10  C15 UNL     1      -3.734   0.938   0.522  1.00  0.00     0.095 C 
HETATM   11  C17 UNL     1      -2.677   0.866  -0.544  1.00  0.00     0.030 C 
HETATM   12  C18 UNL     1      -3.145   0.255  -1.822  1.00  0.00     0.014 C 
ENDROOT
BRANCH   1  13
HETATM   13  C5  UNL     1       1.981  -0.035  -1.365  1.00  0.00     0.096 C 
BRANCH  13  14
HETATM   14  C4  UNL     1       3.356  -0.385  -0.908  1.00  0.00     0.259 C 
BRANCH  14  15
HETATM   15  O1  UNL     1       3.669   0.344   0.258  1.00  0.00    -0.358 OA
BRANCH  15  16
HETATM   16  C3  UNL     1       4.681   1.258   0.037  1.00  0.00     0.197 C 
BRANCH  16  17
HETATM   17  C2  UNL     1       4.999   2.016   1.271  1.00  0.00    -0.011 C 
HETATM   18  C1  UNL     1       6.203   1.990   1.820  1.00  0.00     0.009 C 
ENDBRANCH  16  17
ENDBRANCH  15  16
ENDBRANCH  14  15
BRANCH  14  19
HETATM   19  O2  UNL     1       3.640  -1.714  -0.775  1.00  0.00    -0.371 OA
ATOM     20  H2  UNL     1       3.429  -2.205  -1.560  1.00  0.00     0.212 HD
ENDBRANCH  14  19
ENDBRANCH  13  14
ENDBRANCH   1  13
BRANCH  10  21
HETATM   21  C16 UNL     1      -4.992   1.532   0.006  1.00  0.00     0.177 C 
HETATM   22  O4  UNL     1      -6.083   0.905   0.037  1.00  0.00    -0.648 OA
HETATM   23  O5  UNL     1      -5.024   2.820  -0.541  1.00  0.00    -0.648 OA
ENDBRANCH  10  21
BRANCH   6  24
HETATM   24  C11 UNL     1       0.458  -2.635  -0.967  1.00  0.00     0.268 C 
HETATM   25  C12 UNL     1       0.398  -3.994  -0.241  1.00  0.00     0.037 C 
ENDBRANCH   6  24
TORSDOF 8
