REMARK  8 active torsions:
REMARK  status: ('A' for Active; 'I' for Inactive)
REMARK    1  A    between atoms: C2_2  and  C4_4 
REMARK    2  A    between atoms: C4_4  and  C5_5 
REMARK    3  A    between atoms: C5_5  and  C6_6 
REMARK    4  A    between atoms: C5_5  and  N1_9 
REMARK    5  A    between atoms: N1_9  and  C7_10 
REMARK    6  A    between atoms: N1_9  and  C8_13 
REMARK    7  A    between atoms: C7_10  and  O3_11 
REMARK    8  A    between atoms: N2_16  and  C11_17 
ROOT
HETATM    1  C8  UNL     1      -0.182   0.904   0.272  1.00  0.00     0.230 C 
HETATM    2  C9  UNL     1       0.903   1.465  -0.652  1.00  0.00     0.066 C 
HETATM    3  C10 UNL     1       2.227   1.575   0.124  1.00  0.00     0.275 C 
HETATM    4  N2  UNL     1       2.778   0.290   0.406  1.00  0.00     0.093 N 
HETATM    5  C16 UNL     1       1.689  -0.675   0.527  1.00  0.00     0.275 C 
HETATM    6  C17 UNL     1       0.491   0.010   1.210  1.00  0.00     0.066 C 
ENDROOT
BRANCH   1   7
HETATM    7  N1  UNL     1      -1.275   0.382  -0.565  1.00  0.00     0.130 N 
BRANCH   7   8
HETATM    8  C5  UNL     1      -2.445   0.140   0.284  1.00  0.00     0.326 C 
BRANCH   8   9
HETATM    9  C4  UNL     1      -3.731   0.008  -0.502  1.00  0.00     0.051 C 
BRANCH   9  10
HETATM   10  C2  UNL     1      -4.850  -0.521   0.381  1.00  0.00    -0.020 C 
HETATM   11  C1  UNL     1      -5.112   0.410   1.529  1.00  0.00     0.009 C 
HETATM   12  C3  UNL     1      -6.105  -0.439  -0.519  1.00  0.00     0.009 C 
ENDBRANCH   9  10
ENDBRANCH   8   9
BRANCH   8  13
HETATM   13  C6  UNL     1      -2.233  -1.302   0.756  1.00  0.00     0.207 C 
HETATM   14  O1  UNL     1      -2.691  -1.742   1.817  1.00  0.00    -0.646 OA
HETATM   15  O2  UNL     1      -1.502  -2.161  -0.038  1.00  0.00    -0.646 OA
ENDBRANCH   8  13
ENDBRANCH   7   8
BRANCH   7  16
HETATM   16  C7  UNL     1      -1.513   1.539  -1.459  1.00  0.00     0.439 C 
BRANCH  16  17
HETATM   17  O3  UNL     1      -2.545   1.329  -2.348  1.00  0.00    -0.373 OA
ATOM     18  H3  UNL     1      -2.698   2.071  -2.921  1.00  0.00     0.211 HD
ENDBRANCH  16  17
ENDBRANCH   7  16
ENDBRANCH   1   7
BRANCH   4  19
HETATM   19  C11 UNL     1       3.658  -0.189  -0.634  1.00  0.00     0.232 C 
HETATM   20  C12 UNL     1       4.162  -1.561  -0.336  1.00  0.00     0.037 C 
HETATM   21  C13 UNL     1       5.196  -1.662   0.720  1.00  0.00     0.012 C 
HETATM   22  C14 UNL     1       5.191  -0.574   1.739  1.00  0.00     0.074 C 
HETATM   23  S1  UNL     1       5.553   0.987   0.841  1.00  0.00    -0.167 SA
HETATM   24  C15 UNL     1       4.859   0.711  -0.826  1.00  0.00     0.109 C 
ENDBRANCH   4  19
TORSDOF 8
