REMARK  7 active torsions:
REMARK  status: ('A' for Active; 'I' for Inactive)
REMARK       I    between atoms: C2_2  and  N1_4 
REMARK    1  A    between atoms: N1_4  and  C3_6 
REMARK    2  A    between atoms: C3_6  and  C4_7 
REMARK    3  A    between atoms: C3_6  and  C10_18 
REMARK    4  A    between atoms: C4_7  and  O2_8 
REMARK    5  A    between atoms: C4_7  and  C5_10 
REMARK       I    between atoms: C5_10  and  N2_12 
REMARK    6  A    between atoms: N2_12  and  C6_14 
REMARK    7  A    between atoms: C6_14  and  C7_15 
ROOT
HETATM    1  C4  UNL     1      -0.347   0.642  -0.246  1.00  0.00     0.134 C 
ENDROOT
BRANCH   1   2
HETATM    2  C3  UNL     1      -1.588  -0.099  -0.234  1.00  0.00     0.150 C 
BRANCH   2   3
HETATM    3  N1  UNL     1      -2.615   0.915   0.137  1.00  0.00    -0.350 N 
HETATM    4  C2  UNL     1      -3.597   1.283  -0.782  1.00  0.00     0.214 C 
HETATM    5  C1  UNL     1      -4.647   2.288  -0.464  1.00  0.00     0.117 C 
HETATM    6  O1  UNL     1      -3.606   0.754  -1.922  1.00  0.00    -0.274 OA
ATOM      7  H1  UNL     1      -2.600   1.340   1.064  1.00  0.00     0.163 HD
ENDBRANCH   2   3
BRANCH   2   8
HETATM    8  C10 UNL     1      -1.800  -1.196   0.744  1.00  0.00     0.007 C 
HETATM    9  C11 UNL     1      -3.306  -1.586   0.547  1.00  0.00     0.012 C 
HETATM   10  C12 UNL     1      -1.098  -2.501   0.392  1.00  0.00     0.012 C 
ENDBRANCH   2   8
ENDBRANCH   1   2
BRANCH   1  11
HETATM   11  O2  UNL     1      -0.466   1.835  -0.795  1.00  0.00    -0.358 OA
ATOM     12  H2  UNL     1       0.350   2.322  -0.803  1.00  0.00     0.217 HD
ENDBRANCH   1  11
BRANCH   1  13
HETATM   13  C5  UNL     1       0.979   0.357   0.213  1.00  0.00     0.272 C 
HETATM   14  O3  UNL     1       1.271  -0.689   0.794  1.00  0.00    -0.266 OA
HETATM   15  N2  UNL     1       2.067   1.282   0.024  1.00  0.00    -0.355 N 
ATOM     16  H2  UNL     1       1.885   2.166  -0.451  1.00  0.00     0.162 HD
BRANCH  15  17
HETATM   17  C6  UNL     1       3.397   1.002   0.481  1.00  0.00     0.127 C 
BRANCH  17  18
HETATM   18  C7  UNL     1       4.032  -0.215  -0.140  1.00  0.00     0.003 A 
HETATM   19  C8  UNL     1       5.439  -0.485   0.368  1.00  0.00     0.007 A 
HETATM   20  C9  UNL     1       5.222  -0.052  -1.020  1.00  0.00     0.007 A 
ENDBRANCH  17  18
ENDBRANCH  15  17
ENDBRANCH   1  13
TORSDOF 7
