REMARK  6 active torsions:
REMARK  status: ('A' for Active; 'I' for Inactive)
REMARK    1  A    between atoms: C3_4  and  O1_5 
REMARK    2  A    between atoms: O1_5  and  C4_6 
REMARK    3  A    between atoms: C13_20  and  N3_21 
REMARK    4  A    between atoms: N3_21  and  C14_23 
REMARK    5  A    between atoms: C14_23  and  C15_24 
REMARK    6  A    between atoms: C15_24  and  C16_25 
ROOT
HETATM    1  N1  UNL     1      -2.065   2.363   2.617  1.00  0.00    -0.191 NA
HETATM    2  C1  UNL     1      -1.114   2.087   2.057  1.00  0.00     0.106 C 
HETATM    3  C2  UNL     1       0.057   1.721   1.354  1.00  0.00     0.131 A 
HETATM    4  C3  UNL     1       0.088   0.550   0.650  1.00  0.00     0.186 A 
HETATM    5  N2  UNL     1       1.298   0.270   0.036  1.00  0.00    -0.169 N 
ATOM      6  H2  UNL     1       1.361  -0.597  -0.498  1.00  0.00     0.186 HD
HETATM    7  C13 UNL     1       2.366   1.022   0.082  1.00  0.00     0.681 A 
HETATM    8  N4  UNL     1       2.293   2.172   0.786  1.00  0.00    -0.183 N 
ATOM      9  H4  UNL     1       3.110   2.781   0.839  1.00  0.00     0.185 HD
HETATM   10  C17 UNL     1       1.156   2.529   1.421  1.00  0.00     0.121 A 
HETATM   11 BR2  UNL     1       1.113   4.185   2.413  1.00  0.00    -0.029 Br
ENDROOT
BRANCH   4  12
HETATM   12  O1  UNL     1      -0.857  -0.336   0.471  1.00  0.00    -0.291 OA
BRANCH  12  13
HETATM   13  C4  UNL     1      -2.029  -0.851   0.542  1.00  0.00     0.092 A 
HETATM   14  C5  UNL     1      -2.278  -2.010   1.291  1.00  0.00     0.057 A 
HETATM   15  C6  UNL     1      -3.508  -2.602   1.398  1.00  0.00     0.016 A 
HETATM   16 BR1  UNL     1      -3.785  -4.190   2.438  1.00  0.00    -0.051 Br
HETATM   17  C7  UNL     1      -4.557  -2.020   0.729  1.00  0.00     0.057 A 
HETATM   18  C8  UNL     1      -4.390  -0.869  -0.036  1.00  0.00     0.093 A 
HETATM   19  O2  UNL     1      -5.396  -0.324  -0.673  1.00  0.00    -0.275 OA
HETATM   20  C12 UNL     1      -3.142  -0.317  -0.110  1.00  0.00     0.032 A 
HETATM   21  C9  UNL     1      -5.304   0.755  -1.413  1.00  0.00     0.288 A 
HETATM   22  O3  UNL     1      -6.299   1.254  -2.015  1.00  0.00    -0.260 OA
HETATM   23  C10 UNL     1      -4.070   1.382  -1.546  1.00  0.00     0.083 A 
HETATM   24  C11 UNL     1      -3.009   0.824  -0.884  1.00  0.00     0.023 A 
ENDBRANCH  12  13
ENDBRANCH   4  12
BRANCH   7  25
HETATM   25  N3  UNL     1       3.497   0.771  -0.474  1.00  0.00    -0.225 N 
ATOM     26  H3  UNL     1       4.280   1.418  -0.386  1.00  0.00     0.177 HD
BRANCH  25  27
HETATM   27  C14 UNL     1       3.629  -0.475  -1.240  1.00  0.00     0.148 C 
BRANCH  27  28
HETATM   28  C15 UNL     1       4.607  -1.410  -0.505  1.00  0.00     0.133 C 
BRANCH  28  29
HETATM   29  C16 UNL     1       5.908  -0.706  -0.412  1.00  0.00     0.174 C 
HETATM   30  O4  UNL     1       6.068   0.436  -0.899  1.00  0.00    -0.648 OA
HETATM   31  O5  UNL     1       6.972  -1.328   0.231  1.00  0.00    -0.648 OA
ENDBRANCH  28  29
ENDBRANCH  27  28
ENDBRANCH  25  27
ENDBRANCH   7  25
TORSDOF 6
