REMARK  7 active torsions:
REMARK  status: ('A' for Active; 'I' for Inactive)
REMARK    1  A    between atoms: C3_3  and  O1_4 
REMARK    2  A    between atoms: C3_3  and  C4_6 
REMARK    3  A    between atoms: C3_3  and  C25_35 
REMARK    4  A    between atoms: C4_6  and  C5_7 
REMARK    5  A    between atoms: C8_10  and  O2_11 
REMARK    6  A    between atoms: C9_13  and  C10_14 
REMARK    7  A    between atoms: C10_14  and  C12_16 
ROOT
HETATM    1  C1  UNL     1      -4.677   3.212  -0.836  1.00  0.00     0.015 C 
HETATM    2  C2  UNL     1      -4.903   2.043  -0.639  1.00  0.00    -0.079 C 
HETATM    3  C3  UNL     1      -5.203   0.658  -0.405  1.00  0.00     0.126 C 
ENDROOT
BRANCH   3   4
HETATM    4  O1  UNL     1      -6.159   0.584   0.609  1.00  0.00    -0.377 OA
ATOM      5  H1  UNL     1      -6.357  -0.332   0.764  1.00  0.00     0.211 HD
ENDBRANCH   3   4
BRANCH   3   6
HETATM    6  C4  UNL     1      -4.060  -0.257  -0.215  1.00  0.00     0.092 C 
BRANCH   6   7
HETATM    7  C5  UNL     1      -3.130  -0.013   0.903  1.00  0.00     0.099 C 
HETATM    8  C6  UNL     1      -3.743  -0.016   2.262  1.00  0.00     0.049 C 
HETATM    9  C7  UNL     1      -2.186   1.147   0.667  1.00  0.00     0.075 C 
HETATM   10  C8  UNL     1      -0.732   0.637   0.920  1.00  0.00     0.153 C 
HETATM   11  C9  UNL     1      -0.481  -0.373  -0.118  1.00  0.00     0.195 C 
HETATM   12  O5  UNL     1      -1.582  -1.221  -0.211  1.00  0.00    -0.232 OA
HETATM   13  O6  UNL     1      -2.249  -1.146   0.910  1.00  0.00    -0.229 OA
BRANCH  10  14
HETATM   14  O2  UNL     1      -0.728   0.236   2.213  1.00  0.00    -0.393 OA
ATOM     15  H2  UNL     1       0.157  -0.074   2.367  1.00  0.00     0.210 HD
ENDBRANCH  10  14
BRANCH  11  16
HETATM   16  C10 UNL     1       0.751  -1.195  -0.070  1.00  0.00     0.046 C 
HETATM   17  C11 UNL     1       0.685  -2.121  -1.251  1.00  0.00     0.015 C 
BRANCH  16  18
HETATM   18  C12 UNL     1       2.034  -0.423   0.062  1.00  0.00     0.136 C 
HETATM   19  O3  UNL     1       1.990   0.292   1.252  1.00  0.00    -0.377 OA
HETATM   20  C13 UNL     1       2.824  -0.298   2.183  1.00  0.00     0.156 C 
HETATM   21  C14 UNL     1       4.017   0.618   2.370  1.00  0.00     0.037 C 
HETATM   22  C24 UNL     1       3.410  -1.559   1.562  1.00  0.00     0.206 C 
HETATM   23  C15 UNL     1       4.210   1.370   1.082  1.00  0.00     0.030 C 
HETATM   24  C16 UNL     1       5.042   0.626   0.066  1.00  0.00     0.055 C 
HETATM   25 CL1  UNL     1       6.582   0.313   0.995  1.00  0.00    -0.118 Cl
HETATM   26  C17 UNL     1       5.496   1.704  -0.896  1.00  0.00     0.109 C 
HETATM   27  C21 UNL     1       4.497  -0.584  -0.518  1.00  0.00     0.004 C 
HETATM   28  C18 UNL     1       5.801   1.166  -2.251  1.00  0.00     0.150 C 
HETATM   29  O4  UNL     1       6.850   1.386  -2.882  1.00  0.00    -0.293 OA
HETATM   30  C19 UNL     1       4.729   0.337  -2.785  1.00  0.00     0.047 C 
HETATM   31  C20 UNL     1       4.134  -0.473  -1.950  1.00  0.00    -0.011 C 
HETATM   32  C22 UNL     1       5.523  -1.752  -0.523  1.00  0.00     0.022 C 
HETATM   33  C23 UNL     1       3.285  -1.213   0.128  1.00  0.00     0.065 C 
HETATM   34  F1  UNL     1       4.636  -1.890   2.026  1.00  0.00    -0.246 F 
ENDBRANCH  16  18
ENDBRANCH  11  16
ENDBRANCH   6   7
ENDBRANCH   3   6
BRANCH   3  35
HETATM   35  C25 UNL     1      -5.947   0.157  -1.658  1.00  0.00     0.024 C 
HETATM   36  C26 UNL     1      -7.209   0.973  -1.831  1.00  0.00     0.014 C 
HETATM   37  C27 UNL     1      -6.347  -1.288  -1.500  1.00  0.00     0.014 C 
ENDBRANCH   3  35
TORSDOF 7
