REMARK  6 active torsions:
REMARK  status: ('A' for Active; 'I' for Inactive)
REMARK    1  A    between atoms: O1_2  and  C2_3 
REMARK    2  A    between atoms: C4_5  and  N1_6 
REMARK    3  A    between atoms: C7_9  and  C8_10 
REMARK    4  A    between atoms: C11_14  and  O2_15 
REMARK    5  A    between atoms: C16_25  and  O4_26 
REMARK    6  A    between atoms: C18_28  and  O5_29 
ROOT
HETATM    1  N1  UNL     1      -0.377   0.168   0.677  1.00  0.00    -0.285 N 
HETATM    2  C5  UNL     1       0.597   1.136   0.251  1.00  0.00     0.193 C 
HETATM    3  C6  UNL     1       1.927   0.563   0.711  1.00  0.00     0.032 C 
HETATM    4  C7  UNL     1       3.084   0.988   0.263  1.00  0.00     0.026 C 
HETATM    5  C14 UNL     1       1.617  -0.498   1.641  1.00  0.00     0.268 C 
HETATM    6  O3  UNL     1       2.410  -1.137   2.367  1.00  0.00    -0.266 OA
HETATM    7  N2  UNL     1       0.190  -0.714   1.594  1.00  0.00    -0.263 N 
ATOM      8  H2  UNL     1      -0.322  -1.403   2.145  1.00  0.00     0.190 HD
ENDROOT
BRANCH   1   9
HETATM    9  C4  UNL     1      -1.721   0.132   0.211  1.00  0.00     0.056 A 
HETATM   10  C3  UNL     1      -2.196   1.057  -0.700  1.00  0.00     0.071 A 
HETATM   11  C2  UNL     1      -3.496   1.029  -1.161  1.00  0.00     0.106 A 
HETATM   12  C18 UNL     1      -4.316   0.021  -0.665  1.00  0.00     0.135 A 
HETATM   13  C16 UNL     1      -3.884  -0.920   0.243  1.00  0.00     0.106 A 
HETATM   14  C15 UNL     1      -2.581  -0.863   0.682  1.00  0.00     0.071 A 
BRANCH  11  15
HETATM   15  O1  UNL     1      -3.995   1.947  -2.076  1.00  0.00    -0.353 OA
HETATM   16  C1  UNL     1      -3.112   2.950  -2.544  1.00  0.00     0.210 C 
ENDBRANCH  11  15
BRANCH  12  17
HETATM   17  O5  UNL     1      -5.607  -0.016  -1.116  1.00  0.00    -0.351 OA
HETATM   18  C19 UNL     1      -5.938  -0.765  -2.275  1.00  0.00     0.210 C 
ENDBRANCH  12  17
BRANCH  13  19
HETATM   19  O4  UNL     1      -4.771  -1.891   0.685  1.00  0.00    -0.353 OA
HETATM   20  C17 UNL     1      -4.280  -2.835   1.619  1.00  0.00     0.210 C 
ENDBRANCH  13  19
ENDBRANCH   1   9
BRANCH   4  21
HETATM   21  C8  UNL     1       4.402   0.543   0.614  1.00  0.00    -0.033 A 
HETATM   22  C9  UNL     1       4.951   0.452   1.856  1.00  0.00     0.033 A 
HETATM   23  C10 UNL     1       6.237  -0.028   2.086  1.00  0.00     0.046 A 
HETATM   24 BR1  UNL     1       6.909  -0.116   3.857  1.00  0.00    -0.048 Br
HETATM   25  C11 UNL     1       7.021  -0.439   1.028  1.00  0.00     0.100 A 
HETATM   26  C12 UNL     1       6.498  -0.360  -0.238  1.00  0.00     0.046 A 
HETATM   27 BR2  UNL     1       7.598  -0.934  -1.688  1.00  0.00    -0.048 Br
HETATM   28  C13 UNL     1       5.225   0.118  -0.438  1.00  0.00     0.033 A 
BRANCH  25  29
HETATM   29  O2  UNL     1       8.316  -0.926   1.232  1.00  0.00    -0.358 OA
ATOM     30  H2  UNL     1       8.856  -1.209   0.503  1.00  0.00     0.217 HD
ENDBRANCH  25  29
ENDBRANCH   4  21
TORSDOF 6
