REMARK  5 active torsions:
REMARK  status: ('A' for Active; 'I' for Inactive)
REMARK    1  A    between atoms: O1_1  and  N1_3 
REMARK    2  A    between atoms: C1_5  and  O2_6 
REMARK    3  A    between atoms: C1_5  and  N2_8 
REMARK    4  A    between atoms: N2_8  and  C2_10 
REMARK    5  A    between atoms: C11_24  and  O3_25 
ROOT
HETATM    1  C2  UNL     1       2.813  -0.230  -0.574  1.00  0.00     0.079 A 
HETATM    2  C3  UNL     1       1.651  -0.811  -1.013  1.00  0.00     0.050 A 
HETATM    3  C4  UNL     1       0.494  -0.318  -0.523  1.00  0.00     0.008 A 
HETATM    4  C5  UNL     1       0.576   0.711   0.363  1.00  0.00     0.099 A 
HETATM    5  S1  UNL     1       2.256   0.975   0.498  1.00  0.00    -0.053 SA
HETATM    6  N3  UNL     1      -0.471   1.433   1.043  1.00  0.00    -0.297 N 
ATOM      7  H3  UNL     1      -0.188   2.358   1.366  1.00  0.00     0.187 HD
HETATM    8  N4  UNL     1      -1.765   1.121   1.339  1.00  0.00    -0.325 N 
ATOM      9  H4  UNL     1      -2.213   1.502   2.173  1.00  0.00     0.181 HD
HETATM   10  C6  UNL     1      -2.472   0.265   0.476  1.00  0.00     0.048 C 
HETATM   11  C7  UNL     1      -3.110   0.998  -0.673  1.00  0.00     0.033 C 
HETATM   12  C8  UNL     1      -4.297   1.262   0.264  1.00  0.00     0.005 C 
HETATM   13  C9  UNL     1      -3.868  -0.009   1.005  1.00  0.00     0.033 C 
HETATM   14  C10 UNL     1      -1.792  -1.025   0.137  1.00  0.00     0.069 C 
HETATM   15  C11 UNL     1      -0.817  -0.927  -0.980  1.00  0.00     0.156 C 
ENDROOT
BRANCH   1  16
HETATM   16  N2  UNL     1       4.172  -0.564  -0.938  1.00  0.00    -0.315 N 
ATOM     17  H2  UNL     1       4.375  -1.314  -1.598  1.00  0.00     0.170 HD
BRANCH  16  18
HETATM   18  C1  UNL     1       5.210   0.194  -0.340  1.00  0.00     0.242 C 
HETATM   19  N1  UNL     1       5.462   0.124   0.918  1.00  0.00    -0.233 N 
ATOM     20  H1  UNL     1       6.216   0.679   1.324  1.00  0.00     0.198 HD
BRANCH  19  21
HETATM   21  O1  UNL     1       4.703  -0.709   1.715  1.00  0.00    -0.287 OA
ATOM     22  H1  UNL     1       4.889  -0.761   2.645  1.00  0.00     0.244 HD
ENDBRANCH  19  21
BRANCH  18  23
HETATM   23  O2  UNL     1       5.964   1.025  -1.146  1.00  0.00    -0.331 OA
ATOM     24  H2  UNL     1       5.778   1.077  -2.076  1.00  0.00     0.221 HD
ENDBRANCH  18  23
ENDBRANCH  16  18
ENDBRANCH   1  16
BRANCH  15  25
HETATM   25  O3  UNL     1      -0.623  -2.199  -1.506  1.00  0.00    -0.391 OA
ATOM     26  H3  UNL     1      -1.445  -2.581  -1.792  1.00  0.00     0.210 HD
ENDBRANCH  15  25
TORSDOF 5
