REMARK  3 active torsions:
REMARK  status: ('A' for Active; 'I' for Inactive)
REMARK    1  A    between atoms: C3_5  and  O1_6 
REMARK    2  A    between atoms: C4_8  and  C5_9 
REMARK    3  A    between atoms: C8_16  and  N4_17 
ROOT
HETATM    1  C5  UNL     1       0.389   0.307   0.468  1.00  0.00     0.035 A 
HETATM    2  C6  UNL     1       0.892   0.403   1.761  1.00  0.00     0.121 A 
HETATM    3  N2  UNL     1       2.213   0.221   1.992  1.00  0.00    -0.199 N 
ATOM      4  H2  UNL     1       2.575   0.292   2.943  1.00  0.00     0.183 HD
HETATM    5  C7  UNL     1       3.059  -0.056   0.967  1.00  0.00     0.719 A 
HETATM    6  N3  UNL     1       4.381  -0.278   0.904  1.00  0.00    -0.019 N 
ATOM      7  H3  UNL     1       5.014  -0.271   1.704  1.00  0.00     0.203 HD
HETATM    8  C8  UNL     1       4.753  -0.514  -0.381  1.00  0.00     0.706 A 
HETATM    9  N5  UNL     1       3.631  -0.432  -1.106  1.00  0.00    -0.110 N 
ATOM     10  H5  UNL     1       3.570  -0.561  -2.116  1.00  0.00     0.207 HD
HETATM   11  N6  UNL     1       2.607  -0.156  -0.302  1.00  0.00    -0.059 N 
HETATM   12  C9  UNL     1       1.309   0.023  -0.527  1.00  0.00     0.154 A 
HETATM   13  S1  UNL     1       0.740  -0.094  -2.047  1.00  0.00    -0.057 SA
ENDROOT
BRANCH   1  14
HETATM   14  C4  UNL     1      -1.021   0.497   0.190  1.00  0.00     0.037 A 
HETATM   15  C3  UNL     1      -1.604   1.722  -0.115  1.00  0.00     0.152 A 
HETATM   16  N1  UNL     1      -2.925   1.549  -0.318  1.00  0.00    -0.340 N 
HETATM   17  C2  UNL     1      -3.206   0.244  -0.152  1.00  0.00     0.014 A 
ATOM     18  H1  UNL     1      -3.595   2.280  -0.556  1.00  0.00     0.167 HD
HETATM   19  C1  UNL     1      -4.542  -0.376  -0.284  1.00  0.00     0.068 C 
HETATM   20  C10 UNL     1      -2.037  -0.434   0.165  1.00  0.00    -0.024 A 
HETATM   21  C11 UNL     1      -1.849  -1.884   0.438  1.00  0.00     0.051 C 
BRANCH  15  22
HETATM   22  O1  UNL     1      -0.923   2.932  -0.196  1.00  0.00    -0.345 OA
ATOM     23  H1  UNL     1       0.008   3.054  -0.053  1.00  0.00     0.219 HD
ENDBRANCH  15  22
ENDBRANCH   1  14
BRANCH   8  24
HETATM   24  N4  UNL     1       5.963  -0.768  -0.809  1.00  0.00    -0.233 N 
ATOM     25  H42 UNL     1       6.818  -0.830  -0.256  1.00  0.00     0.174 HD
ATOM     26  H41 UNL     1       6.242  -0.945  -1.774  1.00  0.00     0.174 HD
ENDBRANCH   8  24
TORSDOF 3
