REMARK  4 active torsions:
REMARK  status: ('A' for Active; 'I' for Inactive)
REMARK    1  A    between atoms: C6_6  and  O1_8 
REMARK    2  A    between atoms: C10_12  and  O2_13 
REMARK    3  A    between atoms: O2_13  and  O3_14 
REMARK    4  A    between atoms: C13_21  and  O4_22 
ROOT
HETATM    1  C1  UNL     1      -0.574   3.161   0.913  1.00  0.00     0.014 C 
HETATM    2  C2  UNL     1      -0.704   2.470  -0.210  1.00  0.00    -0.089 C 
HETATM    3  C3  UNL     1       0.428   2.330  -1.132  1.00  0.00     0.033 C 
HETATM    4  C4  UNL     1       1.766   2.259  -0.448  1.00  0.00     0.007 C 
HETATM    5  C5  UNL     1       1.829   1.196   0.612  1.00  0.00     0.038 C 
HETATM    6  C6  UNL     1       2.633  -0.001   0.238  1.00  0.00     0.054 C 
HETATM    7  C7  UNL     1       3.843   0.331  -0.604  1.00  0.00     0.045 C 
HETATM    8  C8  UNL     1       1.793  -1.102  -0.419  1.00  0.00     0.040 C 
HETATM    9  C9  UNL     1       0.984  -1.749   0.641  1.00  0.00     0.038 C 
HETATM   10  C10 UNL     1      -0.287  -2.381   0.207  1.00  0.00     0.165 C 
HETATM   11  C11 UNL     1      -1.070  -1.620  -0.815  1.00  0.00     0.089 C 
HETATM   12  C12 UNL     1      -2.532  -1.616  -0.564  1.00  0.00     0.011 C 
HETATM   13  N1  UNL     1      -3.236  -2.683  -0.597  1.00  0.00    -0.403 N 
ATOM     14  H11 UNL     1      -4.241  -2.680  -0.424  1.00  0.00     0.155 HD
ATOM     15  H12 UNL     1      -2.752  -3.556  -0.805  1.00  0.00     0.155 HD
HETATM   16  C13 UNL     1      -3.239  -0.341  -0.260  1.00  0.00     0.163 C 
HETATM   17  C14 UNL     1      -2.347   0.688   0.365  1.00  0.00     0.042 C 
HETATM   18  C15 UNL     1      -1.994   1.824  -0.564  1.00  0.00     0.036 C 
ENDROOT
BRANCH   6  19
HETATM   19  O1  UNL     1       3.124  -0.570   1.436  1.00  0.00    -0.390 OA
ATOM     20  H1  UNL     1       3.637  -1.333   1.197  1.00  0.00     0.210 HD
ENDBRANCH   6  19
BRANCH  10  21
HETATM   21  O2  UNL     1      -1.067  -2.602   1.359  1.00  0.00    -0.238 OA
BRANCH  21  22
HETATM   22  O3  UNL     1      -1.254  -3.867   1.602  1.00  0.00    -0.250 OA
ATOM     23  H3  UNL     1      -1.780  -4.016   2.379  1.00  0.00     0.253 HD
ENDBRANCH  21  22
ENDBRANCH  10  21
BRANCH  16  24
HETATM   24  O4  UNL     1      -4.402  -0.572   0.508  1.00  0.00    -0.390 OA
ATOM     25  H4  UNL     1      -4.853   0.241   0.702  1.00  0.00     0.210 HD
ENDBRANCH  16  24
TORSDOF 4
