REMARK  3 active torsions:
REMARK  status: ('A' for Active; 'I' for Inactive)
REMARK    1  A    between atoms: C3_5  and  C4_6 
REMARK    2  A    between atoms: C7_9  and  O1_10 
REMARK    3  A    between atoms: C11_17  and  N3_18 
ROOT
HETATM    1  C1  UNL     1       1.325  -3.008  -0.902  1.00  0.00     0.069 C 
HETATM    2  C2  UNL     1       1.416  -1.623  -0.407  1.00  0.00     0.020 A 
HETATM    3  N1  UNL     1       2.597  -1.034  -0.129  1.00  0.00    -0.360 N 
ATOM      4  H1  UNL     1       3.446  -1.583  -0.260  1.00  0.00     0.165 HD
HETATM    5  C3  UNL     1       2.727   0.222   0.307  1.00  0.00     0.048 A 
HETATM    6  C7  UNL     1       1.627   1.049   0.518  1.00  0.00     0.116 A 
HETATM    7  C8  UNL     1       0.387   0.494   0.251  1.00  0.00     0.084 A 
HETATM    8  N2  UNL     1      -0.683   1.275   0.470  1.00  0.00    -0.338 N 
ATOM      9  H2  UNL     1      -0.569   2.233   0.802  1.00  0.00     0.167 HD
HETATM   10  C9  UNL     1      -1.919   0.764   0.241  1.00  0.00     0.131 A 
HETATM   11  C10 UNL     1      -2.089  -0.528  -0.210  1.00  0.00     0.100 A 
HETATM   12  C11 UNL     1      -0.971  -1.325  -0.433  1.00  0.00     0.071 A 
HETATM   13  C12 UNL     1       0.318  -0.810  -0.199  1.00  0.00     0.044 A 
HETATM   14  N4  UNL     1      -3.297  -1.229  -0.511  1.00  0.00    -0.385 N 
ATOM     15  H4  UNL     1      -3.277  -1.973  -1.209  1.00  0.00     0.159 HD
HETATM   16  C13 UNL     1      -4.562  -0.912   0.152  1.00  0.00     0.121 C 
HETATM   17  C14 UNL     1      -4.956   0.448  -0.369  1.00  0.00     0.039 C 
HETATM   18  C15 UNL     1      -4.396   1.607   0.356  1.00  0.00     0.123 C 
HETATM   19  N5  UNL     1      -2.988   1.672   0.520  1.00  0.00    -0.374 N 
ATOM     20  H5  UNL     1      -2.671   2.554   0.923  1.00  0.00     0.161 HD
ENDROOT
BRANCH   5  21
HETATM   21  C4  UNL     1       4.068   0.819   0.580  1.00  0.00     0.030 C 
HETATM   22  C5  UNL     1       5.099  -0.298   0.727  1.00  0.00     0.016 C 
HETATM   23  C6  UNL     1       4.509   1.716  -0.570  1.00  0.00     0.016 C 
ENDBRANCH   5  21
BRANCH   6  24
HETATM   24  O1  UNL     1       1.807   2.345   0.969  1.00  0.00    -0.357 OA
ATOM     25  H1  UNL     1       1.056   2.909   1.113  1.00  0.00     0.218 HD
ENDBRANCH   6  24
BRANCH  12  26
HETATM   26  N3  UNL     1      -1.040  -2.501  -0.818  1.00  0.00    -0.396 N 
ATOM     27  H32 UNL     1      -1.974  -2.874  -0.988  1.00  0.00     0.156 HD
ATOM     28  H31 UNL     1      -0.220  -3.085  -0.982  1.00  0.00     0.156 HD
ENDBRANCH  12  26
TORSDOF 3
