REMARK  5 active torsions:
REMARK  status: ('A' for Active; 'I' for Inactive)
REMARK    1  A    between atoms: C2_2  and  O1_3 
REMARK    2  A    between atoms: C5_7  and  O2_8 
REMARK    3  A    between atoms: C7_11  and  C8_12 
REMARK    4  A    between atoms: C9_13  and  O3_14 
REMARK    5  A    between atoms: C11_18  and  O5_19 
ROOT
HETATM    1  C1  UNL     1       3.481   1.028  -0.743  1.00  0.00     0.046 C 
HETATM    2  C2  UNL     1       2.267   0.666   0.040  1.00  0.00     0.058 C 
HETATM    3  C3  UNL     1       2.610   0.048   1.367  1.00  0.00     0.040 C 
HETATM    4  C4  UNL     1       1.540  -0.663   2.076  1.00  0.00     0.035 C 
HETATM    5  C5  UNL     1       0.442  -1.307   1.254  1.00  0.00     0.123 C 
HETATM    6  C6  UNL     1       0.107  -0.370   0.135  1.00  0.00     0.030 C 
HETATM    7  C7  UNL     1      -1.172  -0.463  -0.552  1.00  0.00     0.033 C 
HETATM    8  C12 UNL     1      -1.274   0.470  -1.724  1.00  0.00     0.010 C 
HETATM    9  C13 UNL     1      -0.209   0.000  -2.701  1.00  0.00     0.001 C 
HETATM   10  C14 UNL     1       1.168   0.113  -2.127  1.00  0.00     0.008 C 
HETATM   11  C15 UNL     1       1.330  -0.274  -0.725  1.00  0.00     0.027 C 
ENDROOT
BRANCH   7  12
HETATM   12  C8  UNL     1      -2.344  -0.318   0.295  1.00  0.00     0.040 A 
HETATM   13  C9  UNL     1      -2.849   0.818   0.864  1.00  0.00     0.099 A 
HETATM   14  C10 UNL     1      -4.036   0.534   1.467  1.00  0.00     0.182 A 
HETATM   15  O4  UNL     1      -4.269  -0.747   1.281  1.00  0.00    -0.297 OA
HETATM   16  C11 UNL     1      -3.290  -1.289   0.586  1.00  0.00     0.192 A 
BRANCH  13  17
HETATM   17  O3  UNL     1      -2.249   2.079   0.828  1.00  0.00    -0.358 OA
ATOM     18  H3  UNL     1      -2.600   2.868   1.223  1.00  0.00     0.217 HD
ENDBRANCH  13  17
BRANCH  16  19
HETATM   19  O5  UNL     1      -3.309  -2.632   0.247  1.00  0.00    -0.340 OA
ATOM     20  H5  UNL     1      -3.957  -3.297   0.446  1.00  0.00     0.220 HD
ENDBRANCH  16  19
ENDBRANCH   7  12
BRANCH   5  21
HETATM   21  O2  UNL     1      -0.676  -1.457   2.100  1.00  0.00    -0.395 OA
ATOM     22  H2  UNL     1      -1.364  -1.861   1.585  1.00  0.00     0.210 HD
ENDBRANCH   5  21
BRANCH   2  23
HETATM   23  O1  UNL     1       1.534   1.852   0.250  1.00  0.00    -0.390 OA
ATOM     24  H1  UNL     1       0.760   1.621   0.749  1.00  0.00     0.210 HD
ENDBRANCH   2  23
TORSDOF 5
