REMARK  3 active torsions:
REMARK  status: ('A' for Active; 'I' for Inactive)
REMARK    1  A    between atoms: O1_1  and  C1_3 
REMARK    2  A    between atoms: C4_6  and  O2_7 
REMARK    3  A    between atoms: N1_9  and  C5_10 
ROOT
HETATM    1  C1  UNL     1       0.820  -1.486  -0.561  1.00  0.00     0.172 A 
HETATM    2  C2  UNL     1      -0.557  -1.581  -0.488  1.00  0.00     0.093 A 
HETATM    3  C3  UNL     1      -1.038  -0.372  -0.100  1.00  0.00     0.061 A 
HETATM    4  C4  UNL     1       0.068   0.443   0.056  1.00  0.00     0.156 A 
HETATM    5  N1  UNL     1       1.211  -0.249  -0.229  1.00  0.00    -0.301 N 
HETATM    6  C11 UNL     1      -2.522  -0.391   0.004  1.00  0.00     0.174 C 
HETATM    7  C12 UNL     1      -3.115   0.455  -1.075  1.00  0.00     0.046 C 
HETATM    8  C13 UNL     1      -4.555   0.790  -0.877  1.00  0.00     0.004 C 
HETATM    9  C14 UNL     1      -4.778   1.330   0.499  1.00  0.00     0.027 C 
HETATM   10  C15 UNL     1      -4.297   0.256   1.483  1.00  0.00     0.233 C 
HETATM   11  N2  UNL     1      -2.864   0.160   1.299  1.00  0.00    -0.060 N 
ATOM     12  H21 UNL     1      -2.409   1.060   1.451  1.00  0.00     0.278 HD
ATOM     13  H22 UNL     1      -2.428  -0.369   2.054  1.00  0.00     0.278 HD
HETATM   14  C16 UNL     1      -2.863  -1.845  -0.112  1.00  0.00     0.164 C 
HETATM   15  N3  UNL     1      -1.665  -2.454  -0.660  1.00  0.00    -0.383 N 
ATOM     16  H3  UNL     1      -1.624  -3.372  -1.103  1.00  0.00     0.159 HD
ENDROOT
BRANCH   4  17
HETATM   17  O2  UNL     1       0.085   1.759   0.438  1.00  0.00    -0.345 OA
ATOM     18  H2  UNL     1       0.845   2.319   0.545  1.00  0.00     0.219 HD
ENDBRANCH   4  17
BRANCH   1  19
HETATM   19  O1  UNL     1       1.581  -2.599  -0.943  1.00  0.00    -0.344 OA
ATOM     20  H1  UNL     1       2.527  -2.534  -0.993  1.00  0.00     0.219 HD
ENDBRANCH   1  19
BRANCH   5  21
HETATM   21  C5  UNL     1       2.539   0.237  -0.187  1.00  0.00     0.094 C 
HETATM   22  C6  UNL     1       2.969   0.933   1.065  1.00  0.00     0.026 C 
HETATM   23  C7  UNL     1       4.211   1.741   0.738  1.00  0.00     0.002 C 
HETATM   24  C8  UNL     1       5.012   1.122  -0.376  1.00  0.00     0.000 C 
HETATM   25  C9  UNL     1       4.964  -0.379  -0.207  1.00  0.00     0.002 C 
HETATM   26  C10 UNL     1       3.535  -0.888  -0.411  1.00  0.00     0.026 C 
ENDBRANCH   5  21
TORSDOF 3
