REMARK  20 active torsions:
REMARK  status: ('A' for Active; 'I' for Inactive)
REMARK    1  A    between atoms: O1_2  and  C2_3 
REMARK    2  A    between atoms: C2_3  and  C3_5 
REMARK    3  A    between atoms: C3_5  and  C4_6 
REMARK    4  A    between atoms: C3_5  and  N3_15 
REMARK    5  A    between atoms: C4_6  and  C5_7 
REMARK    6  A    between atoms: C5_7  and  N1_8 
REMARK    7  A    between atoms: C5_7  and  C6_12 
REMARK       I    between atoms: N3_15  and  C7_17 
REMARK    8  A    between atoms: C7_17  and  C8_19 
REMARK    9  A    between atoms: C8_19  and  C9_20 
REMARK   10  A    between atoms: C9_20  and  C10_21 
REMARK   11  A    between atoms: C9_20  and  C11_28 
REMARK   12  A    between atoms: C10_21  and  N4_22 
REMARK   13  A    between atoms: C10_21  and  O5_26 
REMARK   14  A    between atoms: C11_28  and  N5_29 
REMARK   15  A    between atoms: C11_28  and  O8_48 
REMARK   16  A    between atoms: N5_29  and  C12_31 
REMARK   17  A    between atoms: C13_32  and  N6_33 
REMARK       I    between atoms: N6_33  and  C14_35 
REMARK   18  A    between atoms: C16_41  and  O6_42 
REMARK   19  A    between atoms: C17_44  and  C18_45 
REMARK   20  A    between atoms: C18_45  and  O7_46 
ROOT
HETATM    1  C9  UNL     1      -0.328   0.036   0.252  1.00  0.00     0.099 C 
ENDROOT
BRANCH   1   2
HETATM    2  C8  UNL     1       0.992   0.246  -0.450  1.00  0.00     0.116 C 
BRANCH   2   3
HETATM    3  C7  UNL     1       2.223   0.083   0.320  1.00  0.00     0.218 C 
HETATM    4  N3  UNL     1       3.415  -0.219  -0.386  1.00  0.00    -0.347 N 
ATOM      5  H3  UNL     1       3.367  -0.317  -1.400  1.00  0.00     0.163 HD
HETATM    6  O4  UNL     1       2.291   0.194   1.555  1.00  0.00    -0.274 OA
BRANCH   4   7
HETATM    7  C3  UNL     1       4.663  -0.390   0.245  1.00  0.00     0.186 C 
BRANCH   7   8
HETATM    8  C2  UNL     1       4.829  -1.665   1.001  1.00  0.00     0.281 C 
HETATM    9  O2  UNL     1       3.921  -2.518   1.065  1.00  0.00    -0.263 OA
BRANCH   8  10
HETATM   10  O1  UNL     1       6.023  -1.890   1.638  1.00  0.00    -0.325 OA
HETATM   11  C1  UNL     1       6.314  -3.050   2.386  1.00  0.00     0.213 C 
ENDBRANCH   8  10
ENDBRANCH   7   8
BRANCH   7  12
HETATM   12  C4  UNL     1       4.989   0.763   1.148  1.00  0.00     0.077 C 
BRANCH  12  13
HETATM   13  C5  UNL     1       4.813   2.101   0.463  1.00  0.00     0.274 C 
BRANCH  13  14
HETATM   14  N1  UNL     1       5.158   3.132   1.476  1.00  0.00    -0.067 N 
ATOM     15  H13 UNL     1       4.625   3.046   2.341  1.00  0.00     0.275 HD
ATOM     16  H12 UNL     1       6.083   3.004   1.886  1.00  0.00     0.275 HD
ATOM     17  H11 UNL     1       5.039   4.034   1.014  1.00  0.00     0.275 HD
ENDBRANCH  13  14
BRANCH  13  18
HETATM   18  C6  UNL     1       5.791   2.244  -0.612  1.00  0.00     0.261 C 
HETATM   19  N2  UNL     1       5.696   1.672  -1.914  1.00  0.00    -0.060 NA
HETATM   20  O3  UNL     1       6.842   2.946  -0.395  1.00  0.00    -0.275 OA
ENDBRANCH  13  18
ENDBRANCH  12  13
ENDBRANCH   7  12
ENDBRANCH   4   7
ENDBRANCH   2   3
ENDBRANCH   1   2
BRANCH   1  21
HETATM   21  C10 UNL     1      -0.383  -1.393   0.679  1.00  0.00     0.324 C 
BRANCH  21  22
HETATM   22  N4  UNL     1      -0.265  -2.303  -0.470  1.00  0.00    -0.053 N 
ATOM     23  H43 UNL     1      -0.967  -2.099  -1.182  1.00  0.00     0.277 HD
ATOM     24  H42 UNL     1       0.575  -2.108  -1.016  1.00  0.00     0.277 HD
ATOM     25  H41 UNL     1      -0.303  -3.280  -0.178  1.00  0.00     0.277 HD
ENDBRANCH  21  22
BRANCH  21  26
HETATM   26  O5  UNL     1       0.649  -1.723   1.514  1.00  0.00    -0.369 OA
ATOM     27  H5  UNL     1       0.614  -2.633   1.786  1.00  0.00     0.212 HD
ENDBRANCH  21  26
ENDBRANCH   1  21
BRANCH   1  28
HETATM   28  C11 UNL     1      -1.404   0.457  -0.686  1.00  0.00     0.224 C 
BRANCH  28  29
HETATM   29  N5  UNL     1      -2.740   0.453  -0.313  1.00  0.00    -0.390 N 
ATOM     30  H5  UNL     1      -3.171   1.377  -0.307  1.00  0.00     0.156 HD
BRANCH  29  31
HETATM   31  C12 UNL     1      -3.583  -0.552   0.046  1.00  0.00     0.110 C 
HETATM   32  C13 UNL     1      -4.989   0.066   0.291  1.00  0.00     0.109 C 
HETATM   33  C15 UNL     1      -5.528   0.168  -1.084  1.00  0.00     0.059 C 
HETATM   34  C16 UNL     1      -5.249  -1.239  -1.612  1.00  0.00     0.128 C 
HETATM   35  C17 UNL     1      -3.944  -1.594  -0.963  1.00  0.00     0.062 C 
BRANCH  32  36
HETATM   36  N6  UNL     1      -4.997   1.198   1.112  1.00  0.00    -0.358 N 
HETATM   37  C14 UNL     1      -4.406   2.475   0.926  1.00  0.00     0.182 C 
HETATM   38  N7  UNL     1      -4.887   3.361   0.130  1.00  0.00    -0.374 N 
HETATM   39  N8  UNL     1      -3.229   2.817   1.655  1.00  0.00    -0.064 NA
ATOM     40  H72 UNL     1      -5.729   3.116  -0.391  1.00  0.00     0.158 HD
ATOM     41  H71 UNL     1      -4.462   4.279  -0.004  1.00  0.00     0.158 HD
ATOM     42  H6  UNL     1      -5.511   1.088   1.986  1.00  0.00     0.162 HD
ENDBRANCH  32  36
BRANCH  34  43
HETATM   43  O6  UNL     1      -5.162  -1.170  -2.996  1.00  0.00    -0.395 OA
ATOM     44  H6  UNL     1      -4.989  -2.044  -3.324  1.00  0.00     0.210 HD
ENDBRANCH  34  43
BRANCH  35  45
HETATM   45  C18 UNL     1      -4.051  -2.952  -0.315  1.00  0.00     0.173 C 
BRANCH  45  46
HETATM   46  O7  UNL     1      -4.992  -3.055   0.675  1.00  0.00    -0.400 OA
ATOM     47  H7  UNL     1      -5.059  -3.910   1.083  1.00  0.00     0.209 HD
ENDBRANCH  45  46
ENDBRANCH  35  45
ENDBRANCH  29  31
ENDBRANCH  28  29
BRANCH  28  48
HETATM   48  O8  UNL     1      -1.114   1.789  -1.065  1.00  0.00    -0.371 OA
HETATM   49  C19 UNL     1      -0.934   1.924  -2.439  1.00  0.00     0.204 C 
ENDBRANCH  28  48
ENDBRANCH   1  28
TORSDOF 20
