REMARK  19 active torsions:
REMARK  status: ('A' for Active; 'I' for Inactive)
REMARK       I    between atoms: C2_2  and  N1_4 
REMARK    1  A    between atoms: C3_6  and  C4_7 
REMARK    2  A    between atoms: C3_6  and  C15_37 
REMARK    3  A    between atoms: C4_7  and  O2_8 
REMARK    4  A    between atoms: C4_7  and  N2_10 
REMARK    5  A    between atoms: N2_10  and  C5_12 
REMARK    6  A    between atoms: C5_12  and  C6_13 
REMARK    7  A    between atoms: C6_13  and  C7_15 
REMARK    8  A    between atoms: C7_15  and  N3_16 
REMARK    9  A    between atoms: C7_15  and  C14_34 
REMARK   10  A    between atoms: N3_16  and  C8_18 
REMARK   11  A    between atoms: C8_18  and  C9_19 
REMARK   12  A    between atoms: C8_18  and  N4_21 
REMARK   13  A    between atoms: N4_21  and  C10_23 
REMARK   14  A    between atoms: C10_23  and  O5_24 
REMARK   15  A    between atoms: C10_23  and  C11_26 
REMARK   16  A    between atoms: C11_26  and  C12_27 
REMARK   17  A    between atoms: C11_26  and  N5_29 
REMARK       I    between atoms: N5_29  and  C13_31 
REMARK   18  A    between atoms: C17_39  and  N8_40 
REMARK   19  A    between atoms: C19_45  and  N9_46 
ROOT
HETATM    1  C5  UNL     1      -0.512  -0.674   0.829  1.00  0.00     0.143 C 
ENDROOT
BRANCH   1   2
HETATM    2  N2  UNL     1      -1.294   0.492   0.743  1.00  0.00    -0.365 N 
ATOM      3  H2  UNL     1      -0.815   1.384   0.619  1.00  0.00     0.162 HD
BRANCH   2   4
HETATM    4  C4  UNL     1      -2.677   0.499   0.817  1.00  0.00     0.265 C 
BRANCH   4   5
HETATM    5  C3  UNL     1      -3.434  -0.127  -0.305  1.00  0.00     0.044 C 
HETATM    6  N1  UNL     1      -3.028  -1.171  -0.870  1.00  0.00    -0.330 N 
HETATM    7  C2  UNL     1      -3.556  -1.920  -1.926  1.00  0.00     0.217 C 
ATOM      8  H1  UNL     1      -2.156  -1.540  -0.491  1.00  0.00     0.168 HD
HETATM    9  C1  UNL     1      -4.824  -2.685  -1.923  1.00  0.00     0.117 C 
HETATM   10  O1  UNL     1      -2.877  -1.949  -3.003  1.00  0.00    -0.274 OA
BRANCH   5  11
HETATM   11  C15 UNL     1      -4.759   0.454  -0.728  1.00  0.00     0.068 C 
HETATM   12  C16 UNL     1      -5.771   0.342   0.370  1.00  0.00     0.045 C 
HETATM   13  C17 UNL     1      -6.087   1.709   0.884  1.00  0.00     0.186 C 
HETATM   14  C18 UNL     1      -5.396   2.690  -0.000  1.00  0.00     0.066 C 
HETATM   15  C19 UNL     1      -4.654   1.924  -1.060  1.00  0.00     0.195 C 
BRANCH  13  16
HETATM   16  N8  UNL     1      -7.524   1.973   0.866  1.00  0.00    -0.075 N 
ATOM     17  H83 UNL     1      -7.918   1.824  -0.063  1.00  0.00     0.274 HD
ATOM     18  H82 UNL     1      -8.041   1.255   1.375  1.00  0.00     0.274 HD
ATOM     19  H81 UNL     1      -7.740   2.906   1.217  1.00  0.00     0.274 HD
ENDBRANCH  13  16
BRANCH  15  20
HETATM   20  N9  UNL     1      -5.220   2.178  -2.377  1.00  0.00    -0.074 N 
ATOM     21  H93 UNL     1      -4.795   1.592  -3.096  1.00  0.00     0.274 HD
ATOM     22  H92 UNL     1      -6.178   1.836  -2.454  1.00  0.00     0.274 HD
ATOM     23  H91 UNL     1      -5.149   3.171  -2.601  1.00  0.00     0.274 HD
ENDBRANCH  15  20
ENDBRANCH   5  11
ENDBRANCH   4   5
BRANCH   4  24
HETATM   24  O2  UNL     1      -3.158   0.045   2.032  1.00  0.00    -0.371 OA
ATOM     25  H2  UNL     1      -2.676   0.444   2.747  1.00  0.00     0.212 HD
ENDBRANCH   4  24
ENDBRANCH   2   4
ENDBRANCH   1   2
BRANCH   1  26
HETATM   26  C6  UNL     1       0.904  -0.318   0.427  1.00  0.00     0.218 C 
HETATM   27  O3  UNL     1       0.887   0.587  -0.447  1.00  0.00    -0.284 OA
BRANCH  26  28
HETATM   28  C7  UNL     1       2.140  -0.870   0.901  1.00  0.00     0.147 C 
BRANCH  28  29
HETATM   29  N3  UNL     1       3.123  -1.405   0.069  1.00  0.00    -0.356 N 
ATOM     30  H3  UNL     1       3.394  -2.379   0.206  1.00  0.00     0.162 HD
BRANCH  29  31
HETATM   31  C8  UNL     1       3.742  -0.696  -0.918  1.00  0.00     0.242 C 
BRANCH  31  32
HETATM   32  C9  UNL     1       2.939  -0.491  -2.147  1.00  0.00     0.277 C 
HETATM   33  O4  UNL     1       2.243  -1.409  -2.576  1.00  0.00    -0.303 OA
ENDBRANCH  31  32
BRANCH  31  34
HETATM   34  N4  UNL     1       5.048  -1.163  -1.338  1.00  0.00    -0.369 N 
ATOM     35  H4  UNL     1       5.313  -1.221  -2.321  1.00  0.00     0.158 HD
BRANCH  34  36
HETATM   36  C10 UNL     1       5.931  -1.533  -0.300  1.00  0.00     0.245 C 
BRANCH  36  37
HETATM   37  O5  UNL     1       5.448  -2.595   0.475  1.00  0.00    -0.375 OA
ATOM     38  H5  UNL     1       6.042  -2.844   1.173  1.00  0.00     0.212 HD
ENDBRANCH  36  37
BRANCH  36  39
HETATM   39  C11 UNL     1       6.317  -0.402   0.618  1.00  0.00     0.195 C 
BRANCH  39  40
HETATM   40  C12 UNL     1       7.415  -0.933   1.512  1.00  0.00     0.260 C 
HETATM   41  O6  UNL     1       8.508  -0.416   1.542  1.00  0.00    -0.304 OA
ENDBRANCH  39  40
BRANCH  39  42
HETATM   42  N5  UNL     1       6.862   0.739  -0.067  1.00  0.00    -0.330 N 
HETATM   43  C13 UNL     1       6.428   2.037   0.265  1.00  0.00     0.329 C 
HETATM   44  N6  UNL     1       6.956   3.169  -0.397  1.00  0.00    -0.040 NA
HETATM   45  O7  UNL     1       5.556   2.177   1.166  1.00  0.00    -0.251 OA
ATOM     46  H5  UNL     1       7.564   0.608  -0.795  1.00  0.00     0.164 HD
ENDBRANCH  39  42
ENDBRANCH  36  39
ENDBRANCH  34  36
ENDBRANCH  31  34
ENDBRANCH  29  31
ENDBRANCH  28  29
BRANCH  28  47
HETATM   47  C14 UNL     1       1.986  -1.654   2.180  1.00  0.00     0.285 C 
HETATM   48  N7  UNL     1       1.339  -1.157   3.322  1.00  0.00    -0.056 NA
HETATM   49  O8  UNL     1       2.482  -2.806   2.184  1.00  0.00    -0.269 OA
ENDBRANCH  28  47
ENDBRANCH  26  28
ENDBRANCH   1  26
TORSDOF 19
