REMARK  17 active torsions:
REMARK  status: ('A' for Active; 'I' for Inactive)
REMARK    1  A    between atoms: C1_2  and  O2_4 
REMARK    2  A    between atoms: O2_4  and  N2_5 
REMARK    3  A    between atoms: N2_5  and  C2_6 
REMARK    4  A    between atoms: C2_6  and  C3_7 
REMARK    5  A    between atoms: C2_6  and  C12_27 
REMARK    6  A    between atoms: C3_7  and  O3_8 
REMARK    7  A    between atoms: C4_10  and  C5_11 
REMARK    8  A    between atoms: C5_11  and  N3_12 
REMARK    9  A    between atoms: C5_11  and  C11_24 
REMARK   10  A    between atoms: N3_12  and  C6_14 
REMARK   11  A    between atoms: C7_16  and  C8_17 
REMARK   12  A    between atoms: C10_21  and  O7_22 
REMARK       I    between atoms: C12_27  and  N4_29 
REMARK   13  A    between atoms: N4_29  and  C13_31 
REMARK   14  A    between atoms: C13_31  and  C14_32 
REMARK   15  A    between atoms: C13_31  and  C15_35 
REMARK   16  A    between atoms: C15_35  and  O12_36 
REMARK   17  A    between atoms: C15_35  and  C16_38 
ROOT
HETATM    1  C2  UNL     1      -1.380  -1.174  -0.356  1.00  0.00     0.255 C 
ENDROOT
BRANCH   1   2
HETATM    2  N2  UNL     1      -1.632  -2.593   0.011  1.00  0.00    -0.069 NA
BRANCH   2   3
HETATM    3  O2  UNL     1      -2.691  -2.991  -0.811  1.00  0.00    -0.190 OA
BRANCH   3   4
HETATM    4  C1  UNL     1      -2.756  -4.317  -1.246  1.00  0.00     0.391 C 
HETATM    5  N1  UNL     1      -3.796  -4.813  -2.062  1.00  0.00    -0.031 NA
HETATM    6  O1  UNL     1      -1.818  -5.082  -0.861  1.00  0.00    -0.241 OA
ENDBRANCH   3   4
ENDBRANCH   2   3
ENDBRANCH   1   2
BRANCH   1   7
HETATM    7  C3  UNL     1      -0.097  -0.775   0.287  1.00  0.00     0.076 C 
HETATM    8  C4  UNL     1       1.287  -0.986   0.022  1.00  0.00     0.070 C 
BRANCH   7   9
HETATM    9  O3  UNL     1      -0.305  -0.077   1.377  1.00  0.00    -0.363 OA
ATOM     10  H3  UNL     1       0.513   0.177   1.787  1.00  0.00     0.217 HD
ENDBRANCH   7   9
BRANCH   8  11
HETATM   11  C5  UNL     1       2.011  -0.315  -1.068  1.00  0.00     0.110 C 
BRANCH  11  12
HETATM   12  N3  UNL     1       3.431  -0.651  -1.061  1.00  0.00    -0.356 N 
ATOM     13  H3  UNL     1       3.859  -1.168  -1.829  1.00  0.00     0.162 HD
BRANCH  12  14
HETATM   14  C6  UNL     1       4.191  -0.228   0.060  1.00  0.00     0.251 C 
HETATM   15  O4  UNL     1       4.679   1.044  -0.055  1.00  0.00    -0.348 OA
HETATM   16  C7  UNL     1       5.993   1.142   0.287  1.00  0.00     0.227 C 
HETATM   17  C9  UNL     1       6.322  -0.155   0.993  1.00  0.00     0.079 C 
HETATM   18  C10 UNL     1       5.451  -1.103   0.136  1.00  0.00     0.169 C 
BRANCH  16  19
HETATM   19  C8  UNL     1       6.240   2.338   1.072  1.00  0.00     0.203 C 
HETATM   20  O5  UNL     1       5.202   3.083   1.328  1.00  0.00    -0.646 OA
HETATM   21  O6  UNL     1       7.452   2.764   1.572  1.00  0.00    -0.646 OA
ENDBRANCH  16  19
BRANCH  18  22
HETATM   22  O7  UNL     1       5.243  -2.251   0.841  1.00  0.00    -0.391 OA
ATOM     23  H7  UNL     1       6.022  -2.792   0.888  1.00  0.00     0.210 HD
ENDBRANCH  18  22
ENDBRANCH  12  14
ENDBRANCH  11  12
BRANCH  11  24
HETATM   24  C11 UNL     1       1.741   1.096  -1.335  1.00  0.00     0.226 C 
HETATM   25  O8  UNL     1       2.531   2.010  -1.626  1.00  0.00    -0.643 OA
HETATM   26  O9  UNL     1       0.379   1.575  -1.269  1.00  0.00    -0.643 OA
ENDBRANCH  11  24
ENDBRANCH   8  11
ENDBRANCH   1   7
BRANCH   1  27
HETATM   27  C12 UNL     1      -2.452  -0.403   0.450  1.00  0.00     0.246 C 
HETATM   28  O10 UNL     1      -2.807  -1.000   1.509  1.00  0.00    -0.271 OA
HETATM   29  N4  UNL     1      -2.954   0.810   0.065  1.00  0.00    -0.343 N 
ATOM     30  H4  UNL     1      -2.627   1.171  -0.831  1.00  0.00     0.163 HD
BRANCH  29  31
HETATM   31  C13 UNL     1      -3.898   1.640   0.786  1.00  0.00     0.213 C 
BRANCH  31  32
HETATM   32  C14 UNL     1      -4.975   0.879   1.506  1.00  0.00     0.257 C 
HETATM   33  N5  UNL     1      -5.474   1.442   2.733  1.00  0.00    -0.060 NA
HETATM   34  O11 UNL     1      -5.459  -0.208   1.123  1.00  0.00    -0.274 OA
ENDBRANCH  31  32
BRANCH  31  35
HETATM   35  C15 UNL     1      -4.505   2.597  -0.185  1.00  0.00     0.250 C 
BRANCH  35  36
HETATM   36  O12 UNL     1      -5.405   3.480   0.451  1.00  0.00    -0.382 OA
ATOM     37  H12 UNL     1      -5.791   4.089  -0.167  1.00  0.00     0.210 HD
ENDBRANCH  35  36
BRANCH  35  38
HETATM   38  C16 UNL     1      -5.181   1.916  -1.317  1.00  0.00     0.205 C 
HETATM   39  O13 UNL     1      -4.619   1.056  -1.993  1.00  0.00    -0.646 OA
HETATM   40  O14 UNL     1      -6.482   2.291  -1.594  1.00  0.00    -0.646 OA
ENDBRANCH  35  38
ENDBRANCH  31  35
ENDBRANCH  29  31
ENDBRANCH   1  27
TORSDOF 17
