REMARK  16 active torsions:
REMARK  status: ('A' for Active; 'I' for Inactive)
REMARK    1  A    between atoms: N1_1  and  C1_5 
REMARK    2  A    between atoms: C1_5  and  C2_6 
REMARK    3  A    between atoms: C2_6  and  N2_7 
REMARK    4  A    between atoms: C2_6  and  C16_38 
REMARK       I    between atoms: N2_7  and  C3_9 
REMARK    5  A    between atoms: C3_9  and  C4_11 
REMARK    6  A    between atoms: C4_11  and  C5_12 
REMARK    7  A    between atoms: C4_11  and  C13_28 
REMARK    8  A    between atoms: C5_12  and  O2_13 
REMARK    9  A    between atoms: O2_13  and  C6_14 
REMARK   10  A    between atoms: C7_16  and  O4_17 
REMARK   11  A    between atoms: O4_17  and  C8_18 
REMARK   12  A    between atoms: C8_18  and  C9_19 
REMARK   13  A    between atoms: C11_23  and  C12_24 
REMARK   14  A    between atoms: C13_28  and  N4_29 
REMARK   15  A    between atoms: C13_28  and  C15_35 
REMARK   16  A    between atoms: N4_29  and  N5_30 
REMARK       I    between atoms: N5_30  and  C14_32 
ROOT
HETATM    1  C4  UNL     1      -1.343   0.191  -0.241  1.00  0.00     0.131 C 
ENDROOT
BRANCH   1   2
HETATM    2  C3  UNL     1      -2.768  -0.160  -0.531  1.00  0.00     0.226 C 
HETATM    3  N2  UNL     1      -3.422  -1.339  -0.208  1.00  0.00    -0.344 N 
ATOM      4  H2  UNL     1      -2.901  -2.068   0.279  1.00  0.00     0.163 HD
HETATM    5  O1  UNL     1      -3.446   0.737  -1.143  1.00  0.00    -0.273 OA
BRANCH   3   6
HETATM    6  C2  UNL     1      -4.813  -1.580  -0.532  1.00  0.00     0.211 C 
BRANCH   6   7
HETATM    7  C1  UNL     1      -4.950  -2.752  -1.475  1.00  0.00     0.265 C 
BRANCH   7   8
HETATM    8  N1  UNL     1      -4.243  -2.516  -2.708  1.00  0.00    -0.077 N 
ATOM      9  H13 UNL     1      -4.538  -1.645  -3.148  1.00  0.00     0.274 HD
ATOM     10  H12 UNL     1      -3.264  -2.283  -2.540  1.00  0.00     0.274 HD
ATOM     11  H11 UNL     1      -4.336  -3.307  -3.345  1.00  0.00     0.274 HD
ENDBRANCH   7   8
ENDBRANCH   6   7
BRANCH   6  12
HETATM   12  C16 UNL     1      -5.654  -1.741   0.660  1.00  0.00     0.198 C 
HETATM   13  O11 UNL     1      -5.128  -1.661   1.799  1.00  0.00    -0.646 OA
HETATM   14  O12 UNL     1      -6.999  -1.978   0.541  1.00  0.00    -0.646 OA
ENDBRANCH   6  12
ENDBRANCH   3   6
ENDBRANCH   1   2
BRANCH   1  15
HETATM   15  C5  UNL     1      -0.395  -0.887  -0.606  1.00  0.00     0.189 C 
BRANCH  15  16
HETATM   16  O2  UNL     1       0.870  -0.677  -0.473  1.00  0.00    -0.338 OA
BRANCH  16  17
HETATM   17  C6  UNL     1       1.825  -0.425   0.336  1.00  0.00     0.416 C 
HETATM   18  O3  UNL     1       2.862  -1.399   0.331  1.00  0.00    -0.308 OA
HETATM   19  C7  UNL     1       4.039  -0.757  -0.022  1.00  0.00     0.268 C 
HETATM   20  C10 UNL     1       3.840  -0.264  -1.455  1.00  0.00     0.102 C 
HETATM   21  C11 UNL     1       2.791   0.856  -1.308  1.00  0.00     0.220 C 
HETATM   22  O8  UNL     1       2.386   0.855   0.033  1.00  0.00    -0.324 OA
BRANCH  19  23
HETATM   23  O4  UNL     1       5.084  -1.638   0.074  1.00  0.00    -0.351 OA
BRANCH  23  24
HETATM   24  C8  UNL     1       6.117  -1.252   0.891  1.00  0.00     0.284 C 
BRANCH  24  25
HETATM   25  C9  UNL     1       5.736  -1.033   2.300  1.00  0.00     0.197 C 
HETATM   26  O5  UNL     1       4.546  -1.204   2.657  1.00  0.00    -0.646 OA
HETATM   27  O6  UNL     1       6.652  -0.641   3.256  1.00  0.00    -0.646 OA
ENDBRANCH  24  25
ENDBRANCH  23  24
ENDBRANCH  19  23
BRANCH  21  28
HETATM   28  C12 UNL     1       3.371   2.178  -1.610  1.00  0.00     0.260 C 
HETATM   29  N3  UNL     1       3.876   2.473  -2.928  1.00  0.00    -0.060 NA
HETATM   30  O7  UNL     1       3.439   3.061  -0.742  1.00  0.00    -0.274 OA
ENDBRANCH  21  28
ENDBRANCH  16  17
ENDBRANCH  15  16
ENDBRANCH   1  15
BRANCH   1  31
HETATM   31  C13 UNL     1      -1.184   0.710   1.136  1.00  0.00     0.203 C 
BRANCH  31  32
HETATM   32  N4  UNL     1      -2.004   1.956   1.262  1.00  0.00    -0.122 NA
BRANCH  32  33
HETATM   33  N5  UNL     1      -1.419   2.974   0.514  1.00  0.00    -0.257 N 
HETATM   34  C14 UNL     1      -1.866   4.326   0.633  1.00  0.00     0.344 C 
HETATM   35  N6  UNL     1      -1.281   5.359  -0.113  1.00  0.00    -0.039 NA
HETATM   36  O9  UNL     1      -2.799   4.581   1.425  1.00  0.00    -0.250 OA
ATOM     37  H5  UNL     1      -0.659   2.751  -0.129  1.00  0.00     0.186 HD
ENDBRANCH  32  33
ENDBRANCH  31  32
BRANCH  31  38
HETATM   38  C15 UNL     1      -1.591  -0.198   2.228  1.00  0.00     0.253 C 
HETATM   39  N7  UNL     1      -0.998  -1.443   2.438  1.00  0.00    -0.061 NA
HETATM   40  O10 UNL     1      -2.521   0.124   3.046  1.00  0.00    -0.275 OA
ENDBRANCH  31  38
ENDBRANCH   1  31
TORSDOF 16
