REMARK  11 active torsions:
REMARK  status: ('A' for Active; 'I' for Inactive)
REMARK    1  A    between atoms: C2_2  and  N1_3 
REMARK    2  A    between atoms: C2_2  and  C14_36 
REMARK    3  A    between atoms: N1_3  and  C3_5 
REMARK    4  A    between atoms: C8_12  and  S1_13 
REMARK    5  A    between atoms: S1_13  and  C9_14 
REMARK    6  A    between atoms: C11_16  and  N3_17 
REMARK       I    between atoms: N3_17  and  C12_19 
REMARK    7  A    between atoms: C12_19  and  C13_21 
REMARK       I    between atoms: C13_21  and  N4_23 
REMARK    8  A    between atoms: N4_23  and  N5_25 
REMARK    9  A    between atoms: N6_28  and  O4_29 
REMARK   10  A    between atoms: C14_36  and  O5_37 
REMARK   11  A    between atoms: C14_36  and  O6_39 
ROOT
HETATM    1  C3  UNL     1      -2.972   0.791   1.293  1.00  0.00     0.096 A 
HETATM    2  C4  UNL     1      -2.245   1.709   1.871  1.00  0.00     0.129 A 
HETATM    3  C5  UNL     1      -2.879   2.895   2.460  1.00  0.00     0.106 C 
HETATM    4  N2  UNL     1      -3.406   3.837   2.927  1.00  0.00    -0.191 NA
HETATM    5  C6  UNL     1      -0.839   1.517   1.905  1.00  0.00     0.212 A 
HETATM    6  O1  UNL     1       0.014   2.330   2.437  1.00  0.00    -0.285 OA
HETATM    7  C7  UNL     1      -0.355   0.292   1.280  1.00  0.00     0.065 A 
HETATM    8  C8  UNL     1       0.886  -0.148   1.161  1.00  0.00     0.074 C 
HETATM    9  S2  UNL     1      -1.865  -0.478   0.706  1.00  0.00    -0.067 SA
ENDROOT
BRANCH   1  10
HETATM   10  N1  UNL     1      -4.379   0.749   1.130  1.00  0.00    -0.374 N 
ATOM     11  H1  UNL     1      -4.959   1.042   1.916  1.00  0.00     0.160 HD
BRANCH  10  12
HETATM   12  C2  UNL     1      -5.034   0.324  -0.059  1.00  0.00     0.133 C 
HETATM   13  C1  UNL     1      -4.719  -1.097  -0.456  1.00  0.00     0.037 C 
BRANCH  12  14
HETATM   14  C14 UNL     1      -6.533   0.432   0.115  1.00  0.00     0.276 C 
BRANCH  14  15
HETATM   15  O5  UNL     1      -7.211   0.021  -1.040  1.00  0.00    -0.369 OA
ATOM     16  H5  UNL     1      -8.152   0.089  -0.931  1.00  0.00     0.212 HD
ENDBRANCH  14  15
BRANCH  14  17
HETATM   17  O6  UNL     1      -6.906   1.762   0.402  1.00  0.00    -0.369 OA
ATOM     18  H6  UNL     1      -7.847   1.830   0.511  1.00  0.00     0.212 HD
ENDBRANCH  14  17
ENDBRANCH  12  14
ENDBRANCH  10  12
ENDBRANCH   1  10
BRANCH   8  19
HETATM   19  S1  UNL     1       1.200  -1.691   0.344  1.00  0.00    -0.081 SA
BRANCH  19  20
HETATM   20  C9  UNL     1       2.084  -1.337  -1.169  1.00  0.00     0.093 A 
HETATM   21  C10 UNL     1       3.458  -1.309  -1.130  1.00  0.00     0.091 A 
HETATM   22  C11 UNL     1       4.167  -1.042  -2.269  1.00  0.00     0.159 A 
HETATM   23  N6  UNL     1       3.510  -0.806  -3.432  1.00  0.00    -0.132 N 
HETATM   24  N7  UNL     1       2.194  -0.840  -3.440  1.00  0.00    -0.214 N 
HETATM   25  N8  UNL     1       1.472  -1.099  -2.340  1.00  0.00    -0.278 N 
ATOM     26  H7  UNL     1       1.704  -0.662  -4.317  1.00  0.00     0.211 HD
ATOM     27  H8  UNL     1       0.454  -1.115  -2.393  1.00  0.00     0.189 HD
BRANCH  22  28
HETATM   28  N3  UNL     1       5.453  -1.010  -2.255  1.00  0.00    -0.302 N 
HETATM   29  C12 UNL     1       6.121  -1.259  -1.031  1.00  0.00     0.316 C 
HETATM   30  O2  UNL     1       6.527  -2.413  -0.750  1.00  0.00    -0.262 OA
ATOM     31  H3  UNL     1       5.979  -0.810  -3.106  1.00  0.00     0.171 HD
BRANCH  29  32
HETATM   32  C13 UNL     1       6.322  -0.136  -0.113  1.00  0.00     0.327 C 
HETATM   33  O3  UNL     1       5.927   1.019  -0.372  1.00  0.00    -0.261 OA
HETATM   34  N4  UNL     1       6.990  -0.381   1.111  1.00  0.00    -0.268 N 
ATOM     35  H4  UNL     1       7.318  -1.321   1.334  1.00  0.00     0.190 HD
BRANCH  34  36
HETATM   36  N5  UNL     1       7.198   0.658   2.006  1.00  0.00    -0.342 N 
ATOM     37  H52 UNL     1       6.864   1.592   1.767  1.00  0.00     0.176 HD
ATOM     38  H51 UNL     1       7.679   0.481   2.888  1.00  0.00     0.176 HD
ENDBRANCH  34  36
ENDBRANCH  29  32
ENDBRANCH  22  28
BRANCH  23  39
HETATM   39  O4  UNL     1       4.252  -0.538  -4.570  1.00  0.00    -0.265 OA
ATOM     40  H4  UNL     1       3.792  -0.373  -5.385  1.00  0.00     0.247 HD
ENDBRANCH  23  39
ENDBRANCH  19  20
ENDBRANCH   8  19
TORSDOF 11
