REMARK  9 active torsions:
REMARK  status: ('A' for Active; 'I' for Inactive)
REMARK    1  A    between atoms: C2_2  and  C3_3 
REMARK    2  A    between atoms: C3_3  and  N1_4 
REMARK    3  A    between atoms: C3_3  and  C4_8 
REMARK    4  A    between atoms: C4_8  and  N2_10 
REMARK    5  A    between atoms: C5_14  and  C6_15 
REMARK       I    between atoms: C6_15  and  N5_17 
REMARK    6  A    between atoms: C8_24  and  S2_25 
REMARK    7  A    between atoms: S2_25  and  N8_26 
REMARK    8  A    between atoms: C9_32  and  N9_33 
REMARK    9  A    between atoms: C10_35  and  C11_36 
ROOT
HETATM    1  N2  UNL     1      -1.140   0.586   1.125  1.00  0.00    -0.212 N 
HETATM    2  N3  UNL     1      -0.183   0.686   2.033  1.00  0.00    -0.012 NA
HETATM    3  N4  UNL     1       0.846  -0.104   1.722  1.00  0.00    -0.275 N 
ATOM      4  H4  UNL     1       1.704  -0.202   2.265  1.00  0.00     0.184 HD
HETATM    5  C5  UNL     1       0.569  -0.750   0.576  1.00  0.00     0.160 A 
HETATM    6  C9  UNL     1      -0.685  -0.306   0.211  1.00  0.00     0.160 A 
ENDROOT
BRANCH   5   7
HETATM    7  C6  UNL     1       1.384  -1.713  -0.153  1.00  0.00     0.279 C 
HETATM    8  O1  UNL     1       0.950  -2.215  -1.219  1.00  0.00    -0.265 OA
HETATM    9  N5  UNL     1       2.659  -2.097   0.316  1.00  0.00    -0.300 N 
HETATM   10  C7  UNL     1       3.675  -1.383  -0.111  1.00  0.00     0.169 A 
ATOM     11  H5  UNL     1       2.784  -2.885   0.951  1.00  0.00     0.171 HD
HETATM   12  N6  UNL     1       3.692  -0.333  -0.934  1.00  0.00    -0.278 N 
HETATM   13  S3  UNL     1       5.352  -1.561   0.249  1.00  0.00    -0.020 SA
HETATM   14  N7  UNL     1       4.804   0.208  -1.213  1.00  0.00    -0.281 N 
ATOM     15  H6  UNL     1       2.825   0.028  -1.332  1.00  0.00     0.189 HD
HETATM   16  C8  UNL     1       5.927  -0.262  -0.696  1.00  0.00     0.208 A 
ATOM     17  H7  UNL     1       4.833   1.011  -1.841  1.00  0.00     0.188 HD
BRANCH  16  18
HETATM   18  S2  UNL     1       7.563   0.358  -0.968  1.00  0.00     0.280 S 
HETATM   19  O2  UNL     1       7.691   0.924  -2.343  1.00  0.00    -0.199 OA
HETATM   20  O3  UNL     1       8.494  -0.808  -0.812  1.00  0.00    -0.199 OA
BRANCH  18  21
HETATM   21  N8  UNL     1       7.841   1.548   0.256  1.00  0.00    -0.323 N 
ATOM     22  H82 UNL     1       7.183   1.827   0.984  1.00  0.00     0.169 HD
ATOM     23  H81 UNL     1       8.783   1.905   0.099  1.00  0.00     0.169 HD
ENDBRANCH  18  21
ENDBRANCH  16  18
ENDBRANCH   5   7
BRANCH   6  24
HETATM   24  N9  UNL     1      -1.431  -0.681  -0.922  1.00  0.00    -0.346 N 
HETATM   25  C10 UNL     1      -1.459   0.001  -2.018  1.00  0.00     0.134 C 
ATOM     26  H9  UNL     1      -1.980  -1.539  -0.875  1.00  0.00     0.167 HD
BRANCH  25  27
HETATM   27  C11 UNL     1      -2.266  -0.474  -3.136  1.00  0.00     0.125 C 
HETATM   28  N10 UNL     1      -2.320   0.176  -4.245  1.00  0.00    -0.387 N 
ATOM     29 2H10 UNL     1      -1.780   1.038  -4.320  1.00  0.00     0.157 HD
ATOM     30 1H10 UNL     1      -2.884  -0.156  -5.027  1.00  0.00     0.157 HD
HETATM   31  N11 UNL     1      -3.018  -1.676  -3.031  1.00  0.00    -0.082 NA
ENDBRANCH  25  27
ENDBRANCH   6  24
BRANCH   1  32
HETATM   32  C4  UNL     1      -2.387   1.274   1.117  1.00  0.00     0.131 C 
HETATM   33  S1  UNL     1      -2.639   2.585   0.178  1.00  0.00    -0.061 SA
BRANCH  32  34
HETATM   34  C3  UNL     1      -3.506   0.809   1.977  1.00  0.00     0.245 C 
BRANCH  34  35
HETATM   35  C2  UNL     1      -3.911  -0.614   1.630  1.00  0.00     0.035 C 
HETATM   36  C1  UNL     1      -4.915  -1.120   2.638  1.00  0.00     0.007 C 
ENDBRANCH  34  35
BRANCH  34  37
HETATM   37  N1  UNL     1      -4.612   1.722   1.977  1.00  0.00    -0.069 N 
ATOM     38  H13 UNL     1      -5.109   1.692   1.087  1.00  0.00     0.275 HD
ATOM     39  H12 UNL     1      -5.355   1.394   2.594  1.00  0.00     0.275 HD
ATOM     40  H11 UNL     1      -4.340   2.677   2.210  1.00  0.00     0.275 HD
ENDBRANCH  34  37
ENDBRANCH  32  34
ENDBRANCH   1  32
TORSDOF 9
