REMARK  8 active torsions:
REMARK  status: ('A' for Active; 'I' for Inactive)
REMARK    1  A    between atoms: C2_2  and  S1_3 
REMARK    2  A    between atoms: S1_3  and  N1_5 
REMARK    3  A    between atoms: S1_3  and  C3_10 
REMARK    4  A    between atoms: N1_5  and  N2_7 
REMARK    5  A    between atoms: C4_13  and  N4_14 
REMARK    6  A    between atoms: C5_16  and  C6_17 
REMARK    7  A    between atoms: C10_25  and  N7_26 
REMARK    8  A    between atoms: C11_31  and  N9_32 
ROOT
HETATM    1  C3  UNL     1       1.141   1.189   0.226  1.00  0.00     0.188 A 
HETATM    2  N3  UNL     1       1.644  -0.034   0.189  1.00  0.00    -0.319 N 
ATOM      3  H3  UNL     1       2.661  -0.106   0.172  1.00  0.00     0.169 HD
HETATM    4  C4  UNL     1       0.963  -1.192   0.171  1.00  0.00     0.125 A 
HETATM    5  C9  UNL     1      -0.440  -1.031   0.194  1.00  0.00     0.097 A 
HETATM    6  C10 UNL     1      -1.282  -2.134   0.180  1.00  0.00     0.132 A 
HETATM    7  N8  UNL     1      -2.629  -1.986   0.204  1.00  0.00    -0.176 N 
ATOM      8  H8  UNL     1      -3.231  -2.809   0.194  1.00  0.00     0.186 HD
HETATM    9  C11 UNL     1      -3.169  -0.769   0.241  1.00  0.00     0.683 A 
HETATM   10  N11 UNL     1      -2.346   0.307   0.255  1.00  0.00    -0.175 N 
ATOM     11  H11 UNL     1      -2.766   1.236   0.284  1.00  0.00     0.186 HD
HETATM   12  C16 UNL     1      -0.999   0.214   0.232  1.00  0.00     0.142 A 
HETATM   13  N12 UNL     1      -0.212   1.313   0.248  1.00  0.00    -0.314 N 
HETATM   14  C17 UNL     1      -0.846   2.595   0.287  1.00  0.00     0.160 C 
ENDROOT
BRANCH   4  15
HETATM   15  N4  UNL     1       1.402  -2.347   0.138  1.00  0.00    -0.348 N 
HETATM   16  C5  UNL     1       2.499  -3.153   0.105  1.00  0.00     0.137 C 
ATOM     17  H4  UNL     1       0.590  -2.964   0.134  1.00  0.00     0.167 HD
BRANCH  16  18
HETATM   18  C6  UNL     1       3.811  -2.629  -0.313  1.00  0.00     0.112 A 
HETATM   19  N5  UNL     1       4.159  -1.463  -0.707  1.00  0.00    -0.374 N 
HETATM   20  C7  UNL     1       5.571  -1.385  -1.023  1.00  0.00     0.141 A 
ATOM     21  H5  UNL     1       3.515  -0.676  -0.790  1.00  0.00     0.161 HD
HETATM   22  C8  UNL     1       6.126  -2.767  -0.737  1.00  0.00     0.141 A 
HETATM   23  N6  UNL     1       4.969  -3.498  -0.326  1.00  0.00    -0.374 N 
ATOM     24  H6  UNL     1       4.960  -4.487  -0.078  1.00  0.00     0.161 HD
ENDBRANCH  16  18
ENDBRANCH   4  15
BRANCH   1  25
HETATM   25  S1  UNL     1       2.095   2.641   0.241  1.00  0.00     0.101 S 
HETATM   26  O1  UNL     1       1.444   3.747  -0.543  1.00  0.00    -0.240 OA
BRANCH  25  27
HETATM   27  C2  UNL     1       2.477   3.151   1.909  1.00  0.00     0.122 C 
HETATM   28  C1  UNL     1       3.309   4.422   1.830  1.00  0.00     0.020 C 
ENDBRANCH  25  27
BRANCH  25  29
HETATM   29  N1  UNL     1       3.499   2.396  -0.463  1.00  0.00    -0.260 N 
ATOM     30  H1  UNL     1       3.917   1.468  -0.532  1.00  0.00     0.196 HD
BRANCH  29  31
HETATM   31  N2  UNL     1       4.122   3.528  -0.979  1.00  0.00    -0.338 N 
ATOM     32  H22 UNL     1       3.692   4.450  -0.902  1.00  0.00     0.177 HD
ATOM     33  H21 UNL     1       5.023   3.371  -1.431  1.00  0.00     0.177 HD
ENDBRANCH  29  31
ENDBRANCH  25  29
ENDBRANCH   1  25
BRANCH   6  34
HETATM   34  N7  UNL     1      -0.750  -3.305   0.143  1.00  0.00    -0.384 N 
ATOM     35  H72 UNL     1       0.264  -3.416   0.125  1.00  0.00     0.157 HD
ATOM     36  H71 UNL     1      -1.369  -4.116   0.133  1.00  0.00     0.157 HD
ENDBRANCH   6  34
BRANCH   9  37
HETATM   37  N9  UNL     1      -4.576  -0.586   0.274  1.00  0.00    -0.214 N 
HETATM   38  C12 UNL     1      -5.165   0.765   0.264  1.00  0.00     0.160 C 
HETATM   39  C13 UNL     1      -6.477   0.578  -0.519  1.00  0.00     0.134 C 
HETATM   40  N10 UNL     1      -6.375  -0.429  -1.527  1.00  0.00    -0.418 N 
HETATM   41  C14 UNL     1      -6.147  -1.760  -1.061  1.00  0.00     0.134 C 
ATOM     42  H10 UNL     1      -6.460  -0.211  -2.520  1.00  0.00     0.153 HD
HETATM   43  C15 UNL     1      -5.509  -1.661   0.320  1.00  0.00     0.160 C 
ENDBRANCH   9  37
TORSDOF 8
