REMARK  8 active torsions:
REMARK  status: ('A' for Active; 'I' for Inactive)
REMARK    1  A    between atoms: O1_2  and  C2_3 
REMARK    2  A    between atoms: C3_6  and  N2_7 
REMARK    3  A    between atoms: N2_7  and  N3_9 
REMARK       I    between atoms: N3_9  and  C4_11 
REMARK       I    between atoms: C4_11  and  N4_13 
REMARK    4  A    between atoms: N4_13  and  S1_15 
REMARK    5  A    between atoms: S1_15  and  N5_18 
REMARK    6  A    between atoms: N5_18  and  C5_20 
REMARK    7  A    between atoms: C9_27  and  S2_28 
REMARK    8  A    between atoms: C11_36  and  C12_37 
ROOT
HETATM    1  C5  UNL     1       4.750   0.803   0.657  1.00  0.00     0.132 A 
HETATM    2  C6  UNL     1       4.767   2.053   1.213  1.00  0.00     0.138 A 
HETATM    3  N6  UNL     1       5.979   2.688   1.269  1.00  0.00    -0.351 N 
ATOM      4  H6  UNL     1       6.034   3.622   1.675  1.00  0.00     0.166 HD
HETATM    5  C7  UNL     1       7.090   2.111   0.804  1.00  0.00     0.147 A 
HETATM    6  C8  UNL     1       8.365   2.800   0.874  1.00  0.00     0.120 C 
HETATM    7  N7  UNL     1       9.403   3.342   0.918  1.00  0.00    -0.190 NA
HETATM    8  C9  UNL     1       7.085   0.848   0.241  1.00  0.00     0.109 A 
HETATM    9  N8  UNL     1       5.886   0.227   0.186  1.00  0.00    -0.333 N 
ATOM     10  H8  UNL     1       5.832  -0.706  -0.223  1.00  0.00     0.168 HD
ENDROOT
BRANCH   8  11
HETATM   11  S2  UNL     1       8.601   0.119  -0.344  1.00  0.00    -0.114 SA
HETATM   12  C10 UNL     1       8.369  -1.544  -0.972  1.00  0.00     0.097 C 
ENDBRANCH   8  11
BRANCH   1  13
HETATM   13  N5  UNL     1       3.659   0.149   0.571  1.00  0.00    -0.251 N 
ATOM     14  H5  UNL     1       3.667  -0.781   0.152  1.00  0.00     0.182 HD
BRANCH  13  15
HETATM   15  S1  UNL     1       2.182   0.796   1.143  1.00  0.00     0.328 S 
HETATM   16  O3  UNL     1       2.200   1.090   2.622  1.00  0.00    -0.182 OA
HETATM   17  O4  UNL     1       1.837   2.097   0.444  1.00  0.00    -0.182 OA
BRANCH  15  18
HETATM   18  N4  UNL     1       0.859  -0.336   0.899  1.00  0.00    -0.217 N 
HETATM   19  C4  UNL     1      -0.251   0.042   0.121  1.00  0.00     0.349 C 
HETATM   20  N3  UNL     1      -1.325  -0.838  -0.093  1.00  0.00    -0.236 N 
HETATM   21  O2  UNL     1      -0.278   1.189  -0.390  1.00  0.00    -0.244 OA
ATOM     22  H3  UNL     1      -1.313  -1.769   0.324  1.00  0.00     0.192 HD
ATOM     23  H4  UNL     1       0.896  -1.264   1.320  1.00  0.00     0.185 HD
BRANCH  20  24
HETATM   24  N2  UNL     1      -2.409  -0.437  -0.877  1.00  0.00    -0.127 N 
ATOM     25  H2  UNL     1      -2.253   0.100  -1.730  1.00  0.00     0.206 HD
BRANCH  24  26
HETATM   26  C3  UNL     1      -3.733  -0.781  -0.482  1.00  0.00     0.713 A 
HETATM   27  N1  UNL     1      -4.835   0.084  -0.709  1.00  0.00    -0.169 N 
HETATM   28  C2  UNL     1      -6.035  -0.184  -0.369  1.00  0.00     0.168 A 
ATOM     29  H1  UNL     1      -4.657   0.975  -1.173  1.00  0.00     0.186 HD
HETATM   30  C11 UNL     1      -6.414  -1.428   0.314  1.00  0.00     0.275 A 
HETATM   31  N10 UNL     1      -5.269  -2.278   0.501  1.00  0.00    -0.299 N 
HETATM   32  N9  UNL     1      -4.005  -1.893   0.101  1.00  0.00    -0.134 N 
ATOM     33  H10 UNL     1      -5.394  -3.190   0.941  1.00  0.00     0.182 HD
ATOM     34  H9  UNL     1      -3.234  -2.536   0.281  1.00  0.00     0.205 HD
BRANCH  28  35
HETATM   35  O1  UNL     1      -7.048   0.756  -0.653  1.00  0.00    -0.342 OA
HETATM   36  C1  UNL     1      -6.755   2.141  -0.726  1.00  0.00     0.211 C 
ENDBRANCH  28  35
BRANCH  30  37
HETATM   37  C12 UNL     1      -7.351  -2.191  -0.598  1.00  0.00     0.206 C 
HETATM   38  O5  UNL     1      -6.847  -3.034  -1.408  1.00  0.00    -0.646 OA
HETATM   39  O6  UNL     1      -8.693  -1.953  -0.511  1.00  0.00    -0.646 OA
ENDBRANCH  30  37
ENDBRANCH  24  26
ENDBRANCH  20  24
ENDBRANCH  15  18
ENDBRANCH  13  15
ENDBRANCH   1  13
TORSDOF 8
