REMARK  2 active torsions:
REMARK  status: ('A' for Active; 'I' for Inactive)
REMARK    1  A    between atoms: C2_3  and  C3_4 
REMARK    2  A    between atoms: C4_5  and  C5_6 
ROOT
HETATM    1  N1  UNL     1       1.507   1.283   2.870  1.00  0.00    -0.195 NA
HETATM    2  C1  UNL     1       1.303   0.743   1.855  1.00  0.00     0.084 C 
HETATM    3  C2  UNL     1       1.061   0.063   0.576  1.00  0.00     0.136 C 
HETATM    4  C8  UNL     1       1.487   0.990  -0.521  1.00  0.00     0.041 C 
HETATM    5  C9  UNL     1       2.991   1.086  -0.658  1.00  0.00     0.030 C 
HETATM    6  C10 UNL     1       3.682  -0.195  -0.252  1.00  0.00     0.232 C 
HETATM    7  N3  UNL     1       2.729  -1.278  -0.528  1.00  0.00    -0.073 N 
ATOM      8  H31 UNL     1       3.179  -2.185  -0.654  1.00  0.00     0.277 HD
ATOM      9  H32 UNL     1       2.306  -1.212  -1.454  1.00  0.00     0.277 HD
HETATM   10  C11 UNL     1       1.765  -1.271   0.533  1.00  0.00     0.269 C 
ENDROOT
BRANCH   3  11
HETATM   11  C3  UNL     1      -0.403  -0.123   0.432  1.00  0.00    -0.079 C 
HETATM   12  C4  UNL     1      -1.594  -0.279   0.330  1.00  0.00    -0.097 C 
BRANCH  12  13
HETATM   13  C5  UNL     1      -3.018  -0.483   0.227  1.00  0.00     0.116 C 
HETATM   14  C6  UNL     1      -3.562  -0.675  -1.172  1.00  0.00     0.251 C 
HETATM   15  N2  UNL     1      -4.690   0.180  -0.770  1.00  0.00    -0.073 N 
HETATM   16  C7  UNL     1      -3.739   0.845   0.135  1.00  0.00     0.251 C 
ATOM     17  H22 UNL     1      -5.234   0.705  -1.455  1.00  0.00     0.277 HD
ATOM     18  H21 UNL     1      -5.566  -0.216  -0.429  1.00  0.00     0.277 HD
ENDBRANCH  12  13
ENDBRANCH   3  11
TORSDOF 2
