REMARK  1 active torsions:
REMARK  status: ('A' for Active; 'I' for Inactive)
REMARK    1  A    between atoms: N1_1  and  C1_5 
ROOT
HETATM    1  C1  UNL     1      -1.316  -0.610  -0.122  1.00  0.00     0.143 A 
HETATM    2  C2  UNL     1      -1.537   0.710   0.431  1.00  0.00     0.042 C 
HETATM    3  C3  UNL     1      -0.472   1.571   0.934  1.00  0.00     0.033 C 
HETATM    4  C4  UNL     1       0.459   1.904  -0.208  1.00  0.00     0.273 C 
HETATM    5  N2  UNL     1       1.241   0.988  -0.738  1.00  0.00     0.103 N 
HETATM    6  C5  UNL     1       2.101  -0.047  -0.525  1.00  0.00     0.266 A 
HETATM    7  C6  UNL     1       2.341  -0.705   0.789  1.00  0.00     0.112 C 
HETATM    8  S1  UNL     1       0.876  -1.246   1.642  1.00  0.00    -0.159 SA
HETATM    9  C7  UNL     1      -0.374  -1.621   0.423  1.00  0.00     0.092 A 
HETATM   10  C8  UNL     1      -0.213  -1.029  -0.906  1.00  0.00     0.074 A 
HETATM   11  C9  UNL     1       0.926  -0.235  -1.279  1.00  0.00     0.265 A 
ENDROOT
BRANCH   1  12
HETATM   12  N1  UNL     1      -2.655  -1.186  -0.442  1.00  0.00    -0.069 N 
ATOM     13  H13 UNL     1      -3.289  -1.189   0.357  1.00  0.00     0.275 HD
ATOM     14  H12 UNL     1      -3.212  -0.586  -1.051  1.00  0.00     0.275 HD
ATOM     15  H11 UNL     1      -2.499  -2.116  -0.832  1.00  0.00     0.275 HD
ENDBRANCH   1  12
TORSDOF 1
