REMARK  1 active torsions:
REMARK  status: ('A' for Active; 'I' for Inactive)
REMARK    1  A    between atoms: C8_10  and  C9_11 
ROOT
HETATM    1  C1  UNL     1      -1.471   2.164  -0.298  1.00  0.00     0.314 C 
HETATM    2  N1  UNL     1      -0.988   0.981   0.380  1.00  0.00     0.120 N 
HETATM    3  C2  UNL     1      -2.070   0.180   0.909  1.00  0.00     0.276 C 
HETATM    4  C3  UNL     1      -2.188  -1.052   0.079  1.00  0.00     0.035 C 
HETATM    5  C4  UNL     1      -1.214  -0.854  -1.083  1.00  0.00     0.074 C 
HETATM    6  C5  UNL     1      -0.230   0.111  -0.432  1.00  0.00     0.270 C 
HETATM    7  O1  UNL     1       0.605   0.686  -1.361  1.00  0.00    -0.352 OA
HETATM    8  C6  UNL     1       1.291  -0.445  -1.855  1.00  0.00     0.172 C 
HETATM    9  C7  UNL     1       1.542  -1.360  -0.693  1.00  0.00     0.043 C 
HETATM   10  C8  UNL     1       0.758  -0.654   0.419  1.00  0.00     0.118 C 
ENDROOT
BRANCH  10  11
HETATM   11  C9  UNL     1       1.626   0.326   1.122  1.00  0.00     0.095 C 
HETATM   12  N2  UNL     1       1.459   1.579   0.927  1.00  0.00    -0.391 N 
ATOM     13  H22 UNL     1       0.722   1.869   0.284  1.00  0.00     0.157 HD
ATOM     14  H21 UNL     1       2.055   2.252   1.410  1.00  0.00     0.157 HD
HETATM   15  N3  UNL     1       2.654  -0.078   2.018  1.00  0.00    -0.087 NA
ENDBRANCH  10  11
TORSDOF 1
