REMARK  0 active torsions:
REMARK  status: ('A' for Active; 'I' for Inactive)
ROOT
HETATM    1  C1  UNL     1       2.366  -0.164  -1.426  1.00  0.00     0.312 C 
HETATM    2  N1  UNL     1       1.543  -0.176  -0.208  1.00  0.00     0.109 N 
HETATM    3  C2  UNL     1       1.931   0.980   0.556  1.00  0.00     0.274 C 
HETATM    4  C3  UNL     1       0.753   1.759   1.092  1.00  0.00     0.030 C 
HETATM    5  C4  UNL     1       0.025   2.541   0.061  1.00  0.00     0.007 C 
HETATM    6  C5  UNL     1      -1.018   1.765  -0.692  1.00  0.00     0.044 C 
HETATM    7  C6  UNL     1      -2.236   1.446   0.128  1.00  0.00     0.055 C 
HETATM    8  N2  UNL     1      -2.314   0.123   0.607  1.00  0.00    -0.402 N 
ATOM      9  H2  UNL     1      -2.306  -0.073   1.608  1.00  0.00     0.158 HD
HETATM   10  C7  UNL     1      -2.403  -0.917  -0.331  1.00  0.00     0.120 C 
HETATM   11  C8  UNL     1      -1.704  -2.194   0.157  1.00  0.00     0.047 C 
HETATM   12  C9  UNL     1      -0.287  -2.271  -0.353  1.00  0.00     0.236 C 
HETATM   13  N3  UNL     1       0.597  -2.113   0.771  1.00  0.00    -0.049 N 
ATOM     14  H31 UNL     1       0.807  -3.018   1.191  1.00  0.00     0.279 HD
ATOM     15  H32 UNL     1       0.110  -1.670   1.550  1.00  0.00     0.279 HD
HETATM   16  C10 UNL     1       1.808  -1.406   0.467  1.00  0.00     0.502 C 
ENDROOT
TORSDOF 0
