REMARK  7 active torsions:
REMARK  status: ('A' for Active; 'I' for Inactive)
REMARK    1  A    between atoms: C2_2  and  C3_3 
REMARK    2  A    between atoms: C3_3  and  C4_4 
REMARK    3  A    between atoms: C4_4  and  C5_5 
REMARK    4  A    between atoms: C5_5  and  C7_7 
REMARK    5  A    between atoms: C7_7  and  O1_8 
REMARK    6  A    between atoms: O1_8  and  O2_9 
REMARK    7  A    between atoms: C15_22  and  O5_23 
ROOT
HETATM    1  C7  UNL     1       0.913   0.143  -0.700  1.00  0.00     0.229 C 
HETATM    2  O3  UNL     1       0.899   1.535  -0.402  1.00  0.00    -0.319 OA
HETATM    3  C8  UNL     1      -0.356   1.959  -0.793  1.00  0.00     0.280 C 
HETATM    4  O4  UNL     1      -0.774   3.176  -0.272  1.00  0.00    -0.308 OA
HETATM    5  C9  UNL     1      -2.087   3.326   0.221  1.00  0.00     0.113 C 
HETATM    6  C10 UNL     1      -2.401   4.638   0.853  1.00  0.00     0.097 C 
HETATM    7  N1  UNL     1      -2.975   2.391   0.137  1.00  0.00    -0.365 N 
ATOM      8  H1  UNL     1      -3.920   2.519   0.500  1.00  0.00     0.162 HD
HETATM    9  C11 UNL     1      -2.560   1.128  -0.508  1.00  0.00     0.039 C 
HETATM   10  C12 UNL     1      -2.595   1.508  -2.006  1.00  0.00     0.039 C 
HETATM   11  C13 UNL     1      -3.538   0.041  -0.371  1.00  0.00     0.034 C 
HETATM   12  C14 UNL     1      -3.674  -0.662   0.896  1.00  0.00     0.037 C 
HETATM   13  C15 UNL     1      -2.561  -1.331   1.552  1.00  0.00     0.152 C 
HETATM   14  C16 UNL     1      -1.568  -2.081   0.730  1.00  0.00     0.080 C 
HETATM   15  C17 UNL     1      -2.144  -2.804  -0.438  1.00  0.00     0.048 C 
HETATM   16  C18 UNL     1      -1.036  -3.205   1.659  1.00  0.00     0.048 C 
HETATM   17  O6  UNL     1      -0.444  -1.333   0.476  1.00  0.00    -0.367 OA
HETATM   18  C19 UNL     1      -0.494  -0.342  -0.431  1.00  0.00     0.199 C 
HETATM   19  C20 UNL     1      -1.188   0.899  -0.037  1.00  0.00     0.104 C 
ENDROOT
BRANCH   1  20
HETATM   20  C5  UNL     1       1.959  -0.397   0.234  1.00  0.00     0.050 C 
HETATM   21  C6  UNL     1       2.343  -1.815   0.042  1.00  0.00     0.015 C 
BRANCH  20  22
HETATM   22  C4  UNL     1       3.221   0.426  -0.097  1.00  0.00     0.010 C 
BRANCH  22  23
HETATM   23  C3  UNL     1       4.356   0.050   0.821  1.00  0.00     0.000 C 
BRANCH  23  24
HETATM   24  C2  UNL     1       5.544   0.903   0.426  1.00  0.00    -0.005 C 
HETATM   25  C1  UNL     1       5.948   0.661  -1.011  1.00  0.00     0.005 C 
ENDBRANCH  23  24
ENDBRANCH  22  23
ENDBRANCH  20  22
ENDBRANCH   1  20
BRANCH   1  26
HETATM   26  O1  UNL     1       1.311  -0.041  -2.026  1.00  0.00    -0.200 OA
BRANCH  26  27
HETATM   27  O2  UNL     1       1.493  -1.286  -2.330  1.00  0.00    -0.247 OA
ATOM     28  H2  UNL     1       1.764  -1.411  -3.232  1.00  0.00     0.253 HD
ENDBRANCH  26  27
ENDBRANCH   1  26
BRANCH  13  29
HETATM   29  O5  UNL     1      -3.146  -2.225   2.497  1.00  0.00    -0.393 OA
ATOM     30  H5  UNL     1      -2.419  -2.662   2.925  1.00  0.00     0.210 HD
ENDBRANCH  13  29
TORSDOF 7
