REMARK  6 active torsions:
REMARK  status: ('A' for Active; 'I' for Inactive)
REMARK    1  A    between atoms: C1_2  and  C2_3 
REMARK    2  A    between atoms: C2_3  and  S1_4 
REMARK    3  A    between atoms: S1_4  and  C3_5 
REMARK    4  A    between atoms: C7_13  and  N2_14 
REMARK       I    between atoms: N2_14  and  C8_16 
REMARK    5  A    between atoms: C8_16  and  C9_18 
REMARK    6  A    between atoms: C9_18  and  C10_19 
ROOT
HETATM    1  C3  UNL     1      -3.655   0.847   0.483  1.00  0.00     0.023 A 
HETATM    2  C4  UNL     1      -3.976   2.162   0.522  1.00  0.00     0.050 A 
HETATM    3  C5  UNL     1      -3.062   3.192   0.471  1.00  0.00     0.075 A 
HETATM    4  S2  UNL     1      -3.552   4.770   0.521  1.00  0.00    -0.072 SA
HETATM    5  S3  UNL     1      -1.446   2.702   0.352  1.00  0.00    -0.059 SA
HETATM    6  C6  UNL     1      -1.211   0.978   0.315  1.00  0.00     0.096 A 
HETATM    7  N1  UNL     1      -0.098   0.296   0.232  1.00  0.00    -0.330 N 
ATOM      8  H1  UNL     1       0.798   0.779   0.175  1.00  0.00     0.168 HD
HETATM    9  C7  UNL     1      -0.145  -1.029   0.222  1.00  0.00     0.152 A 
HETATM   10  S5  UNL     1      -1.815  -1.350   0.333  1.00  0.00    -0.050 SA
HETATM   11  C14 UNL     1      -2.387   0.290   0.388  1.00  0.00     0.059 A 
ENDROOT
BRANCH   9  12
HETATM   12  N2  UNL     1       0.862  -1.877   0.141  1.00  0.00    -0.307 N 
HETATM   13  C8  UNL     1       2.171  -1.343   0.053  1.00  0.00     0.228 C 
HETATM   14  O2  UNL     1       2.658  -1.273  -1.117  1.00  0.00    -0.273 OA
ATOM     15  H2  UNL     1       0.703  -2.885   0.142  1.00  0.00     0.171 HD
BRANCH  13  16
HETATM   16  C9  UNL     1       2.977  -0.881   1.180  1.00  0.00     0.149 C 
BRANCH  16  17
HETATM   17  C10 UNL     1       4.316  -0.425   0.656  1.00  0.00    -0.009 A 
HETATM   18  C11 UNL     1       5.438  -1.196   0.484  1.00  0.00     0.015 A 
HETATM   19  C12 UNL     1       6.531  -0.595   0.004  1.00  0.00     0.008 A 
HETATM   20  C13 UNL     1       6.441   0.743  -0.277  1.00  0.00     0.050 A 
HETATM   21  S4  UNL     1       4.832   1.115   0.139  1.00  0.00    -0.106 SA
ENDBRANCH  16  17
ENDBRANCH  13  16
ENDBRANCH   9  12
BRANCH   1  22
HETATM   22  S1  UNL     1      -5.028  -0.314   0.563  1.00  0.00    -0.122 SA
BRANCH  22  23
HETATM   23  C2  UNL     1      -5.691  -0.701  -1.053  1.00  0.00     0.149 C 
BRANCH  23  24
HETATM   24  C1  UNL     1      -4.665  -1.434  -1.844  1.00  0.00     0.241 C 
HETATM   25  O1  UNL     1      -3.967  -0.753  -2.590  1.00  0.00    -0.306 OA
ENDBRANCH  23  24
ENDBRANCH  22  23
ENDBRANCH   1  22
TORSDOF 6
