REMARK  11 active torsions:
REMARK  status: ('A' for Active; 'I' for Inactive)
REMARK    1  A    between atoms: C2_2  and  S1_3 
REMARK    2  A    between atoms: S1_3  and  C3_4 
REMARK    3  A    between atoms: C3_4  and  N1_6 
REMARK    4  A    between atoms: N1_6  and  C4_8 
REMARK    5  A    between atoms: C5_11  and  N3_12 
REMARK    6  A    between atoms: N3_12  and  N4_14 
REMARK    7  A    between atoms: N4_14  and  N5_15 
REMARK    8  A    between atoms: C6_18  and  S3_19 
REMARK    9  A    between atoms: S3_19  and  C7_20 
REMARK   10  A    between atoms: C7_20  and  C8_21 
REMARK   11  A    between atoms: C8_21  and  C9_23 
ROOT
HETATM    1  C4  UNL     1       2.868   0.190  -0.238  1.00  0.00     0.152 A 
HETATM    2  N2  UNL     1       2.348   1.225   0.424  1.00  0.00    -0.319 N 
ATOM      3  H2  UNL     1       2.815   2.132   0.423  1.00  0.00     0.169 HD
HETATM    4  C5  UNL     1       1.232   1.053   1.071  1.00  0.00     0.159 A 
HETATM    5  C6  UNL     1       0.653  -0.186   1.034  1.00  0.00     0.091 A 
HETATM    6  S4  UNL     1       1.749  -1.060   0.062  1.00  0.00    -0.043 SA
ENDROOT
BRANCH   5   7
HETATM    7  S3  UNL     1      -0.882  -0.739   1.821  1.00  0.00    -0.111 SA
BRANCH   7   8
HETATM    8  C7  UNL     1      -2.199  -0.421   0.612  1.00  0.00     0.164 C 
BRANCH   8   9
HETATM    9  C8  UNL     1      -3.524  -0.814   1.115  1.00  0.00     0.169 C 
HETATM   10  O1  UNL     1      -3.652  -1.301   2.255  1.00  0.00    -0.291 OA
BRANCH   9  11
HETATM   11  C9  UNL     1      -4.690  -0.636   0.283  1.00  0.00     0.010 A 
HETATM   12  C10 UNL     1      -4.598  -0.103  -0.992  1.00  0.00     0.015 A 
HETATM   13  C11 UNL     1      -5.707   0.072  -1.789  1.00  0.00     0.001 A 
HETATM   14  C12 UNL     1      -6.955  -0.285  -1.329  1.00  0.00     0.000 A 
HETATM   15  C13 UNL     1      -7.079  -0.824  -0.047  1.00  0.00     0.001 A 
HETATM   16  C14 UNL     1      -5.940  -0.988   0.733  1.00  0.00     0.015 A 
ENDBRANCH   9  11
ENDBRANCH   8   9
ENDBRANCH   7   8
ENDBRANCH   5   7
BRANCH   4  17
HETATM   17  N3  UNL     1       0.583   2.116   1.825  1.00  0.00    -0.198 N 
ATOM     18  H3  UNL     1       0.344   1.949   2.802  1.00  0.00     0.205 HD
BRANCH  17  19
HETATM   19  N4  UNL     1       0.316   3.190   1.337  1.00  0.00    -0.242 NA
BRANCH  19  20
HETATM   20  N5  UNL     1       0.226   4.237   0.711  1.00  0.00    -0.260 N 
ATOM     21  H52 UNL     1       1.047   3.968   0.168  1.00  0.00     0.193 HD
ATOM     22  H51 UNL     1       0.001   5.143   0.299  1.00  0.00     0.193 HD
ENDBRANCH  19  20
ENDBRANCH  17  19
ENDBRANCH   4  17
BRANCH   1  23
HETATM   23  N1  UNL     1       3.979   0.168  -0.944  1.00  0.00    -0.322 N 
ATOM     24  H1  UNL     1       4.569   0.993  -1.048  1.00  0.00     0.169 HD
BRANCH  23  25
HETATM   25  C3  UNL     1       4.303  -1.057  -1.545  1.00  0.00     0.140 C 
HETATM   26  S2  UNL     1       3.246  -1.787  -2.519  1.00  0.00    -0.053 SA
BRANCH  25  27
HETATM   27  S1  UNL     1       5.873  -1.802  -1.232  1.00  0.00    -0.101 SA
BRANCH  27  28
HETATM   28  C2  UNL     1       6.896  -0.817  -0.113  1.00  0.00     0.077 C 
HETATM   29  C1  UNL     1       7.248   0.471  -0.809  1.00  0.00     0.016 C 
ENDBRANCH  27  28
ENDBRANCH  25  27
ENDBRANCH  23  25
ENDBRANCH   1  23
TORSDOF 11
