REMARK  4 active torsions:
REMARK  status: ('A' for Active; 'I' for Inactive)
REMARK    1  A    between atoms: C2_2  and  C3_3 
REMARK    2  A    between atoms: C3_3  and  N1_4 
REMARK    3  A    between atoms: N1_4  and  C4_5 
REMARK    4  A    between atoms: N1_4  and  C7_12 
ROOT
HETATM    1  N1  UNL     1       0.151   0.303   0.376  1.00  0.00    -0.345 N 
ENDROOT
BRANCH   1   2
HETATM    2  C3  UNL     1      -0.043   1.731   0.456  1.00  0.00     0.153 C 
BRANCH   2   3
HETATM    3  C2  UNL     1       0.556   2.472  -0.684  1.00  0.00    -0.017 C 
HETATM    4  C1  UNL     1      -0.184   3.221  -1.470  1.00  0.00     0.008 C 
ENDBRANCH   2   3
ENDBRANCH   1   2
BRANCH   1   5
HETATM    5  C4  UNL     1       1.465  -0.205   0.534  1.00  0.00     0.173 C 
HETATM    6  N2  UNL     1       2.131  -0.355   1.623  1.00  0.00    -0.361 N 
HETATM    7  C5  UNL     1       3.439  -0.898   1.426  1.00  0.00     0.142 C 
ATOM      8  H2  UNL     1       1.761  -0.110   2.541  1.00  0.00     0.162 HD
HETATM    9  C6  UNL     1       3.656  -0.836  -0.063  1.00  0.00     0.142 C 
HETATM   10  N3  UNL     1       2.284  -0.643  -0.531  1.00  0.00    -0.361 N 
ATOM     11  H3  UNL     1       1.965  -0.801  -1.487  1.00  0.00     0.162 HD
ENDBRANCH   1   5
BRANCH   1  12
HETATM   12  C7  UNL     1      -0.926  -0.584   0.160  1.00  0.00     0.087 C 
HETATM   13  C8  UNL     1      -1.748  -0.368  -1.074  1.00  0.00     0.025 C 
HETATM   14  C9  UNL     1      -2.810  -1.458  -0.877  1.00  0.00     0.002 C 
HETATM   15  C10 UNL     1      -3.064  -1.417   0.614  1.00  0.00     0.002 C 
HETATM   16  C11 UNL     1      -1.991  -0.551   1.238  1.00  0.00     0.025 C 
ENDBRANCH   1  12
TORSDOF 4
