REMARK  3 active torsions:
REMARK  status: ('A' for Active; 'I' for Inactive)
REMARK    1  A    between atoms: C4_4  and  C5_5 
REMARK    2  A    between atoms: C5_5  and  N1_6 
REMARK    3  A    between atoms: N1_6  and  C6_8 
ROOT
HETATM    1  N1  UNL     1       0.644   0.274  -0.484  1.00  0.00    -0.393 N 
ATOM      2  H1  UNL     1       0.361   0.095  -1.447  1.00  0.00     0.159 HD
ENDROOT
BRANCH   1   3
HETATM    3  C5  UNL     1      -0.320   0.558   0.501  1.00  0.00     0.060 C 
BRANCH   3   4
HETATM    4  C4  UNL     1      -1.691   0.541  -0.124  1.00  0.00     0.024 C 
HETATM    5  C3  UNL     1      -2.785   0.846   0.909  1.00  0.00     0.010 C 
HETATM    6  C2  UNL     1      -4.005   0.410   0.086  1.00  0.00     0.001 C 
HETATM    7  C1  UNL     1      -3.568  -0.968  -0.350  1.00  0.00     0.001 C 
HETATM    8  C10 UNL     1      -2.105  -0.809  -0.634  1.00  0.00     0.010 C 
ENDBRANCH   3   4
ENDBRANCH   1   3
BRANCH   1   9
HETATM    9  C6  UNL     1       1.995   0.241  -0.124  1.00  0.00     0.128 C 
HETATM   10  C7  UNL     1       2.423  -0.781   0.863  1.00  0.00     0.197 C 
HETATM   11  O1  UNL     1       3.747  -0.462   1.243  1.00  0.00    -0.365 OA
HETATM   12  C8  UNL     1       4.505  -0.035   0.170  1.00  0.00     0.337 C 
HETATM   13  O2  UNL     1       4.031  -0.559  -1.031  1.00  0.00    -0.365 OA
HETATM   14  C9  UNL     1       2.830   0.024  -1.395  1.00  0.00     0.197 C 
ENDBRANCH   1   9
TORSDOF 3
