REMARK  17 active torsions:
REMARK  status: ('A' for Active; 'I' for Inactive)
REMARK    1  A    between atoms: O1_2  and  C2_3 
REMARK    2  A    between atoms: C3_4  and  O2_5 
REMARK    3  A    between atoms: O2_5  and  C4_6 
REMARK    4  A    between atoms: C5_7  and  O3_8 
REMARK    5  A    between atoms: O3_8  and  C6_9 
REMARK    6  A    between atoms: C8_12  and  O5_13 
REMARK    7  A    between atoms: O5_13  and  C9_14 
REMARK    8  A    between atoms: C11_17  and  O7_18 
REMARK    9  A    between atoms: O7_18  and  C12_19 
REMARK   10  A    between atoms: C14_22  and  C15_23 
REMARK   11  A    between atoms: C15_23  and  O9_24 
REMARK   12  A    between atoms: C15_23  and  C16_26 
REMARK   13  A    between atoms: C16_26  and  O10_27 
REMARK   14  A    between atoms: C17_29  and  O11_30 
REMARK   15  A    between atoms: C20_36  and  O13_38 
REMARK   16  A    between atoms: C22_40  and  O14_41 
REMARK   17  A    between atoms: O14_41  and  C23_42 
ROOT
HETATM    1  C4  UNL     1      -0.521   0.201  -0.803  1.00  0.00     0.203 C 
HETATM    2  C5  UNL     1      -1.003  -0.448   0.445  1.00  0.00     0.197 C 
HETATM    3  C8  UNL     1      -2.385  -0.108   0.916  1.00  0.00     0.194 C 
HETATM    4  C11 UNL     1      -3.036   0.977   0.115  1.00  0.00     0.174 C 
HETATM    5  C14 UNL     1      -2.145   2.105  -0.260  1.00  0.00     0.100 C 
HETATM    6  C17 UNL     1      -1.071   1.527  -1.144  1.00  0.00     0.183 C 
HETATM    7  C18 UNL     1      -1.732   1.361  -2.492  1.00  0.00     0.101 C 
HETATM    8  N1  UNL     1      -2.221   1.246  -3.528  1.00  0.00    -0.194 NA
ENDROOT
BRANCH   6   9
HETATM    9  O11 UNL     1      -0.065   2.466  -1.263  1.00  0.00    -0.372 OA
ATOM     10  H11 UNL     1      -0.419   3.320  -1.483  1.00  0.00     0.212 HD
ENDBRANCH   6   9
BRANCH   1  11
HETATM   11  O2  UNL     1       0.872   0.361  -0.835  1.00  0.00    -0.369 OA
BRANCH  11  12
HETATM   12  C3  UNL     1       1.580  -0.324  -1.740  1.00  0.00     0.177 C 
HETATM   13  C2  UNL     1       2.689  -1.048  -1.019  1.00  0.00     0.186 C 
HETATM   14  C22 UNL     1       3.590   0.038  -0.439  1.00  0.00     0.225 C 
HETATM   15  C20 UNL     1       4.250   0.719  -1.615  1.00  0.00     0.187 C 
HETATM   16  O12 UNL     1       3.202   1.394  -2.289  1.00  0.00    -0.350 OA
HETATM   17  C21 UNL     1       5.256   1.764  -1.183  1.00  0.00     0.082 C 
HETATM   18  C19 UNL     1       2.276   0.520  -2.799  1.00  0.00     0.206 C 
BRANCH  13  19
HETATM   19  O1  UNL     1       3.398  -1.916  -1.828  1.00  0.00    -0.385 OA
HETATM   20  C1  UNL     1       3.415  -3.169  -1.226  1.00  0.00     0.202 C 
ENDBRANCH  13  19
BRANCH  14  21
HETATM   21  O14 UNL     1       4.457  -0.405   0.548  1.00  0.00    -0.308 OA
BRANCH  21  22
HETATM   22  C23 UNL     1       4.334   0.102   1.831  1.00  0.00     0.255 C 
HETATM   23  C24 UNL     1       5.191  -0.283   2.974  1.00  0.00     0.126 C 
HETATM   24  O15 UNL     1       3.420   0.964   2.060  1.00  0.00    -0.266 OA
ENDBRANCH  21  22
ENDBRANCH  14  21
BRANCH  15  25
HETATM   25  O13 UNL     1       4.885  -0.185  -2.473  1.00  0.00    -0.363 OA
ATOM     26  H13 UNL     1       5.588  -0.638  -2.021  1.00  0.00     0.213 HD
ENDBRANCH  15  25
ENDBRANCH  11  12
ENDBRANCH   1  11
BRANCH   5  27
HETATM   27  C15 UNL     1      -1.510   2.727   0.935  1.00  0.00     0.152 C 
BRANCH  27  28
HETATM   28  O9  UNL     1      -0.622   3.798   0.473  1.00  0.00    -0.393 OA
ATOM     29  H9  UNL     1      -0.217   4.195   1.235  1.00  0.00     0.210 HD
ENDBRANCH  27  28
BRANCH  27  30
HETATM   30  C16 UNL     1      -2.415   3.556   1.823  1.00  0.00     0.196 C 
BRANCH  30  31
HETATM   31  O10 UNL     1      -3.342   2.805   2.462  1.00  0.00    -0.398 OA
ATOM     32  H10 UNL     1      -3.910   3.325   3.019  1.00  0.00     0.209 HD
ENDBRANCH  30  31
ENDBRANCH  27  30
ENDBRANCH   5  27
BRANCH   2  33
HETATM   33  O3  UNL     1      -1.026  -1.880   0.320  1.00  0.00    -0.311 OA
BRANCH  33  34
HETATM   34  C6  UNL     1      -0.267  -2.725   1.109  1.00  0.00     0.255 C 
HETATM   35  C7  UNL     1      -0.405  -4.188   0.848  1.00  0.00     0.126 C 
HETATM   36  O4  UNL     1       0.483  -2.253   1.983  1.00  0.00    -0.266 OA
ENDBRANCH  33  34
ENDBRANCH   2  33
BRANCH   4  37
HETATM   37  O7  UNL     1      -3.766   0.461  -0.985  1.00  0.00    -0.313 OA
BRANCH  37  38
HETATM   38  C12 UNL     1      -5.116   0.569  -1.067  1.00  0.00     0.255 C 
HETATM   39  C13 UNL     1      -5.960   0.054  -2.187  1.00  0.00     0.126 C 
HETATM   40  O8  UNL     1      -5.694   1.146  -0.130  1.00  0.00    -0.266 OA
ENDBRANCH  37  38
ENDBRANCH   4  37
BRANCH   3  41
HETATM   41  O5  UNL     1      -3.206  -1.216   1.165  1.00  0.00    -0.311 OA
BRANCH  41  42
HETATM   42  C9  UNL     1      -3.696  -1.630   2.366  1.00  0.00     0.255 C 
HETATM   43  C10 UNL     1      -4.549  -2.803   2.528  1.00  0.00     0.126 C 
HETATM   44  O6  UNL     1      -3.359  -0.926   3.317  1.00  0.00    -0.266 OA
ENDBRANCH  41  42
ENDBRANCH   3  41
TORSDOF 17
