REMARK  15 active torsions:
REMARK  status: ('A' for Active; 'I' for Inactive)
REMARK    1  A    between atoms: C3_4  and  S1_5 
REMARK    2  A    between atoms: S1_5  and  C4_6 
REMARK    3  A    between atoms: C6_16  and  C7_17 
REMARK    4  A    between atoms: C7_17  and  O1_18 
REMARK    5  A    between atoms: C7_17  and  C12_26 
REMARK    6  A    between atoms: O1_18  and  C8_19 
REMARK    7  A    between atoms: C8_19  and  C9_20 
REMARK    8  A    between atoms: C9_20  and  O3_22 
REMARK    9  A    between atoms: O3_22  and  C10_23 
REMARK   10  A    between atoms: C12_26  and  O6_28 
REMARK   11  A    between atoms: C14_30  and  C15_31 
REMARK   12  A    between atoms: C15_31  and  O7_32 
REMARK   13  A    between atoms: C15_31  and  O8_34 
REMARK   14  A    between atoms: C17_38  and  O10_39 
REMARK   15  A    between atoms: C19_42  and  O12_44 
ROOT
HETATM    1  C1  UNL     1      -3.439   0.716  -3.047  1.00  0.00     0.222 C 
HETATM    2  N1  UNL     1      -2.906   0.347  -2.104  1.00  0.00    -0.446 NA
HETATM    3  C2  UNL     1      -2.265  -0.129  -0.983  1.00  0.00     0.211 C 
HETATM    4  C3  UNL     1      -1.039   0.560  -0.569  1.00  0.00     0.043 C 
HETATM    5  C6  UNL     1       0.152   0.018  -0.959  1.00  0.00     0.009 C 
HETATM    6  C14 UNL     1       0.183  -1.264  -1.765  1.00  0.00     0.210 C 
HETATM    7  O9  UNL     1      -0.885  -2.066  -1.599  1.00  0.00    -0.362 OA
HETATM    8  C16 UNL     1      -1.992  -1.625  -1.054  1.00  0.00     0.230 C 
HETATM    9  C17 UNL     1      -2.008  -1.984   0.419  1.00  0.00     0.295 C 
HETATM   10  O11 UNL     1      -2.525  -0.881   1.102  1.00  0.00    -0.319 OA
HETATM   11  C19 UNL     1      -3.304  -0.302   0.119  1.00  0.00     0.207 C 
HETATM   12  C20 UNL     1      -4.173   0.781   0.486  1.00  0.00     0.083 C 
ENDROOT
BRANCH   4  13
HETATM   13  S1  UNL     1      -0.915   2.035   0.322  1.00  0.00    -0.064 SA
BRANCH  13  14
HETATM   14  C4  UNL     1      -1.882   3.436  -0.077  1.00  0.00     0.134 A 
HETATM   15  N2  UNL     1      -2.762   3.762  -1.005  1.00  0.00    -0.286 N 
HETATM   16  N3  UNL     1      -3.315   4.892  -1.040  1.00  0.00    -0.279 N 
ATOM     17  H2  UNL     1      -3.002   3.074  -1.719  1.00  0.00     0.188 HD
HETATM   18  C5  UNL     1      -3.001   5.792  -0.105  1.00  0.00     0.159 A 
ATOM     19  H3  UNL     1      -3.991   5.116  -1.770  1.00  0.00     0.189 HD
HETATM   20  N4  UNL     1      -3.458   7.016   0.039  1.00  0.00    -0.379 N 
HETATM   21  S2  UNL     1      -1.865   4.931   0.833  1.00  0.00    -0.026 SA
ATOM     22  H42 UNL     1      -4.137   7.531  -0.522  1.00  0.00     0.158 HD
ATOM     23  H41 UNL     1      -3.218   7.704   0.753  1.00  0.00     0.158 HD
ENDBRANCH  13  14
ENDBRANCH   4  13
BRANCH  11  24
HETATM   24  O12 UNL     1      -4.148  -1.356  -0.338  1.00  0.00    -0.362 OA
ATOM     25  H12 UNL     1      -4.795  -1.464   0.349  1.00  0.00     0.213 HD
ENDBRANCH  11  24
BRANCH   5  26
HETATM   26  C7  UNL     1       1.474   0.533  -0.658  1.00  0.00     0.254 C 
BRANCH  26  27
HETATM   27  O1  UNL     1       1.937  -0.235   0.473  1.00  0.00    -0.362 OA
BRANCH  27  28
HETATM   28  C8  UNL     1       3.156  -0.784   0.141  1.00  0.00     0.280 C 
BRANCH  28  29
HETATM   29  C9  UNL     1       3.707  -1.624   1.239  1.00  0.00     0.290 C 
HETATM   30  O2  UNL     1       3.029  -1.732   2.284  1.00  0.00    -0.262 OA
BRANCH  29  31
HETATM   31  O3  UNL     1       4.919  -2.263   1.113  1.00  0.00    -0.244 OA
BRANCH  31  32
HETATM   32  C10 UNL     1       5.427  -3.048   2.145  1.00  0.00     0.262 C 
HETATM   33  C11 UNL     1       6.749  -3.714   1.944  1.00  0.00     0.126 C 
HETATM   34  O4  UNL     1       4.795  -3.198   3.223  1.00  0.00    -0.265 OA
ENDBRANCH  31  32
ENDBRANCH  29  31
ENDBRANCH  28  29
ENDBRANCH  27  28
ENDBRANCH  26  27
BRANCH  26  35
HETATM   35  C12 UNL     1       1.714   1.915  -0.250  1.00  0.00     0.292 C 
HETATM   36  O5  UNL     1       1.537   2.837  -1.080  1.00  0.00    -0.262 OA
BRANCH  35  37
HETATM   37  O6  UNL     1       2.132   2.296   0.999  1.00  0.00    -0.324 OA
HETATM   38  C13 UNL     1       2.392   3.617   1.434  1.00  0.00     0.213 C 
ENDBRANCH  35  37
ENDBRANCH  26  35
ENDBRANCH   5  26
BRANCH   9  39
HETATM   39  O10 UNL     1      -2.639  -3.158   0.710  1.00  0.00    -0.363 OA
HETATM   40  C18 UNL     1      -1.825  -4.086   1.355  1.00  0.00     0.204 C 
ENDBRANCH   9  39
BRANCH   6  41
HETATM   41  C15 UNL     1       0.348  -1.033  -3.244  1.00  0.00     0.287 C 
BRANCH  41  42
HETATM   42  O7  UNL     1       1.376  -0.236  -3.636  1.00  0.00    -0.369 OA
ATOM     43  H7  UNL     1       1.480  -0.090  -4.569  1.00  0.00     0.212 HD
ENDBRANCH  41  42
BRANCH  41  44
HETATM   44  O8  UNL     1       0.552  -2.285  -3.883  1.00  0.00    -0.369 OA
ATOM     45  H8  UNL     1       0.656  -2.139  -4.816  1.00  0.00     0.212 HD
ENDBRANCH  41  44
ENDBRANCH   6  41
TORSDOF 15
