REMARK  2 active torsions:
REMARK  status: ('A' for Active; 'I' for Inactive)
REMARK    1  A    between atoms: C2_2  and  C5_5 
REMARK    2  A    between atoms: C9_10  and  C10_12 
ROOT
HETATM    1  C5  UNL     1      -0.291   0.536  -0.174  1.00  0.00     0.274 C 
HETATM    2  F1  UNL     1      -0.302   1.939  -0.188  1.00  0.00    -0.211 F 
HETATM    3  C6  UNL     1       0.105   0.074  -1.543  1.00  0.00     0.075 C 
HETATM    4  C7  UNL     1       1.111  -1.056  -1.486  1.00  0.00     0.009 C 
HETATM    5  C8  UNL     1       2.346  -0.702  -0.736  1.00  0.00     0.066 C 
HETATM    6  C9  UNL     1       2.017   0.346   0.311  1.00  0.00     0.301 C 
HETATM    7 CL1  UNL     1       2.277   1.936  -0.424  1.00  0.00    -0.079 Cl
HETATM    8  N1  UNL     1       0.692   0.132   0.776  1.00  0.00    -0.006 N 
ATOM      9  H11 UNL     1       0.554  -0.839   1.057  1.00  0.00     0.283 HD
ATOM     10  H12 UNL     1       0.541   0.586   1.677  1.00  0.00     0.283 HD
ENDROOT
BRANCH   1  11
HETATM   11  C2  UNL     1      -1.690   0.139   0.206  1.00  0.00     0.012 C 
HETATM   12  C1  UNL     1      -1.911  -1.331   0.283  1.00  0.00     0.020 C 
HETATM   13  C3  UNL     1      -2.010   0.790   1.535  1.00  0.00     0.020 C 
HETATM   14  C4  UNL     1      -2.644   0.707  -0.824  1.00  0.00     0.020 C 
ENDBRANCH   1  11
BRANCH   6  15
HETATM   15  C10 UNL     1       3.049   0.193   1.415  1.00  0.00     0.434 C 
HETATM   16  F2  UNL     1       2.998  -1.073   1.975  1.00  0.00    -0.167 F 
HETATM   17  F3  UNL     1       4.299   0.310   0.830  1.00  0.00    -0.167 F 
HETATM   18  F4  UNL     1       2.955   1.186   2.360  1.00  0.00    -0.167 F 
ENDBRANCH   6  15
TORSDOF 2
