REMARK  2 active torsions:
REMARK  status: ('A' for Active; 'I' for Inactive)
REMARK    1  A    between atoms: C2_2  and  C3_4 
REMARK    2  A    between atoms: C3_4  and  C4_5 
ROOT
HETATM    1  C3  UNL     1      -1.134  -0.448  -0.284  1.00  0.00     0.193 C 
HETATM    2  N1  UNL     1      -0.275  -1.486   0.220  1.00  0.00    -0.366 N 
ATOM      3  H1  UNL     1      -0.566  -2.402   0.563  1.00  0.00     0.161 HD
HETATM    4  C5  UNL     1       1.056  -0.994   0.150  1.00  0.00     0.036 A 
HETATM    5  C6  UNL     1       2.300  -1.649   0.188  1.00  0.00     0.030 A 
HETATM    6  C7  UNL     1       3.468  -0.939   0.101  1.00  0.00     0.002 A 
HETATM    7  C8  UNL     1       3.484   0.432  -0.025  1.00  0.00     0.001 A 
HETATM    8  C9  UNL     1       2.259   1.065  -0.061  1.00  0.00     0.010 A 
HETATM    9  C10 UNL     1       1.060   0.373   0.024  1.00  0.00    -0.021 A 
HETATM   10  C11 UNL     1      -0.360   0.802   0.010  1.00  0.00     0.022 C 
HETATM   11  C12 UNL     1      -0.567   1.897  -0.988  1.00  0.00     0.023 C 
HETATM   12  C13 UNL     1      -0.692   1.331   1.381  1.00  0.00     0.023 C 
ENDROOT
BRANCH   1  13
HETATM   13  C2  UNL     1      -2.439  -0.488   0.395  1.00  0.00     0.123 C 
HETATM   14  C1  UNL     1      -2.692  -1.232   1.447  1.00  0.00     0.055 C 
HETATM   15  F1  UNL     1      -3.455   0.286  -0.069  1.00  0.00    -0.209 F 
ENDBRANCH   1  13
BRANCH   1  16
HETATM   16  C4  UNL     1      -1.257  -0.728  -1.773  1.00  0.00     0.420 C 
HETATM   17  F2  UNL     1      -1.815  -2.011  -1.865  1.00  0.00    -0.168 F 
HETATM   18  F3  UNL     1      -0.002  -0.831  -2.327  1.00  0.00    -0.168 F 
HETATM   19  F4  UNL     1      -2.075   0.130  -2.429  1.00  0.00    -0.168 F 
ENDBRANCH   1  16
TORSDOF 2
