REMARK  3 active torsions:
REMARK  status: ('A' for Active; 'I' for Inactive)
REMARK    1  A    between atoms: C7_8  and  C8_9 
REMARK    2  A    between atoms: C9_10  and  C10_11 
REMARK    3  A    between atoms: C10_11  and  C11_14 
ROOT
HETATM    1  C8  UNL     1       0.993   0.461   0.577  1.00  0.00    -0.093 C 
HETATM    2  C9  UNL     1       2.177   0.670   0.532  1.00  0.00    -0.019 C 
ENDROOT
BRANCH   1   3
HETATM    3  C7  UNL     1      -0.464   0.180   0.641  1.00  0.00     0.088 C 
HETATM    4  C2  UNL     1      -1.080   0.681  -0.600  1.00  0.00     0.047 C 
HETATM    5  C1  UNL     1      -1.743   2.050  -0.384  1.00  0.00     0.034 C 
HETATM    6 CL1  UNL     1       0.170   0.980  -1.867  1.00  0.00    -0.118 Cl
HETATM    7  C3  UNL     1      -2.106  -0.200  -1.229  1.00  0.00     0.026 C 
HETATM    8  C4  UNL     1      -2.819  -1.084  -0.231  1.00  0.00     0.002 C 
HETATM    9  C5  UNL     1      -1.759  -1.973   0.369  1.00  0.00     0.001 C 
HETATM   10  C6  UNL     1      -0.646  -1.232   1.010  1.00  0.00     0.019 C 
ENDBRANCH   1   3
BRANCH   2  11
HETATM   11  C10 UNL     1       3.601   0.901   0.494  1.00  0.00     0.402 C 
HETATM   12  F1  UNL     1       4.107   0.683   1.775  1.00  0.00    -0.181 F 
HETATM   13  F2  UNL     1       3.945   2.192   0.149  1.00  0.00    -0.181 F 
BRANCH  11  14
HETATM   14  C11 UNL     1       4.262  -0.097  -0.460  1.00  0.00     0.467 C 
HETATM   15  F3  UNL     1       5.622   0.161  -0.466  1.00  0.00    -0.164 F 
HETATM   16  F4  UNL     1       4.012  -1.388  -0.063  1.00  0.00    -0.164 F 
HETATM   17  F5  UNL     1       3.767   0.124  -1.726  1.00  0.00    -0.164 F 
ENDBRANCH  11  14
ENDBRANCH   2  11
TORSDOF 3
