REMARK  2 active torsions:
REMARK  status: ('A' for Active; 'I' for Inactive)
REMARK    1  A    between atoms: C2_2  and  N1_4 
REMARK    2  A    between atoms: C2_2  and  C10_11 
ROOT
HETATM    1  N1  UNL     1      -0.008   0.204   0.011  1.00  0.00    -0.388 N 
HETATM    2  C4  UNL     1       0.782   0.213  -1.146  1.00  0.00     0.080 C 
HETATM    3  C5  UNL     1       1.641  -1.029  -0.955  1.00  0.00     0.027 C 
HETATM    4  C6  UNL     1       1.785  -1.072   0.564  1.00  0.00     0.027 C 
HETATM    5  C7  UNL     1       0.929   0.106   1.042  1.00  0.00     0.080 C 
HETATM    6  C8  UNL     1       1.787   1.346   0.733  1.00  0.00     0.027 C 
HETATM    7  C9  UNL     1       1.729   1.367  -0.805  1.00  0.00     0.027 C 
ENDROOT
BRANCH   1   8
HETATM    8  C2  UNL     1      -1.301  -0.151   0.078  1.00  0.00     0.119 C 
HETATM    9  C1  UNL     1      -1.744  -0.304   1.544  1.00  0.00     0.047 C 
HETATM   10  C3  UNL     1      -1.778  -1.372  -0.657  1.00  0.00     0.047 C 
BRANCH   8  11
HETATM   11  C10 UNL     1      -2.179   1.007  -0.437  1.00  0.00     0.411 C 
HETATM   12  F1  UNL     1      -1.915   1.289  -1.757  1.00  0.00    -0.168 F 
HETATM   13  F2  UNL     1      -1.960   2.153   0.305  1.00  0.00    -0.168 F 
HETATM   14  F3  UNL     1      -3.511   0.686  -0.321  1.00  0.00    -0.168 F 
ENDBRANCH   8  11
ENDBRANCH   1   8
TORSDOF 2
