REMARK  1 active torsions:
REMARK  status: ('A' for Active; 'I' for Inactive)
REMARK    1  A    between atoms: C5_5  and  C6_6 
ROOT
HETATM    1  C1  UNL     1      -2.232   1.277   0.319  1.00  0.00     0.012 C 
HETATM    2  C2  UNL     1      -0.860   0.801  -0.005  1.00  0.00     0.008 C 
HETATM    3  C3  UNL     1       0.187   1.449   0.911  1.00  0.00     0.009 C 
HETATM    4  C4  UNL     1       1.520   1.231   0.257  1.00  0.00     0.034 C 
HETATM    5  C5  UNL     1       1.572  -0.008  -0.585  1.00  0.00     0.185 C 
HETATM    6  N1  UNL     1       0.676  -1.032  -0.216  1.00  0.00    -0.401 N 
ATOM      7  H1  UNL     1       0.994  -1.985  -0.040  1.00  0.00     0.154 HD
HETATM    8  C7  UNL     1      -0.696  -0.668  -0.101  1.00  0.00     0.022 C 
HETATM    9  C8  UNL     1      -1.403  -1.144  -1.374  1.00  0.00     0.038 C 
HETATM   10  C9  UNL     1      -1.294  -1.444   1.038  1.00  0.00     0.038 C 
ENDROOT
BRANCH   5  11
HETATM   11  C6  UNL     1       2.995  -0.559  -0.475  1.00  0.00     0.407 C 
HETATM   12  F1  UNL     1       3.247  -0.844   0.865  1.00  0.00    -0.169 F 
HETATM   13  F2  UNL     1       3.061  -1.750  -1.163  1.00  0.00    -0.169 F 
HETATM   14  F3  UNL     1       3.927   0.355  -0.871  1.00  0.00    -0.169 F 
ENDBRANCH   5  11
TORSDOF 1
