REMARK  1 active torsions:
REMARK  status: ('A' for Active; 'I' for Inactive)
REMARK    1  A    between atoms: C1_2  and  C2_5 
ROOT
HETATM    1  C2  UNL     1       1.187  -0.304   0.135  1.00  0.00     0.116 C 
HETATM    2  S1  UNL     1       1.887  -1.840   0.845  1.00  0.00    -0.077 SA
HETATM    3  C3  UNL     1       0.377   0.336   1.193  1.00  0.00     0.030 C 
HETATM    4  C4  UNL     1      -0.645   1.316   0.749  1.00  0.00     0.002 C 
HETATM    5  C5  UNL     1      -1.968   0.616   0.506  1.00  0.00     0.000 C 
HETATM    6  C6  UNL     1      -1.884   0.073  -0.925  1.00  0.00     0.000 C 
HETATM    7  C7  UNL     1      -0.970  -1.139  -0.847  1.00  0.00     0.002 C 
HETATM    8  C8  UNL     1       0.436  -0.701  -1.094  1.00  0.00     0.030 C 
ENDROOT
BRANCH   1   9
HETATM    9  C1  UNL     1       2.379   0.535  -0.309  1.00  0.00     0.405 C 
HETATM   10  F1  UNL     1       2.002   1.717  -0.861  1.00  0.00    -0.169 F 
HETATM   11  F2  UNL     1       3.278   0.697   0.700  1.00  0.00    -0.169 F 
HETATM   12  F3  UNL     1       2.998  -0.209  -1.322  1.00  0.00    -0.169 F 
ENDBRANCH   1   9
TORSDOF 1
