REMARK  1 active torsions:
REMARK  status: ('A' for Active; 'I' for Inactive)
REMARK    1  A    between atoms: C8_8  and  C9_9 
ROOT
HETATM    1  C1  UNL     1      -0.407   2.417   0.351  1.00  0.00     0.046 C 
HETATM    2  C2  UNL     1      -0.361   0.980  -0.051  1.00  0.00     0.123 C 
HETATM    3  C3  UNL     1      -1.725   0.500  -0.535  1.00  0.00     0.038 C 
HETATM    4  C4  UNL     1      -2.023  -0.886  -0.039  1.00  0.00     0.003 C 
HETATM    5  C5  UNL     1      -0.816  -1.797  -0.095  1.00  0.00     0.007 C 
HETATM    6  C6  UNL     1       0.415  -1.145   0.510  1.00  0.00     0.028 C 
HETATM    7  C7  UNL     1      -0.050   0.129   1.187  1.00  0.00     0.045 C 
HETATM    8  C8  UNL     1       1.241  -0.608  -0.621  1.00  0.00     0.297 C 
HETATM    9  N1  UNL     1       0.690   0.661  -0.970  1.00  0.00    -0.053 N 
ATOM     10  H11 UNL     1       1.399   1.393  -1.019  1.00  0.00     0.278 HD
ATOM     11  H12 UNL     1       0.381   0.697  -1.941  1.00  0.00     0.278 HD
ENDROOT
BRANCH   8  12
HETATM   12  C9  UNL     1       2.712  -0.566  -0.298  1.00  0.00     0.415 C 
HETATM   13  F1  UNL     1       3.015   0.217   0.778  1.00  0.00    -0.169 F 
HETATM   14  F2  UNL     1       3.127  -1.857  -0.021  1.00  0.00    -0.169 F 
HETATM   15  F3  UNL     1       3.391  -0.077  -1.390  1.00  0.00    -0.169 F 
ENDBRANCH   8  12
TORSDOF 1
