REMARK  1 active torsions:
REMARK  status: ('A' for Active; 'I' for Inactive)
REMARK    1  A    between atoms: C7_7  and  C9_9 
ROOT
HETATM    1  C1  UNL     1      -1.543  -1.617  -0.824  1.00  0.00     0.037 C 
HETATM    2  C2  UNL     1      -1.171  -0.395   0.030  1.00  0.00     0.019 C 
HETATM    3  C3  UNL     1      -2.236  -0.355   1.144  1.00  0.00     0.037 C 
HETATM    4  C4  UNL     1      -1.313   0.850  -0.744  1.00  0.00     0.030 C 
HETATM    5  C5  UNL     1      -0.168   1.786  -0.767  1.00  0.00     0.005 C 
HETATM    6  C6  UNL     1       0.958   1.466   0.160  1.00  0.00     0.039 C 
HETATM    7  C7  UNL     1       1.215  -0.014   0.242  1.00  0.00     0.121 C 
HETATM    8  C8  UNL     1       2.258  -0.205   1.361  1.00  0.00     0.047 C 
HETATM    9  N1  UNL     1       0.053  -0.674   0.652  1.00  0.00    -0.398 N 
ATOM     10  H1  UNL     1       0.096  -1.360   1.406  1.00  0.00     0.155 HD
ENDROOT
BRANCH   7  11
HETATM   11  C9  UNL     1       1.885  -0.569  -0.982  1.00  0.00     0.411 C 
HETATM   12  F1  UNL     1       3.103   0.085  -1.129  1.00  0.00    -0.168 F 
HETATM   13  F2  UNL     1       1.186  -0.419  -2.132  1.00  0.00    -0.168 F 
HETATM   14  F3  UNL     1       2.139  -1.915  -0.725  1.00  0.00    -0.168 F 
ENDBRANCH   7  11
TORSDOF 1
