REMARK  3 active torsions:
REMARK  status: ('A' for Active; 'I' for Inactive)
REMARK    1  A    between atoms: C3_3  and  C4_4 
REMARK    2  A    between atoms: C10_15  and  C11_16 
REMARK    3  A    between atoms: N3_22  and  C17_23 
ROOT
HETATM    1  C1  UNL     1      -3.873  -3.789   0.795  1.00  0.00     0.052 C 
HETATM    2  C2  UNL     1      -2.912  -2.676   0.529  1.00  0.00    -0.010 A 
HETATM    3  C3  UNL     1      -3.356  -1.513  -0.025  1.00  0.00    -0.011 A 
HETATM    4  C7  UNL     1      -2.428  -0.496  -0.247  1.00  0.00     0.045 A 
HETATM    5  C8  UNL     1      -1.095  -0.640   0.076  1.00  0.00     0.067 A 
HETATM    6  C9  UNL     1      -0.708  -1.841   0.634  1.00  0.00     0.100 A 
HETATM    7  N2  UNL     1       0.609  -1.709   0.848  1.00  0.00    -0.341 N 
ATOM      8  H2  UNL     1       1.209  -2.426   1.255  1.00  0.00     0.167 HD
HETATM    9  C10 UNL     1       1.029  -0.482   0.444  1.00  0.00     0.089 A 
HETATM   10  N3  UNL     1      -0.015   0.193  -0.038  1.00  0.00    -0.329 N 
HETATM   11  C22 UNL     1      -1.578  -2.884   0.878  1.00  0.00     0.152 A 
HETATM   12  F1  UNL     1      -1.142  -4.026   1.422  1.00  0.00    -0.203 F 
ENDROOT
BRANCH  10  13
HETATM   13  C17 UNL     1      -0.080   1.489  -0.575  1.00  0.00     0.094 C 
HETATM   14  C18 UNL     1       0.758   1.856  -1.737  1.00  0.00     0.053 C 
HETATM   15  C19 UNL     1       0.321   3.286  -2.129  1.00  0.00     0.234 C 
HETATM   16  N4  UNL     1       0.945   4.110  -1.084  1.00  0.00    -0.075 N 
HETATM   17  C20 UNL     1       0.187   3.915   0.107  1.00  0.00     0.234 C 
ATOM     18  H42 UNL     1       1.939   3.918  -0.962  1.00  0.00     0.277 HD
ATOM     19  H41 UNL     1       1.033   5.092  -1.347  1.00  0.00     0.277 HD
HETATM   20  C21 UNL     1      -0.050   2.544   0.542  1.00  0.00     0.053 C 
ENDBRANCH  10  13
BRANCH   9  21
HETATM   21  C11 UNL     1       2.395  -0.052   0.552  1.00  0.00     0.053 C 
HETATM   22  C12 UNL     1       2.989  -0.623   1.849  1.00  0.00     0.012 C 
HETATM   23  C13 UNL     1       4.434  -1.008   1.655  1.00  0.00     0.001 C 
HETATM   24  C14 UNL     1       5.081   0.018   0.759  1.00  0.00     0.000 C 
HETATM   25  C15 UNL     1       4.581  -0.169  -0.658  1.00  0.00     0.001 C 
HETATM   26  C16 UNL     1       3.204  -0.785  -0.546  1.00  0.00     0.012 C 
ENDBRANCH   9  21
BRANCH   3  27
HETATM   27  C4  UNL     1      -4.764  -1.329  -0.389  1.00  0.00     0.016 A 
HETATM   28  C5  UNL     1      -5.557  -0.239  -0.073  1.00  0.00     0.128 A 
HETATM   29  N1  UNL     1      -6.754  -0.483  -0.608  1.00  0.00    -0.272 N 
HETATM   30  O1  UNL     1      -6.755  -1.630  -1.222  1.00  0.00    -0.250 OA
ATOM     31  H1  UNL     1      -7.557   0.143  -0.545  1.00  0.00     0.194 HD
HETATM   32  C6  UNL     1      -5.550  -2.191  -1.115  1.00  0.00     0.181 A 
ENDBRANCH   3  27
TORSDOF 3
