REMARK  2 active torsions:
REMARK  status: ('A' for Active; 'I' for Inactive)
REMARK    1  A    between atoms: C5_8  and  C6_9 
REMARK    2  A    between atoms: C11_17  and  C12_18 
ROOT
HETATM    1 CL1  UNL     1       1.955  -3.308   1.494  1.00  0.00    -0.082 Cl
HETATM    2  C1  UNL     1       0.279  -2.788   1.596  1.00  0.00     0.060 A 
HETATM    3  C2  UNL     1      -0.501  -3.443   2.540  1.00  0.00     0.030 A 
HETATM    4  C3  UNL     1      -1.818  -3.089   2.649  1.00  0.00     0.052 A 
HETATM    5  C4  UNL     1      -2.304  -2.105   1.820  1.00  0.00     0.128 A 
HETATM    6  N1  UNL     1      -3.544  -1.559   1.702  1.00  0.00    -0.329 N 
ATOM      7  H1  UNL     1      -4.362  -1.816   2.254  1.00  0.00     0.168 HD
HETATM    8  C5  UNL     1      -3.513  -0.629   0.742  1.00  0.00     0.102 A 
HETATM    9  N2  UNL     1      -2.269  -0.620   0.293  1.00  0.00    -0.280 N 
ATOM     10  H2  UNL     1      -1.943  -0.003  -0.451  1.00  0.00     0.189 HD
HETATM   11  N3  UNL     1      -1.504  -1.481   0.901  1.00  0.00    -0.239 N 
HETATM   12  C11 UNL     1      -0.211  -1.802   0.767  1.00  0.00     0.088 A 
ENDROOT
BRANCH  12  13
HETATM   13  C12 UNL     1       0.667  -1.158  -0.185  1.00  0.00     0.240 C 
HETATM   14  C13 UNL     1       0.018  -0.241  -1.189  1.00  0.00     0.042 C 
HETATM   15  C14 UNL     1       1.294   0.234  -1.924  1.00  0.00     0.041 C 
HETATM   16  C15 UNL     1       2.261   0.410  -0.743  1.00  0.00     0.127 C 
HETATM   17  C16 UNL     1       2.444   1.848  -0.375  1.00  0.00     0.041 C 
HETATM   18  C21 UNL     1       3.539  -0.275  -1.100  1.00  0.00     0.047 C 
HETATM   19  N5  UNL     1       1.651  -0.261   0.390  1.00  0.00    -0.057 N 
HETATM   20  C17 UNL     1       3.859   2.283  -0.235  1.00  0.00     0.036 C 
HETATM   21  C18 UNL     1       4.782   1.286   0.383  1.00  0.00     0.191 C 
HETATM   22  N4  UNL     1       6.024   1.224  -0.366  1.00  0.00    -0.070 N 
HETATM   23  C20 UNL     1       4.507  -0.137   0.042  1.00  0.00     0.044 C 
HETATM   24  C19 UNL     1       5.951  -0.204  -0.381  1.00  0.00     0.239 C 
ATOM     25  H42 UNL     1       6.115   1.738  -1.243  1.00  0.00     0.277 HD
ATOM     26  H41 UNL     1       6.859   1.687  -0.006  1.00  0.00     0.277 HD
ATOM     27  H52 UNL     1       1.269   0.376   1.089  1.00  0.00     0.279 HD
ATOM     28  H51 UNL     1       2.321  -0.724   1.005  1.00  0.00     0.279 HD
ENDBRANCH  12  13
BRANCH   8  29
HETATM   29  C6  UNL     1      -4.692   0.180   0.335  1.00  0.00     0.055 C 
HETATM   30  C7  UNL     1      -4.431   1.647   0.378  1.00  0.00     0.012 C 
HETATM   31  C8  UNL     1      -5.516   2.215  -0.510  1.00  0.00     0.001 C 
HETATM   32  C9  UNL     1      -6.007   1.076  -1.380  1.00  0.00     0.001 C 
HETATM   33  C10 UNL     1      -5.029  -0.060  -1.133  1.00  0.00     0.012 C 
ENDBRANCH   8  29
TORSDOF 2
