REMARK  3 active torsions:
REMARK  status: ('A' for Active; 'I' for Inactive)
REMARK    1  A    between atoms: O1_2  and  C2_3 
REMARK    2  A    between atoms: C6_7  and  C7_8 
REMARK    3  A    between atoms: C8_11  and  C9_12 
ROOT
HETATM    1  C7  UNL     1       0.412  -1.016  -0.158  1.00  0.00     0.065 A 
HETATM    2  N1  UNL     1      -0.657  -0.292  -0.525  1.00  0.00    -0.356 N 
ATOM      3  H1  UNL     1      -0.549   0.721  -0.567  1.00  0.00     0.166 HD
HETATM    4  C8  UNL     1      -1.859  -0.803  -0.841  1.00  0.00     0.036 A 
HETATM    5  C15 UNL     1      -2.031  -2.172  -0.793  1.00  0.00     0.093 A 
HETATM    6  C16 UNL     1      -3.282  -2.792  -1.123  1.00  0.00     0.103 C 
HETATM    7  N2  UNL     1      -4.276  -3.306  -1.401  1.00  0.00    -0.191 NA
HETATM    8  C17 UNL     1      -0.932  -2.946  -0.413  1.00  0.00     0.092 A 
HETATM    9  N3  UNL     1      -1.117  -4.351  -0.364  1.00  0.00    -0.099 NA
HETATM   10  C18 UNL     1       0.295  -2.379  -0.093  1.00  0.00     0.098 A 
HETATM   11  C19 UNL     1       1.383  -3.223   0.309  1.00  0.00     0.103 C 
HETATM   12  N4  UNL     1       2.257  -3.925   0.654  1.00  0.00    -0.191 NA
ENDROOT
BRANCH   4  13
HETATM   13  C9  UNL     1      -2.958   0.109  -1.241  1.00  0.00     0.037 C 
HETATM   14  C10 UNL     1      -2.469   1.544  -1.007  1.00  0.00     0.011 C 
HETATM   15  C11 UNL     1      -2.497   1.768   0.491  1.00  0.00     0.001 C 
HETATM   16  C12 UNL     1      -3.931   2.128   0.841  1.00  0.00     0.000 C 
HETATM   17  C13 UNL     1      -4.819   1.330  -0.047  1.00  0.00     0.001 C 
HETATM   18  C14 UNL     1      -4.218  -0.025  -0.451  1.00  0.00     0.011 C 
ENDBRANCH   4  13
BRANCH   1  19
HETATM   19  C6  UNL     1       1.684  -0.358   0.184  1.00  0.00    -0.005 A 
HETATM   20  C5  UNL     1       2.898  -0.741  -0.332  1.00  0.00     0.023 A 
HETATM   21  C3  UNL     1       4.033  -0.059   0.073  1.00  0.00    -0.026 A 
HETATM   22  C2  UNL     1       3.933   0.971   0.969  1.00  0.00     0.095 A 
HETATM   23  C4  UNL     1       5.356  -0.461  -0.480  1.00  0.00     0.051 C 
HETATM   24  C21 UNL     1       2.713   1.335   1.469  1.00  0.00     0.068 A 
HETATM   25  C20 UNL     1       1.586   0.678   1.083  1.00  0.00     0.040 A 
HETATM   26 CL1  UNL     1       2.575   2.665   2.624  1.00  0.00    -0.081 Cl
BRANCH  22  27
HETATM   27  O1  UNL     1       5.036   1.689   1.411  1.00  0.00    -0.354 OA
HETATM   28  C1  UNL     1       5.516   2.844   0.776  1.00  0.00     0.210 C 
ENDBRANCH  22  27
ENDBRANCH   1  19
TORSDOF 3
