REMARK  1 active torsions:
REMARK  status: ('A' for Active; 'I' for Inactive)
REMARK    1  A    between atoms: C4_4  and  C5_5 
ROOT
HETATM    1  C1  UNL     1      -3.000   0.415   0.147  1.00  0.00     0.000 A 
HETATM    2  C2  UNL     1      -2.201   1.059  -0.774  1.00  0.00     0.001 A 
HETATM    3  C3  UNL     1      -0.833   0.862  -0.850  1.00  0.00     0.012 A 
HETATM    4  C4  UNL     1      -0.211  -0.012   0.019  1.00  0.00    -0.025 A 
HETATM    5  C9  UNL     1      -1.006  -0.658   0.942  1.00  0.00     0.012 A 
HETATM    6  C10 UNL     1      -2.373  -0.456   1.013  1.00  0.00     0.001 A 
ENDROOT
BRANCH   4   7
HETATM    7  C5  UNL     1       1.228  -0.240  -0.038  1.00  0.00    -0.009 A 
HETATM    8  C6  UNL     1       2.246   0.626  -0.395  1.00  0.00     0.030 A 
HETATM    9  C7  UNL     1       3.462  -0.002  -0.309  1.00  0.00     0.088 A 
HETATM   10  N1  UNL     1       3.209  -1.258   0.101  1.00  0.00    -0.374 N 
HETATM   11  C8  UNL     1       1.872  -1.424   0.270  1.00  0.00     0.100 A 
ATOM     12  H1  UNL     1       3.915  -1.977   0.261  1.00  0.00     0.164 HD
ENDBRANCH   4   7
TORSDOF 1
