REMARK  1 active torsions:
REMARK  status: ('A' for Active; 'I' for Inactive)
REMARK    1  A    between atoms: C7_7  and  C8_8 
ROOT
HETATM    1  C1  UNL     1      -0.185   2.013  -0.649  1.00  0.00     0.049 C 
HETATM    2  C2  UNL     1      -0.801   0.782  -0.104  1.00  0.00    -0.051 A 
HETATM    3  C3  UNL     1      -2.193   0.715   0.044  1.00  0.00     0.007 A 
HETATM    4  C4  UNL     1      -2.838  -0.394   0.543  1.00  0.00     0.001 A 
HETATM    5  C5  UNL     1      -2.084  -1.487   0.914  1.00  0.00     0.001 A 
HETATM    6  C6  UNL     1      -0.717  -1.460   0.785  1.00  0.00     0.013 A 
HETATM    7  C7  UNL     1      -0.104  -0.328   0.279  1.00  0.00    -0.020 A 
ENDROOT
BRANCH   7   8
HETATM    8  C8  UNL     1       1.363  -0.353   0.161  1.00  0.00    -0.025 A 
HETATM    9  C9  UNL     1       2.331   0.446  -0.244  1.00  0.00     0.012 A 
HETATM   10  C10 UNL     1       3.321  -0.569   0.076  1.00  0.00     0.002 A 
HETATM   11  C11 UNL     1       2.375  -1.370   0.480  1.00  0.00     0.012 A 
ENDBRANCH   7   8
TORSDOF 1
