REMARK  1 active torsions:
REMARK  status: ('A' for Active; 'I' for Inactive)
REMARK    1  A    between atoms: C4_4  and  C5_5 
ROOT
HETATM    1  C1  UNL     1      -3.104  -0.674  -0.077  1.00  0.00     0.000 A 
HETATM    2  C2  UNL     1      -2.704   0.612   0.229  1.00  0.00     0.001 A 
HETATM    3  C3  UNL     1      -1.347   0.860   0.245  1.00  0.00     0.012 A 
HETATM    4  C4  UNL     1      -0.414  -0.118  -0.027  1.00  0.00    -0.025 A 
HETATM    5  C9  UNL     1      -0.806  -1.408  -0.335  1.00  0.00     0.012 A 
HETATM    6  C10 UNL     1      -2.173  -1.659  -0.352  1.00  0.00     0.001 A 
ENDROOT
BRANCH   4   7
HETATM    7  C5  UNL     1       1.030   0.194   0.022  1.00  0.00    -0.009 A 
HETATM    8  C6  UNL     1       1.603   1.119   0.895  1.00  0.00     0.030 A 
HETATM    9  C7  UNL     1       2.963   1.145   0.654  1.00  0.00     0.088 A 
HETATM   10  N1  UNL     1       3.185   0.256  -0.333  1.00  0.00    -0.374 N 
HETATM   11  C8  UNL     1       2.038  -0.328  -0.730  1.00  0.00     0.100 A 
ATOM     12  H1  UNL     1       4.103   0.051  -0.729  1.00  0.00     0.164 HD
ENDBRANCH   4   7
TORSDOF 1
