REMARK  21 active torsions:
REMARK  status: ('A' for Active; 'I' for Inactive)
REMARK    1  A    between atoms: C2_2  and  O2_4 
REMARK    2  A    between atoms: O2_4  and  C3_5 
REMARK    3  A    between atoms: C4_6  and  O3_7 
REMARK    4  A    between atoms: O3_7  and  C5_8 
REMARK    5  A    between atoms: C7_11  and  O5_12 
REMARK    6  A    between atoms: O5_12  and  C8_13 
REMARK    7  A    between atoms: C10_17  and  O8_18 
REMARK    8  A    between atoms: C16_27  and  O11_28 
REMARK    9  A    between atoms: C18_31  and  C19_32 
REMARK   10  A    between atoms: C19_32  and  C20_34 
REMARK   11  A    between atoms: C20_34  and  O13_35 
REMARK   12  A    between atoms: C23_39  and  O14_40 
REMARK   13  A    between atoms: C23_39  and  O15_42 
REMARK   14  A    between atoms: O15_42  and  C24_43 
REMARK   15  A    between atoms: C24_43  and  C25_44 
REMARK   16  A    between atoms: C25_44  and  C26_45 
REMARK   17  A    between atoms: C25_44  and  C27_48 
REMARK   18  A    between atoms: C25_44  and  C28_51 
REMARK   19  A    between atoms: C26_45  and  O16_46 
REMARK   20  A    between atoms: C27_48  and  O17_49 
REMARK   21  A    between atoms: C28_51  and  O18_52 
ROOT
HETATM    1  C3  UNL     1      -2.422   1.255  -0.328  1.00  0.00     0.175 C 
HETATM    2  C4  UNL     1      -2.251   0.233   0.739  1.00  0.00     0.225 C 
HETATM    3  C7  UNL     1      -1.638  -1.037   0.440  1.00  0.00     0.209 C 
HETATM    4  O7  UNL     1      -2.445  -1.719  -0.548  1.00  0.00    -0.322 OA
HETATM    5  C10 UNL     1      -1.775  -2.930  -0.673  1.00  0.00     0.261 C 
HETATM    6  C11 UNL     1      -0.309  -2.631  -0.525  1.00  0.00     0.072 C 
HETATM    7  C12 UNL     1      -0.250  -1.181  -0.038  1.00  0.00     0.076 C 
HETATM    8  C13 UNL     1       0.381  -0.215  -0.941  1.00  0.00     0.088 C 
HETATM    9  C14 UNL     1       0.998  -0.960  -2.167  1.00  0.00     0.198 C 
HETATM   10  O9  UNL     1       1.450   0.211  -2.879  1.00  0.00    -0.318 OA
HETATM   11  C15 UNL     1       0.399   1.157  -2.854  1.00  0.00     0.295 C 
HETATM   12  O10 UNL     1       0.374   2.124  -3.639  1.00  0.00    -0.262 OA
HETATM   13  C16 UNL     1      -0.466   0.660  -1.773  1.00  0.00     0.167 C 
HETATM   14  C17 UNL     1      -1.320   1.693  -1.156  1.00  0.00     0.075 C 
HETATM   15  C18 UNL     1      -0.534   2.895  -0.756  1.00  0.00     0.068 C 
HETATM   16  C21 UNL     1       0.632   2.595   0.164  1.00  0.00     0.018 C 
HETATM   17  C22 UNL     1       1.780   1.879  -0.472  1.00  0.00     0.070 C 
HETATM   18  C23 UNL     1       1.589   0.412  -0.315  1.00  0.00     0.175 C 
ENDROOT
BRANCH  18  19
HETATM   19  O14 UNL     1       1.390   0.340   1.083  1.00  0.00    -0.364 OA
ATOM     20  H14 UNL     1       2.156   0.738   1.480  1.00  0.00     0.213 HD
ENDBRANCH  18  19
BRANCH  18  21
HETATM   21  O15 UNL     1       2.694  -0.349  -0.561  1.00  0.00    -0.353 OA
BRANCH  21  22
HETATM   22  C24 UNL     1       3.856  -0.020   0.016  1.00  0.00     0.187 C 
BRANCH  22  23
HETATM   23  C25 UNL     1       5.031  -0.911  -0.285  1.00  0.00     0.045 C 
BRANCH  23  24
HETATM   24  C26 UNL     1       4.801  -2.347   0.122  1.00  0.00     0.180 C 
BRANCH  24  25
HETATM   25  O16 UNL     1       5.953  -3.060  -0.208  1.00  0.00    -0.400 OA
ATOM     26  H16 UNL     1       5.808  -3.963   0.048  1.00  0.00     0.209 HD
ENDBRANCH  24  25
ENDBRANCH  23  24
BRANCH  23  27
HETATM   27  C27 UNL     1       5.516  -0.871  -1.704  1.00  0.00     0.180 C 
BRANCH  27  28
HETATM   28  O17 UNL     1       4.557  -1.256  -2.612  1.00  0.00    -0.400 OA
ATOM     29  H17 UNL     1       4.864  -1.231  -3.511  1.00  0.00     0.209 HD
ENDBRANCH  27  28
ENDBRANCH  23  27
BRANCH  23  30
HETATM   30  C28 UNL     1       6.250  -0.448   0.557  1.00  0.00     0.180 C 
BRANCH  30  31
HETATM   31  O18 UNL     1       5.980  -0.514   1.901  1.00  0.00    -0.400 OA
ATOM     32  H18 UNL     1       6.726  -0.231   2.416  1.00  0.00     0.209 HD
ENDBRANCH  30  31
ENDBRANCH  23  30
ENDBRANCH  22  23
ENDBRANCH  21  22
ENDBRANCH  18  21
BRANCH  13  33
HETATM   33  O11 UNL     1      -1.268  -0.203  -2.608  1.00  0.00    -0.378 OA
ATOM     34  H11 UNL     1      -1.814   0.361  -3.144  1.00  0.00     0.211 HD
ENDBRANCH  13  33
BRANCH   3  35
HETATM   35  O5  UNL     1      -1.838  -1.984   1.458  1.00  0.00    -0.280 OA
BRANCH  35  36
HETATM   36  C8  UNL     1      -1.471  -2.021   2.739  1.00  0.00     0.257 C 
HETATM   37  C9  UNL     1      -1.783  -3.119   3.691  1.00  0.00     0.126 C 
HETATM   38  O6  UNL     1      -0.825  -1.060   3.144  1.00  0.00    -0.266 OA
ENDBRANCH  35  36
ENDBRANCH   3  35
BRANCH  15  39
HETATM   39  C19 UNL     1      -1.288   3.973  -0.057  1.00  0.00     0.154 C 
HETATM   40  O12 UNL     1      -1.675   4.955  -0.715  1.00  0.00    -0.295 OA
BRANCH  39  41
HETATM   41  C20 UNL     1      -1.636   4.000   1.374  1.00  0.00     0.242 C 
BRANCH  41  42
HETATM   42  O13 UNL     1      -2.428   5.113   1.669  1.00  0.00    -0.394 OA
ATOM     43  H13 UNL     1      -2.652   5.130   2.592  1.00  0.00     0.209 HD
ENDBRANCH  41  42
ENDBRANCH  39  41
ENDBRANCH  15  39
BRANCH   2  44
HETATM   44  O3  UNL     1      -3.567  -0.061   1.209  1.00  0.00    -0.308 OA
BRANCH  44  45
HETATM   45  C5  UNL     1      -4.112   0.293   2.399  1.00  0.00     0.255 C 
HETATM   46  C6  UNL     1      -5.506  -0.089   2.780  1.00  0.00     0.126 C 
HETATM   47  O4  UNL     1      -3.464   0.958   3.228  1.00  0.00    -0.266 OA
ENDBRANCH  44  45
ENDBRANCH   2  44
BRANCH   5  48
HETATM   48  O8  UNL     1      -2.067  -3.569  -1.876  1.00  0.00    -0.371 OA
ATOM     49  H8  UNL     1      -1.609  -4.397  -1.961  1.00  0.00     0.212 HD
ENDBRANCH   5  48
BRANCH   1  50
HETATM   50  O2  UNL     1      -3.457   0.709  -1.199  1.00  0.00    -0.313 OA
BRANCH  50  51
HETATM   51  C2  UNL     1      -4.694   1.246  -1.351  1.00  0.00     0.255 C 
HETATM   52  C1  UNL     1      -5.752   0.698  -2.235  1.00  0.00     0.126 C 
HETATM   53  O1  UNL     1      -4.954   2.271  -0.701  1.00  0.00    -0.266 OA
ENDBRANCH  50  51
ENDBRANCH   1  50
TORSDOF 21
