REMARK  13 active torsions:
REMARK  status: ('A' for Active; 'I' for Inactive)
REMARK    1  A    between atoms: O1_2  and  S1_3 
REMARK    2  A    between atoms: S1_3  and  C2_6 
REMARK    3  A    between atoms: C2_6  and  C3_7 
REMARK    4  A    between atoms: C3_7  and  C4_13 
REMARK    5  A    between atoms: N1_8  and  N2_10 
REMARK    6  A    between atoms: C5_15  and  N3_16 
REMARK       I    between atoms: N3_16  and  C6_18 
REMARK    7  A    between atoms: C6_18  and  C7_20 
REMARK    8  A    between atoms: C8_23  and  N5_24 
REMARK    9  A    between atoms: C9_28  and  C10_29 
REMARK   10  A    between atoms: C10_29  and  O7_30 
REMARK   11  A    between atoms: O7_30  and  N6_31 
REMARK   12  A    between atoms: C12_35  and  N7_36 
REMARK   13  A    between atoms: C14_41  and  C15_42 
ROOT
HETATM    1  C4  UNL     1      -0.690   1.215  -0.826  1.00  0.00     0.338 C 
HETATM    2  S2  UNL     1       0.395   2.254   0.238  1.00  0.00    -0.100 SA
HETATM    3  C5  UNL     1       1.187   0.767   0.994  1.00  0.00     0.187 C 
HETATM    4  C11 UNL     1       0.071  -0.211   0.889  1.00  0.00     0.313 A 
HETATM    5  C12 UNL     1      -1.317   0.138   1.249  1.00  0.00     0.375 A 
HETATM    6  N11 UNL     1      -0.861   0.041  -0.101  1.00  0.00     0.145 N 
ENDROOT
BRANCH   3   7
HETATM    7  N3  UNL     1       2.240   0.397   0.081  1.00  0.00    -0.340 N 
HETATM    8  C6  UNL     1       3.607   0.377   0.435  1.00  0.00     0.270 C 
HETATM    9  O6  UNL     1       3.895   0.699   1.606  1.00  0.00    -0.266 OA
ATOM     10  H3  UNL     1       1.984   0.136  -0.871  1.00  0.00     0.164 HD
BRANCH   8  11
HETATM   11  C7  UNL     1       4.684  -0.006  -0.516  1.00  0.00     0.118 A 
HETATM   12  N4  UNL     1       4.428  -0.361  -1.747  1.00  0.00    -0.332 N 
HETATM   13  C8  UNL     1       5.445  -0.688  -2.543  1.00  0.00     0.143 A 
ATOM     14  H4  UNL     1       3.468  -0.387  -2.092  1.00  0.00     0.168 HD
HETATM   15  S3  UNL     1       6.805  -0.493  -1.540  1.00  0.00    -0.054 SA
HETATM   16  C9  UNL     1       5.997   0.007  -0.122  1.00  0.00     0.044 A 
BRANCH  13  17
HETATM   17  N5  UNL     1       5.380  -1.070  -3.800  1.00  0.00    -0.380 N 
ATOM     18  H52 UNL     1       4.565  -1.187  -4.401  1.00  0.00     0.158 HD
ATOM     19  H51 UNL     1       6.159  -1.320  -4.409  1.00  0.00     0.158 HD
ENDBRANCH  13  17
BRANCH  16  20
HETATM   20  C10 UNL     1       6.562   0.372   1.228  1.00  0.00     0.256 C 
BRANCH  20  21
HETATM   21  O7  UNL     1       7.969   0.217   1.095  1.00  0.00    -0.216 OA
BRANCH  21  22
HETATM   22  N6  UNL     1       8.612   0.989   0.143  1.00  0.00     0.005 N 
HETATM   23  O8  UNL     1       9.685   0.639  -0.388  1.00  0.00    -0.511 OA
HETATM   24  O9  UNL     1       8.059   2.178  -0.237  1.00  0.00    -0.511 OA
ENDBRANCH  21  22
ENDBRANCH  20  21
ENDBRANCH  16  20
ENDBRANCH   8  11
ENDBRANCH   3   7
BRANCH   1  25
HETATM   25  C3  UNL     1      -1.901   1.974  -1.144  1.00  0.00     0.069 C 
HETATM   26  N1  UNL     1      -2.183   2.216  -2.405  1.00  0.00    -0.245 N 
ATOM     27  H1  UNL     1      -3.024   2.743  -2.642  1.00  0.00     0.192 HD
BRANCH  25  28
HETATM   28  C2  UNL     1      -2.846   2.497  -0.134  1.00  0.00     0.228 C 
BRANCH  28  29
HETATM   29  S1  UNL     1      -4.115   3.417  -0.957  1.00  0.00     0.270 S 
HETATM   30  O2  UNL     1      -3.457   4.526  -1.725  1.00  0.00    -0.198 OA
HETATM   31  O3  UNL     1      -4.805   2.466  -1.907  1.00  0.00    -0.198 OA
BRANCH  29  32
HETATM   32  O1  UNL     1      -5.229   4.047   0.111  1.00  0.00    -0.281 OA
HETATM   33  C1  UNL     1      -4.986   5.425   0.236  1.00  0.00     0.225 C 
ENDBRANCH  29  32
ENDBRANCH  28  29
ENDBRANCH  25  28
BRANCH  26  34
HETATM   34  N2  UNL     1      -1.341   1.758  -3.426  1.00  0.00    -0.039 N 
HETATM   35  O4  UNL     1      -0.478   2.470  -3.970  1.00  0.00    -0.516 OA
HETATM   36  O5  UNL     1      -1.465   0.459  -3.856  1.00  0.00    -0.516 OA
ENDBRANCH  26  34
ENDBRANCH   1  25
BRANCH   5  37
HETATM   37  N7  UNL     1      -2.109  -0.799   1.920  1.00  0.00    -0.191 N 
HETATM   38  C13 UNL     1      -2.507  -1.961   1.684  1.00  0.00     0.681 A 
HETATM   39  N8  UNL     1      -3.294  -2.527   2.653  1.00  0.00    -0.185 N 
HETATM   40  N10 UNL     1      -2.273  -2.736   0.617  1.00  0.00    -0.179 N 
HETATM   41  C14 UNL     1      -3.798  -3.756   2.553  1.00  0.00     0.128 A 
ATOM     42  H8  UNL     1      -3.503  -1.982   3.489  1.00  0.00     0.184 HD
HETATM   43  C16 UNL     1      -3.534  -4.517   1.442  1.00  0.00     0.082 A 
HETATM   44  C17 UNL     1      -2.754  -3.987   0.458  1.00  0.00     0.134 A 
HETATM   45  N9  UNL     1      -2.485  -4.772  -0.687  1.00  0.00    -0.082 NA
ATOM     46  H10 UNL     1      -1.690  -2.354  -0.128  1.00  0.00     0.185 HD
ATOM     47  H7  UNL     1      -2.443  -0.451   2.819  1.00  0.00     0.180 HD
BRANCH  41  48
HETATM   48  C15 UNL     1      -4.640  -4.318   3.624  1.00  0.00     0.227 C 
HETATM   49  O10 UNL     1      -4.878  -3.617   4.641  1.00  0.00    -0.643 OA
HETATM   50  O11 UNL     1      -5.166  -5.588   3.532  1.00  0.00    -0.643 OA
ENDBRANCH  41  48
ENDBRANCH   5  37
TORSDOF 13
