REMARK  18 active torsions:
REMARK  status: ('A' for Active; 'I' for Inactive)
REMARK    1  A    between atoms: C2_2  and  O1_3 
REMARK    2  A    between atoms: O1_3  and  N1_4 
REMARK    3  A    between atoms: N1_4  and  C3_6 
REMARK    4  A    between atoms: C3_6  and  C4_7 
REMARK    5  A    between atoms: C3_6  and  C21_47 
REMARK    6  A    between atoms: C4_7  and  O2_8 
REMARK    7  A    between atoms: C4_7  and  N2_10 
REMARK    8  A    between atoms: N2_10  and  C5_12 
REMARK    9  A    between atoms: C8_17  and  S1_18 
REMARK   10  A    between atoms: C10_23  and  C11_24 
REMARK   11  A    between atoms: C12_27  and  O7_28 
REMARK   12  A    between atoms: O7_28  and  C13_29 
REMARK   13  A    between atoms: C13_29  and  C14_30 
REMARK   14  A    between atoms: C14_30  and  O8_31 
REMARK   15  A    between atoms: C15_34  and  N5_35 
REMARK   16  A    between atoms: C16_39  and  O10_40 
REMARK   17  A    between atoms: O10_40  and  C17_41 
REMARK   18  A    between atoms: C22_50  and  N7_51 
ROOT
HETATM    1  C5  UNL     1      -2.295  -0.381   0.837  1.00  0.00     0.139 C 
HETATM    2  C6  UNL     1      -2.332  -0.899   2.263  1.00  0.00     0.105 C 
HETATM    3  C7  UNL     1      -2.036   0.151   3.294  1.00  0.00     0.034 C 
HETATM    4  N3  UNL     1      -1.367  -1.972   2.434  1.00  0.00    -0.360 N 
ATOM      5  H3  UNL     1      -1.637  -2.778   2.998  1.00  0.00     0.162 HD
HETATM    6  C8  UNL     1      -0.152  -1.960   1.895  1.00  0.00     0.203 C 
HETATM    7  N4  UNL     1       0.089  -0.792   1.107  1.00  0.00    -0.299 N 
HETATM    8  C10 UNL     1       1.477  -0.437   0.941  1.00  0.00     0.149 C 
HETATM    9  C12 UNL     1       1.929  -0.218  -0.330  1.00  0.00     0.113 C 
HETATM   10  C19 UNL     1       1.102  -0.321  -1.505  1.00  0.00     0.086 C 
HETATM   11  S2  UNL     1      -0.681  -0.152  -1.356  1.00  0.00    -0.110 SA
HETATM   12  C20 UNL     1      -0.930  -0.008   0.427  1.00  0.00     0.183 C 
ENDROOT
BRANCH   1  13
HETATM   13  N2  UNL     1      -3.262   0.740   0.737  1.00  0.00    -0.359 N 
ATOM     14  H2  UNL     1      -3.083   1.600   1.255  1.00  0.00     0.162 HD
BRANCH  13  15
HETATM   15  C4  UNL     1      -4.405   0.646  -0.045  1.00  0.00     0.169 C 
BRANCH  15  16
HETATM   16  C3  UNL     1      -5.423   1.594  -0.278  1.00  0.00     0.149 C 
BRANCH  16  17
HETATM   17  N1  UNL     1      -6.479   1.225  -1.021  1.00  0.00    -0.259 N 
ATOM     18  H1  UNL     1      -7.209   1.919  -1.182  1.00  0.00     0.194 HD
BRANCH  17  19
HETATM   19  O1  UNL     1      -6.644   0.016  -1.565  1.00  0.00    -0.280 OA
BRANCH  19  20
HETATM   20  C2  UNL     1      -6.735  -0.134  -2.962  1.00  0.00     0.196 C 
HETATM   21  C1  UNL     1      -6.918  -1.571  -3.393  1.00  0.00     0.036 C 
ENDBRANCH  19  20
ENDBRANCH  17  19
ENDBRANCH  16  17
BRANCH  16  22
HETATM   22  C21 UNL     1      -5.503   2.998   0.216  1.00  0.00     0.147 A 
HETATM   23  N6  UNL     1      -6.657   3.634   0.155  1.00  0.00    -0.320 N 
HETATM   24  C22 UNL     1      -6.748   4.885   0.529  1.00  0.00     0.160 A 
ATOM     25  H6  UNL     1      -7.485   3.147  -0.187  1.00  0.00     0.169 HD
HETATM   26  S3  UNL     1      -5.153   5.223   0.998  1.00  0.00     0.024 SA
HETATM   27  N8  UNL     1      -4.466   3.681   0.665  1.00  0.00    -0.307 N 
ATOM     28  H8  UNL     1      -3.501   3.372   0.784  1.00  0.00     0.176 HD
BRANCH  24  29
HETATM   29  N7  UNL     1      -7.817   5.653   0.529  1.00  0.00    -0.379 N 
ATOM     30  H72 UNL     1      -8.776   5.450   0.247  1.00  0.00     0.158 HD
ATOM     31  H71 UNL     1      -7.888   6.628   0.820  1.00  0.00     0.158 HD
ENDBRANCH  24  29
ENDBRANCH  16  22
ENDBRANCH  15  16
BRANCH  15  32
HETATM   32  O2  UNL     1      -4.606  -0.493  -0.680  1.00  0.00    -0.344 OA
ATOM     33  H2  UNL     1      -3.920  -1.132  -0.523  1.00  0.00     0.219 HD
ENDBRANCH  15  32
ENDBRANCH  13  15
ENDBRANCH   1  13
BRANCH   6  34
HETATM   34  S1  UNL     1       0.997  -3.209   2.075  1.00  0.00     0.203 S 
HETATM   35  C9  UNL     1       0.994  -4.354   0.686  1.00  0.00     0.170 C 
HETATM   36  O3  UNL     1       0.242  -4.147   3.088  1.00  0.00    -0.220 OA
HETATM   37  O4  UNL     1       2.201  -3.257   2.863  1.00  0.00    -0.220 OA
ENDBRANCH   6  34
BRANCH   8  38
HETATM   38  C11 UNL     1       2.294  -0.405   2.112  1.00  0.00     0.230 C 
HETATM   39  O5  UNL     1       1.831  -0.497   3.254  1.00  0.00    -0.643 OA
HETATM   40  O6  UNL     1       3.654  -0.271   2.105  1.00  0.00    -0.643 OA
ENDBRANCH   8  38
BRANCH   9  41
HETATM   41  O7  UNL     1       3.272   0.118  -0.411  1.00  0.00    -0.306 OA
BRANCH  41  42
HETATM   42  C13 UNL     1       4.218  -0.269  -1.330  1.00  0.00     0.224 C 
HETATM   43  O9  UNL     1       4.500  -1.667  -1.334  1.00  0.00    -0.315 OA
HETATM   44  C15 UNL     1       5.670  -1.552  -0.610  1.00  0.00     0.356 C 
HETATM   45  C16 UNL     1       5.663  -0.074  -0.990  1.00  0.00     0.253 C 
BRANCH  42  46
HETATM   46  C14 UNL     1       4.010   0.104  -2.797  1.00  0.00     0.236 C 
BRANCH  46  47
HETATM   47  O8  UNL     1       3.946   1.488  -2.947  1.00  0.00    -0.395 OA
ATOM     48  H8  UNL     1       3.817   1.720  -3.859  1.00  0.00     0.209 HD
ENDBRANCH  46  47
ENDBRANCH  42  46
BRANCH  44  49
HETATM   49  N5  UNL     1       6.792  -2.292  -1.159  1.00  0.00    -0.050 N 
ATOM     50  H53 UNL     1       6.545  -3.274  -1.281  1.00  0.00     0.277 HD
ATOM     51  H52 UNL     1       6.949  -2.029  -2.132  1.00  0.00     0.277 HD
ATOM     52  H51 UNL     1       7.656  -2.207  -0.624  1.00  0.00     0.277 HD
ENDBRANCH  44  49
BRANCH  45  53
HETATM   53  O10 UNL     1       6.006   0.819   0.017  1.00  0.00    -0.306 OA
BRANCH  53  54
HETATM   54  C17 UNL     1       7.034   1.731  -0.137  1.00  0.00     0.255 C 
HETATM   55  C18 UNL     1       7.352   2.656   0.974  1.00  0.00     0.126 C 
HETATM   56  O11 UNL     1       7.701   1.790  -1.197  1.00  0.00    -0.266 OA
ENDBRANCH  53  54
ENDBRANCH  45  53
ENDBRANCH  41  42
ENDBRANCH   9  41
TORSDOF 18
