REMARK  16 active torsions:
REMARK  status: ('A' for Active; 'I' for Inactive)
REMARK    1  A    between atoms: C2_2  and  N1_3 
REMARK    2  A    between atoms: C4_6  and  N2_7 
REMARK    3  A    between atoms: N2_7  and  C5_8 
REMARK    4  A    between atoms: C7_12  and  C8_13 
REMARK    5  A    between atoms: C8_13  and  C9_14 
REMARK    6  A    between atoms: C9_14  and  O2_16 
REMARK    7  A    between atoms: O2_16  and  C11_17 
REMARK    8  A    between atoms: C11_17  and  C12_19 
REMARK    9  A    between atoms: N4_24  and  N5_25 
REMARK   10  A    between atoms: N5_25  and  C15_26 
REMARK   11  A    between atoms: C15_26  and  O6_27 
REMARK   12  A    between atoms: C17_33  and  N7_34 
REMARK   13  A    between atoms: N7_34  and  N8_36 
REMARK   14  A    between atoms: N8_36  and  C18_37 
REMARK   15  A    between atoms: C18_37  and  O8_38 
REMARK   16  A    between atoms: C18_37  and  C19_40 
ROOT
HETATM    1  C5  UNL     1      -2.872  -0.794   0.388  1.00  0.00     0.215 C 
HETATM    2  N3  UNL     1      -1.519  -0.632   0.834  1.00  0.00    -0.352 N 
ATOM      3  H3  UNL     1      -1.348   0.072   1.552  1.00  0.00     0.163 HD
HETATM    4  C6  UNL     1      -0.382  -1.372   0.360  1.00  0.00     0.119 A 
HETATM    5  C7  UNL     1       0.839  -1.138   1.178  1.00  0.00     0.108 A 
HETATM    6  N6  UNL     1       1.261  -2.433   1.661  1.00  0.00    -0.372 N 
ATOM      7  H6  UNL     1       2.061  -2.580   2.277  1.00  0.00     0.161 HD
HETATM    8  C17 UNL     1       0.527  -3.352   1.233  1.00  0.00     0.096 A 
HETATM    9  C20 UNL     1      -0.535  -2.842   0.369  1.00  0.00     0.088 A 
HETATM   10  C21 UNL     1      -1.839  -3.376   0.913  1.00  0.00     0.098 C 
HETATM   11  S1  UNL     1      -3.254  -2.563   0.058  1.00  0.00    -0.078 SA
ENDROOT
BRANCH   5  12
HETATM   12  C8  UNL     1       2.030  -0.510   0.541  1.00  0.00     0.059 C 
BRANCH  12  13
HETATM   13  C9  UNL     1       1.963   0.846  -0.011  1.00  0.00     0.130 C 
HETATM   14  C10 UNL     1       1.040   1.130  -1.130  1.00  0.00     0.040 C 
BRANCH  13  15
HETATM   15  O2  UNL     1       3.272   1.348  -0.295  1.00  0.00    -0.315 OA
BRANCH  15  16
HETATM   16  C11 UNL     1       3.823   2.404   0.391  1.00  0.00     0.280 C 
HETATM   17  O3  UNL     1       3.125   2.943   1.308  1.00  0.00    -0.264 OA
BRANCH  16  18
HETATM   18  C12 UNL     1       5.174   2.875   0.057  1.00  0.00     0.259 C 
HETATM   19  C13 UNL     1       5.268   3.277  -1.357  1.00  0.00     0.241 C 
HETATM   20  O4  UNL     1       4.374   3.626  -2.142  1.00  0.00    -0.286 OA
HETATM   21  C14 UNL     1       6.689   3.188  -1.691  1.00  0.00     0.313 C 
HETATM   22  O5  UNL     1       7.334   3.745  -2.610  1.00  0.00    -0.262 OA
HETATM   23  N4  UNL     1       7.267   2.298  -0.733  1.00  0.00    -0.185 N 
HETATM   24  C16 UNL     1       6.229   1.853   0.164  1.00  0.00     0.264 C 
HETATM   25  O7  UNL     1       6.325   0.810   0.830  1.00  0.00    -0.270 OA
BRANCH  23  26
HETATM   26  N5  UNL     1       8.619   1.913  -0.664  1.00  0.00    -0.102 NA
BRANCH  26  27
HETATM   27  C15 UNL     1       9.209   2.320   0.599  1.00  0.00     0.299 C 
BRANCH  27  28
HETATM   28  O6  UNL     1      10.527   1.923   0.617  1.00  0.00    -0.384 OA
ATOM     29  H6  UNL     1      10.913   2.189   1.443  1.00  0.00     0.211 HD
ENDBRANCH  27  28
ENDBRANCH  26  27
ENDBRANCH  23  26
ENDBRANCH  16  18
ENDBRANCH  15  16
ENDBRANCH  13  15
ENDBRANCH  12  13
ENDBRANCH   5  12
BRANCH   8  30
HETATM   30  N7  UNL     1       0.704  -4.749   1.548  1.00  0.00    -0.290 N 
ATOM     31  H7  UNL     1       1.117  -5.009   2.444  1.00  0.00     0.183 HD
BRANCH  30  32
HETATM   32  N8  UNL     1       0.327  -5.742   0.665  1.00  0.00    -0.096 NA
BRANCH  32  33
HETATM   33  C18 UNL     1       1.393  -5.905  -0.321  1.00  0.00     0.333 C 
BRANCH  33  34
HETATM   34  O8  UNL     1       2.566  -6.245   0.325  1.00  0.00    -0.369 OA
ATOM     35  H8  UNL     1       3.259  -6.351  -0.316  1.00  0.00     0.212 HD
ENDBRANCH  33  34
BRANCH  33  36
HETATM   36  C19 UNL     1       0.924  -7.009  -1.221  1.00  0.00     0.221 C 
HETATM   37  O9  UNL     1       1.634  -8.045  -1.263  1.00  0.00    -0.645 OA
HETATM   38  O10 UNL     1      -0.238  -6.887  -1.969  1.00  0.00    -0.645 OA
ENDBRANCH  33  36
ENDBRANCH  32  33
ENDBRANCH  30  32
ENDBRANCH   8  30
BRANCH   1  39
HETATM   39  N2  UNL     1      -3.695   0.035   0.227  1.00  0.00    -0.373 NA
BRANCH  39  40
HETATM   40  C4  UNL     1      -4.568   1.009   0.068  1.00  0.00     0.200 A 
HETATM   41  C3  UNL     1      -5.301   1.651   1.087  1.00  0.00     0.294 A 
HETATM   42  N1  UNL     1      -6.168   2.633   0.859  1.00  0.00    -0.264 N 
HETATM   43  O1  UNL     1      -5.081   1.232   2.241  1.00  0.00    -0.264 OA
HETATM   44  C25 UNL     1      -6.363   3.041  -0.407  1.00  0.00     0.331 A 
HETATM   45  N9  UNL     1      -5.715   2.495  -1.448  1.00  0.00    -0.304 N 
HETATM   46  O11 UNL     1      -7.177   3.960  -0.607  1.00  0.00    -0.246 OA
HETATM   47  C22 UNL     1      -4.841   1.508  -1.222  1.00  0.00     0.058 A 
HETATM   48  C24 UNL     1      -5.997   3.010  -2.774  1.00  0.00     0.161 C 
HETATM   49  C23 UNL     1      -4.130   0.908  -2.373  1.00  0.00     0.072 C 
BRANCH  42  50
HETATM   50  C2  UNL     1      -6.897   3.259   1.952  1.00  0.00     0.133 C 
HETATM   51  C1  UNL     1      -8.204   2.579   2.246  1.00  0.00     0.027 C 
ENDBRANCH  42  50
ENDBRANCH  39  40
ENDBRANCH   1  39
TORSDOF 16
