REMARK  18 active torsions:
REMARK  status: ('A' for Active; 'I' for Inactive)
REMARK    1  A    between atoms: C2_2  and  O2_4 
REMARK    2  A    between atoms: O2_4  and  C3_5 
REMARK    3  A    between atoms: C7_12  and  C8_13 
REMARK    4  A    between atoms: C9_16  and  O8_17 
REMARK    5  A    between atoms: C10_19  and  O9_20 
REMARK    6  A    between atoms: O9_20  and  C11_21 
REMARK    7  A    between atoms: C13_24  and  C14_25 
REMARK    8  A    between atoms: C14_25  and  O11_27 
REMARK    9  A    between atoms: C14_25  and  C16_29 
REMARK   10  A    between atoms: C16_29  and  C17_30 
REMARK   11  A    between atoms: C17_30  and  C19_32 
REMARK   12  A    between atoms: C19_32  and  C20_34 
REMARK   13  A    between atoms: C21_38  and  O16_39 
REMARK   14  A    between atoms: C21_38  and  C22_41 
REMARK   15  A    between atoms: C22_41  and  O17_42 
REMARK   16  A    between atoms: C23_44  and  O18_45 
REMARK   17  A    between atoms: O18_45  and  C24_46 
REMARK   18  A    between atoms: C26_49  and  O20_50 
ROOT
HETATM    1  C3  UNL     1      -4.437   0.487   0.625  1.00  0.00     0.304 C 
HETATM    2  O3  UNL     1      -3.085   0.798   0.728  1.00  0.00    -0.316 OA
HETATM    3  C4  UNL     1      -2.627   0.903  -0.621  1.00  0.00     0.234 C 
HETATM    4  O4  UNL     1      -1.253   0.673  -0.666  1.00  0.00    -0.328 OA
HETATM    5  C5  UNL     1      -0.439   1.485   0.076  1.00  0.00     0.172 C 
HETATM    6  C6  UNL     1      -1.198   2.806   0.199  1.00  0.00     0.216 C 
HETATM    7  O5  UNL     1      -1.885   3.052  -0.986  1.00  0.00    -0.366 OA
HETATM    8  C7  UNL     1      -3.056   2.226  -1.089  1.00  0.00     0.287 C 
HETATM    9  C9  UNL     1      -0.170   0.868   1.408  1.00  0.00     0.192 C 
HETATM   10  C10 UNL     1       1.075  -0.019   1.451  1.00  0.00     0.196 C 
HETATM   11  C13 UNL     1       1.380  -0.395   0.040  1.00  0.00     0.191 C 
HETATM   12  O15 UNL     1       1.701   0.693  -0.714  1.00  0.00    -0.340 OA
HETATM   13  C21 UNL     1       0.796   1.725  -0.755  1.00  0.00     0.221 C 
HETATM   14  C23 UNL     1      -3.246  -0.332  -1.183  1.00  0.00     0.231 C 
HETATM   15  C26 UNL     1      -4.475  -0.648  -0.409  1.00  0.00     0.209 C 
ENDROOT
BRANCH   9  16
HETATM   16  O8  UNL     1      -0.062   1.908   2.343  1.00  0.00    -0.390 OA
ATOM     17  H8  UNL     1       0.109   1.515   3.191  1.00  0.00     0.210 HD
ENDBRANCH   9  16
BRANCH  13  18
HETATM   18  O16 UNL     1       0.357   1.795  -2.101  1.00  0.00    -0.361 OA
ATOM     19  H16 UNL     1       1.135   1.946  -2.625  1.00  0.00     0.213 HD
ENDBRANCH  13  18
BRANCH  13  20
HETATM   20  C22 UNL     1       1.539   2.987  -0.502  1.00  0.00     0.235 C 
BRANCH  20  21
HETATM   21  O17 UNL     1       2.172   3.063   0.731  1.00  0.00    -0.395 OA
ATOM     22  H17 UNL     1       2.647   3.870   0.893  1.00  0.00     0.209 HD
ENDBRANCH  20  21
ENDBRANCH  13  20
BRANCH  10  23
HETATM   23  O9  UNL     1       0.808  -1.210   2.171  1.00  0.00    -0.311 OA
BRANCH  23  24
HETATM   24  C11 UNL     1       1.438  -1.556   3.349  1.00  0.00     0.255 C 
HETATM   25  C12 UNL     1       1.046  -2.842   3.982  1.00  0.00     0.126 C 
HETATM   26  O10 UNL     1       2.292  -0.784   3.818  1.00  0.00    -0.266 OA
ENDBRANCH  23  24
ENDBRANCH  10  23
BRANCH   8  27
HETATM   27  C8  UNL     1      -3.572   2.416  -2.432  1.00  0.00     0.208 C 
HETATM   28  O6  UNL     1      -2.939   3.076  -3.315  1.00  0.00    -0.646 OA
HETATM   29  O7  UNL     1      -4.776   1.915  -2.868  1.00  0.00    -0.646 OA
ENDBRANCH   8  27
BRANCH  14  30
HETATM   30  O18 UNL     1      -3.326  -0.435  -2.564  1.00  0.00    -0.308 OA
BRANCH  30  31
HETATM   31  C24 UNL     1      -2.633  -1.374  -3.308  1.00  0.00     0.255 C 
HETATM   32  C25 UNL     1      -2.738  -1.464  -4.800  1.00  0.00     0.126 C 
HETATM   33  O19 UNL     1      -1.892  -2.172  -2.676  1.00  0.00    -0.266 OA
ENDBRANCH  30  31
ENDBRANCH  14  30
BRANCH  11  34
HETATM   34  C14 UNL     1       2.587  -1.347  -0.087  1.00  0.00     0.084 C 
HETATM   35  C15 UNL     1       2.527  -1.754  -1.571  1.00  0.00     0.049 C 
BRANCH  34  36
HETATM   36  O11 UNL     1       2.427  -2.506   0.627  1.00  0.00    -0.387 OA
ATOM     37  H11 UNL     1       3.170  -3.092   0.549  1.00  0.00     0.210 HD
ENDBRANCH  34  36
BRANCH  34  38
HETATM   38  C16 UNL     1       3.811  -0.610   0.290  1.00  0.00     0.052 C 
BRANCH  38  39
HETATM   39  C17 UNL     1       5.110  -1.325   0.271  1.00  0.00     0.066 C 
HETATM   40  C18 UNL     1       5.526  -1.862  -1.066  1.00  0.00     0.018 C 
BRANCH  39  41
HETATM   41  C19 UNL     1       6.206  -0.422   0.781  1.00  0.00     0.228 C 
HETATM   42  O12 UNL     1       5.915   0.779   1.045  1.00  0.00    -0.285 OA
BRANCH  41  43
HETATM   43  C20 UNL     1       7.572  -0.863   0.980  1.00  0.00     0.247 C 
HETATM   44  O13 UNL     1       7.972  -2.036   0.777  1.00  0.00    -0.642 OA
HETATM   45  O14 UNL     1       8.530   0.040   1.423  1.00  0.00    -0.642 OA
ENDBRANCH  41  43
ENDBRANCH  39  41
ENDBRANCH  38  39
ENDBRANCH  34  38
ENDBRANCH  11  34
BRANCH   1  46
HETATM   46  O2  UNL     1      -4.819  -0.065   1.872  1.00  0.00    -0.287 OA
BRANCH  46  47
HETATM   47  C2  UNL     1      -5.864   0.499   2.598  1.00  0.00     0.257 C 
HETATM   48  C1  UNL     1      -6.236  -0.101   3.893  1.00  0.00     0.126 C 
HETATM   49  O1  UNL     1      -6.428   1.497   2.091  1.00  0.00    -0.266 OA
ENDBRANCH  46  47
ENDBRANCH   1  46
BRANCH  15  50
HETATM   50  O20 UNL     1      -5.648  -0.742  -1.087  1.00  0.00    -0.388 OA
ATOM     51  H20 UNL     1      -5.672  -1.444  -1.727  1.00  0.00     0.210 HD
ENDBRANCH  15  50
TORSDOF 18
