REMARK  18 active torsions:
REMARK  status: ('A' for Active; 'I' for Inactive)
REMARK    1  A    between atoms: N1_1  and  C1_5 
REMARK    2  A    between atoms: C1_5  and  C2_6 
REMARK    3  A    between atoms: C1_5  and  C12_38 
REMARK       I    between atoms: C2_6  and  N2_8 
REMARK    4  A    between atoms: N2_8  and  S1_10 
REMARK    5  A    between atoms: S1_10  and  O4_13 
REMARK    6  A    between atoms: O4_13  and  C3_14 
REMARK    7  A    between atoms: C3_14  and  N3_15 
REMARK    8  A    between atoms: C4_18  and  N5_19 
REMARK    9  A    between atoms: N5_19  and  C5_21 
REMARK   10  A    between atoms: C5_21  and  O5_22 
REMARK   11  A    between atoms: C5_21  and  C6_24 
REMARK   12  A    between atoms: C8_27  and  O7_28 
REMARK   13  A    between atoms: C10_31  and  O8_32 
REMARK   14  A    between atoms: C11_34  and  N6_35 
REMARK       I    between atoms: C12_38  and  N7_40 
REMARK   15  A    between atoms: C17_46  and  N8_47 
REMARK   16  A    between atoms: C18_50  and  C19_51 
REMARK   17  A    between atoms: C19_51  and  O14_52 
REMARK   18  A    between atoms: C19_51  and  O15_54 
ROOT
HETATM    1  S1  UNL     1       0.987   0.229   0.392  1.00  0.00     0.369 S 
HETATM    2  O2  UNL     1       0.463   1.702   0.434  1.00  0.00    -0.175 OA
HETATM    3  O3  UNL     1       1.861   0.157  -0.840  1.00  0.00    -0.175 OA
ENDROOT
BRANCH   1   4
HETATM    4  N2  UNL     1      -0.414  -0.745   0.176  1.00  0.00    -0.229 N 
HETATM    5  C2  UNL     1      -1.735  -0.282   0.386  1.00  0.00     0.272 C 
HETATM    6  O1  UNL     1      -1.927   0.897   0.745  1.00  0.00    -0.270 OA
ATOM      7  H2  UNL     1      -0.285  -1.712  -0.121  1.00  0.00     0.183 HD
BRANCH   5   8
HETATM    8  C1  UNL     1      -2.877  -1.228   0.175  1.00  0.00     0.366 C 
BRANCH   8   9
HETATM    9  N1  UNL     1      -2.292  -2.466  -0.444  1.00  0.00    -0.058 N 
ATOM     10  H13 UNL     1      -1.758  -2.280  -1.293  1.00  0.00     0.275 HD
ATOM     11  H12 UNL     1      -1.528  -2.868   0.100  1.00  0.00     0.275 HD
ATOM     12  H11 UNL     1      -3.070  -3.110  -0.588  1.00  0.00     0.275 HD
ENDBRANCH   8   9
BRANCH   8  13
HETATM   13  C12 UNL     1      -3.945  -0.749  -0.693  1.00  0.00     0.261 C 
HETATM   14  O11 UNL     1      -3.824  -1.007  -1.941  1.00  0.00    -0.270 OA
HETATM   15  N7  UNL     1      -5.079  -0.041  -0.212  1.00  0.00    -0.324 N 
HETATM   16  C13 UNL     1      -5.170   0.282   1.166  1.00  0.00     0.154 C 
HETATM   17  C18 UNL     1      -6.120   0.224  -1.180  1.00  0.00     0.172 C 
HETATM   18  S2  UNL     1      -5.235   2.031   1.641  1.00  0.00    -0.143 SA
HETATM   19  C15 UNL     1      -6.523   0.020   1.773  1.00  0.00     0.030 C 
HETATM   20  C14 UNL     1      -6.558   1.284   2.624  1.00  0.00     0.083 C 
HETATM   21  C16 UNL     1      -7.662  -0.020   0.823  1.00  0.00     0.042 C 
HETATM   22  C17 UNL     1      -7.369  -0.401  -0.589  1.00  0.00     0.184 C 
BRANCH  22  23
HETATM   23  N8  UNL     1      -8.492  -0.012  -1.431  1.00  0.00    -0.148 N 
HETATM   24  O12 UNL     1      -9.482   0.582  -0.965  1.00  0.00    -0.536 OA
HETATM   25  O13 UNL     1      -8.413  -0.339  -2.774  1.00  0.00    -0.536 OA
ENDBRANCH  22  23
BRANCH  17  26
HETATM   26  C19 UNL     1      -6.322   1.624  -1.616  1.00  0.00     0.278 C 
BRANCH  26  27
HETATM   27  O14 UNL     1      -5.171   2.229  -2.162  1.00  0.00    -0.369 OA
ATOM     28  H14 UNL     1      -5.301   3.128  -2.442  1.00  0.00     0.212 HD
ENDBRANCH  26  27
BRANCH  26  29
HETATM   29  O15 UNL     1      -7.008   2.461  -0.763  1.00  0.00    -0.369 OA
ATOM     30  H15 UNL     1      -7.138   3.360  -1.043  1.00  0.00     0.212 HD
ENDBRANCH  26  29
ENDBRANCH  17  26
ENDBRANCH   8  13
ENDBRANCH   5   8
ENDBRANCH   1   4
BRANCH   1  31
HETATM   31  O4  UNL     1       1.828  -0.077   1.730  1.00  0.00    -0.209 OA
BRANCH  31  32
HETATM   32  C3  UNL     1       2.715  -1.022   1.956  1.00  0.00     0.276 C 
BRANCH  32  33
HETATM   33  N3  UNL     1       3.903  -1.065   1.136  1.00  0.00    -0.218 N 
HETATM   34  N4  UNL     1       4.936  -0.246   1.386  1.00  0.00    -0.273 N 
HETATM   35  C4  UNL     1       5.924  -0.438   0.489  1.00  0.00     0.156 A 
ATOM     36  H4  UNL     1       4.969   0.429   2.150  1.00  0.00     0.189 HD
HETATM   37  C10 UNL     1       5.447  -1.442  -0.358  1.00  0.00     0.164 A 
HETATM   38  C11 UNL     1       4.169  -1.819   0.076  1.00  0.00     0.233 A 
BRANCH  35  39
HETATM   39  N5  UNL     1       7.053   0.183   0.447  1.00  0.00    -0.343 N 
ATOM     40  H5  UNL     1       7.252   0.900   1.145  1.00  0.00     0.164 HD
BRANCH  39  41
HETATM   41  C5  UNL     1       8.038  -0.108  -0.557  1.00  0.00     0.255 C 
BRANCH  41  42
HETATM   42  O5  UNL     1       8.625  -1.355  -0.278  1.00  0.00    -0.372 OA
ATOM     43  H5  UNL     1       9.277  -1.547  -0.942  1.00  0.00     0.212 HD
ENDBRANCH  41  42
BRANCH  41  44
HETATM   44  C6  UNL     1       9.159   0.887  -0.514  1.00  0.00     0.017 A 
HETATM   45  C7  UNL     1      10.496   0.594  -0.570  1.00  0.00     0.156 A 
HETATM   46  O6  UNL     1      11.169   1.713  -0.511  1.00  0.00    -0.300 OA
HETATM   47  C8  UNL     1      10.345   2.741  -0.418  1.00  0.00     0.183 A 
HETATM   48  C9  UNL     1       9.059   2.261  -0.416  1.00  0.00     0.077 A 
BRANCH  47  49
HETATM   49  O7  UNL     1      10.735   4.090  -0.336  1.00  0.00    -0.341 OA
ATOM     50  H7  UNL     1      10.142   4.829  -0.269  1.00  0.00     0.220 HD
ENDBRANCH  47  49
ENDBRANCH  41  44
ENDBRANCH  39  41
ENDBRANCH  35  39
BRANCH  37  51
HETATM   51  O8  UNL     1       6.135  -1.947  -1.419  1.00  0.00    -0.354 OA
ATOM     52  H8  UNL     1       5.811  -2.630  -1.995  1.00  0.00     0.218 HD
ENDBRANCH  37  51
BRANCH  38  53
HETATM   53  N6  UNL     1       3.408  -2.848  -0.532  1.00  0.00    -0.093 N 
HETATM   54  O9  UNL     1       3.797  -3.470  -1.548  1.00  0.00    -0.530 OA
HETATM   55  O10 UNL     1       2.177  -3.236  -0.043  1.00  0.00    -0.530 OA
ENDBRANCH  38  53
ENDBRANCH  32  33
ENDBRANCH  31  32
ENDBRANCH   1  31
TORSDOF 18
