REMARK  15 active torsions:
REMARK  status: ('A' for Active; 'I' for Inactive)
REMARK    1  A    between atoms: S1_2  and  C2_3 
REMARK    2  A    between atoms: N2_6  and  N3_7 
REMARK    3  A    between atoms: C3_10  and  S2_11 
REMARK    4  A    between atoms: S2_11  and  C4_12 
REMARK    5  A    between atoms: C4_12  and  C5_13 
REMARK    6  A    between atoms: C6_16  and  C7_17 
REMARK    7  A    between atoms: C8_20  and  S3_21 
REMARK    8  A    between atoms: S3_21  and  C9_22 
REMARK    9  A    between atoms: C10_23  and  C11_24 
REMARK   10  A    between atoms: S4_33  and  N8_35 
REMARK   11  A    between atoms: N8_35  and  N9_37 
REMARK   12  A    between atoms: N9_37  and  N10_39 
REMARK   13  A    between atoms: C15_42  and  C16_43 
REMARK   14  A    between atoms: C16_43  and  O5_44 
REMARK   15  A    between atoms: C17_46  and  C18_47 
REMARK       I    between atoms: C18_47  and  N11_49 
ROOT
HETATM    1  C5  UNL     1       3.224  -0.801  -1.836  1.00  0.00    -0.002 C 
HETATM    2  N4  UNL     1       2.665  -1.525  -0.981  1.00  0.00    -0.357 N 
ATOM      3  H4  UNL     1       3.221  -2.301  -0.621  1.00  0.00     0.165 HD
HETATM    4  C6  UNL     1       1.345  -1.401  -0.446  1.00  0.00     0.111 C 
HETATM    5  C8  UNL     1       0.601  -0.412  -0.904  1.00  0.00     0.024 C 
HETATM    6  C17 UNL     1       1.114   0.434  -2.088  1.00  0.00     0.125 C 
HETATM    7  C21 UNL     1       2.521   0.388  -2.350  1.00  0.00     0.072 C 
ENDROOT
BRANCH   5   8
HETATM    8  S3  UNL     1      -0.970  -0.054  -0.418  1.00  0.00    -0.120 SA
BRANCH   8   9
HETATM    9  C9  UNL     1      -2.112  -0.269   0.729  1.00  0.00     0.113 C 
HETATM   10  C10 UNL     1      -1.923   0.311   2.137  1.00  0.00     0.056 C 
HETATM   11  C12 UNL     1      -2.578  -0.065   3.225  1.00  0.00     0.021 C 
HETATM   12  C13 UNL     1      -2.256   0.611   4.503  1.00  0.00     0.069 C 
HETATM   13  N6  UNL     1      -3.603  -1.089   3.231  1.00  0.00    -0.340 N 
HETATM   14  C14 UNL     1      -4.516  -1.366   2.376  1.00  0.00     0.193 C 
ATOM     15  H6  UNL     1      -3.597  -1.691   4.055  1.00  0.00     0.167 HD
HETATM   16  N7  UNL     1      -5.358  -2.439   2.698  1.00  0.00    -0.071 NA
HETATM   17  S4  UNL     1      -4.841  -0.570   0.865  1.00  0.00     0.108 S 
HETATM   18  O4  UNL     1      -5.354  -1.526  -0.172  1.00  0.00    -0.240 OA
HETATM   19  C15 UNL     1      -3.500   0.399   0.287  1.00  0.00     0.138 C 
BRANCH  10  20
HETATM   20  C11 UNL     1      -0.948   1.372   2.240  1.00  0.00     0.208 C 
HETATM   21  O2  UNL     1      -0.626   2.002   3.268  1.00  0.00    -0.644 OA
HETATM   22  O3  UNL     1      -0.259   1.778   1.080  1.00  0.00    -0.644 OA
ENDBRANCH  10  20
BRANCH  17  23
HETATM   23  N8  UNL     1      -6.034   0.438   1.158  1.00  0.00    -0.239 N 
ATOM     24  H8  UNL     1      -6.111   0.939   2.043  1.00  0.00     0.198 HD
BRANCH  23  25
HETATM   25  N9  UNL     1      -6.970   0.600   0.137  1.00  0.00    -0.242 N 
ATOM     26  H9  UNL     1      -7.178  -0.149  -0.524  1.00  0.00     0.208 HD
BRANCH  25  27
HETATM   27  N10 UNL     1      -7.616   1.856   0.065  1.00  0.00    -0.330 N 
ATOM     28 2H10 UNL     1      -7.397   2.595   0.733  1.00  0.00     0.178 HD
ATOM     29 1H10 UNL     1      -8.301   1.974  -0.682  1.00  0.00     0.178 HD
ENDBRANCH  25  27
ENDBRANCH  23  25
ENDBRANCH  17  23
BRANCH  19  30
HETATM   30  C16 UNL     1      -3.435   0.506  -1.224  1.00  0.00     0.184 C 
BRANCH  30  31
HETATM   31  O5  UNL     1      -4.605   1.074  -1.662  1.00  0.00    -0.400 OA
ATOM     32  H5  UNL     1      -4.564   1.141  -2.609  1.00  0.00     0.209 HD
ENDBRANCH  30  31
ENDBRANCH  19  30
ENDBRANCH   8   9
ENDBRANCH   5   8
BRANCH   4  33
HETATM   33  C7  UNL     1       0.959  -2.396   0.526  1.00  0.00     0.282 C 
HETATM   34  N5  UNL     1       1.921  -3.415   0.879  1.00  0.00    -0.056 NA
HETATM   35  O1  UNL     1      -0.106  -2.471   1.089  1.00  0.00    -0.269 OA
ENDBRANCH   4  33
BRANCH   6  36
HETATM   36  C18 UNL     1       0.286   0.085  -3.283  1.00  0.00     0.228 C 
HETATM   37  O6  UNL     1      -0.415  -0.975  -3.190  1.00  0.00    -0.273 OA
HETATM   38  N11 UNL     1       0.241   0.841  -4.474  1.00  0.00    -0.360 N 
HETATM   39  C19 UNL     1      -0.567   0.428  -5.594  1.00  0.00     0.152 C 
HETATM   40  C20 UNL     1       0.993   2.066  -4.610  1.00  0.00     0.152 C 
ENDBRANCH   6  36
BRANCH   1  41
HETATM   41  C4  UNL     1       4.633  -1.085  -2.296  1.00  0.00     0.135 C 
BRANCH  41  42
HETATM   42  S2  UNL     1       5.737   0.168  -1.603  1.00  0.00    -0.077 SA
BRANCH  42  43
HETATM   43  C3  UNL     1       5.937   0.030   0.154  1.00  0.00     0.227 A 
HETATM   44  N2  UNL     1       5.189   0.615   1.092  1.00  0.00    -0.170 N 
HETATM   45  N1  UNL     1       5.706   0.228   2.272  1.00  0.00    -0.250 N 
HETATM   46  C2  UNL     1       6.757  -0.583   2.065  1.00  0.00     0.205 A 
ATOM     47  H1  UNL     1       5.353   0.508   3.187  1.00  0.00     0.192 HD
HETATM   48  O7  UNL     1       6.871  -0.683   0.772  1.00  0.00    -0.260 OA
BRANCH  44  49
HETATM   49  N3  UNL     1       4.089   1.461   0.958  1.00  0.00    -0.321 N 
ATOM     50  H32 UNL     1       3.517   1.908   1.675  1.00  0.00     0.179 HD
ATOM     51  H31 UNL     1       3.697   1.754   0.063  1.00  0.00     0.179 HD
ENDBRANCH  44  49
BRANCH  46  52
HETATM   52  S1  UNL     1       7.801  -1.375   3.283  1.00  0.00    -0.089 SA
HETATM   53  C1  UNL     1       7.240  -0.925   4.948  1.00  0.00     0.099 C 
ENDBRANCH  46  52
ENDBRANCH  42  43
ENDBRANCH  41  42
ENDBRANCH   1  41
TORSDOF 15
