REMARK  3 active torsions:
REMARK  status: ('A' for Active; 'I' for Inactive)
REMARK    1  A    between atoms: C4_5  and  C5_6 
REMARK    2  A    between atoms: C12_13  and  O1_14 
REMARK    3  A    between atoms: O1_14  and  C13_15 
ROOT
HETATM    1  C5  UNL     1      -3.507  -0.591   0.605  1.00  0.00     0.038 C 
HETATM    2  C6  UNL     1      -3.619   0.540   1.584  1.00  0.00     0.011 C 
HETATM    3  C7  UNL     1      -2.484   1.496   1.586  1.00  0.00     0.001 C 
HETATM    4  C8  UNL     1      -1.217   0.688   1.769  1.00  0.00     0.009 C 
HETATM    5  C9  UNL     1      -0.995  -0.139   0.550  1.00  0.00    -0.040 C 
HETATM    6  C10 UNL     1      -0.574   0.723  -0.639  1.00  0.00     0.012 C 
HETATM    7  C11 UNL     1       0.845   1.223  -0.494  1.00  0.00     0.033 C 
HETATM    8  C12 UNL     1       1.870   0.095  -0.645  1.00  0.00     0.129 C 
HETATM    9  C19 UNL     1       1.058  -1.195  -0.432  1.00  0.00     0.033 C 
HETATM   10  C20 UNL     1       0.228  -1.032   0.814  1.00  0.00     0.012 C 
HETATM   11  C21 UNL     1      -2.139  -1.013   0.233  1.00  0.00     0.020 C 
ENDROOT
BRANCH   1  12
HETATM   12  C4  UNL     1      -4.332  -0.254  -0.581  1.00  0.00     0.030 A 
HETATM   13  C3  UNL     1      -5.459  -0.988  -0.890  1.00  0.00     0.031 A 
HETATM   14  C2  UNL     1      -6.248  -0.707  -1.978  1.00  0.00     0.065 A 
HETATM   15  C1  UNL     1      -5.913   0.338  -2.790  1.00  0.00     0.202 A 
HETATM   16  F1  UNL     1      -6.644   0.678  -3.884  1.00  0.00    -0.185 F 
HETATM   17  N5  UNL     1      -4.806   1.054  -2.480  1.00  0.00    -0.276 N 
HETATM   18  N4  UNL     1      -4.051   0.766  -1.419  1.00  0.00    -0.302 N 
ATOM     19  H5  UNL     1      -4.541   1.838  -3.077  1.00  0.00     0.189 HD
ATOM     20  H4  UNL     1      -3.228   1.340  -1.233  1.00  0.00     0.186 HD
ENDBRANCH   1  12
BRANCH   8  21
HETATM   21  O1  UNL     1       2.823   0.103   0.342  1.00  0.00    -0.343 OA
BRANCH  21  22
HETATM   22  C13 UNL     1       4.163   0.059   0.361  1.00  0.00     0.101 A 
HETATM   23  C14 UNL     1       4.770   0.089   1.627  1.00  0.00     0.056 A 
HETATM   24  C15 UNL     1       6.131   0.050   1.795  1.00  0.00     0.092 A 
HETATM   25  N1  UNL     1       6.924  -0.019   0.732  1.00  0.00    -0.350 N 
HETATM   26  C16 UNL     1       6.380  -0.050  -0.499  1.00  0.00     0.136 A 
ATOM     27  H1  UNL     1       7.937  -0.048   0.847  1.00  0.00     0.166 HD
HETATM   28  N2  UNL     1       6.943  -0.119  -1.730  1.00  0.00    -0.337 N 
HETATM   29  C18 UNL     1       5.011  -0.013  -0.705  1.00  0.00     0.111 A 
HETATM   30  C17 UNL     1       5.954  -0.122  -2.641  1.00  0.00     0.182 A 
ATOM     31  H2  UNL     1       7.942  -0.161  -1.930  1.00  0.00     0.168 HD
HETATM   32  N3  UNL     1       4.765  -0.057  -2.007  1.00  0.00    -0.347 N 
ATOM     33  H3  UNL     1       3.846  -0.044  -2.448  1.00  0.00     0.167 HD
ENDBRANCH  21  22
ENDBRANCH   8  21
TORSDOF 3
