REMARK  3 active torsions:
REMARK  status: ('A' for Active; 'I' for Inactive)
REMARK    1  A    between atoms: C4_6  and  C5_7 
REMARK    2  A    between atoms: N3_14  and  C7_15 
REMARK    3  A    between atoms: C7_15  and  C8_16 
ROOT
HETATM    1  C5  UNL     1       0.763  -0.328   0.484  1.00  0.00     0.121 A 
HETATM    2  N1  UNL     1       0.757  -0.478   1.820  1.00  0.00    -0.293 N 
ATOM      3  H1  UNL     1       1.621  -0.327   2.340  1.00  0.00     0.187 HD
HETATM    4  N2  UNL     1      -0.346  -0.818   2.482  1.00  0.00    -0.275 N 
ATOM      5  H2  UNL     1      -0.291  -0.918   3.496  1.00  0.00     0.189 HD
HETATM    6  C6  UNL     1      -1.526  -1.036   1.883  1.00  0.00     0.194 A 
HETATM    7  S1  UNL     1      -2.876  -1.453   2.705  1.00  0.00    -0.039 SA
HETATM    8  N3  UNL     1      -1.546  -0.889   0.524  1.00  0.00    -0.311 N 
HETATM    9  C11 UNL     1      -0.440  -0.546  -0.162  1.00  0.00     0.136 A 
HETATM   10  S2  UNL     1      -0.447  -0.399  -1.808  1.00  0.00    -0.058 SA
ENDROOT
BRANCH   1  11
HETATM   11  C4  UNL     1       1.961   0.044  -0.258  1.00  0.00     0.114 A 
HETATM   12  O1  UNL     1       2.121   0.226  -1.543  1.00  0.00    -0.300 OA
HETATM   13  C3  UNL     1       3.351   0.557  -1.851  1.00  0.00     0.129 A 
HETATM   14  C2  UNL     1       4.093   0.607  -0.693  1.00  0.00    -0.012 A 
HETATM   15 BR1  UNL     1       4.058   0.923  -3.602  1.00  0.00    -0.022 Br
HETATM   16  C1  UNL     1       5.529   0.941  -0.584  1.00  0.00     0.052 C 
HETATM   17  C12 UNL     1       3.206   0.281   0.310  1.00  0.00    -0.016 A 
HETATM   18  C13 UNL     1       3.495   0.190   1.749  1.00  0.00     0.052 C 
ENDBRANCH   1  11
BRANCH   8  19
HETATM   19  C7  UNL     1      -2.804  -1.142  -0.109  1.00  0.00     0.136 C 
BRANCH  19  20
HETATM   20  C8  UNL     1      -3.745   0.006  -0.161  1.00  0.00    -0.004 C 
HETATM   21  C9  UNL     1      -3.261   1.228  -0.888  1.00  0.00     0.011 C 
HETATM   22  C10 UNL     1      -5.024  -0.446  -0.879  1.00  0.00     0.011 C 
ENDBRANCH  19  20
ENDBRANCH   8  19
TORSDOF 3
