REMARK  5 active torsions:
REMARK  status: ('A' for Active; 'I' for Inactive)
REMARK    1  A    between atoms: C4_5  and  N1_6 
REMARK    2  A    between atoms: N1_6  and  C6_8 
REMARK    3  A    between atoms: C14_17  and  C15_18 
REMARK    4  A    between atoms: C18_21  and  O1_22 
REMARK    5  A    between atoms: C19_24  and  O2_25 
ROOT
HETATM    1  C1  UNL     1      -0.587  -3.604   2.144  1.00  0.00     0.037 C 
HETATM    2  C2  UNL     1      -1.380  -2.544   1.469  1.00  0.00    -0.015 C 
HETATM    3  C3  UNL     1      -0.963  -1.317   1.340  1.00  0.00    -0.006 C 
HETATM    4  S1  UNL     1       0.619  -0.722   1.954  1.00  0.00    -0.075 SA
HETATM    5  C4  UNL     1       0.793   0.560   0.705  1.00  0.00     0.090 C 
HETATM    6  C12 UNL     1      -0.394   0.741   0.192  1.00  0.00     0.069 C 
HETATM    7  C13 UNL     1      -0.676   1.718  -0.879  1.00  0.00     0.099 C 
HETATM    8  N2  UNL     1      -0.877   2.490  -1.715  1.00  0.00    -0.192 NA
HETATM    9  C14 UNL     1      -1.479  -0.073   0.750  1.00  0.00     0.105 C 
ENDROOT
BRANCH   5  10
HETATM   10  N1  UNL     1       2.019   1.242   0.353  1.00  0.00    -0.374 N 
HETATM   11  C5  UNL     1       2.065   2.683   0.474  1.00  0.00     0.150 C 
BRANCH  10  12
HETATM   12  C6  UNL     1       3.173   0.551  -0.103  1.00  0.00     0.084 C 
HETATM   13  C7  UNL     1       4.275   1.546  -0.383  1.00  0.00     0.025 C 
HETATM   14  C8  UNL     1       5.605   0.816  -0.405  1.00  0.00     0.002 C 
HETATM   15  C9  UNL     1       5.342  -0.573  -0.960  1.00  0.00     0.000 C 
HETATM   16  C10 UNL     1       4.299  -0.429  -2.043  1.00  0.00     0.002 C 
HETATM   17  C11 UNL     1       2.952  -0.232  -1.377  1.00  0.00     0.025 C 
ENDBRANCH  10  12
ENDBRANCH   5  10
BRANCH   9  18
HETATM   18  C15 UNL     1      -2.593  -0.269  -0.185  1.00  0.00    -0.041 A 
HETATM   19  C16 UNL     1      -2.423  -0.960  -1.357  1.00  0.00     0.011 A 
HETATM   20  C17 UNL     1      -3.507  -1.118  -2.206  1.00  0.00     0.040 A 
HETATM   21  C18 UNL     1      -4.761  -0.586  -1.886  1.00  0.00     0.099 A 
HETATM   22  C19 UNL     1      -4.921   0.105  -0.708  1.00  0.00     0.101 A 
HETATM   23  C21 UNL     1      -3.835   0.255   0.128  1.00  0.00     0.047 A 
BRANCH  21  24
HETATM   24  O1  UNL     1      -5.799  -0.780  -2.779  1.00  0.00    -0.358 OA
ATOM     25  H1  UNL     1      -6.650  -0.419  -2.562  1.00  0.00     0.217 HD
ENDBRANCH  21  24
BRANCH  22  26
HETATM   26  O2  UNL     1      -6.168   0.620  -0.415  1.00  0.00    -0.353 OA
HETATM   27  C20 UNL     1      -6.479   1.344   0.745  1.00  0.00     0.210 C 
ENDBRANCH  22  26
ENDBRANCH   9  18
TORSDOF 5
