REMARK  3 active torsions:
REMARK  status: ('A' for Active; 'I' for Inactive)
REMARK    1  A    between atoms: C4_5  and  C5_6 
REMARK    2  A    between atoms: C5_6  and  C6_7 
REMARK    3  A    between atoms: C7_8  and  N1_9 
ROOT
HETATM    1  C6  UNL     1       0.936   0.739   0.547  1.00  0.00    -0.005 A 
HETATM    2  C7  UNL     1       1.762   0.395  -0.471  1.00  0.00     0.091 A 
HETATM    3  S1  UNL     1       2.492   1.921  -0.893  1.00  0.00    -0.074 SA
HETATM    4  C12 UNL     1       1.701   2.917   0.259  1.00  0.00     0.003 A 
HETATM    5  C13 UNL     1       0.926   2.052   0.903  1.00  0.00     0.022 A 
HETATM    6  S2  UNL     1       0.079   3.088   2.126  1.00  0.00    -0.128 SA
HETATM    7  C14 UNL     1       0.382   4.691   1.273  1.00  0.00     0.085 C 
HETATM    8  C15 UNL     1       1.686   4.325   0.654  1.00  0.00     0.058 C 
ENDROOT
BRANCH   2   9
HETATM    9  N1  UNL     1       2.114  -0.847  -1.120  1.00  0.00    -0.284 N 
HETATM   10  C8  UNL     1       1.958  -1.097  -2.423  1.00  0.00     0.192 A 
HETATM   11  N2  UNL     1       2.426  -2.315  -2.662  1.00  0.00    -0.335 N 
HETATM   12  C9  UNL     1       2.888  -2.867  -1.529  1.00  0.00     0.152 A 
ATOM     13  H2  UNL     1       2.434  -2.767  -3.576  1.00  0.00     0.168 HD
HETATM   14  N3  UNL     1       3.464  -3.929  -0.945  1.00  0.00    -0.335 N 
HETATM   15  C11 UNL     1       2.688  -1.931  -0.555  1.00  0.00     0.159 A 
HETATM   16  C10 UNL     1       3.619  -3.662   0.359  1.00  0.00     0.183 A 
ATOM     17  H3  UNL     1       3.737  -4.793  -1.414  1.00  0.00     0.168 HD
HETATM   18  N4  UNL     1       3.148  -2.438   0.617  1.00  0.00    -0.335 N 
ATOM     19  H4  UNL     1       3.136  -1.972   1.524  1.00  0.00     0.168 HD
ENDBRANCH   2   9
BRANCH   1  20
HETATM   20  C5  UNL     1       0.046  -0.273   1.206  1.00  0.00     0.047 C 
BRANCH  20  21
HETATM   21  C4  UNL     1      -1.280  -0.497   0.602  1.00  0.00    -0.010 C 
HETATM   22  C3  UNL     1      -1.372  -0.951  -0.795  1.00  0.00     0.006 C 
HETATM   23  C2  UNL     1      -2.769  -1.385  -1.158  1.00  0.00     0.020 C 
HETATM   24  C1  UNL     1      -3.745  -1.226  -0.033  1.00  0.00     0.082 C 
HETATM   25 CL1  UNL     1      -5.384  -1.356  -0.769  1.00  0.00    -0.125 Cl
HETATM   26  C17 UNL     1      -3.665   0.141   0.588  1.00  0.00     0.020 C 
HETATM   27  C16 UNL     1      -2.271   0.622   0.857  1.00  0.00     0.006 C 
ENDBRANCH  20  21
ENDBRANCH   1  20
TORSDOF 3
