REMARK  9 active torsions:
REMARK  status: ('A' for Active; 'I' for Inactive)
REMARK    1  A    between atoms: C1_2  and  C2_4 
REMARK    2  A    between atoms: C2_4  and  O3_5 
REMARK    3  A    between atoms: C2_4  and  C3_7 
REMARK    4  A    between atoms: C3_7  and  O4_8 
REMARK    5  A    between atoms: C7_14  and  O6_15 
REMARK    6  A    between atoms: C7_14  and  C8_17 
REMARK    7  A    between atoms: C8_17  and  C9_19 
REMARK    8  A    between atoms: C9_19  and  C10_20 
REMARK    9  A    between atoms: C10_20  and  C11_21 
ROOT
HETATM    1  C3  UNL     1      -2.502   0.247  -0.734  1.00  0.00     0.192 C 
HETATM    2  C4  UNL     1      -3.772  -0.397  -0.182  1.00  0.00     0.168 C 
HETATM    3  O5  UNL     1      -4.901   0.000  -0.364  1.00  0.00    -0.294 OA
HETATM    4  C5  UNL     1      -3.412  -1.586   0.613  1.00  0.00     0.085 C 
HETATM    5  C6  UNL     1      -1.972  -1.849   0.299  1.00  0.00     0.057 C 
HETATM    6  C7  UNL     1      -1.673  -0.994  -0.897  1.00  0.00     0.163 C 
ENDROOT
BRANCH   6   7
HETATM    7  O6  UNL     1      -2.348  -1.685  -1.987  1.00  0.00    -0.378 OA
ATOM      8  H6  UNL     1      -1.823  -2.470  -2.090  1.00  0.00     0.211 HD
ENDBRANCH   6   7
BRANCH   6   9
HETATM    9  C8  UNL     1      -0.308  -0.881  -1.301  1.00  0.00     0.187 C 
HETATM   10  O7  UNL     1       0.041  -1.066  -2.495  1.00  0.00    -0.290 OA
BRANCH   9  11
HETATM   11  C9  UNL     1       0.761  -0.550  -0.349  1.00  0.00     0.056 C 
BRANCH  11  12
HETATM   12  C10 UNL     1       1.992  -0.457  -0.798  1.00  0.00     0.040 C 
BRANCH  12  13
HETATM   13  C11 UNL     1       3.165  -0.146  -0.033  1.00  0.00     0.116 A 
HETATM   14  N1  UNL     1       4.366  -0.102  -0.701  1.00  0.00    -0.292 N 
HETATM   15  N2  UNL     1       5.504   0.171  -0.116  1.00  0.00    -0.251 N 
ATOM     16  H1  UNL     1       4.370  -0.292  -1.703  1.00  0.00     0.187 HD
HETATM   17  C12 UNL     1       5.589   0.430   1.186  1.00  0.00     0.341 A 
ATOM     18  H2  UNL     1       6.355   0.186  -0.678  1.00  0.00     0.191 HD
HETATM   19  O8  UNL     1       6.687   0.692   1.745  1.00  0.00    -0.245 OA
HETATM   20  N3  UNL     1       4.461   0.404   1.897  1.00  0.00    -0.272 N 
HETATM   21  C13 UNL     1       3.257   0.120   1.304  1.00  0.00     0.277 A 
ATOM     22  H3  UNL     1       4.494   0.598   2.898  1.00  0.00     0.173 HD
HETATM   23  O9  UNL     1       2.225   0.106   2.005  1.00  0.00    -0.266 OA
ENDBRANCH  12  13
ENDBRANCH  11  12
ENDBRANCH   9  11
ENDBRANCH   6   9
BRANCH   1  24
HETATM   24  C2  UNL     1      -2.106   1.269   0.240  1.00  0.00     0.264 C 
BRANCH  24  25
HETATM   25  C1  UNL     1      -1.136   2.298  -0.281  1.00  0.00     0.206 C 
HETATM   26  O1  UNL     1      -1.263   2.678  -1.459  1.00  0.00    -0.646 OA
HETATM   27  O2  UNL     1      -0.120   2.833   0.495  1.00  0.00    -0.646 OA
ENDBRANCH  24  25
BRANCH  24  28
HETATM   28  O3  UNL     1      -1.824   0.856   1.514  1.00  0.00    -0.381 OA
ATOM     29  H3  UNL     1      -2.435   0.207   1.842  1.00  0.00     0.210 HD
ENDBRANCH  24  28
ENDBRANCH   1  24
BRANCH   1  30
HETATM   30  O4  UNL     1      -2.798   0.749  -1.971  1.00  0.00    -0.376 OA
ATOM     31  H4  UNL     1      -3.055   0.087  -2.602  1.00  0.00     0.211 HD
ENDBRANCH   1  30
TORSDOF 9
