REMARK  9 active torsions:
REMARK  status: ('A' for Active; 'I' for Inactive)
REMARK    1  A    between atoms: O1_2  and  C2_3 
REMARK    2  A    between atoms: C4_5  and  O2_6 
REMARK    3  A    between atoms: C5_8  and  O3_9 
REMARK    4  A    between atoms: C6_11  and  O4_12 
REMARK    5  A    between atoms: C7_14  and  O5_15 
REMARK    6  A    between atoms: O5_15  and  S1_16 
REMARK    7  A    between atoms: C8_20  and  N1_21 
REMARK    8  A    between atoms: N1_21  and  C10_23 
REMARK    9  A    between atoms: C11_27  and  O9_28 
ROOT
HETATM    1  C2  UNL     1      -0.417  -1.185  -0.421  1.00  0.00     0.118 C 
HETATM    2  C3  UNL     1      -0.123  -1.877  -1.780  1.00  0.00     0.051 C 
HETATM    3  C4  UNL     1      -1.920  -1.243  -0.328  1.00  0.00     0.185 C 
HETATM    4  C5  UNL     1      -2.370  -0.675   0.962  1.00  0.00     0.181 C 
HETATM    5  C6  UNL     1      -1.796   0.670   1.277  1.00  0.00     0.182 C 
HETATM    6  C7  UNL     1      -0.879   1.229   0.251  1.00  0.00     0.213 C 
HETATM    7  C8  UNL     1      -0.042   0.275  -0.501  1.00  0.00     0.294 C 
ENDROOT
BRANCH   7   8
HETATM    8  N1  UNL     1       1.364   0.573  -0.510  1.00  0.00     0.130 N 
HETATM    9  C9  UNL     1       2.054   0.187  -1.733  1.00  0.00     0.313 C 
BRANCH   8  10
HETATM   10  C10 UNL     1       2.094  -0.014   0.594  1.00  0.00     0.478 A 
HETATM   11  N2  UNL     1       2.101   0.485   1.915  1.00  0.00    -0.009 N 
HETATM   12  C11 UNL     1       3.214   0.883   1.086  1.00  0.00     0.383 A 
ATOM     13  H22 UNL     1       1.419   1.015   2.457  1.00  0.00     0.283 HD
ATOM     14  H21 UNL     1       2.046   0.030   2.826  1.00  0.00     0.283 HD
BRANCH  12  15
HETATM   15  O9  UNL     1       4.430   0.320   1.467  1.00  0.00    -0.367 OA
ATOM     16  H9  UNL     1       5.131   0.882   1.775  1.00  0.00     0.212 HD
ENDBRANCH  12  15
ENDBRANCH   8  10
ENDBRANCH   7   8
BRANCH   1  17
HETATM   17  O1  UNL     1       0.204  -1.828   0.590  1.00  0.00    -0.380 OA
HETATM   18  C1  UNL     1      -0.033  -3.130   0.835  1.00  0.00     0.202 C 
ENDBRANCH   1  17
BRANCH   6  19
HETATM   19  O5  UNL     1      -0.077   2.174   0.887  1.00  0.00    -0.246 OA
BRANCH  19  20
HETATM   20  S1  UNL     1      -0.436   3.745   0.521  1.00  0.00     0.252 S 
HETATM   21  O6  UNL     1      -0.584   4.541   1.805  1.00  0.00    -0.572 OA
HETATM   22  O7  UNL     1      -1.718   3.883  -0.264  1.00  0.00    -0.572 OA
HETATM   23  O8  UNL     1       0.791   4.490  -0.350  1.00  0.00    -0.572 OA
ENDBRANCH  19  20
ENDBRANCH   6  19
BRANCH   3  24
HETATM   24  O2  UNL     1      -2.407  -2.531  -0.525  1.00  0.00    -0.390 OA
ATOM     25  H2  UNL     1      -3.354  -2.568  -0.466  1.00  0.00     0.210 HD
ENDBRANCH   3  24
BRANCH   5  26
HETATM   26  O4  UNL     1      -1.302   0.677   2.579  1.00  0.00    -0.390 OA
ATOM     27  H4  UNL     1      -0.937   1.531   2.779  1.00  0.00     0.210 HD
ENDBRANCH   5  26
BRANCH   4  28
HETATM   28  O3  UNL     1      -3.798  -0.616   0.999  1.00  0.00    -0.390 OA
ATOM     29  H3  UNL     1      -4.087  -0.251   1.827  1.00  0.00     0.210 HD
ENDBRANCH   4  28
TORSDOF 9
