REMARK  9 active torsions:
REMARK  status: ('A' for Active; 'I' for Inactive)
REMARK    1  A    between atoms: C2_2  and  O1_3 
REMARK    2  A    between atoms: C2_2  and  C3_5 
REMARK    3  A    between atoms: C3_5  and  N1_6 
REMARK    4  A    between atoms: N1_6  and  C5_9 
REMARK    5  A    between atoms: C6_12  and  N4_13 
REMARK    6  A    between atoms: C10_19  and  C11_20 
REMARK    7  A    between atoms: C11_20  and  O2_21 
REMARK    8  A    between atoms: C11_20  and  O3_23 
REMARK    9  A    between atoms: C13_28  and  N8_29 
ROOT
HETATM    1  N1  UNL     1       3.149   0.246   0.686  1.00  0.00    -0.092 N 
HETATM    2  C4  UNL     1       3.321   0.293   2.104  1.00  0.00     0.203 C 
HETATM    3  N2  UNL     1       3.460   0.354   3.250  1.00  0.00    -0.171 NA
ENDROOT
BRANCH   1   4
HETATM    4  C3  UNL     1       4.142   0.816  -0.129  1.00  0.00     0.131 C 
BRANCH   4   5
HETATM    5  C2  UNL     1       5.486   0.172  -0.125  1.00  0.00     0.154 C 
HETATM    6  C1  UNL     1       5.642  -1.104  -0.854  1.00  0.00     0.045 C 
BRANCH   5   7
HETATM    7  O1  UNL     1       6.050   0.126   1.161  1.00  0.00    -0.391 OA
ATOM      8  H1  UNL     1       5.950   0.946   1.630  1.00  0.00     0.210 HD
ENDBRANCH   5   7
ENDBRANCH   4   5
ENDBRANCH   1   4
BRANCH   1   9
HETATM    9  C5  UNL     1       1.949  -0.317   0.222  1.00  0.00     0.726 A 
HETATM   10  N3  UNL     1       0.761   0.319   0.454  1.00  0.00    -0.020 N 
HETATM   11  C6  UNL     1      -0.426  -0.145   0.086  1.00  0.00     0.709 A 
ATOM     12  H3  UNL     1       0.790   1.213   0.944  1.00  0.00     0.203 HD
HETATM   13  N7  UNL     1      -0.413  -1.343  -0.571  1.00  0.00    -0.022 N 
HETATM   14  C13 UNL     1       0.716  -1.995  -0.820  1.00  0.00     0.705 A 
ATOM     15  H7  UNL     1      -1.297  -1.748  -0.879  1.00  0.00     0.203 HD
HETATM   16  N9  UNL     1       1.915  -1.489  -0.426  1.00  0.00    -0.020 N 
ATOM     17  H9  UNL     1       2.778  -1.996  -0.622  1.00  0.00     0.203 HD
BRANCH  11  18
HETATM   18  N4  UNL     1      -1.653   0.523   0.353  1.00  0.00    -0.213 N 
HETATM   19  C7  UNL     1      -1.826   1.926   0.436  1.00  0.00     0.161 C 
HETATM   20  C8  UNL     1      -3.199   2.432   0.193  1.00  0.00     0.155 C 
HETATM   21  N5  UNL     1      -4.212   1.442   0.070  1.00  0.00    -0.307 N 
HETATM   22  C9  UNL     1      -5.558   1.836   0.298  1.00  0.00     0.180 C 
HETATM   23  C10 UNL     1      -3.908   0.094  -0.277  1.00  0.00     0.168 C 
HETATM   24  N6  UNL     1      -6.650   2.164   0.489  1.00  0.00    -0.172 NA
HETATM   25  C12 UNL     1      -2.779  -0.371   0.599  1.00  0.00     0.172 C 
BRANCH  23  26
HETATM   26  C11 UNL     1      -5.107  -0.820  -0.203  1.00  0.00     0.278 C 
BRANCH  26  27
HETATM   27  O2  UNL     1      -4.722  -2.109  -0.564  1.00  0.00    -0.369 OA
ATOM     28  H2  UNL     1      -5.477  -2.684  -0.517  1.00  0.00     0.212 HD
ENDBRANCH  26  27
BRANCH  26  29
HETATM   29  O3  UNL     1      -5.614  -0.913   1.096  1.00  0.00    -0.369 OA
ATOM     30  H3  UNL     1      -6.369  -1.488   1.143  1.00  0.00     0.212 HD
ENDBRANCH  26  29
ENDBRANCH  23  26
ENDBRANCH  11  18
BRANCH  14  31
HETATM   31  N8  UNL     1       0.706  -3.114  -1.438  1.00  0.00    -0.234 N 
ATOM     32  H82 UNL     1      -0.193  -3.494  -1.734  1.00  0.00     0.174 HD
ATOM     33  H81 UNL     1       1.574  -3.615  -1.629  1.00  0.00     0.174 HD
ENDBRANCH  14  31
ENDBRANCH   1   9
TORSDOF 9
