REMARK  11 active torsions:
REMARK  status: ('A' for Active; 'I' for Inactive)
REMARK    1  A    between atoms: C2_2  and  O2_4 
REMARK    2  A    between atoms: O2_4  and  C3_5 
REMARK    3  A    between atoms: C4_6  and  C5_7 
REMARK    4  A    between atoms: N1_8  and  O3_10 
REMARK    5  A    between atoms: C7_16  and  O4_17 
REMARK    6  A    between atoms: O4_17  and  C8_18 
REMARK    7  A    between atoms: C8_18  and  C9_20 
REMARK    8  A    between atoms: C11_22  and  N3_23 
REMARK    9  A    between atoms: C12_27  and  O6_28 
REMARK   10  A    between atoms: C13_30  and  O7_31 
REMARK   11  A    between atoms: C14_33  and  O8_34 
ROOT
HETATM    1  C8  UNL     1      -0.542   0.588  -0.152  1.00  0.00     0.266 C 
HETATM    2  O5  UNL     1      -0.634   1.625  -0.881  1.00  0.00    -0.265 OA
ENDROOT
BRANCH   1   3
HETATM    3  O4  UNL     1       0.543  -0.226  -0.314  1.00  0.00    -0.311 OA
BRANCH   3   4
HETATM    4  C7  UNL     1       1.540   0.108  -1.291  1.00  0.00     0.189 C 
HETATM    5  C3  UNL     1       2.908   0.111  -0.701  1.00  0.00     0.198 C 
HETATM    6  C4  UNL     1       3.779  -0.585  -1.679  1.00  0.00     0.258 C 
HETATM    7  N2  UNL     1       2.928  -0.975  -2.806  1.00  0.00    -0.061 N 
HETATM    8  C6  UNL     1       1.587  -1.065  -2.248  1.00  0.00     0.268 C 
ATOM      9  H22 UNL     1       3.000  -0.355  -3.613  1.00  0.00     0.278 HD
ATOM     10  H21 UNL     1       3.236  -1.822  -3.283  1.00  0.00     0.278 HD
BRANCH   5  11
HETATM   11  O2  UNL     1       3.361   1.377  -0.308  1.00  0.00    -0.311 OA
BRANCH  11  12
HETATM   12  C2  UNL     1       3.676   1.751   0.976  1.00  0.00     0.255 C 
HETATM   13  C1  UNL     1       4.143   3.155   1.188  1.00  0.00     0.126 C 
HETATM   14  O1  UNL     1       3.558   0.915   1.888  1.00  0.00    -0.266 OA
ENDBRANCH  11  12
ENDBRANCH   5  11
BRANCH   6  15
HETATM   15  C5  UNL     1       4.347  -1.839  -1.131  1.00  0.00     0.122 C 
HETATM   16  N1  UNL     1       3.783  -2.401  -0.133  1.00  0.00    -0.282 N 
ATOM     17  H1  UNL     1       2.950  -1.960   0.257  1.00  0.00     0.192 HD
BRANCH  16  18
HETATM   18  O3  UNL     1       4.227  -3.555   0.443  1.00  0.00    -0.290 OA
ATOM     19  H3  UNL     1       3.807  -3.973   1.186  1.00  0.00     0.244 HD
ENDBRANCH  16  18
ENDBRANCH   6  15
ENDBRANCH   3   4
ENDBRANCH   1   3
BRANCH   1  20
HETATM   20  C9  UNL     1      -1.631   0.336   0.830  1.00  0.00     0.119 C 
HETATM   21  C10 UNL     1      -2.687   1.399   0.779  1.00  0.00     0.052 C 
HETATM   22  C11 UNL     1      -3.928   0.839   1.459  1.00  0.00     0.215 C 
HETATM   23  C12 UNL     1      -4.562  -0.123   0.485  1.00  0.00     0.179 C 
HETATM   24  C13 UNL     1      -3.511  -0.970  -0.190  1.00  0.00     0.178 C 
HETATM   25  C14 UNL     1      -2.233  -1.036   0.623  1.00  0.00     0.163 C 
BRANCH  22  26
HETATM   26  N3  UNL     1      -4.820   1.945   1.724  1.00  0.00    -0.072 N 
ATOM     27  H33 UNL     1      -4.377   2.692   2.259  1.00  0.00     0.274 HD
ATOM     28  H32 UNL     1      -5.037   2.489   0.889  1.00  0.00     0.274 HD
ATOM     29  H31 UNL     1      -5.652   1.570   2.180  1.00  0.00     0.274 HD
ENDBRANCH  22  26
BRANCH  23  30
HETATM   30  O6  UNL     1      -5.549  -0.900   1.101  1.00  0.00    -0.391 OA
ATOM     31  H6  UNL     1      -5.948  -1.506   0.488  1.00  0.00     0.210 HD
ENDBRANCH  23  30
BRANCH  24  32
HETATM   32  O7  UNL     1      -3.265  -0.564  -1.504  1.00  0.00    -0.390 OA
ATOM     33  H7  UNL     1      -2.603  -1.097  -1.929  1.00  0.00     0.210 HD
ENDBRANCH  24  32
BRANCH  25  34
HETATM   34  O8  UNL     1      -1.362  -1.878  -0.064  1.00  0.00    -0.392 OA
ATOM     35  H8  UNL     1      -1.740  -2.740  -0.194  1.00  0.00     0.210 HD
ENDBRANCH  25  34
ENDBRANCH   1  20
TORSDOF 11
