REMARK  9 active torsions:
REMARK  status: ('A' for Active; 'I' for Inactive)
REMARK    1  A    between atoms: S1_2  and  C2_3 
REMARK    2  A    between atoms: C3_5  and  C4_6 
REMARK    3  A    between atoms: C5_10  and  O2_11 
REMARK    4  A    between atoms: O2_11  and  C6_12 
REMARK    5  A    between atoms: C7_14  and  O4_15 
REMARK    6  A    between atoms: C8_17  and  O5_18 
REMARK    7  A    between atoms: C9_20  and  O6_21 
REMARK    8  A    between atoms: C11_25  and  O8_26 
REMARK    9  A    between atoms: C12_28  and  O9_29 
ROOT
HETATM    1  C4  UNL     1      -0.409   0.030  -0.159  1.00  0.00     0.359 C 
HETATM    2  N1  UNL     1       0.493  -0.622  -1.090  1.00  0.00     0.004 N 
ATOM      3  H11 UNL     1       0.207  -0.926  -2.021  1.00  0.00     0.286 HD
ATOM      4  H12 UNL     1       0.839  -1.572  -0.956  1.00  0.00     0.286 HD
HETATM    5  C5  UNL     1       1.306   0.556  -0.858  1.00  0.00     0.476 C 
HETATM    6  O7  UNL     1       0.125   1.249  -0.602  1.00  0.00    -0.302 OA
ENDROOT
BRANCH   1   7
HETATM    7  C3  UNL     1      -1.831  -0.214  -0.547  1.00  0.00     0.182 C 
HETATM    8  O1  UNL     1      -2.775   0.348   0.252  1.00  0.00    -0.363 OA
HETATM    9  C2  UNL     1      -3.969  -0.322   0.341  1.00  0.00     0.214 C 
HETATM   10  C12 UNL     1      -4.360  -1.140  -0.831  1.00  0.00     0.185 C 
HETATM   11  C11 UNL     1      -3.275  -1.892  -1.518  1.00  0.00     0.152 C 
HETATM   12  C10 UNL     1      -2.004  -1.723  -0.700  1.00  0.00     0.071 C 
BRANCH   9  13
HETATM   13  S1  UNL     1      -5.264   0.973   0.519  1.00  0.00    -0.139 SA
HETATM   14  C1  UNL     1      -5.078   1.834   2.085  1.00  0.00     0.092 C 
ENDBRANCH   9  13
BRANCH  10  15
HETATM   15  O9  UNL     1      -5.090  -0.366  -1.757  1.00  0.00    -0.390 OA
ATOM     16  H9  UNL     1      -5.341  -0.890  -2.508  1.00  0.00     0.210 HD
ENDBRANCH  10  15
BRANCH  11  17
HETATM   17  O8  UNL     1      -2.975  -1.359  -2.788  1.00  0.00    -0.393 OA
ATOM     18  H8  UNL     1      -3.769  -1.465  -3.299  1.00  0.00     0.210 HD
ENDBRANCH  11  17
ENDBRANCH   1   7
BRANCH   5  19
HETATM   19  O2  UNL     1       2.084   0.390   0.279  1.00  0.00    -0.305 OA
BRANCH  19  20
HETATM   20  C6  UNL     1       3.403   0.710  -0.026  1.00  0.00     0.299 C 
HETATM   21  O3  UNL     1       3.914   1.686   0.842  1.00  0.00    -0.326 OA
HETATM   22  C7  UNL     1       5.297   1.632   0.588  1.00  0.00     0.291 C 
HETATM   23  C8  UNL     1       5.618   0.145   0.580  1.00  0.00     0.206 C 
HETATM   24  C9  UNL     1       4.260  -0.479   0.345  1.00  0.00     0.207 C 
BRANCH  22  25
HETATM   25  O4  UNL     1       6.026   2.304   1.564  1.00  0.00    -0.368 OA
ATOM     26  H4  UNL     1       6.960   2.268   1.393  1.00  0.00     0.212 HD
ENDBRANCH  22  25
BRANCH  23  27
HETATM   27  O5  UNL     1       6.096  -0.157   1.856  1.00  0.00    -0.388 OA
ATOM     28  H5  UNL     1       6.296  -1.086   1.851  1.00  0.00     0.210 HD
ENDBRANCH  23  27
BRANCH  24  29
HETATM   29  O6  UNL     1       3.830  -1.020   1.540  1.00  0.00    -0.388 OA
ATOM     30  H6  UNL     1       4.368  -1.767   1.773  1.00  0.00     0.210 HD
ENDBRANCH  24  29
ENDBRANCH  19  20
ENDBRANCH   5  19
TORSDOF 9
