REMARK  10 active torsions:
REMARK  status: ('A' for Active; 'I' for Inactive)
REMARK    1  A    between atoms: C5_6  and  O2_7 
REMARK    2  A    between atoms: O2_7  and  C6_8 
REMARK    3  A    between atoms: C6_8  and  O3_9 
REMARK    4  A    between atoms: O3_9  and  C7_10 
REMARK    5  A    between atoms: C8_12  and  O5_13 
REMARK    6  A    between atoms: C9_15  and  O6_16 
REMARK    7  A    between atoms: C10_18  and  O7_19 
REMARK    8  A    between atoms: C11_21  and  O8_22 
REMARK    9  A    between atoms: C12_24  and  O9_25 
REMARK   10  A    between atoms: C13_28  and  O11_29 
ROOT
HETATM    1  C6  UNL     1       0.625   0.049  -0.257  1.00  0.00     0.344 C 
ENDROOT
BRANCH   1   2
HETATM    2  O2  UNL     1      -0.603  -0.277  -0.818  1.00  0.00    -0.331 OA
BRANCH   2   3
HETATM    3  C5  UNL     1      -1.660   0.412  -0.257  1.00  0.00     0.330 C 
HETATM    4  O1  UNL     1      -2.359   1.021  -1.298  1.00  0.00    -0.326 OA
HETATM    5  C4  UNL     1      -3.268   0.099  -1.776  1.00  0.00     0.267 C 
HETATM    6  C3  UNL     1      -4.653   0.597  -1.411  1.00  0.00     0.068 C 
HETATM    7  O10 UNL     1      -3.050  -1.096  -1.078  1.00  0.00    -0.318 OA
HETATM    8  C2  UNL     1      -5.041   0.024  -0.080  1.00  0.00     0.020 C 
HETATM    9  C1  UNL     1      -6.280   0.666   0.489  1.00  0.00     0.013 C 
HETATM   10  C13 UNL     1      -3.862   0.112   0.847  1.00  0.00     0.189 C 
HETATM   11  C12 UNL     1      -2.699  -0.601   0.183  1.00  0.00     0.242 C 
BRANCH  10  12
HETATM   12  O11 UNL     1      -4.129  -0.442   2.097  1.00  0.00    -0.390 OA
ATOM     13  H11 UNL     1      -3.383  -0.386   2.683  1.00  0.00     0.210 HD
ENDBRANCH  10  12
BRANCH  11  14
HETATM   14  O9  UNL     1      -2.161  -1.584   0.996  1.00  0.00    -0.359 OA
ATOM     15  H9  UNL     1      -2.812  -2.219   1.272  1.00  0.00     0.213 HD
ENDBRANCH  11  14
ENDBRANCH   2   3
ENDBRANCH   1   2
BRANCH   1  16
HETATM   16  O3  UNL     1       1.584  -0.719  -0.920  1.00  0.00    -0.334 OA
BRANCH  16  17
HETATM   17  C7  UNL     1       2.849  -0.474  -0.439  1.00  0.00     0.296 C 
HETATM   18  O4  UNL     1       3.331  -1.689   0.090  1.00  0.00    -0.326 OA
HETATM   19  C8  UNL     1       4.364  -1.436   0.994  1.00  0.00     0.291 C 
HETATM   20  C9  UNL     1       5.126  -0.235   0.531  1.00  0.00     0.204 C 
HETATM   21  C10 UNL     1       5.210  -0.223  -0.974  1.00  0.00     0.185 C 
HETATM   22  C11 UNL     1       3.794   0.053  -1.489  1.00  0.00     0.204 C 
BRANCH  19  23
HETATM   23  O5  UNL     1       3.773  -1.229   2.234  1.00  0.00    -0.368 OA
ATOM     24  H5  UNL     1       4.476  -1.057   2.849  1.00  0.00     0.212 HD
ENDBRANCH  19  23
BRANCH  20  25
HETATM   25  O6  UNL     1       6.418  -0.305   1.048  1.00  0.00    -0.388 OA
ATOM     26  H6  UNL     1       6.902   0.458   0.754  1.00  0.00     0.210 HD
ENDBRANCH  20  25
BRANCH  21  27
HETATM   27  O7  UNL     1       6.062   0.754  -1.457  1.00  0.00    -0.390 OA
ATOM     28  H7  UNL     1       6.115   0.762  -2.405  1.00  0.00     0.210 HD
ENDBRANCH  21  27
BRANCH  22  29
HETATM   29  O8  UNL     1       3.664   1.432  -1.641  1.00  0.00    -0.388 OA
ATOM     30  H8  UNL     1       4.259   1.764  -2.303  1.00  0.00     0.210 HD
ENDBRANCH  22  29
ENDBRANCH  16  17
ENDBRANCH   1  16
TORSDOF 10
