REMARK  8 active torsions:
REMARK  status: ('A' for Active; 'I' for Inactive)
REMARK    1  A    between atoms: S1_2  and  N1_5 
REMARK    2  A    between atoms: N1_5  and  C2_7 
REMARK    3  A    between atoms: C4_11  and  O5_12 
REMARK    4  A    between atoms: O5_12  and  C5_13 
REMARK    5  A    between atoms: C7_15  and  N2_16 
REMARK    6  A    between atoms: C9_20  and  O6_21 
REMARK    7  A    between atoms: C10_23  and  N4_24 
REMARK    8  A    between atoms: C12_29  and  N5_30 
ROOT
HETATM    1  N2  UNL     1      -3.763  -2.168   0.136  1.00  0.00    -0.321 N 
ATOM      2  H2  UNL     1      -4.676  -2.135   0.589  1.00  0.00     0.172 HD
HETATM    3  C8  UNL     1      -3.273  -3.386  -0.398  1.00  0.00     0.177 C 
HETATM    4  N3  UNL     1      -2.877  -4.378  -0.836  1.00  0.00    -0.172 NA
ENDROOT
BRANCH   1   5
HETATM    5  C7  UNL     1      -2.954  -0.968   0.032  1.00  0.00     0.125 C 
HETATM    6  C6  UNL     1      -1.627  -1.150   0.735  1.00  0.00     0.062 C 
HETATM    7  C5  UNL     1      -0.530  -0.493  -0.104  1.00  0.00     0.157 C 
HETATM    8  C12 UNL     1      -0.994   0.848  -0.571  1.00  0.00     0.214 C 
HETATM    9  C11 UNL     1      -1.746   1.602   0.517  1.00  0.00     0.070 C 
HETATM   10  C10 UNL     1      -3.226   1.531   0.192  1.00  0.00     0.216 C 
HETATM   11  C9  UNL     1      -3.734   0.188   0.591  1.00  0.00     0.172 C 
BRANCH   7  12
HETATM   12  O5  UNL     1       0.623  -0.342   0.649  1.00  0.00    -0.349 OA
BRANCH  12  13
HETATM   13  C4  UNL     1       1.678  -1.099   0.221  1.00  0.00     0.312 C 
HETATM   14  C2  UNL     1       2.916  -0.265   0.188  1.00  0.00     0.288 C 
HETATM   15  O3  UNL     1       3.345  -0.299   1.525  1.00  0.00    -0.337 OA
HETATM   16  C3  UNL     1       3.153  -1.624   1.837  1.00  0.00     0.344 C 
HETATM   17  O4  UNL     1       2.026  -2.076   1.199  1.00  0.00    -0.333 OA
BRANCH  14  18
HETATM   18  N1  UNL     1       3.931  -0.795  -0.696  1.00  0.00    -0.287 N 
ATOM     19  H1  UNL     1       4.273  -1.756  -0.716  1.00  0.00     0.175 HD
BRANCH  18  20
HETATM   20  S1  UNL     1       4.456   0.494  -1.709  1.00  0.00     0.224 S 
HETATM   21  C1  UNL     1       5.154   1.750  -0.670  1.00  0.00     0.186 C 
HETATM   22  O1  UNL     1       5.427   0.029  -2.751  1.00  0.00    -0.206 OA
HETATM   23  O2  UNL     1       3.284   1.088  -2.436  1.00  0.00    -0.206 OA
ENDBRANCH  18  20
ENDBRANCH  14  18
ENDBRANCH  12  13
ENDBRANCH   7  12
BRANCH   8  24
HETATM   24  N5  UNL     1       0.117   1.687  -0.960  1.00  0.00    -0.072 N 
ATOM     25  H53 UNL     1       0.803   1.770  -0.209  1.00  0.00     0.274 HD
ATOM     26  H52 UNL     1       0.703   1.230  -1.659  1.00  0.00     0.274 HD
ATOM     27  H51 UNL     1      -0.200   2.603  -1.279  1.00  0.00     0.274 HD
ENDBRANCH   8  24
BRANCH  10  28
HETATM   28  N4  UNL     1      -3.471   1.814  -1.192  1.00  0.00    -0.072 N 
ATOM     29  H43 UNL     1      -3.089   1.082  -1.791  1.00  0.00     0.274 HD
ATOM     30  H42 UNL     1      -4.460   1.711  -1.420  1.00  0.00     0.274 HD
ATOM     31  H41 UNL     1      -3.123   2.733  -1.465  1.00  0.00     0.274 HD
ENDBRANCH  10  28
BRANCH  11  32
HETATM   32  O6  UNL     1      -3.696   0.077   1.991  1.00  0.00    -0.391 OA
ATOM     33  H6  UNL     1      -4.189   0.808   2.344  1.00  0.00     0.210 HD
ENDBRANCH  11  32
ENDBRANCH   1   5
TORSDOF 8
