REMARK  9 active torsions:
REMARK  status: ('A' for Active; 'I' for Inactive)
REMARK    1  A    between atoms: C1_2  and  C2_4 
REMARK    2  A    between atoms: C3_5  and  S1_6 
REMARK    3  A    between atoms: S1_6  and  N2_7 
REMARK    4  A    between atoms: C4_13  and  N3_14 
REMARK    5  A    between atoms: N3_14  and  N4_16 
REMARK    6  A    between atoms: C5_18  and  C6_19 
REMARK    7  A    between atoms: C5_18  and  C7_22 
REMARK    8  A    between atoms: C7_22  and  O6_23 
REMARK    9  A    between atoms: C7_22  and  O7_25 
ROOT
HETATM    1  C2  UNL     1      -2.429   0.616  -0.351  1.00  0.00     0.127 A 
HETATM    2  C3  UNL     1      -2.588  -0.564   0.307  1.00  0.00     0.144 A 
HETATM    3  S2  UNL     1      -1.123  -1.223   0.956  1.00  0.00    -0.038 SA
HETATM    4  C4  UNL     1       0.237  -0.260   0.645  1.00  0.00     0.167 A 
HETATM    5  N5  UNL     1      -0.030   0.863  -0.054  1.00  0.00    -0.302 N 
ATOM      6  H5  UNL     1       0.762   1.472  -0.261  1.00  0.00     0.171 HD
HETATM    7  C8  UNL     1      -1.205   1.253  -0.496  1.00  0.00     0.264 A 
HETATM    8  O8  UNL     1      -1.206   2.361  -1.139  1.00  0.00    -0.267 OA
ENDROOT
BRANCH   4   9
HETATM    9  N3  UNL     1       1.435  -0.564   1.040  1.00  0.00    -0.279 N 
ATOM     10  H3  UNL     1       1.612  -1.419   1.568  1.00  0.00     0.189 HD
BRANCH   9  11
HETATM   11  N4  UNL     1       2.465   0.303   0.725  1.00  0.00    -0.292 N 
HETATM   12  C5  UNL     1       3.650  -0.139   0.510  1.00  0.00     0.157 C 
ATOM     13  H4  UNL     1       2.281   1.304   0.663  1.00  0.00     0.187 HD
BRANCH  12  14
HETATM   14  C6  UNL     1       3.943  -1.550   0.589  1.00  0.00     0.229 C 
HETATM   15  O4  UNL     1       5.110  -1.990   0.378  1.00  0.00    -0.643 OA
HETATM   16  O5  UNL     1       2.981  -2.504   0.898  1.00  0.00    -0.643 OA
ENDBRANCH  12  14
BRANCH  12  17
HETATM   17  C7  UNL     1       4.727   0.818   0.176  1.00  0.00     0.313 C 
BRANCH  17  18
HETATM   18  O6  UNL     1       5.722   0.705   1.154  1.00  0.00    -0.366 OA
ATOM     19  H6  UNL     1       6.414   1.320   0.939  1.00  0.00     0.213 HD
ENDBRANCH  17  18
BRANCH  17  20
HETATM   20  O7  UNL     1       4.225   2.101   0.217  1.00  0.00    -0.366 OA
ATOM     21  H7  UNL     1       4.917   2.716   0.002  1.00  0.00     0.213 HD
ENDBRANCH  17  20
ENDBRANCH  12  17
ENDBRANCH   9  11
ENDBRANCH   4   9
BRANCH   2  22
HETATM   22  S1  UNL     1      -4.082  -1.400   0.624  1.00  0.00     0.264 S 
HETATM   23  O2  UNL     1      -3.817  -2.463   1.725  1.00  0.00    -0.200 OA
HETATM   24  O3  UNL     1      -5.181  -0.521   1.082  1.00  0.00    -0.200 OA
BRANCH  22  25
HETATM   25  N2  UNL     1      -4.584  -2.308  -0.751  1.00  0.00    -0.324 N 
ATOM     26  H22 UNL     1      -4.064  -2.341  -1.628  1.00  0.00     0.169 HD
ATOM     27  H21 UNL     1      -5.459  -2.798  -0.565  1.00  0.00     0.169 HD
ENDBRANCH  22  25
ENDBRANCH   2  22
BRANCH   1  28
HETATM   28  C1  UNL     1      -3.569   1.220  -1.012  1.00  0.00     0.272 C 
HETATM   29  N1  UNL     1      -3.513   2.594  -1.466  1.00  0.00    -0.057 NA
HETATM   30  O1  UNL     1      -4.619   0.615  -1.217  1.00  0.00    -0.271 OA
ENDBRANCH   1  28
TORSDOF 9
