REMARK  11 active torsions:
REMARK  status: ('A' for Active; 'I' for Inactive)
REMARK    1  A    between atoms: N1_1  and  N2_4 
REMARK    2  A    between atoms: N2_4  and  C1_5 
REMARK    3  A    between atoms: C1_5  and  O1_6 
REMARK    4  A    between atoms: O1_6  and  C2_7 
REMARK    5  A    between atoms: C4_9  and  O2_10 
REMARK    6  A    between atoms: O2_10  and  C5_11 
REMARK    7  A    between atoms: C6_12  and  N3_13 
REMARK    8  A    between atoms: C8_19  and  C9_20 
REMARK    9  A    between atoms: C11_27  and  O5_28 
REMARK   10  A    between atoms: C12_30  and  N6_31 
REMARK   11  A    between atoms: C14_36  and  N7_37 
ROOT
HETATM    1  C2  UNL     1      -3.688   0.131  -0.250  1.00  0.00     0.163 C 
HETATM    2  C3  UNL     1      -2.403  -0.212  -0.901  1.00  0.00     0.068 C 
HETATM    3  C4  UNL     1      -1.317  -0.690   0.011  1.00  0.00     0.155 C 
HETATM    4  C12 UNL     1      -1.757  -1.381   1.239  1.00  0.00     0.214 C 
HETATM    5  C13 UNL     1      -3.085  -1.001   1.790  1.00  0.00     0.070 C 
HETATM    6  C14 UNL     1      -4.079  -1.043   0.648  1.00  0.00     0.215 C 
ENDROOT
BRANCH   3   7
HETATM    7  O2  UNL     1      -0.414   0.328   0.317  1.00  0.00    -0.373 OA
BRANCH   7   8
HETATM    8  C5  UNL     1       0.866   0.089  -0.219  1.00  0.00     0.190 C 
HETATM    9  C6  UNL     1       1.268   1.135  -1.202  1.00  0.00     0.238 C 
HETATM   10  C7  UNL     1       2.385   2.033  -0.759  1.00  0.00     0.204 C 
HETATM   11  O3  UNL     1       3.583   1.542  -1.283  1.00  0.00    -0.369 OA
HETATM   12  C8  UNL     1       3.947   0.339  -0.698  1.00  0.00     0.257 C 
HETATM   13  C10 UNL     1       3.228   0.223   0.587  1.00  0.00     0.193 C 
HETATM   14  O4  UNL     1       3.931   0.415   1.579  1.00  0.00    -0.292 OA
HETATM   15  C11 UNL     1       1.829  -0.078   0.925  1.00  0.00     0.221 C 
BRANCH   9  16
HETATM   16  N3  UNL     1       1.663   0.563  -2.499  1.00  0.00    -0.070 N 
ATOM     17  H33 UNL     1       2.397  -0.136  -2.385  1.00  0.00     0.274 HD
ATOM     18  H32 UNL     1       0.927  -0.034  -2.877  1.00  0.00     0.274 HD
ATOM     19  H31 UNL     1       1.938   1.279  -3.172  1.00  0.00     0.274 HD
ENDBRANCH   9  16
BRANCH  12  20
HETATM   20  C9  UNL     1       5.413   0.355  -0.470  1.00  0.00     0.123 C 
HETATM   21  N4  UNL     1       6.132   1.367  -0.797  1.00  0.00    -0.389 N 
ATOM     22  H42 UNL     1       5.669   2.170  -1.223  1.00  0.00     0.157 HD
ATOM     23  H41 UNL     1       7.140   1.378  -0.640  1.00  0.00     0.157 HD
HETATM   24  N5  UNL     1       6.059  -0.765   0.124  1.00  0.00    -0.085 NA
ENDBRANCH  12  20
BRANCH  15  25
HETATM   25  O5  UNL     1       1.793  -1.419   1.340  1.00  0.00    -0.385 OA
ATOM     26  H5  UNL     1       2.401  -1.524   2.062  1.00  0.00     0.210 HD
ENDBRANCH  15  25
ENDBRANCH   7   8
ENDBRANCH   3   7
BRANCH   4  27
HETATM   27  N6  UNL     1      -1.756  -2.839   1.049  1.00  0.00    -0.072 N 
ATOM     28  H63 UNL     1      -2.314  -3.114   0.241  1.00  0.00     0.274 HD
ATOM     29  H62 UNL     1      -0.848  -3.177   0.731  1.00  0.00     0.274 HD
ATOM     30  H61 UNL     1      -2.060  -3.316   1.898  1.00  0.00     0.274 HD
ENDBRANCH   4  27
BRANCH   1  31
HETATM   31  O1  UNL     1      -3.545   1.309   0.515  1.00  0.00    -0.326 OA
BRANCH  31  32
HETATM   32  C1  UNL     1      -3.164   2.478  -0.127  1.00  0.00     0.346 C 
BRANCH  32  33
HETATM   33  N2  UNL     1      -3.661   2.697  -1.276  1.00  0.00    -0.321 NA
BRANCH  33  34
HETATM   34  N1  UNL     1      -4.105   2.882  -2.409  1.00  0.00    -0.279 N 
ATOM     35  H12 UNL     1      -3.257   2.316  -2.372  1.00  0.00     0.191 HD
ATOM     36  H11 UNL     1      -4.504   3.058  -3.331  1.00  0.00     0.191 HD
ENDBRANCH  33  34
ENDBRANCH  32  33
ENDBRANCH  31  32
ENDBRANCH   1  31
BRANCH   6  37
HETATM   37  N7  UNL     1      -5.443  -0.953   1.085  1.00  0.00    -0.072 N 
ATOM     38  H73 UNL     1      -5.628  -0.060   1.542  1.00  0.00     0.274 HD
ATOM     39  H72 UNL     1      -6.080  -0.864   0.294  1.00  0.00     0.274 HD
ATOM     40  H71 UNL     1      -5.704  -1.736   1.684  1.00  0.00     0.274 HD
ENDBRANCH   6  37
TORSDOF 11
