REMARK  9 active torsions:
REMARK  status: ('A' for Active; 'I' for Inactive)
REMARK    1  A    between atoms: N2_3  and  C2_5 
REMARK    2  A    between atoms: C4_7  and  C5_8 
REMARK       I    between atoms: C5_8  and  N3_10 
REMARK    3  A    between atoms: N3_10  and  C6_12 
REMARK    4  A    between atoms: C6_12  and  C7_13 
REMARK    5  A    between atoms: C7_13  and  N4_14 
REMARK    6  A    between atoms: C8_16  and  C9_17 
REMARK    7  A    between atoms: N5_19  and  N6_20 
REMARK    8  A    between atoms: C13_31  and  N9_32 
REMARK    9  A    between atoms: N9_32  and  O4_34 
ROOT
HETATM    1  N1  UNL     1       4.974   2.519  -3.310  1.00  0.00    -0.172 NA
HETATM    2  C1  UNL     1       5.567   1.748  -2.675  1.00  0.00     0.183 C 
HETATM    3  N2  UNL     1       6.286   0.836  -1.899  1.00  0.00    -0.279 N 
ATOM      4  H2  UNL     1       7.291   0.748  -2.050  1.00  0.00     0.179 HD
ENDROOT
BRANCH   3   5
HETATM    5  C2  UNL     1       5.727   0.100  -0.998  1.00  0.00     0.132 A 
HETATM    6  C3  UNL     1       4.359   0.176  -0.745  1.00  0.00     0.085 A 
HETATM    7  C4  UNL     1       3.771  -0.610   0.216  1.00  0.00     0.120 A 
HETATM    8  N8  UNL     1       4.606  -1.447   0.885  1.00  0.00    -0.184 N 
HETATM    9  C13 UNL     1       5.925  -1.525   0.646  1.00  0.00     0.704 A 
ATOM     10  H8  UNL     1       4.210  -2.048   1.607  1.00  0.00     0.184 HD
HETATM   11  N10 UNL     1       6.480  -0.749  -0.296  1.00  0.00    -0.174 N 
ATOM     12  H10 UNL     1       7.482  -0.808  -0.477  1.00  0.00     0.186 HD
BRANCH   7  13
HETATM   13  C5  UNL     1       2.356  -0.569   0.516  1.00  0.00     0.268 C 
HETATM   14  O1  UNL     1       1.909  -1.329   1.416  1.00  0.00    -0.266 OA
HETATM   15  N3  UNL     1       1.442   0.280  -0.145  1.00  0.00    -0.354 N 
ATOM     16  H3  UNL     1       1.784   0.904  -0.876  1.00  0.00     0.162 HD
BRANCH  15  17
HETATM   17  C6  UNL     1       0.016   0.290   0.190  1.00  0.00     0.142 C 
BRANCH  17  18
HETATM   18  C7  UNL     1      -0.672   1.287  -0.681  1.00  0.00     0.138 C 
BRANCH  18  19
HETATM   19  N4  UNL     1      -2.075   1.397  -0.455  1.00  0.00    -0.396 N 
HETATM   20  C8  UNL     1      -2.904   0.437  -0.400  1.00  0.00     0.101 C 
ATOM     21  H4  UNL     1      -2.449   2.337  -0.325  1.00  0.00     0.158 HD
BRANCH  20  22
HETATM   22  C9  UNL     1      -4.329   0.607  -0.166  1.00  0.00     0.065 A 
HETATM   23  C10 UNL     1      -5.199  -0.461  -0.113  1.00  0.00     0.139 A 
HETATM   24  N5  UNL     1      -6.524  -0.284   0.107  1.00  0.00    -0.222 N 
HETATM   25  C11 UNL     1      -6.999   0.956   0.276  1.00  0.00     0.347 A 
HETATM   26  O2  UNL     1      -8.245   1.142   0.483  1.00  0.00    -0.245 OA
HETATM   27  N7  UNL     1      -6.175   2.022   0.230  1.00  0.00    -0.273 N 
HETATM   28  C12 UNL     1      -4.850   1.869   0.012  1.00  0.00     0.262 A 
ATOM     29  H7  UNL     1      -6.557   2.958   0.362  1.00  0.00     0.173 HD
HETATM   30  O3  UNL     1      -4.113   2.868  -0.025  1.00  0.00    -0.267 OA
BRANCH  24  31
HETATM   31  N6  UNL     1      -7.426  -1.347   0.165  1.00  0.00    -0.335 N 
ATOM     32  H62 UNL     1      -7.064  -2.292   0.036  1.00  0.00     0.177 HD
ATOM     33  H61 UNL     1      -8.424  -1.214   0.331  1.00  0.00     0.177 HD
ENDBRANCH  24  31
ENDBRANCH  20  22
ENDBRANCH  18  19
ENDBRANCH  17  18
ENDBRANCH  15  17
ENDBRANCH   7  13
BRANCH   9  34
HETATM   34  N9  UNL     1       6.694  -2.329   1.297  1.00  0.00    -0.098 N 
ATOM     35  H9  UNL     1       7.686  -2.332   1.060  1.00  0.00     0.213 HD
BRANCH  34  36
HETATM   36  O4  UNL     1       6.278  -3.170   2.274  1.00  0.00    -0.276 OA
ATOM     37  H4  UNL     1       6.845  -3.763   2.754  1.00  0.00     0.245 HD
ENDBRANCH  34  36
ENDBRANCH   9  34
ENDBRANCH   3   5
TORSDOF 9
