REMARK  7 active torsions:
REMARK  status: ('A' for Active; 'I' for Inactive)
REMARK       I    between atoms: C1_4  and  N3_6 
REMARK       I    between atoms: N3_6  and  C2_8 
REMARK    1  A    between atoms: C2_8  and  C3_10 
REMARK    2  A    between atoms: C3_10  and  O2_11 
REMARK    3  A    between atoms: O2_11  and  C4_12 
REMARK    4  A    between atoms: C4_12  and  C5_14 
REMARK    5  A    between atoms: C5_14  and  N4_15 
REMARK    6  A    between atoms: C5_14  and  C12_28 
REMARK    7  A    between atoms: N4_15  and  C6_17 
ROOT
HETATM    1  C5  UNL     1       0.105  -0.394  -0.654  1.00  0.00     0.282 C 
ENDROOT
BRANCH   1   2
HETATM    2  C4  UNL     1       1.096  -1.292   0.030  1.00  0.00     0.292 C 
HETATM    3  O3  UNL     1       0.840  -2.466   0.374  1.00  0.00    -0.262 OA
BRANCH   2   4
HETATM    4  O2  UNL     1       2.353  -0.801   0.293  1.00  0.00    -0.310 OA
BRANCH   4   5
HETATM    5  C3  UNL     1       3.363  -1.546   0.930  1.00  0.00     0.281 C 
BRANCH   5   6
HETATM    6  C2  UNL     1       4.638  -0.848   1.091  1.00  0.00     0.248 C 
HETATM    7  N3  UNL     1       4.911   0.447   0.626  1.00  0.00    -0.300 N 
HETATM    8  C1  UNL     1       6.154   1.106   0.791  1.00  0.00     0.188 C 
ATOM      9  H3  UNL     1       4.167   0.946   0.138  1.00  0.00     0.171 HD
HETATM   10  N1  UNL     1       6.346   2.294   0.342  1.00  0.00    -0.373 N 
HETATM   11  N2  UNL     1       7.227   0.435   1.477  1.00  0.00    -0.064 NA
ATOM     12  H12 UNL     1       7.241   2.769   0.461  1.00  0.00     0.158 HD
ATOM     13  H11 UNL     1       5.586   2.769  -0.144  1.00  0.00     0.158 HD
HETATM   14  O1  UNL     1       5.596  -1.438   1.697  1.00  0.00    -0.271 OA
ENDBRANCH   5   6
ENDBRANCH   4   5
ENDBRANCH   2   4
ENDBRANCH   1   2
BRANCH   1  15
HETATM   15  N4  UNL     1      -1.069  -1.144  -0.840  1.00  0.00    -0.350 N 
ATOM     16  H4  UNL     1      -1.010  -2.161  -0.889  1.00  0.00     0.158 HD
BRANCH  15  17
HETATM   17  C6  UNL     1      -2.314  -0.524  -0.959  1.00  0.00     0.520 C 
HETATM   18  N5  UNL     1      -2.480   0.433  -2.034  1.00  0.00    -0.024 N 
HETATM   19  C7  UNL     1      -3.396   1.470  -1.526  1.00  0.00     0.275 C 
ATOM     20  H52 UNL     1      -1.598   0.807  -2.383  1.00  0.00     0.281 HD
ATOM     21  H51 UNL     1      -2.792   0.010  -2.908  1.00  0.00     0.281 HD
HETATM   22  C8  UNL     1      -4.049   0.721  -0.414  1.00  0.00     0.277 C 
HETATM   23  C9  UNL     1      -4.733   1.534   0.614  1.00  0.00     0.205 C 
HETATM   24  N6  UNL     1      -2.861   0.108   0.217  1.00  0.00     0.148 N 
HETATM   25  O4  UNL     1      -5.288   0.657   1.554  1.00  0.00    -0.387 OA
HETATM   26  C10 UNL     1      -4.875  -0.648   1.375  1.00  0.00     0.198 C 
HETATM   27  C11 UNL     1      -3.397  -0.822   1.185  1.00  0.00     0.304 C 
ENDBRANCH  15  17
ENDBRANCH   1  15
BRANCH   1  28
HETATM   28  C12 UNL     1       0.779   0.100  -1.857  1.00  0.00     0.206 C 
HETATM   29  O5  UNL     1       0.312  -0.141  -2.983  1.00  0.00    -0.646 OA
HETATM   30  O6  UNL     1       1.936   0.835  -1.750  1.00  0.00    -0.646 OA
ENDBRANCH   1  28
TORSDOF 7
