REMARK  11 active torsions:
REMARK  status: ('A' for Active; 'I' for Inactive)
REMARK    1  A    between atoms: N1_2  and  C3_4 
REMARK    2  A    between atoms: C3_4  and  C4_5 
REMARK    3  A    between atoms: C4_5  and  O1_6 
REMARK    4  A    between atoms: C4_5  and  O2_8 
REMARK    5  A    between atoms: C4_5  and  C5_10 
REMARK    6  A    between atoms: C6_11  and  O3_12 
REMARK    7  A    between atoms: C7_14  and  N2_15 
REMARK    8  A    between atoms: C8_19  and  O4_20 
REMARK    9  A    between atoms: O4_20  and  C9_21 
REMARK   10  A    between atoms: C14_27  and  O6_28 
REMARK   11  A    between atoms: C15_30  and  O7_31 
ROOT
HETATM    1  C5  UNL     1      -1.439   0.445   0.096  1.00  0.00     0.112 C 
HETATM    2  C6  UNL     1      -0.569  -0.390  -0.775  1.00  0.00     0.163 C 
HETATM    3  C7  UNL     1       0.592   0.551  -1.180  1.00  0.00     0.244 C 
HETATM    4  C8  UNL     1       1.479   0.607   0.016  1.00  0.00     0.186 C 
HETATM    5  C14 UNL     1       0.776   0.927   1.283  1.00  0.00     0.178 C 
HETATM    6  C15 UNL     1      -0.680   0.841   1.332  1.00  0.00     0.161 C 
ENDROOT
BRANCH   1   7
HETATM    7  C4  UNL     1      -2.729  -0.198   0.559  1.00  0.00     0.194 C 
BRANCH   7   8
HETATM    8  C3  UNL     1      -3.638  -0.608  -0.554  1.00  0.00     0.339 C 
BRANCH   8   9
HETATM    9  N1  UNL     1      -4.970  -1.026  -0.071  1.00  0.00     0.085 N 
HETATM   10  C1  UNL     1      -5.723  -1.549  -1.242  1.00  0.00     0.309 C 
HETATM   11  C2  UNL     1      -5.753   0.132   0.377  1.00  0.00     0.309 C 
ENDBRANCH   8   9
ENDBRANCH   7   8
BRANCH   7  12
HETATM   12  O1  UNL     1      -2.514  -1.249   1.413  1.00  0.00    -0.364 OA
ATOM     13  H1  UNL     1      -1.936  -0.988   2.121  1.00  0.00     0.213 HD
ENDBRANCH   7  12
BRANCH   7  14
HETATM   14  O2  UNL     1      -3.429   0.776   1.334  1.00  0.00    -0.364 OA
ATOM     15  H2  UNL     1      -2.851   1.037   2.042  1.00  0.00     0.213 HD
ENDBRANCH   7  14
ENDBRANCH   1   7
BRANCH   2  16
HETATM   16  O3  UNL     1      -1.177  -0.861  -1.939  1.00  0.00    -0.393 OA
ATOM     17  H3  UNL     1      -0.621  -1.394  -2.495  1.00  0.00     0.210 HD
ENDBRANCH   2  16
BRANCH   6  18
HETATM   18  O7  UNL     1      -1.192   2.089   1.787  1.00  0.00    -0.392 OA
ATOM     19  H7  UNL     1      -0.712   2.339   2.568  1.00  0.00     0.210 HD
ENDBRANCH   6  18
BRANCH   3  20
HETATM   20  N2  UNL     1       0.037   1.836  -1.530  1.00  0.00    -0.070 N 
ATOM     21  H23 UNL     1      -0.683   1.769  -2.250  1.00  0.00     0.274 HD
ATOM     22  H22 UNL     1      -0.544   2.227  -0.788  1.00  0.00     0.274 HD
ATOM     23  H21 UNL     1       0.802   2.456  -1.797  1.00  0.00     0.274 HD
ENDBRANCH   3  20
BRANCH   5  24
HETATM   24  O6  UNL     1       1.201   2.190   1.781  1.00  0.00    -0.390 OA
ATOM     25  H6  UNL     1       0.751   2.395   2.592  1.00  0.00     0.210 HD
ENDBRANCH   5  24
BRANCH   4  26
HETATM   26  O4  UNL     1       2.177  -0.588   0.103  1.00  0.00    -0.374 OA
BRANCH  26  27
HETATM   27  C9  UNL     1       3.541  -0.428  -0.071  1.00  0.00     0.146 C 
HETATM   28  C10 UNL     1       4.334  -0.827   1.150  1.00  0.00     0.036 C 
HETATM   29  C11 UNL     1       5.724  -0.250   0.980  1.00  0.00     0.029 C 
HETATM   30  C12 UNL     1       5.992  -0.100  -0.515  1.00  0.00     0.167 C 
HETATM   31  O5  UNL     1       5.482  -1.189  -1.169  1.00  0.00    -0.389 OA
HETATM   32  C13 UNL     1       4.093  -1.177  -1.252  1.00  0.00     0.199 C 
ENDBRANCH  26  27
ENDBRANCH   4  26
TORSDOF 11
