REMARK  10 active torsions:
REMARK  status: ('A' for Active; 'I' for Inactive)
REMARK    1  A    between atoms: O1_1  and  C1_3 
REMARK    2  A    between atoms: C3_6  and  O3_7 
REMARK    3  A    between atoms: O3_7  and  C4_8 
REMARK    4  A    between atoms: C6_11  and  O5_12 
REMARK    5  A    between atoms: O5_12  and  C7_13 
REMARK    6  A    between atoms: C7_13  and  C8_14 
REMARK    7  A    between atoms: C10_17  and  O7_18 
REMARK    8  A    between atoms: C11_20  and  O8_21 
REMARK    9  A    between atoms: C12_23  and  O9_24 
REMARK   10  A    between atoms: C14_27  and  O10_28 
ROOT
HETATM    1  C4  UNL     1       2.466   0.660   0.675  1.00  0.00     0.153 C 
HETATM    2  C5  UNL     1       1.982   0.739   2.103  1.00  0.00     0.203 C 
HETATM    3  O4  UNL     1       0.744   0.103   2.072  1.00  0.00    -0.359 OA
HETATM    4  C6  UNL     1       0.120   0.646   0.926  1.00  0.00     0.262 C 
HETATM    5  C13 UNL     1       1.194   0.694  -0.132  1.00  0.00     0.095 C 
ENDROOT
BRANCH   4   6
HETATM    6  O5  UNL     1      -0.943  -0.186   0.534  1.00  0.00    -0.359 OA
BRANCH   6   7
HETATM    7  C7  UNL     1      -2.101   0.553   0.653  1.00  0.00     0.205 C 
BRANCH   7   8
HETATM    8  C8  UNL     1      -3.342  -0.184   0.272  1.00  0.00     0.176 C 
HETATM    9  O6  UNL     1      -3.290  -0.602  -1.038  1.00  0.00    -0.378 OA
HETATM   10  C9  UNL     1      -4.505  -0.942  -1.579  1.00  0.00     0.202 C 
HETATM   11  C10 UNL     1      -5.598  -1.143  -0.572  1.00  0.00     0.173 C 
HETATM   12  C11 UNL     1      -5.823   0.128   0.178  1.00  0.00     0.180 C 
HETATM   13  C12 UNL     1      -4.502   0.807   0.415  1.00  0.00     0.180 C 
BRANCH  11  14
HETATM   14  O7  UNL     1      -6.772  -1.429  -1.289  1.00  0.00    -0.391 OA
ATOM     15  H7  UNL     1      -7.464  -1.556  -0.651  1.00  0.00     0.210 HD
ENDBRANCH  11  14
BRANCH  12  16
HETATM   16  O8  UNL     1      -6.723   0.976  -0.465  1.00  0.00    -0.390 OA
ATOM     17  H8  UNL     1      -6.866   1.785   0.012  1.00  0.00     0.210 HD
ENDBRANCH  12  16
BRANCH  13  18
HETATM   18  O9  UNL     1      -4.259   1.829  -0.500  1.00  0.00    -0.390 OA
ATOM     19  H9  UNL     1      -4.978   2.443  -0.411  1.00  0.00     0.210 HD
ENDBRANCH  13  18
ENDBRANCH   7   8
ENDBRANCH   6   7
ENDBRANCH   4   6
BRANCH   1  20
HETATM   20  O3  UNL     1       3.176  -0.513   0.517  1.00  0.00    -0.351 OA
BRANCH  20  21
HETATM   21  C3  UNL     1       4.472  -0.205   0.176  1.00  0.00     0.291 C 
HETATM   22  O2  UNL     1       5.416  -0.701   1.049  1.00  0.00    -0.356 OA
HETATM   23  C2  UNL     1       6.610  -0.476   0.364  1.00  0.00     0.205 C 
HETATM   24  C1  UNL     1       6.342  -0.968  -1.032  1.00  0.00     0.175 C 
HETATM   25  C14 UNL     1       4.835  -0.881  -1.129  1.00  0.00     0.204 C 
BRANCH  24  26
HETATM   26  O1  UNL     1       6.866  -0.127  -2.005  1.00  0.00    -0.391 OA
ATOM     27  H1  UNL     1       6.697  -0.438  -2.887  1.00  0.00     0.210 HD
ENDBRANCH  24  26
BRANCH  25  28
HETATM   28  O10 UNL     1       4.271  -2.157  -1.106  1.00  0.00    -0.388 OA
ATOM     29  H10 UNL     1       3.325  -2.102  -1.167  1.00  0.00     0.210 HD
ENDBRANCH  25  28
ENDBRANCH  20  21
ENDBRANCH   1  20
TORSDOF 10
