REMARK  10 active torsions:
REMARK  status: ('A' for Active; 'I' for Inactive)
REMARK    1  A    between atoms: O1_1  and  C1_3 
REMARK    2  A    between atoms: C2_4  and  O2_5 
REMARK    3  A    between atoms: C3_7  and  O3_8 
REMARK    4  A    between atoms: C4_10  and  O4_11 
REMARK    5  A    between atoms: O4_11  and  C5_12 
REMARK    6  A    between atoms: C8_16  and  S1_17 
REMARK    7  A    between atoms: S1_17  and  C9_18 
REMARK    8  A    between atoms: C9_18  and  C10_19 
REMARK    9  A    between atoms: C13_26  and  O7_27 
REMARK   10  A    between atoms: C14_29  and  O8_30 
ROOT
HETATM    1  C1  UNL     1      -4.529   0.151  -0.177  1.00  0.00     0.180 C 
HETATM    2  C2  UNL     1      -3.670   1.239  -0.789  1.00  0.00     0.180 C 
HETATM    3  C3  UNL     1      -2.316   0.683  -1.142  1.00  0.00     0.181 C 
HETATM    4  C4  UNL     1      -1.734  -0.196  -0.054  1.00  0.00     0.184 C 
HETATM    5  C13 UNL     1      -2.494   0.115   1.209  1.00  0.00     0.181 C 
HETATM    6  C14 UNL     1      -3.898  -0.480   1.018  1.00  0.00     0.180 C 
ENDROOT
BRANCH   4   7
HETATM    7  O4  UNL     1      -0.360  -0.047   0.053  1.00  0.00    -0.372 OA
BRANCH   7   8
HETATM    8  C5  UNL     1       0.246  -1.248  -0.213  1.00  0.00     0.161 C 
HETATM    9  C6  UNL     1       1.208  -1.190  -1.371  1.00  0.00     0.200 C 
HETATM   10  O5  UNL     1       2.124  -2.187  -1.201  1.00  0.00    -0.387 OA
HETATM   11  C7  UNL     1       2.191  -2.514   0.139  1.00  0.00     0.185 C 
HETATM   12  C8  UNL     1       1.188  -1.714   0.909  1.00  0.00     0.102 C 
BRANCH  12  13
HETATM   13  S1  UNL     1       1.727  -0.471   1.997  1.00  0.00    -0.157 SA
BRANCH  13  14
HETATM   14  C9  UNL     1       2.737   0.867   1.581  1.00  0.00     0.109 C 
BRANCH  14  15
HETATM   15  C10 UNL     1       4.201   0.656   1.296  1.00  0.00     0.221 C 
HETATM   16  C11 UNL     1       4.848   2.044   1.005  1.00  0.00     0.203 C 
HETATM   17  O6  UNL     1       4.313   2.291  -0.268  1.00  0.00    -0.362 OA
HETATM   18  C12 UNL     1       4.562   1.100  -0.953  1.00  0.00     0.399 C 
HETATM   19  N1  UNL     1       4.454   0.045   0.016  1.00  0.00    -0.047 N 
ATOM     20  H12 UNL     1       5.266  -0.572   0.024  1.00  0.00     0.280 HD
ATOM     21  H11 UNL     1       3.756  -0.655  -0.235  1.00  0.00     0.280 HD
ENDBRANCH  14  15
ENDBRANCH  13  14
ENDBRANCH  12  13
ENDBRANCH   7   8
ENDBRANCH   4   7
BRANCH   3  22
HETATM   22  O3  UNL     1      -2.450  -0.060  -2.311  1.00  0.00    -0.390 OA
ATOM     23  H3  UNL     1      -1.596  -0.411  -2.534  1.00  0.00     0.210 HD
ENDBRANCH   3  22
BRANCH   5  24
HETATM   24  O7  UNL     1      -1.927  -0.399   2.357  1.00  0.00    -0.390 OA
ATOM     25  H7  UNL     1      -2.406  -0.203   3.153  1.00  0.00     0.210 HD
ENDBRANCH   5  24
BRANCH   2  26
HETATM   26  O2  UNL     1      -4.307   1.612  -1.991  1.00  0.00    -0.390 OA
ATOM     27  H2  UNL     1      -3.768   2.294  -2.375  1.00  0.00     0.210 HD
ENDBRANCH   2  26
BRANCH   6  28
HETATM   28  O8  UNL     1      -3.739  -1.853   0.770  1.00  0.00    -0.390 OA
ATOM     29  H8  UNL     1      -3.337  -2.255   1.531  1.00  0.00     0.210 HD
ENDBRANCH   6  28
BRANCH   1  30
HETATM   30  O1  UNL     1      -5.762   0.670   0.190  1.00  0.00    -0.390 OA
ATOM     31  H1  UNL     1      -6.301  -0.012   0.574  1.00  0.00     0.210 HD
ENDBRANCH   1  30
TORSDOF 10
