REMARK  8 active torsions:
REMARK  status: ('A' for Active; 'I' for Inactive)
REMARK    1  A    between atoms: O1_2  and  C2_3 
REMARK    2  A    between atoms: C2_3  and  C3_5 
REMARK    3  A    between atoms: C3_5  and  S1_6 
REMARK    4  A    between atoms: N2_12  and  C7_14 
REMARK    5  A    between atoms: C7_14  and  C8_18 
REMARK    6  A    between atoms: C8_18  and  N4_19 
REMARK    7  A    between atoms: C9_23  and  C10_24 
REMARK       I    between atoms: C10_24  and  N5_26 
REMARK    8  A    between atoms: N5_26  and  N6_28 
ROOT
HETATM    1  C3  UNL     1       1.708  -0.235  -0.317  1.00  0.00     0.197 C 
HETATM    2  C5  UNL     1       1.095  -0.936  -1.486  1.00  0.00     0.171 C 
HETATM    3  N1  UNL     1      -0.377  -0.842  -1.409  1.00  0.00    -0.374 N 
ATOM      4  H1  UNL     1      -0.846  -1.690  -1.727  1.00  0.00     0.160 HD
HETATM    5  C6  UNL     1      -1.290   0.172  -0.988  1.00  0.00     0.109 C 
HETATM    6  N2  UNL     1      -2.454  -0.130  -0.636  1.00  0.00    -0.333 N 
ATOM      7  H2  UNL     1      -3.003   0.687  -0.368  1.00  0.00     0.168 HD
HETATM    8  C9  UNL     1      -0.942   1.577  -0.751  1.00  0.00     0.255 C 
HETATM    9  N7  UNL     1       0.069   1.313   0.386  1.00  0.00    -0.124 NA
HETATM   10  N8  UNL     1       1.209   1.156  -0.303  1.00  0.00    -0.113 NA
ENDROOT
BRANCH   6  11
HETATM   11  C7  UNL     1      -3.168  -1.298  -0.525  1.00  0.00     0.102 C 
HETATM   12  N3  UNL     1      -3.984  -1.741  -1.384  1.00  0.00    -0.387 N 
ATOM     13  H32 UNL     1      -4.124  -1.179  -2.224  1.00  0.00     0.157 HD
ATOM     14  H31 UNL     1      -4.514  -2.608  -1.302  1.00  0.00     0.157 HD
BRANCH  11  15
HETATM   15  C8  UNL     1      -2.957  -2.144   0.740  1.00  0.00     0.305 C 
BRANCH  15  16
HETATM   16  N4  UNL     1      -4.162  -2.218   1.517  1.00  0.00    -0.073 N 
ATOM     17  H43 UNL     1      -4.523  -1.291   1.741  1.00  0.00     0.274 HD
ATOM     18  H42 UNL     1      -4.947  -2.560   0.962  1.00  0.00     0.274 HD
ATOM     19  H41 UNL     1      -4.022  -2.780   2.357  1.00  0.00     0.274 HD
ENDBRANCH  15  16
ENDBRANCH  11  15
ENDBRANCH   6  11
BRANCH   8  20
HETATM   20  C10 UNL     1      -1.904   2.483  -0.196  1.00  0.00     0.269 C 
HETATM   21  O3  UNL     1      -2.996   2.187   0.225  1.00  0.00    -0.269 OA
HETATM   22  N5  UNL     1      -1.455   3.857  -0.140  1.00  0.00    -0.208 N 
ATOM     23  H5  UNL     1      -0.535   4.103  -0.506  1.00  0.00     0.196 HD
BRANCH  22  24
HETATM   24  N6  UNL     1      -2.261   4.842   0.406  1.00  0.00    -0.036 N 
HETATM   25  O4  UNL     1      -3.478   4.620   0.529  1.00  0.00    -0.516 OA
HETATM   26  O5  UNL     1      -1.702   6.033   0.827  1.00  0.00    -0.516 OA
ENDBRANCH  22  24
ENDBRANCH   8  20
BRANCH   1  27
HETATM   27  C2  UNL     1       3.161   0.060  -0.436  1.00  0.00     0.296 C 
HETATM   28  O2  UNL     1       3.606   0.769  -1.401  1.00  0.00    -0.262 OA
BRANCH  27  29
HETATM   29  O1  UNL     1       4.019  -0.408   0.537  1.00  0.00    -0.324 OA
HETATM   30  C1  UNL     1       5.397  -0.082   0.552  1.00  0.00     0.213 C 
ENDBRANCH  27  29
ENDBRANCH   1  27
BRANCH   1  31
HETATM   31  S1  UNL     1       1.392  -1.162   1.151  1.00  0.00    -0.133 SA
HETATM   32  C4  UNL     1       2.170  -2.809   0.953  1.00  0.00     0.092 C 
ENDBRANCH   1  31
TORSDOF 8
