REMARK  8 active torsions:
REMARK  status: ('A' for Active; 'I' for Inactive)
REMARK    1  A    between atoms: C2_2  and  C3_3 
REMARK    2  A    between atoms: C3_3  and  C4_4 
REMARK    3  A    between atoms: C4_4  and  C5_5 
REMARK    4  A    between atoms: C5_5  and  C6_6 
REMARK    5  A    between atoms: C6_6  and  C7_7 
REMARK    6  A    between atoms: C7_7  and  C8_9 
REMARK    7  A    between atoms: C10_11  and  C11_12 
REMARK    8  A    between atoms: C13_14  and  O2_15 
ROOT
HETATM    1  C8  UNL     1      -0.993  -0.370  -1.232  1.00  0.00     0.016 A 
HETATM    2  C9  UNL     1      -1.403   0.077   0.039  1.00  0.00     0.025 A 
HETATM    3  C10 UNL     1      -2.703  -0.015   0.488  1.00  0.00    -0.024 A 
HETATM    4  C13 UNL     1      -3.623  -0.575  -0.370  1.00  0.00     0.072 A 
HETATM    5  C14 UNL     1      -3.276  -1.028  -1.621  1.00  0.00     0.044 A 
HETATM    6  C15 UNL     1      -1.935  -0.921  -2.054  1.00  0.00    -0.045 A 
HETATM    7  C16 UNL     1      -1.631  -1.417  -3.397  1.00  0.00     0.049 C 
ENDROOT
BRANCH   1   8
HETATM    8  C7  UNL     1       0.380  -0.255  -1.636  1.00  0.00     0.160 C 
HETATM    9  O1  UNL     1       0.753  -0.753  -2.733  1.00  0.00    -0.292 OA
BRANCH   8  10
HETATM   10  C6  UNL     1       1.472   0.417  -0.879  1.00  0.00     0.084 C 
BRANCH  10  11
HETATM   11  C5  UNL     1       2.522  -0.583  -0.460  1.00  0.00     0.008 C 
BRANCH  11  12
HETATM   12  C4  UNL     1       3.647   0.056   0.314  1.00  0.00     0.004 C 
BRANCH  12  13
HETATM   13  C3  UNL     1       3.206   0.724   1.566  1.00  0.00     0.026 C 
BRANCH  13  14
HETATM   14  C2  UNL     1       4.409   1.309   2.235  1.00  0.00    -0.037 C 
HETATM   15  C1  UNL     1       5.638   1.209   1.755  1.00  0.00     0.007 C 
ENDBRANCH  13  14
ENDBRANCH  12  13
ENDBRANCH  11  12
ENDBRANCH  10  11
ENDBRANCH   8  10
ENDBRANCH   1   8
BRANCH   3  16
HETATM   16  C11 UNL     1      -3.087   0.473   1.839  1.00  0.00     0.037 C 
HETATM   17  C12 UNL     1      -3.814   1.796   1.780  1.00  0.00     0.010 C 
ENDBRANCH   3  16
BRANCH   4  18
HETATM   18  O2  UNL     1      -4.931  -0.661   0.096  1.00  0.00    -0.360 OA
ATOM     19  H2  UNL     1      -5.566  -1.047  -0.496  1.00  0.00     0.217 HD
ENDBRANCH   4  18
TORSDOF 8
