REMARK  8 active torsions:
REMARK  status: ('A' for Active; 'I' for Inactive)
REMARK    1  A    between atoms: N1_1  and  C1_4 
REMARK    2  A    between atoms: C2_10  and  C3_11 
REMARK       I    between atoms: C3_11  and  N5_13 
REMARK    3  A    between atoms: N5_13  and  N6_15 
REMARK    4  A    between atoms: N8_22  and  C6_23 
REMARK    5  A    between atoms: C6_23  and  C7_24 
REMARK       I    between atoms: C7_24  and  N9_26 
REMARK    6  A    between atoms: N9_26  and  C8_28 
REMARK    7  A    between atoms: C8_28  and  C9_29 
REMARK    8  A    between atoms: C9_29  and  O3_30 
ROOT
HETATM    1  C1  UNL     1      -2.354   3.154   0.582  1.00  0.00     0.164 A 
HETATM    2  N2  UNL     1      -3.476   2.867  -0.099  1.00  0.00    -0.259 N 
ATOM      3  H2  UNL     1      -4.341   3.358  -0.324  1.00  0.00     0.191 HD
HETATM    4  N3  UNL     1      -2.971   1.672  -0.351  1.00  0.00    -0.173 N 
HETATM    5  N4  UNL     1      -3.200   0.497  -0.961  1.00  0.00    -0.270 N 
ATOM      6  H4  UNL     1      -3.788   0.541  -1.793  1.00  0.00     0.189 HD
HETATM    7  C2  UNL     1      -2.761  -0.729  -0.626  1.00  0.00     0.150 C 
HETATM    8  C4  UNL     1      -1.530  -1.039  -0.098  1.00  0.00     0.112 A 
HETATM    9  N7  UNL     1      -1.008  -2.294  -0.020  1.00  0.00    -0.347 N 
ATOM     10  H7  UNL     1      -1.460  -3.151  -0.340  1.00  0.00     0.167 HD
HETATM   11  C5  UNL     1       0.203  -2.208   0.550  1.00  0.00     0.185 A 
HETATM   12  N8  UNL     1       0.467  -0.923   0.837  1.00  0.00    -0.319 N 
HETATM   13  C10 UNL     1      -0.591  -0.189   0.444  1.00  0.00     0.140 A 
HETATM   14  N10 UNL     1      -0.683   1.165   0.576  1.00  0.00    -0.321 N 
ATOM     15  H10 UNL     1       0.166   1.648   0.870  1.00  0.00     0.169 HD
HETATM   16  C11 UNL     1      -1.772   1.943   0.362  1.00  0.00     0.192 A 
ENDROOT
BRANCH  12  17
HETATM   17  C6  UNL     1       1.636  -0.336   1.452  1.00  0.00     0.234 C 
BRANCH  17  18
HETATM   18  C7  UNL     1       2.661   0.055   0.485  1.00  0.00     0.235 C 
HETATM   19  O2  UNL     1       2.499  -0.121  -0.745  1.00  0.00    -0.272 OA
HETATM   20  N9  UNL     1       3.861   0.643   0.939  1.00  0.00    -0.358 N 
ATOM     21  H9  UNL     1       3.972   0.780   1.944  1.00  0.00     0.162 HD
BRANCH  20  22
HETATM   22  C8  UNL     1       4.939   1.063   0.083  1.00  0.00     0.148 C 
BRANCH  22  23
HETATM   23  C9  UNL     1       5.516  -0.080  -0.696  1.00  0.00     0.183 C 
BRANCH  23  24
HETATM   24  O3  UNL     1       5.998  -1.024   0.210  1.00  0.00    -0.399 OA
ATOM     25  H3  UNL     1       6.364  -1.749  -0.284  1.00  0.00     0.209 HD
ENDBRANCH  23  24
ENDBRANCH  22  23
ENDBRANCH  20  22
ENDBRANCH  17  18
ENDBRANCH  12  17
BRANCH   7  26
HETATM   26  C3  UNL     1      -3.647  -1.862  -0.828  1.00  0.00     0.290 C 
HETATM   27  O1  UNL     1      -3.233  -3.005  -0.513  1.00  0.00    -0.264 OA
HETATM   28  N5  UNL     1      -4.964  -1.692  -1.372  1.00  0.00    -0.271 N 
ATOM     29  H5  UNL     1      -5.301  -0.764  -1.627  1.00  0.00     0.189 HD
BRANCH  28  30
HETATM   30  N6  UNL     1      -5.775  -2.805  -1.547  1.00  0.00    -0.342 N 
ATOM     31  H62 UNL     1      -5.424  -3.726  -1.287  1.00  0.00     0.176 HD
ATOM     32  H61 UNL     1      -6.711  -2.684  -1.934  1.00  0.00     0.176 HD
ENDBRANCH  28  30
ENDBRANCH   7  26
BRANCH   1  33
HETATM   33  N1  UNL     1      -1.961   4.206   1.222  1.00  0.00    -0.381 N 
ATOM     34  H12 UNL     1      -2.397   5.113   1.387  1.00  0.00     0.157 HD
ATOM     35  H11 UNL     1      -1.109   4.424   1.739  1.00  0.00     0.157 HD
ENDBRANCH   1  33
TORSDOF 8
