REMARK  6 active torsions:
REMARK  status: ('A' for Active; 'I' for Inactive)
REMARK    1  A    between atoms: N1_1  and  N2_4 
REMARK       I    between atoms: N6_10  and  C2_12 
REMARK    2  A    between atoms: C2_12  and  C3_14 
REMARK    3  A    between atoms: C5_16  and  C6_17 
REMARK    4  A    between atoms: C6_17  and  O2_18 
REMARK    5  A    between atoms: C6_17  and  O3_20 
REMARK    6  A    between atoms: C7_22  and  N7_23 
ROOT
HETATM    1  C3  UNL     1       1.180  -1.450  -0.058  1.00  0.00     0.117 A 
HETATM    2  C4  UNL     1       0.045  -1.588  -0.819  1.00  0.00     0.052 A 
HETATM    3  C5  UNL     1      -1.146  -0.912  -0.543  1.00  0.00     0.043 A 
HETATM    4  C7  UNL     1      -1.157  -0.083   0.538  1.00  0.00     0.129 A 
HETATM    5  N8  UNL     1       0.001   0.027   1.273  1.00  0.00    -0.284 N 
ATOM      6  H8  UNL     1      -0.000   0.647   2.083  1.00  0.00     0.188 HD
HETATM    7  N9  UNL     1       1.104  -0.619   0.991  1.00  0.00    -0.294 N 
ATOM      8  H9  UNL     1       1.924  -0.487   1.583  1.00  0.00     0.187 HD
ENDROOT
BRANCH   1   9
HETATM    9  C2  UNL     1       2.402  -2.180  -0.390  1.00  0.00     0.287 C 
HETATM   10  N6  UNL     1       3.534  -2.016   0.405  1.00  0.00    -0.150 N 
HETATM   11  C1  UNL     1       4.341  -1.024   0.409  1.00  0.00     0.732 C 
ATOM     12  H6  UNL     1       3.743  -2.772   1.057  1.00  0.00     0.188 HD
HETATM   13  N2  UNL     1       4.352   0.175  -0.354  1.00  0.00    -0.012 N 
HETATM   14  N5  UNL     1       5.499  -0.902   1.253  1.00  0.00    -0.115 N 
HETATM   15  N3  UNL     1       5.242   1.073   0.267  1.00  0.00     0.030 NA
HETATM   16  N4  UNL     1       6.205   0.240   0.850  1.00  0.00     0.008 NA
ATOM     17  H5  UNL     1       5.760  -1.534   2.010  1.00  0.00     0.203 HD
HETATM   18  O1  UNL     1       2.425  -2.959  -1.398  1.00  0.00    -0.265 OA
BRANCH  13  19
HETATM   19  N1  UNL     1       3.641   0.452  -1.496  1.00  0.00    -0.311 N 
ATOM     20  H12 UNL     1       3.649   1.313  -2.044  1.00  0.00     0.179 HD
ATOM     21  H11 UNL     1       2.997  -0.198  -1.946  1.00  0.00     0.179 HD
ENDBRANCH  13  19
ENDBRANCH   1   9
BRANCH   3  22
HETATM   22  C6  UNL     1      -2.324  -1.101  -1.413  1.00  0.00     0.292 C 
BRANCH  22  23
HETATM   23  O2  UNL     1      -2.991   0.049  -1.749  1.00  0.00    -0.367 OA
ATOM     24  H2  UNL     1      -3.749  -0.073  -2.309  1.00  0.00     0.213 HD
ENDBRANCH  22  23
BRANCH  22  25
HETATM   25  O3  UNL     1      -3.130  -2.163  -1.017  1.00  0.00    -0.367 OA
ATOM     26  H3  UNL     1      -3.888  -2.285  -1.577  1.00  0.00     0.213 HD
ENDBRANCH  22  25
ENDBRANCH   3  22
BRANCH   4  27
HETATM   27  N7  UNL     1      -2.298   0.665   0.957  1.00  0.00    -0.366 N 
HETATM   28  C8  UNL     1      -3.532   0.275   1.563  1.00  0.00     0.124 C 
HETATM   29  C9  UNL     1      -4.524   1.362   1.228  1.00  0.00     0.021 C 
HETATM   30  C10 UNL     1      -3.661   2.597   1.221  1.00  0.00     0.021 C 
HETATM   31  C11 UNL     1      -2.312   2.105   0.796  1.00  0.00     0.124 C 
ENDBRANCH   4  27
TORSDOF 6
