REMARK  5 active torsions:
REMARK  status: ('A' for Active; 'I' for Inactive)
REMARK    1  A    between atoms: C3_7  and  N4_8 
REMARK    2  A    between atoms: N4_8  and  C4_10 
REMARK    3  A    between atoms: C7_18  and  O1_19 
REMARK    4  A    between atoms: O1_19  and  C8_20 
REMARK    5  A    between atoms: C8_20  and  C9_21 
ROOT
HETATM    1  C4  UNL     1      -0.600  -1.368   1.184  1.00  0.00     0.216 C 
HETATM    2  N5  UNL     1      -0.219  -2.722   0.850  1.00  0.00    -0.341 N 
ATOM      3  H5  UNL     1       0.702  -3.073   1.113  1.00  0.00     0.164 HD
HETATM    4  C5  UNL     1      -1.139  -3.574   0.147  1.00  0.00     0.185 C 
HETATM    5  N6  UNL     1      -0.656  -4.771  -0.440  1.00  0.00    -0.064 NA
HETATM    6  N7  UNL     1      -2.391  -3.290   0.029  1.00  0.00    -0.362 N 
ATOM      7  H7  UNL     1      -3.029  -3.907  -0.474  1.00  0.00     0.162 HD
HETATM    8  C6  UNL     1      -2.856  -2.062   0.638  1.00  0.00     0.158 C 
HETATM    9  C7  UNL     1      -1.810  -0.973   0.367  1.00  0.00     0.182 C 
ENDROOT
BRANCH   1  10
HETATM   10  N4  UNL     1       0.447  -0.425   1.220  1.00  0.00    -0.351 N 
ATOM     11  H4  UNL     1       0.531   0.064   2.111  1.00  0.00     0.163 HD
BRANCH  10  12
HETATM   12  C3  UNL     1       1.300  -0.069   0.363  1.00  0.00     0.136 A 
HETATM   13  C2  UNL     1       2.225   0.898   0.682  1.00  0.00     0.135 A 
HETATM   14  N3  UNL     1       2.456   1.617   1.787  1.00  0.00    -0.277 N 
HETATM   15  C11 UNL     1       3.187   1.318  -0.241  1.00  0.00     0.153 A 
HETATM   16  N2  UNL     1       3.481   2.424   1.574  1.00  0.00    -0.018 NA
ATOM     17  H3  UNL     1       1.925   1.552   2.656  1.00  0.00     0.184 HD
HETATM   18  N1  UNL     1       3.948   2.266   0.349  1.00  0.00    -0.263 N 
HETATM   19  C1  UNL     1       5.047   2.930  -0.314  1.00  0.00     0.177 C 
HETATM   20  N11 UNL     1       3.183   0.744  -1.465  1.00  0.00    -0.336 N 
HETATM   21  C10 UNL     1       2.280  -0.200  -1.778  1.00  0.00     0.183 A 
ATOM     22  H11 UNL     1       3.873   1.031  -2.159  1.00  0.00     0.168 HD
HETATM   23  N10 UNL     1       1.345  -0.599  -0.858  1.00  0.00    -0.337 N 
ATOM     24  H10 UNL     1       0.669  -1.318  -1.115  1.00  0.00     0.168 HD
ENDBRANCH  10  12
ENDBRANCH   1  10
BRANCH   9  25
HETATM   25  O1  UNL     1      -2.358   0.224   0.819  1.00  0.00    -0.373 OA
BRANCH  25  26
HETATM   26  C8  UNL     1      -2.533   1.072  -0.276  1.00  0.00     0.240 C 
BRANCH  26  27
HETATM   27  C9  UNL     1      -3.115   2.345   0.198  1.00  0.00     0.110 C 
HETATM   28  N8  UNL     1      -4.249   2.761  -0.232  1.00  0.00    -0.389 N 
ATOM     29  H82 UNL     1      -4.759   2.201  -0.916  1.00  0.00     0.157 HD
ATOM     30  H81 UNL     1      -4.651   3.640   0.095  1.00  0.00     0.157 HD
HETATM   31  N9  UNL     1      -2.409   3.120   1.145  1.00  0.00    -0.086 NA
ENDBRANCH  26  27
ENDBRANCH  25  26
ENDBRANCH   9  25
TORSDOF 5
