REMARK  7 active torsions:
REMARK  status: ('A' for Active; 'I' for Inactive)
REMARK    1  A    between atoms: C2_3  and  C3_4 
REMARK    2  A    between atoms: C2_3  and  C4_11 
REMARK       I    between atoms: C3_4  and  N2_6 
REMARK    3  A    between atoms: N2_6  and  N3_8 
REMARK    4  A    between atoms: C4_11  and  N4_12 
REMARK    5  A    between atoms: C4_11  and  C11_32 
REMARK    6  A    between atoms: N4_12  and  C5_14 
REMARK    7  A    between atoms: C7_18  and  N6_19 
ROOT
HETATM    1  N1  UNL     1      -2.359   3.455  -1.239  1.00  0.00    -0.196 NA
HETATM    2  C1  UNL     1      -2.443   2.523  -0.556  1.00  0.00     0.076 C 
HETATM    3  C2  UNL     1      -2.530   1.336   0.295  1.00  0.00     0.219 C 
ENDROOT
BRANCH   3   4
HETATM    4  C3  UNL     1      -3.455   0.326  -0.254  1.00  0.00     0.256 C 
HETATM    5  O1  UNL     1      -3.046  -0.814  -0.546  1.00  0.00    -0.270 OA
HETATM    6  N2  UNL     1      -4.812   0.664  -0.446  1.00  0.00    -0.275 N 
ATOM      7  H2  UNL     1      -5.142   1.599  -0.205  1.00  0.00     0.189 HD
BRANCH   6   8
HETATM    8  N3  UNL     1      -5.693  -0.264  -0.958  1.00  0.00    -0.343 N 
ATOM      9  H32 UNL     1      -5.347  -1.194  -1.194  1.00  0.00     0.176 HD
ATOM     10  H31 UNL     1      -6.674  -0.020  -1.097  1.00  0.00     0.176 HD
ENDBRANCH   6   8
ENDBRANCH   3   4
BRANCH   3  11
HETATM   11  C4  UNL     1      -1.115   0.797   0.446  1.00  0.00     0.211 C 
BRANCH  11  12
HETATM   12  N4  UNL     1      -0.538   0.441  -0.807  1.00  0.00    -0.356 N 
ATOM     13  H4  UNL     1      -1.099   0.480  -1.658  1.00  0.00     0.162 HD
BRANCH  12  14
HETATM   14  C5  UNL     1       0.821   0.031  -0.869  1.00  0.00     0.172 A 
HETATM   15  N5  UNL     1       1.601  -0.012   0.226  1.00  0.00    -0.332 N 
HETATM   16  C6  UNL     1       2.888  -0.385   0.188  1.00  0.00     0.122 A 
ATOM     17  H5  UNL     1       1.196   0.251   1.124  1.00  0.00     0.168 HD
HETATM   18  C7  UNL     1       3.695  -0.431   1.315  1.00  0.00     0.131 A 
HETATM   19  C9  UNL     1       3.466  -0.747  -1.012  1.00  0.00     0.140 A 
HETATM   20  N7  UNL     1       4.986  -0.806   1.275  1.00  0.00    -0.337 N 
HETATM   21  C8  UNL     1       5.523  -1.152   0.094  1.00  0.00     0.183 A 
ATOM     22  H7  UNL     1       5.547  -0.827   2.127  1.00  0.00     0.168 HD
HETATM   23  N8  UNL     1       4.758  -1.118  -1.030  1.00  0.00    -0.337 N 
ATOM     24  H8  UNL     1       5.180  -1.384  -1.920  1.00  0.00     0.168 HD
HETATM   25  N9  UNL     1       2.693  -0.704  -2.101  1.00  0.00    -0.304 N 
HETATM   26  C10 UNL     1       1.405  -0.334  -2.087  1.00  0.00     0.291 A 
ATOM     27  H9  UNL     1       3.107  -0.968  -2.995  1.00  0.00     0.171 HD
HETATM   28  O2  UNL     1       0.686  -0.298  -3.118  1.00  0.00    -0.264 OA
BRANCH  18  29
HETATM   29  N6  UNL     1       3.170  -0.098   2.435  1.00  0.00    -0.383 N 
ATOM     30  H62 UNL     1       2.191   0.186   2.465  1.00  0.00     0.157 HD
ATOM     31  H61 UNL     1       3.764  -0.132   3.264  1.00  0.00     0.157 HD
ENDBRANCH  18  29
ENDBRANCH  12  14
ENDBRANCH  11  12
BRANCH  11  32
HETATM   32  C11 UNL     1      -1.179  -0.369   1.393  1.00  0.00     0.198 C 
HETATM   33  O3  UNL     1      -0.798  -1.517   1.118  1.00  0.00    -0.646 OA
HETATM   34  O4  UNL     1      -1.698  -0.170   2.676  1.00  0.00    -0.646 OA
ENDBRANCH  11  32
ENDBRANCH   3  11
TORSDOF 7
