REMARK  7 active torsions:
REMARK  status: ('A' for Active; 'I' for Inactive)
REMARK    1  A    between atoms: N1_2  and  C2_4 
REMARK    2  A    between atoms: C5_11  and  N4_12 
REMARK    3  A    between atoms: N4_12  and  C6_14 
REMARK    4  A    between atoms: C6_14  and  C7_15 
REMARK    5  A    between atoms: C7_15  and  O1_16 
REMARK    6  A    between atoms: O1_16  and  N5_17 
REMARK    7  A    between atoms: C9_22  and  N9_23 
ROOT
HETATM    1  C2  UNL     1       4.321   0.344   0.154  1.00  0.00     0.131 A 
HETATM    2  N2  UNL     1       3.741   1.368  -0.482  1.00  0.00    -0.337 N 
ATOM      3  H2  UNL     1       4.236   2.249  -0.621  1.00  0.00     0.168 HD
HETATM    4  C3  UNL     1       2.495   1.200  -0.928  1.00  0.00     0.182 A 
HETATM    5  N3  UNL     1       1.835   0.061  -0.756  1.00  0.00    -0.347 N 
ATOM      6  H3  UNL     1       0.885  -0.004  -1.121  1.00  0.00     0.167 HD
HETATM    7  C4  UNL     1       2.345  -1.005  -0.132  1.00  0.00     0.108 A 
HETATM    8  C5  UNL     1       1.655  -2.166   0.036  1.00  0.00     0.135 A 
HETATM    9  N10 UNL     1       2.309  -3.164   0.692  1.00  0.00    -0.337 N 
ATOM     10  H10 UNL     1       1.833  -4.054   0.841  1.00  0.00     0.168 HD
HETATM   11  C10 UNL     1       3.561  -3.012   1.148  1.00  0.00     0.182 A 
HETATM   12  N11 UNL     1       4.235  -1.862   0.977  1.00  0.00    -0.347 N 
ATOM     13  H11 UNL     1       5.187  -1.769   1.331  1.00  0.00     0.167 HD
HETATM   14  C11 UNL     1       3.652  -0.837   0.339  1.00  0.00     0.108 A 
ENDROOT
BRANCH   8  15
HETATM   15  N4  UNL     1       0.503  -2.393  -0.349  1.00  0.00    -0.352 N 
ATOM     16  H4  UNL     1       0.216  -3.339  -0.099  1.00  0.00     0.166 HD
BRANCH  15  17
HETATM   17  C6  UNL     1      -0.519  -1.726  -1.028  1.00  0.00     0.090 C 
BRANCH  17  18
HETATM   18  C7  UNL     1      -1.394  -0.957  -0.051  1.00  0.00     0.238 C 
BRANCH  18  19
HETATM   19  O1  UNL     1      -2.426  -0.276  -0.694  1.00  0.00    -0.294 OA
BRANCH  19  20
HETATM   20  N5  UNL     1      -3.131   0.363   0.254  1.00  0.00    -0.134 NA
HETATM   21  C8  UNL     1      -4.146  -0.480   0.852  1.00  0.00     0.256 C 
HETATM   22  N6  UNL     1      -5.030   0.381   1.614  1.00  0.00    -0.113 NA
HETATM   23  N7  UNL     1      -5.765   1.235   0.788  1.00  0.00    -0.035 NA
HETATM   24  N8  UNL     1      -5.071   1.663  -0.321  1.00  0.00    -0.079 NA
HETATM   25  C9  UNL     1      -3.632   1.639  -0.150  1.00  0.00     0.394 C 
BRANCH  25  26
HETATM   26  N9  UNL     1      -3.039   2.132  -1.367  1.00  0.00    -0.045 N 
ATOM     27  H93 UNL     1      -2.022   2.152  -1.290  1.00  0.00     0.278 HD
ATOM     28  H92 UNL     1      -3.140   1.450  -2.119  1.00  0.00     0.278 HD
ATOM     29  H91 UNL     1      -3.397   3.043  -1.655  1.00  0.00     0.278 HD
ENDBRANCH  25  26
ENDBRANCH  19  20
ENDBRANCH  18  19
ENDBRANCH  17  18
ENDBRANCH  15  17
ENDBRANCH   8  15
BRANCH   1  30
HETATM   30  N1  UNL     1       5.530   0.506   0.588  1.00  0.00    -0.379 N 
HETATM   31  C1  UNL     1       6.247   1.743   0.401  1.00  0.00     0.147 C 
ATOM     32  H1  UNL     1       5.988  -0.263   1.076  1.00  0.00     0.160 HD
ENDBRANCH   1  30
TORSDOF 7
