REMARK  2 active torsions:
REMARK  status: ('A' for Active; 'I' for Inactive)
REMARK    1  A    between atoms: N4_13  and  C5_14 
REMARK    2  A    between atoms: C6_19  and  N7_20 
ROOT
HETATM    1  N1  UNL     1      -2.626  -2.146   1.556  1.00  0.00    -0.387 N 
ATOM      2  H11 UNL     1      -2.777  -1.921   2.540  1.00  0.00     0.157 HD
ATOM      3  H12 UNL     1      -2.932  -3.117   1.486  1.00  0.00     0.157 HD
HETATM    4  C1  UNL     1      -2.157  -1.350   0.661  1.00  0.00     0.098 C 
HETATM    5  N2  UNL     1      -1.945  -1.666  -0.723  1.00  0.00    -0.335 N 
ATOM      6  H2  UNL     1      -2.188  -2.539  -1.191  1.00  0.00     0.164 HD
HETATM    7  C2  UNL     1      -1.318  -0.504  -1.329  1.00  0.00     0.394 C 
HETATM    8  N3  UNL     1      -2.354   0.506  -1.445  1.00  0.00    -0.034 N 
ATOM      9  H31 UNL     1      -3.162   0.209  -1.992  1.00  0.00     0.281 HD
ATOM     10  H32 UNL     1      -2.098   1.296  -2.037  1.00  0.00     0.281 HD
HETATM   11  C3  UNL     1      -2.673   0.876  -0.066  1.00  0.00     0.270 C 
HETATM   12  C4  UNL     1      -1.709   0.071   0.763  1.00  0.00     0.182 C 
HETATM   13  N4  UNL     1      -0.577   0.012  -0.181  1.00  0.00    -0.304 N 
ENDROOT
BRANCH  13  14
HETATM   14  C5  UNL     1       0.769   0.348  -0.012  1.00  0.00     0.192 A 
HETATM   15  N5  UNL     1       1.234   1.563   0.323  1.00  0.00    -0.267 N 
HETATM   16  N6  UNL     1       2.520   1.831   0.471  1.00  0.00    -0.131 N 
ATOM     17  H5  UNL     1       0.562   2.316   0.470  1.00  0.00     0.189 HD
HETATM   18  C6  UNL     1       3.428   0.858   0.284  1.00  0.00     0.693 A 
ATOM     19  H6  UNL     1       2.822   2.771   0.726  1.00  0.00     0.205 HD
HETATM   20  N8  UNL     1       3.021  -0.364  -0.049  1.00  0.00    -0.152 N 
HETATM   21  C7  UNL     1       1.717  -0.659  -0.205  1.00  0.00     0.305 A 
ATOM     22  H8  UNL     1       3.716  -1.097  -0.190  1.00  0.00     0.188 HD
HETATM   23  O1  UNL     1       1.367  -1.817  -0.518  1.00  0.00    -0.263 OA
BRANCH  18  24
HETATM   24  N7  UNL     1       4.687   1.134   0.433  1.00  0.00    -0.233 N 
ATOM     25  H72 UNL     1       4.999   2.071   0.688  1.00  0.00     0.174 HD
ATOM     26  H71 UNL     1       5.376   0.396   0.291  1.00  0.00     0.174 HD
ENDBRANCH  18  24
ENDBRANCH  13  14
TORSDOF 2
