REMARK  3 active torsions:
REMARK  status: ('A' for Active; 'I' for Inactive)
REMARK    1  A    between atoms: N1_1  and  C1_4 
REMARK    2  A    between atoms: N2_7  and  C4_8 
REMARK    3  A    between atoms: C4_8  and  C5_9 
ROOT
HETATM    1  C1  UNL     1      -3.524  -0.304  -0.560  1.00  0.00     0.103 A 
HETATM    2  C2  UNL     1      -3.069   0.921  -0.155  1.00  0.00     0.065 A 
HETATM    3  C3  UNL     1      -1.733   1.171   0.016  1.00  0.00     0.099 A 
HETATM    4  N2  UNL     1      -0.804   0.208  -0.211  1.00  0.00    -0.307 N 
HETATM    5  C8  UNL     1      -1.271  -0.987  -0.608  1.00  0.00     0.328 A 
HETATM    6  O2  UNL     1      -0.457  -1.919  -0.836  1.00  0.00    -0.246 OA
HETATM    7  N6  UNL     1      -2.576  -1.262  -0.784  1.00  0.00    -0.295 N 
ATOM      8  H6  UNL     1      -2.860  -2.194  -1.087  1.00  0.00     0.172 HD
ENDROOT
BRANCH   4   9
HETATM    9  C4  UNL     1       0.547   0.552   0.004  1.00  0.00     0.168 C 
BRANCH   9  10
HETATM   10  C5  UNL     1       1.128   0.404   1.351  1.00  0.00     0.195 C 
HETATM   11  N3  UNL     1       2.539   0.817   1.332  1.00  0.00    -0.349 N 
HETATM   12  C6  UNL     1       3.260  -0.298   0.831  1.00  0.00     0.191 C 
ATOM     13  H3  UNL     1       2.921   1.718   1.619  1.00  0.00     0.163 HD
HETATM   14  N4  UNL     1       4.533  -0.249   0.221  1.00  0.00    -0.063 NA
HETATM   15  N5  UNL     1       2.547  -1.380   1.029  1.00  0.00    -0.299 N 
HETATM   16  C7  UNL     1       1.310  -1.033   1.677  1.00  0.00     0.248 C 
ATOM     17  H5  UNL     1       2.827  -2.324   0.764  1.00  0.00     0.171 HD
HETATM   18  O1  UNL     1       0.591  -1.812   2.352  1.00  0.00    -0.271 OA
ENDBRANCH   9  10
ENDBRANCH   4   9
BRANCH   1  19
HETATM   19  N1  UNL     1      -4.769  -0.589  -0.736  1.00  0.00    -0.385 N 
ATOM     20  H12 UNL     1      -5.477   0.126  -0.569  1.00  0.00     0.157 HD
ATOM     21  H11 UNL     1      -5.108  -1.502  -1.038  1.00  0.00     0.157 HD
ENDBRANCH   1  19
TORSDOF 3
