REMARK  5 active torsions:
REMARK  status: ('A' for Active; 'I' for Inactive)
REMARK    1  A    between atoms: C2_2  and  C3_3 
REMARK    2  A    between atoms: C3_3  and  C4_4 
REMARK    3  A    between atoms: C3_3  and  N2_12 
REMARK    4  A    between atoms: C4_4  and  O1_5 
REMARK    5  A    between atoms: C4_4  and  N1_7 
ROOT
HETATM    1  C3  UNL     1      -0.301  -0.871   0.235  1.00  0.00     0.055 C 
ENDROOT
BRANCH   1   2
HETATM    2  C2  UNL     1      -0.780  -2.257   0.242  1.00  0.00     0.019 C 
HETATM    3  C1  UNL     1      -0.614  -3.118  -0.754  1.00  0.00     0.013 C 
ENDBRANCH   1   2
BRANCH   1   4
HETATM    4  C4  UNL     1       0.763  -0.605  -0.811  1.00  0.00     0.268 C 
BRANCH   4   5
HETATM    5  O1  UNL     1       0.265  -0.466  -2.091  1.00  0.00    -0.373 OA
ATOM      6  H1  UNL     1       0.932  -0.299  -2.747  1.00  0.00     0.212 HD
ENDBRANCH   4   5
BRANCH   4   7
HETATM    7  N1  UNL     1       1.612   0.455  -0.393  1.00  0.00    -0.162 NA
HETATM    8  C5  UNL     1       2.367   0.204   0.784  1.00  0.00     0.126 C 
HETATM    9  C6  UNL     1       3.725   0.822   0.496  1.00  0.00     0.045 C 
HETATM   10  C7  UNL     1       3.456   1.588  -0.756  1.00  0.00     0.195 C 
HETATM   11  O2  UNL     1       2.453   0.849  -1.366  1.00  0.00    -0.301 OA
ENDBRANCH   4   7
ENDBRANCH   1   4
BRANCH   1  12
HETATM   12  N2  UNL     1      -1.267   0.155   0.326  1.00  0.00    -0.361 N 
HETATM   13  C8  UNL     1      -2.040   0.200   1.530  1.00  0.00     0.128 C 
HETATM   14  C9  UNL     1      -3.044   1.305   1.216  1.00  0.00     0.025 C 
HETATM   15  C10 UNL     1      -3.372   0.966  -0.221  1.00  0.00     0.046 C 
HETATM   16  C11 UNL     1      -2.025   0.540  -0.763  1.00  0.00     0.064 C 
ENDBRANCH   1  12
TORSDOF 5
