REMARK  5 active torsions:
REMARK  status: ('A' for Active; 'I' for Inactive)
REMARK    1  A    between atoms: O1_1  and  C1_3 
REMARK    2  A    between atoms: N1_7  and  C5_8 
REMARK    3  A    between atoms: C5_8  and  C6_9 
REMARK    4  A    between atoms: C6_9  and  C7_10 
REMARK    5  A    between atoms: C7_10  and  N2_11 
ROOT
HETATM    1  C1  UNL     1      -3.027  -0.102  -1.381  1.00  0.00     0.146 C 
HETATM    2  C2  UNL     1      -3.789  -1.046  -0.513  1.00  0.00     0.035 C 
HETATM    3  C3  UNL     1      -3.561  -0.821   0.961  1.00  0.00     0.033 C 
HETATM    4  C4  UNL     1      -2.910   0.537   1.143  1.00  0.00     0.272 C 
HETATM    5  N1  UNL     1      -1.582   0.415   0.568  1.00  0.00     0.091 N 
HETATM    6  C12 UNL     1      -1.687   0.305  -0.864  1.00  0.00     0.303 C 
ENDROOT
BRANCH   5   7
HETATM    7  C5  UNL     1      -0.717   1.499   0.976  1.00  0.00     0.277 C 
BRANCH   7   8
HETATM    8  C6  UNL     1       0.651   1.287   0.361  1.00  0.00     0.075 C 
BRANCH   8   9
HETATM    9  C7  UNL     1       1.246  -0.014   0.817  1.00  0.00     0.064 C 
BRANCH   9  10
HETATM   10  N2  UNL     1       2.501  -0.364   0.349  1.00  0.00    -0.374 N 
HETATM   11  C8  UNL     1       2.723  -0.689  -1.002  1.00  0.00     0.063 C 
HETATM   12  C9  UNL     1       4.101  -1.338  -0.947  1.00  0.00     0.046 C 
HETATM   13  C10 UNL     1       4.754  -0.605   0.210  1.00  0.00     0.025 C 
HETATM   14  C11 UNL     1       3.659   0.315   0.778  1.00  0.00     0.127 C 
ENDBRANCH   9  10
ENDBRANCH   8   9
ENDBRANCH   7   8
ENDBRANCH   5   7
BRANCH   1  15
HETATM   15  O1  UNL     1      -3.815   1.003  -1.783  1.00  0.00    -0.394 OA
ATOM     16  H1  UNL     1      -3.330   1.604  -2.336  1.00  0.00     0.210 HD
ENDBRANCH   1  15
TORSDOF 5
