REMARK  5 active torsions:
REMARK  status: ('A' for Active; 'I' for Inactive)
REMARK    1  A    between atoms: C2_2  and  C3_3 
REMARK    2  A    between atoms: C3_3  and  N1_4 
REMARK    3  A    between atoms: C6_7  and  C7_8 
REMARK    4  A    between atoms: C7_8  and  O1_9 
REMARK    5  A    between atoms: C7_8  and  C8_11 
ROOT
HETATM    1  N1  UNL     1       2.174  -0.403  -0.388  1.00  0.00     0.092 N 
HETATM    2  C4  UNL     1       2.158   1.025  -0.387  1.00  0.00     0.273 C 
HETATM    3  C5  UNL     1       0.660   1.411  -0.426  1.00  0.00     0.039 C 
HETATM    4  C6  UNL     1       0.149   0.253  -1.236  1.00  0.00     0.047 C 
HETATM    5  C12 UNL     1       0.809  -0.894  -0.492  1.00  0.00     0.280 C 
ENDROOT
BRANCH   4   6
HETATM    6  C7  UNL     1      -1.305   0.122  -1.396  1.00  0.00     0.152 C 
BRANCH   6   7
HETATM    7  O1  UNL     1      -1.505  -1.037  -2.213  1.00  0.00    -0.393 OA
ATOM      8  H1  UNL     1      -2.446  -1.122  -2.316  1.00  0.00     0.210 HD
ENDBRANCH   6   7
BRANCH   6   9
HETATM    9  C8  UNL     1      -2.124  -0.116  -0.189  1.00  0.00     0.150 C 
HETATM   10  C9  UNL     1      -3.600  -0.063  -0.617  1.00  0.00     0.036 C 
HETATM   11  C10 UNL     1      -4.313   0.077   0.717  1.00  0.00     0.029 C 
HETATM   12  C11 UNL     1      -3.196   0.562   1.621  1.00  0.00     0.168 C 
HETATM   13  O2  UNL     1      -2.118   0.862   0.776  1.00  0.00    -0.383 OA
ENDBRANCH   6   9
ENDBRANCH   4   6
BRANCH   1  14
HETATM   14  C3  UNL     1       2.924  -0.999   0.674  1.00  0.00     0.299 C 
BRANCH  14  15
HETATM   15  C2  UNL     1       4.360  -0.727   0.443  1.00  0.00    -0.007 C 
HETATM   16  C1  UNL     1       5.079  -0.060   1.332  1.00  0.00     0.008 C 
ENDBRANCH  14  15
ENDBRANCH   1  14
TORSDOF 5
