REMARK  4 active torsions:
REMARK  status: ('A' for Active; 'I' for Inactive)
REMARK    1  A    between atoms: C2_2  and  C3_3 
REMARK    2  A    between atoms: C2_2  and  N2_10 
REMARK    3  A    between atoms: C3_3  and  N1_4 
REMARK    4  A    between atoms: C8_12  and  C9_13 
ROOT
HETATM    1  N2  UNL     1       1.088   0.699   0.266  1.00  0.00    -0.392 N 
ATOM      2  H2  UNL     1       1.693   1.262   0.864  1.00  0.00     0.159 HD
HETATM    3  C8  UNL     1       1.629  -0.116  -0.528  1.00  0.00     0.089 C 
ENDROOT
BRANCH   1   4
HETATM    4  C2  UNL     1      -0.341   0.881   0.377  1.00  0.00     0.115 C 
HETATM    5  C1  UNL     1      -0.791   2.185  -0.167  1.00  0.00     0.038 C 
BRANCH   4   6
HETATM    6  C3  UNL     1      -1.105  -0.274  -0.153  1.00  0.00     0.083 C 
BRANCH   6   7
HETATM    7  N1  UNL     1      -2.469  -0.237   0.132  1.00  0.00    -0.387 N 
HETATM    8  C4  UNL     1      -3.375   0.646  -0.451  1.00  0.00     0.148 C 
HETATM    9  C5  UNL     1      -4.549  -0.204  -0.992  1.00  0.00     0.187 C 
HETATM   10  O1  UNL     1      -5.186  -0.904   0.001  1.00  0.00    -0.388 OA
HETATM   11  C6  UNL     1      -4.450  -1.013   1.167  1.00  0.00     0.187 C 
HETATM   12  C7  UNL     1      -2.969  -1.309   0.900  1.00  0.00     0.148 C 
ENDBRANCH   6   7
ENDBRANCH   4   6
ENDBRANCH   1   4
BRANCH   3  13
HETATM   13  C9  UNL     1       3.078  -0.267  -0.608  1.00  0.00     0.223 C 
HETATM   14  C10 UNL     1       3.675  -1.198   0.437  1.00  0.00     0.040 C 
HETATM   15  C11 UNL     1       5.163  -0.871   0.257  1.00  0.00     0.030 C 
HETATM   16  C12 UNL     1       5.103   0.635   0.088  1.00  0.00     0.233 C 
HETATM   17  N3  UNL     1       3.751   0.979  -0.268  1.00  0.00    -0.066 N 
ATOM     18  H32 UNL     1       3.695   1.681  -1.006  1.00  0.00     0.278 HD
ATOM     19  H31 UNL     1       3.268   1.513   0.454  1.00  0.00     0.278 HD
ENDBRANCH   3  13
TORSDOF 4
