REMARK  5 active torsions:
REMARK  status: ('A' for Active; 'I' for Inactive)
REMARK    1  A    between atoms: C2_2  and  C3_3 
REMARK    2  A    between atoms: C2_2  and  C6_7 
REMARK    3  A    between atoms: C3_3  and  N1_4 
REMARK    4  A    between atoms: C6_7  and  O1_8 
REMARK    5  A    between atoms: C6_7  and  C7_10 
ROOT
HETATM    1  C6  UNL     1      -0.190   1.241   0.256  1.00  0.00     0.131 C 
ENDROOT
BRANCH   1   2
HETATM    2  C2  UNL     1      -1.451   0.484   0.547  1.00  0.00     0.049 C 
HETATM    3  C1  UNL     1      -2.363   1.442   1.283  1.00  0.00     0.018 C 
BRANCH   2   4
HETATM    4  C3  UNL     1      -2.117  -0.032  -0.668  1.00  0.00     0.064 C 
BRANCH   4   5
HETATM    5  N1  UNL     1      -3.303  -0.762  -0.565  1.00  0.00    -0.401 N 
HETATM    6  C4  UNL     1      -4.509  -0.154  -0.177  1.00  0.00     0.148 C 
HETATM    7  C5  UNL     1      -3.150  -2.131  -0.130  1.00  0.00     0.148 C 
ENDBRANCH   4   5
ENDBRANCH   2   4
ENDBRANCH   1   2
BRANCH   1   8
HETATM    8  O1  UNL     1       0.426   1.688   1.443  1.00  0.00    -0.394 OA
ATOM      9  H1  UNL     1       1.225   2.168   1.259  1.00  0.00     0.210 HD
ENDBRANCH   1   8
BRANCH   1  10
HETATM   10  C7  UNL     1       0.856   0.482  -0.522  1.00  0.00     0.021 C 
HETATM   11  C8  UNL     1       1.290  -0.771   0.203  1.00  0.00     0.027 C 
HETATM   12  C9  UNL     1       2.525  -1.269  -0.521  1.00  0.00     0.122 C 
HETATM   13  N2  UNL     1       3.583  -0.394  -0.151  1.00  0.00    -0.398 N 
HETATM   14  C10 UNL     1       4.907  -0.874  -0.316  1.00  0.00     0.148 C 
HETATM   15  C11 UNL     1       3.336   0.984  -0.307  1.00  0.00     0.058 C 
HETATM   16  C12 UNL     1       2.001   1.362  -0.859  1.00  0.00     0.051 C 
ENDBRANCH   1  10
TORSDOF 5
