REMARK  5 active torsions:
REMARK  status: ('A' for Active; 'I' for Inactive)
REMARK    1  A    between atoms: O1_1  and  C1_3 
REMARK    2  A    between atoms: C1_3  and  C2_4 
REMARK    3  A    between atoms: C2_4  and  C3_5 
REMARK    4  A    between atoms: C3_5  and  N1_6 
REMARK    5  A    between atoms: C6_9  and  N2_10 
ROOT
HETATM    1  N1  UNL     1       1.485   0.665  -0.530  1.00  0.00    -0.412 N 
HETATM    2  C4  UNL     1       1.038   1.303   0.650  1.00  0.00     0.119 C 
HETATM    3  C5  UNL     1      -0.475   1.327   0.646  1.00  0.00     0.055 C 
HETATM    4  C6  UNL     1      -1.042  -0.085   0.618  1.00  0.00     0.226 C 
HETATM    5  C11 UNL     1      -0.126  -1.030  -0.077  1.00  0.00     0.055 C 
HETATM    6  C12 UNL     1       0.621  -0.269  -1.148  1.00  0.00     0.119 C 
ENDROOT
BRANCH   1   7
HETATM    7  C3  UNL     1       2.878   0.483  -0.678  1.00  0.00     0.119 C 
BRANCH   7   8
HETATM    8  C2  UNL     1       3.507  -0.497   0.267  1.00  0.00     0.045 C 
BRANCH   8   9
HETATM    9  C1  UNL     1       5.002  -0.552  -0.052  1.00  0.00     0.165 C 
BRANCH   9  10
HETATM   10  O1  UNL     1       5.589   0.703   0.109  1.00  0.00    -0.401 OA
ATOM     11  H1  UNL     1       6.517   0.669  -0.089  1.00  0.00     0.209 HD
ENDBRANCH   9  10
ENDBRANCH   8   9
ENDBRANCH   7   8
ENDBRANCH   1   7
BRANCH   4  12
HETATM   12  N2  UNL     1      -2.280   0.023  -0.143  1.00  0.00     0.093 N 
HETATM   13  C7  UNL     1      -2.913  -1.223  -0.420  1.00  0.00     0.273 C 
HETATM   14  C8  UNL     1      -4.421  -0.936  -0.466  1.00  0.00     0.032 C 
HETATM   15  C9  UNL     1      -4.522   0.543  -0.183  1.00  0.00     0.032 C 
HETATM   16  C10 UNL     1      -3.270   0.795   0.626  1.00  0.00     0.273 C 
ENDBRANCH   4  12
TORSDOF 5
