REMARK  5 active torsions:
REMARK  status: ('A' for Active; 'I' for Inactive)
REMARK    1  A    between atoms: O1_1  and  C1_3 
REMARK    2  A    between atoms: C1_3  and  C2_4 
REMARK    3  A    between atoms: N1_8  and  C6_9 
REMARK    4  A    between atoms: C6_9  and  C7_10 
REMARK    5  A    between atoms: C7_10  and  C8_11 
ROOT
HETATM    1  C2  UNL     1      -2.794  -0.742  -0.078  1.00  0.00     0.037 C 
HETATM    2  C3  UNL     1      -3.652   0.186  -0.860  1.00  0.00     0.010 C 
HETATM    3  C4  UNL     1      -2.862   1.034  -1.837  1.00  0.00     0.031 C 
HETATM    4  C5  UNL     1      -1.492   0.390  -1.926  1.00  0.00     0.272 C 
HETATM    5  N1  UNL     1      -0.840   0.681  -0.635  1.00  0.00     0.088 N 
HETATM    6  C12 UNL     1      -1.481  -0.157   0.372  1.00  0.00     0.279 C 
ENDROOT
BRANCH   5   7
HETATM    7  C6  UNL     1       0.578   0.367  -0.744  1.00  0.00     0.275 C 
BRANCH   7   8
HETATM    8  C7  UNL     1       1.348   0.937   0.426  1.00  0.00     0.062 C 
BRANCH   8   9
HETATM    9  C8  UNL     1       2.777   0.577   0.211  1.00  0.00     0.123 C 
HETATM   10  C9  UNL     1       3.058  -0.906   0.195  1.00  0.00     0.034 C 
HETATM   11  C10 UNL     1       4.592  -0.905   0.250  1.00  0.00     0.029 C 
HETATM   12  C11 UNL     1       4.887   0.576   0.503  1.00  0.00     0.168 C 
HETATM   13  O2  UNL     1       3.693   1.051   1.120  1.00  0.00    -0.386 OA
ENDBRANCH   8   9
ENDBRANCH   7   8
ENDBRANCH   5   7
BRANCH   1  14
HETATM   14  C1  UNL     1      -3.571  -1.218   1.133  1.00  0.00     0.170 C 
BRANCH  14  15
HETATM   15  O1  UNL     1      -3.943  -0.190   1.990  1.00  0.00    -0.400 OA
ATOM     16  H1  UNL     1      -4.430  -0.488   2.749  1.00  0.00     0.209 HD
ENDBRANCH  14  15
ENDBRANCH   1  14
TORSDOF 5
