REMARK  3 active torsions:
REMARK  status: ('A' for Active; 'I' for Inactive)
REMARK    1  A    between atoms: C2_2  and  C3_3 
REMARK    2  A    between atoms: C3_3  and  C4_4 
REMARK    3  A    between atoms: C5_6  and  C6_7 
ROOT
HETATM    1  C4  UNL     1       1.633   0.273   0.144  1.00  0.00     0.222 C 
HETATM    2  O1  UNL     1       0.416  -0.250   0.577  1.00  0.00    -0.359 OA
HETATM    3  C5  UNL     1      -0.506   0.029  -0.460  1.00  0.00     0.156 C 
HETATM    4  C10 UNL     1      -0.772   1.484  -0.596  1.00  0.00     0.053 C 
HETATM    5  C11 UNL     1       0.533   2.244  -0.655  1.00  0.00     0.121 C 
HETATM    6  N2  UNL     1       1.483   1.703   0.239  1.00  0.00    -0.392 N 
HETATM    7  C12 UNL     1       2.680   2.427   0.418  1.00  0.00     0.145 C 
ENDROOT
BRANCH   3   8
HETATM    8  C6  UNL     1      -1.689  -0.854  -0.310  1.00  0.00     0.214 C 
HETATM    9  C7  UNL     1      -2.769  -0.645  -1.327  1.00  0.00     0.037 C 
HETATM   10  C8  UNL     1      -4.063  -1.022  -0.615  1.00  0.00     0.029 C 
HETATM   11  C9  UNL     1      -3.556  -1.565   0.701  1.00  0.00     0.233 C 
HETATM   12  N1  UNL     1      -2.402  -0.693   0.948  1.00  0.00    -0.069 N 
ATOM     13  H12 UNL     1      -1.866  -0.894   1.792  1.00  0.00     0.277 HD
ATOM     14  H11 UNL     1      -2.619   0.267   1.216  1.00  0.00     0.277 HD
ENDBRANCH   3   8
BRANCH   1  15
HETATM   15  C3  UNL     1       2.716  -0.211   1.072  1.00  0.00     0.080 C 
BRANCH  15  16
HETATM   16  C2  UNL     1       2.722  -1.696   1.011  1.00  0.00    -0.033 C 
HETATM   17  C1  UNL     1       3.816  -2.333   0.613  1.00  0.00     0.007 C 
ENDBRANCH  15  16
ENDBRANCH   1  15
TORSDOF 3
