REMARK  3 active torsions:
REMARK  status: ('A' for Active; 'I' for Inactive)
REMARK    1  A    between atoms: C2_3  and  N2_4 
REMARK    2  A    between atoms: C2_3  and  C8_13 
REMARK       I    between atoms: N2_4  and  C3_6 
REMARK    3  A    between atoms: C3_6  and  C4_8 
ROOT
HETATM    1  N1  UNL     1      -2.198   1.074  -3.099  1.00  0.00    -0.195 NA
HETATM    2  C1  UNL     1      -1.980   0.732  -2.009  1.00  0.00     0.085 C 
HETATM    3  C2  UNL     1      -1.698   0.311  -0.621  1.00  0.00     0.196 C 
ENDROOT
BRANCH   3   4
HETATM    4  N2  UNL     1      -0.427  -0.330  -0.513  1.00  0.00    -0.343 N 
HETATM    5  C3  UNL     1       0.623   0.174   0.293  1.00  0.00     0.225 C 
HETATM    6  O1  UNL     1       0.441   1.230   0.946  1.00  0.00    -0.273 OA
ATOM      7  H2  UNL     1      -0.268  -1.189  -1.040  1.00  0.00     0.163 HD
BRANCH   5   8
HETATM    8  C4  UNL     1       1.935  -0.500   0.395  1.00  0.00     0.103 C 
HETATM    9  C5  UNL     1       2.858   0.236   1.307  1.00  0.00     0.042 C 
HETATM   10  C6  UNL     1       4.138   0.413   0.491  1.00  0.00     0.168 C 
HETATM   11  O2  UNL     1       3.637   0.540  -0.817  1.00  0.00    -0.390 OA
HETATM   12  C7  UNL     1       2.666  -0.431  -0.934  1.00  0.00     0.181 C 
ENDBRANCH   5   8
ENDBRANCH   3   4
BRANCH   3  13
HETATM   13  C8  UNL     1      -2.849  -0.553  -0.189  1.00  0.00     0.022 A 
HETATM   14  C9  UNL     1      -4.195   0.163  -0.223  1.00  0.00     0.008 A 
HETATM   15  C10 UNL     1      -3.573  -0.324   1.074  1.00  0.00     0.008 A 
ENDBRANCH   3  13
TORSDOF 3
