REMARK  4 active torsions:
REMARK  status: ('A' for Active; 'I' for Inactive)
REMARK    1  A    between atoms: O1_1  and  C1_3 
REMARK    2  A    between atoms: C1_3  and  C2_4 
REMARK    3  A    between atoms: C1_3  and  C7_11 
REMARK    4  A    between atoms: C2_4  and  N1_5 
ROOT
HETATM    1  C1  UNL     1      -0.872   0.827  -0.462  1.00  0.00     0.150 C 
ENDROOT
BRANCH   1   2
HETATM    2  O1  UNL     1      -0.648   1.236  -1.815  1.00  0.00    -0.393 OA
ATOM      3  H1  UNL     1      -1.413   1.015  -2.333  1.00  0.00     0.210 HD
ENDBRANCH   1   2
BRANCH   1   4
HETATM    4  C2  UNL     1       0.325   1.173   0.349  1.00  0.00     0.304 C 
BRANCH   4   5
HETATM    5  N1  UNL     1       1.517   0.630  -0.124  1.00  0.00     0.095 N 
HETATM    6  C3  UNL     1       2.706   1.207   0.515  1.00  0.00     0.298 C 
HETATM    7  C4  UNL     1       3.795   1.028  -0.550  1.00  0.00     0.198 C 
HETATM    8  O2  UNL     1       4.109  -0.316  -0.602  1.00  0.00    -0.388 OA
HETATM    9  C5  UNL     1       3.193  -1.150  -0.059  1.00  0.00     0.198 C 
HETATM   10  C6  UNL     1       1.735  -0.748  -0.247  1.00  0.00     0.298 C 
ENDBRANCH   4   5
ENDBRANCH   1   4
BRANCH   1  11
HETATM   11  C7  UNL     1      -1.417  -0.527  -0.358  1.00  0.00     0.016 C 
HETATM   12  C8  UNL     1      -1.688  -0.938   1.058  1.00  0.00     0.007 C 
HETATM   13  C9  UNL     1      -3.139  -0.568   1.340  1.00  0.00     0.000 C 
HETATM   14  C10 UNL     1      -3.701  -0.056   0.033  1.00  0.00     0.000 C 
HETATM   15  C11 UNL     1      -2.798  -0.667  -0.981  1.00  0.00     0.007 C 
ENDBRANCH   1  11
TORSDOF 4
