REMARK  3 active torsions:
REMARK  status: ('A' for Active; 'I' for Inactive)
REMARK    1  A    between atoms: C3_4  and  C4_5 
REMARK    2  A    between atoms: C4_5  and  C5_6 
REMARK    3  A    between atoms: C5_6  and  N1_7 
ROOT
HETATM    1  N1  UNL     1      -0.747   0.072  -0.063  1.00  0.00     0.090 N 
HETATM    2  C6  UNL     1      -1.392  -0.892   0.757  1.00  0.00     0.274 C 
HETATM    3  C7  UNL     1      -2.720  -0.479   1.298  1.00  0.00     0.057 C 
HETATM    4  C8  UNL     1      -3.868  -0.943   0.393  1.00  0.00     0.234 C 
HETATM    5  N2  UNL     1      -3.930  -0.102  -0.789  1.00  0.00    -0.073 N 
ATOM      6  H21 UNL     1      -4.181   0.858  -0.552  1.00  0.00     0.277 HD
ATOM      7  H22 UNL     1      -4.734  -0.336  -1.372  1.00  0.00     0.277 HD
HETATM    8  C9  UNL     1      -2.690  -0.156  -1.546  1.00  0.00     0.262 C 
HETATM    9  C10 UNL     1      -1.621   0.731  -1.001  1.00  0.00     0.299 C 
ENDROOT
BRANCH   1  10
HETATM   10  C5  UNL     1       0.026   1.073   0.610  1.00  0.00     0.275 C 
BRANCH  10  11
HETATM   11  C4  UNL     1       1.250   0.549   1.270  1.00  0.00     0.062 C 
BRANCH  11  12
HETATM   12  C3  UNL     1       2.222  -0.111   0.334  1.00  0.00     0.123 C 
HETATM   13  O1  UNL     1       3.299  -0.539   1.115  1.00  0.00    -0.386 OA
HETATM   14  C2  UNL     1       4.204  -0.964   0.141  1.00  0.00     0.168 C 
HETATM   15  C1  UNL     1       4.278   0.309  -0.713  1.00  0.00     0.029 C 
HETATM   16  C11 UNL     1       2.846   0.813  -0.648  1.00  0.00     0.034 C 
ENDBRANCH  11  12
ENDBRANCH  10  11
ENDBRANCH   1  10
TORSDOF 3
