REMARK  4 active torsions:
REMARK  status: ('A' for Active; 'I' for Inactive)
REMARK    1  A    between atoms: C2_2  and  C3_3 
REMARK    2  A    between atoms: C5_5  and  C6_6 
REMARK    3  A    between atoms: N1_7  and  O1_9 
REMARK    4  A    between atoms: N2_11  and  C7_12 
ROOT
HETATM    1  C3  UNL     1      -1.085  -0.948  -0.309  1.00  0.00     0.016 C 
HETATM    2  C4  UNL     1       0.315  -1.092   0.292  1.00  0.00     0.039 C 
HETATM    3  C5  UNL     1       1.232  -0.223  -0.580  1.00  0.00     0.128 C 
HETATM    4  N2  UNL     1       0.706   1.109  -0.393  1.00  0.00    -0.345 N 
HETATM    5  C8  UNL     1      -0.691   1.161   0.011  1.00  0.00     0.092 A 
HETATM    6  C9  UNL     1      -1.621   1.761  -0.748  1.00  0.00     0.033 A 
HETATM    7  C10 UNL     1      -1.490   0.331  -0.827  1.00  0.00     0.018 A 
ENDROOT
BRANCH   3   8
HETATM    8  C6  UNL     1       2.593  -0.405  -0.111  1.00  0.00     0.112 C 
HETATM    9  N1  UNL     1       2.828  -0.787   1.090  1.00  0.00    -0.282 N 
ATOM     10  H1  UNL     1       2.035  -0.960   1.708  1.00  0.00     0.192 HD
BRANCH   9  11
HETATM   11  O1  UNL     1       4.101  -0.975   1.588  1.00  0.00    -0.290 OA
ATOM     12  H1  UNL     1       4.275  -1.258   2.478  1.00  0.00     0.244 HD
ENDBRANCH   9  11
ENDBRANCH   3   8
BRANCH   4  13
HETATM   13  C7  UNL     1       1.515   2.224  -0.595  1.00  0.00     0.351 C 
HETATM   14  O2  UNL     1       2.720   2.145  -0.944  1.00  0.00    -0.283 OA
ENDBRANCH   4  13
BRANCH   1  15
HETATM   15  C2  UNL     1      -2.045  -1.595   0.620  1.00  0.00    -0.032 C 
HETATM   16  C1  UNL     1      -3.184  -1.012   0.934  1.00  0.00     0.007 C 
ENDBRANCH   1  15
TORSDOF 4
