REMARK  3 active torsions:
REMARK  status: ('A' for Active; 'I' for Inactive)
REMARK    1  A    between atoms: C4_5  and  C5_6 
REMARK    2  A    between atoms: C5_6  and  S1_7 
REMARK    3  A    between atoms: S1_7  and  C6_8 
ROOT
HETATM    1  C1  UNL     1      -3.797   0.459   0.138  1.00  0.00     0.262 C 
HETATM    2  C2  UNL     1      -2.704   1.285  -0.417  1.00  0.00     0.300 C 
HETATM    3  N1  UNL     1      -1.410   0.748  -0.419  1.00  0.00     0.097 N 
HETATM    4  C3  UNL     1      -0.983  -0.046  -1.527  1.00  0.00     0.280 C 
HETATM    5  C4  UNL     1      -0.114  -0.821  -0.559  1.00  0.00     0.058 C 
HETATM    6  C9  UNL     1      -1.137  -0.336   0.454  1.00  0.00     0.255 C 
HETATM    7  C10 UNL     1      -2.287  -1.283   0.670  1.00  0.00     0.268 C 
HETATM    8  N2  UNL     1      -3.406  -0.506   1.121  1.00  0.00    -0.071 N 
ATOM      9  H21 UNL     1      -4.189  -1.100   1.395  1.00  0.00     0.277 HD
ATOM     10  H22 UNL     1      -3.219  -0.068   2.023  1.00  0.00     0.277 HD
ENDROOT
BRANCH   5  11
HETATM   11  C5  UNL     1       1.210  -0.152  -0.334  1.00  0.00     0.082 C 
BRANCH  11  12
HETATM   12  S1  UNL     1       2.199  -1.142   0.842  1.00  0.00    -0.164 SA
BRANCH  12  13
HETATM   13  C6  UNL     1       3.782  -0.294   1.075  1.00  0.00     0.047 A 
HETATM   14  C7  UNL     1       4.672  -0.242  -0.144  1.00  0.00     0.016 A 
HETATM   15  C8  UNL     1       4.026   0.984   0.375  1.00  0.00     0.016 A 
ENDBRANCH  12  13
ENDBRANCH  11  12
ENDBRANCH   5  11
TORSDOF 3
