REMARK  6 active torsions:
REMARK  status: ('A' for Active; 'I' for Inactive)
REMARK    1  A    between atoms: C2_2  and  C4_4 
REMARK    2  A    between atoms: N1_7  and  C7_8 
REMARK    3  A    between atoms: C7_8  and  C8_9 
REMARK    4  A    between atoms: C8_9  and  C9_10 
REMARK    5  A    between atoms: C9_10  and  C10_11 
REMARK    6  A    between atoms: C11_12  and  C12_13 
ROOT
HETATM    1  C12 UNL     1       2.691  -0.192  -1.526  1.00  0.00     0.063 A 
HETATM    2  N2  UNL     1       2.379   0.891  -2.293  1.00  0.00    -0.350 N 
ATOM      3  H2  UNL     1       1.496   0.914  -2.803  1.00  0.00     0.166 HD
HETATM    4  C13 UNL     1       3.226   1.925  -2.381  1.00  0.00     0.182 A 
HETATM    5  N3  UNL     1       4.379   1.874  -1.702  1.00  0.00    -0.336 N 
ATOM      6  H3  UNL     1       5.018   2.666  -1.773  1.00  0.00     0.168 HD
HETATM    7  C14 UNL     1       4.735   0.836  -0.934  1.00  0.00     0.139 A 
HETATM    8  C15 UNL     1       3.862  -0.242  -0.840  1.00  0.00     0.105 A 
HETATM    9  N4  UNL     1       4.392  -1.168  -0.022  1.00  0.00    -0.341 N 
ATOM     10  H4  UNL     1       3.969  -2.062   0.228  1.00  0.00     0.167 HD
HETATM   11  C16 UNL     1       5.582  -0.705   0.408  1.00  0.00     0.085 A 
HETATM   12  N5  UNL     1       5.774   0.511  -0.154  1.00  0.00    -0.321 N 
HETATM   13  C17 UNL     1       6.985   1.217   0.177  1.00  0.00     0.132 C 
HETATM   14  C18 UNL     1       7.377   1.114   1.625  1.00  0.00     0.021 C 
HETATM   15  C19 UNL     1       6.985  -0.157   2.293  1.00  0.00     0.009 C 
HETATM   16  C20 UNL     1       6.625  -1.262   1.321  1.00  0.00     0.077 C 
ENDROOT
BRANCH   1  17
HETATM   17  C11 UNL     1       1.735  -1.313  -1.390  1.00  0.00     0.028 C 
HETATM   18  C10 UNL     1       0.571  -1.149  -1.979  1.00  0.00    -0.024 C 
BRANCH  18  19
HETATM   19  C9  UNL     1      -0.551  -2.124  -1.986  1.00  0.00     0.029 C 
BRANCH  19  20
HETATM   20  C8  UNL     1      -1.722  -1.416  -1.251  1.00  0.00     0.034 C 
BRANCH  20  21
HETATM   21  C7  UNL     1      -1.241  -1.178   0.129  1.00  0.00     0.272 C 
BRANCH  21  22
HETATM   22  N1  UNL     1      -2.112  -0.495   1.026  1.00  0.00     0.088 N 
HETATM   23  C6  UNL     1      -2.281   0.900   0.733  1.00  0.00     0.272 C 
HETATM   24  C5  UNL     1      -3.709   1.364   0.939  1.00  0.00     0.035 C 
HETATM   25  C4  UNL     1      -4.541   0.544  -0.026  1.00  0.00    -0.008 C 
HETATM   26  C22 UNL     1      -4.508  -0.877   0.497  1.00  0.00     0.035 C 
HETATM   27  C21 UNL     1      -3.322  -1.176   1.350  1.00  0.00     0.272 C 
BRANCH  25  28
HETATM   28  C2  UNL     1      -5.922   1.100  -0.081  1.00  0.00    -0.019 C 
HETATM   29  C1  UNL     1      -6.671   1.093   1.217  1.00  0.00     0.010 C 
HETATM   30  C3  UNL     1      -6.779   0.458  -1.138  1.00  0.00     0.010 C 
ENDBRANCH  25  28
ENDBRANCH  21  22
ENDBRANCH  20  21
ENDBRANCH  19  20
ENDBRANCH  18  19
ENDBRANCH   1  17
TORSDOF 6
