REMARK  9 active torsions:
REMARK  status: ('A' for Active; 'I' for Inactive)
REMARK       I    between atoms: C1_2  and  N1_3 
REMARK    1  A    between atoms: C1_2  and  C10_18 
REMARK    2  A    between atoms: N1_3  and  C2_5 
REMARK    3  A    between atoms: C2_5  and  C3_6 
REMARK       I    between atoms: C3_6  and  N2_8 
REMARK    4  A    between atoms: N2_8  and  C4_10 
REMARK    5  A    between atoms: C4_10  and  C5_11 
REMARK    6  A    between atoms: C5_11  and  O3_12 
REMARK    7  A    between atoms: C10_18  and  C11_19 
REMARK    8  A    between atoms: C10_18  and  N4_30 
REMARK    9  A    between atoms: C11_19  and  C12_20 
ROOT
HETATM    1  C10 UNL     1      -1.224   0.995  -1.365  1.00  0.00     0.083 C 
ENDROOT
BRANCH   1   2
HETATM    2  C1  UNL     1       0.008   0.229  -1.147  1.00  0.00     0.265 C 
HETATM    3  O1  UNL     1      -0.013  -1.014  -1.233  1.00  0.00    -0.266 OA
HETATM    4  N1  UNL     1       1.220   0.879  -0.846  1.00  0.00    -0.338 N 
ATOM      5  H1  UNL     1       1.174   1.896  -0.788  1.00  0.00     0.164 HD
BRANCH   4   6
HETATM    6  C2  UNL     1       2.498   0.306  -0.613  1.00  0.00     0.114 C 
HETATM    7  C6  UNL     1       2.958  -0.591  -1.736  1.00  0.00     0.041 C 
HETATM    8  C7  UNL     1       4.298  -0.067  -2.144  1.00  0.00     0.003 C 
HETATM    9  C8  UNL     1       4.513   1.274  -1.538  1.00  0.00     0.003 C 
HETATM   10  C9  UNL     1       3.529   1.383  -0.424  1.00  0.00     0.041 C 
BRANCH   6  11
HETATM   11  C3  UNL     1       2.454  -0.579   0.612  1.00  0.00     0.246 C 
HETATM   12  O2  UNL     1       1.383  -0.697   1.227  1.00  0.00    -0.271 OA
HETATM   13  N2  UNL     1       3.604  -1.254   1.049  1.00  0.00    -0.357 N 
ATOM     14  H2  UNL     1       4.467  -1.129   0.520  1.00  0.00     0.162 HD
BRANCH  13  15
HETATM   15  C4  UNL     1       3.632  -2.104   2.192  1.00  0.00     0.148 C 
BRANCH  15  16
HETATM   16  C5  UNL     1       2.708  -3.266   2.024  1.00  0.00     0.183 C 
BRANCH  16  17
HETATM   17  O3  UNL     1       2.750  -4.097   3.164  1.00  0.00    -0.399 OA
ATOM     18  H3  UNL     1       2.162  -4.836   3.057  1.00  0.00     0.209 HD
ENDBRANCH  16  17
ENDBRANCH  15  16
ENDBRANCH  13  15
ENDBRANCH   6  11
ENDBRANCH   4   6
ENDBRANCH   1   2
BRANCH   1  19
HETATM   19  C11 UNL     1      -2.442   0.624  -0.621  1.00  0.00     0.120 C 
BRANCH  19  20
HETATM   20  C12 UNL     1      -2.984  -0.719  -0.808  1.00  0.00     0.017 A 
HETATM   21  C13 UNL     1      -3.732  -1.049  -1.956  1.00  0.00     0.027 A 
HETATM   22  C14 UNL     1      -4.168  -2.323  -1.811  1.00  0.00     0.027 A 
HETATM   23  C15 UNL     1      -3.678  -2.749  -0.572  1.00  0.00     0.011 A 
HETATM   24  N3  UNL     1      -2.969  -1.767   0.011  1.00  0.00    -0.353 N 
HETATM   25  C20 UNL     1      -3.983  -4.110  -0.066  1.00  0.00     0.057 C 
HETATM   26  C16 UNL     1      -2.361  -1.831   1.296  1.00  0.00     0.129 C 
HETATM   27  C17 UNL     1      -1.428  -2.997   1.458  1.00  0.00     0.020 C 
HETATM   28  C18 UNL     1      -2.200  -4.286   1.634  1.00  0.00     0.002 C 
HETATM   29  C19 UNL     1      -2.705  -4.797   0.296  1.00  0.00     0.006 C 
ENDBRANCH  19  20
ENDBRANCH   1  19
BRANCH   1  30
HETATM   30  N4  UNL     1      -0.978   2.401  -1.403  1.00  0.00    -0.361 N 
HETATM   31  C21 UNL     1      -1.094   3.301  -0.580  1.00  0.00    -0.009 C 
HETATM   32  C22 UNL     1      -1.553   3.280   0.827  1.00  0.00     0.057 C 
HETATM   33  C26 UNL     1      -0.751   4.733  -0.870  1.00  0.00     0.032 C 
HETATM   34  C23 UNL     1      -1.325   4.699   1.320  1.00  0.00    -0.009 C 
HETATM   35  C24 UNL     1       0.139   4.964   1.340  1.00  0.00     0.005 C 
HETATM   36  C27 UNL     1      -1.741   5.443   0.035  1.00  0.00     0.015 C 
HETATM   37  C25 UNL     1       0.529   5.047  -0.129  1.00  0.00     0.011 C 
ATOM     38  H4  UNL     1      -0.633   2.724  -2.307  1.00  0.00     0.165 HD
ENDBRANCH   1  30
TORSDOF 9
