REMARK  10 active torsions:
REMARK  status: ('A' for Active; 'I' for Inactive)
REMARK    1  A    between atoms: C2_2  and  C4_4 
REMARK    2  A    between atoms: C4_4  and  N1_5 
REMARK    3  A    between atoms: C4_4  and  C10_14 
REMARK       I    between atoms: N1_5  and  C5_7 
REMARK    4  A    between atoms: C5_7  and  O2_9 
REMARK    5  A    between atoms: O2_9  and  C6_10 
REMARK       I    between atoms: C10_14  and  N2_16 
REMARK    6  A    between atoms: N2_16  and  C11_18 
REMARK    7  A    between atoms: C11_18  and  C12_19 
REMARK    8  A    between atoms: C11_18  and  C23_34 
REMARK       I    between atoms: C12_19  and  N3_21 
REMARK    9  A    between atoms: N3_21  and  C13_23 
REMARK   10  A    between atoms: C18_28  and  C19_29 
ROOT
HETATM    1  C11 UNL     1      -0.612  -0.812   0.909  1.00  0.00     0.180 C 
ENDROOT
BRANCH   1   2
HETATM    2  N2  UNL     1       0.439  -1.271   0.017  1.00  0.00    -0.346 N 
HETATM    3  C10 UNL     1       1.747  -0.734   0.069  1.00  0.00     0.241 C 
HETATM    4  O3  UNL     1       1.956   0.161   0.958  1.00  0.00    -0.271 OA
ATOM      5  H2  UNL     1       0.228  -2.000  -0.665  1.00  0.00     0.163 HD
BRANCH   3   6
HETATM    6  C4  UNL     1       2.888  -1.087  -0.777  1.00  0.00     0.182 C 
BRANCH   6   7
HETATM    7  C2  UNL     1       2.792  -0.555  -2.200  1.00  0.00     0.009 C 
HETATM    8  C1  UNL     1       1.427  -0.908  -2.802  1.00  0.00     0.012 C 
HETATM    9  C3  UNL     1       3.747  -1.390  -3.093  1.00  0.00     0.012 C 
ENDBRANCH   6   7
BRANCH   6  10
HETATM   10  N1  UNL     1       4.119  -0.690  -0.146  1.00  0.00    -0.323 N 
HETATM   11  C5  UNL     1       5.238   0.002  -0.552  1.00  0.00     0.362 C 
HETATM   12  O1  UNL     1       5.501   0.527  -1.669  1.00  0.00    -0.238 OA
ATOM     13  H1  UNL     1       4.176  -0.991   0.827  1.00  0.00     0.165 HD
BRANCH  11  14
HETATM   14  O2  UNL     1       6.312   0.202   0.367  1.00  0.00    -0.294 OA
BRANCH  14  15
HETATM   15  C6  UNL     1       7.478   0.887   0.063  1.00  0.00     0.061 C 
HETATM   16  C7  UNL     1       7.329   2.323  -0.323  1.00  0.00     0.046 C 
HETATM   17  C8  UNL     1       8.295   0.198  -1.019  1.00  0.00     0.046 C 
HETATM   18  C9  UNL     1       8.334   0.867   1.337  1.00  0.00     0.046 C 
ENDBRANCH  14  15
ENDBRANCH  11  14
ENDBRANCH   6  10
ENDBRANCH   3   6
ENDBRANCH   1   2
BRANCH   1  19
HETATM   19  C12 UNL     1      -1.865  -0.688   0.143  1.00  0.00     0.241 C 
HETATM   20  O4  UNL     1      -1.892  -1.046  -1.068  1.00  0.00    -0.271 OA
HETATM   21  N3  UNL     1      -3.033  -0.170   0.759  1.00  0.00    -0.353 N 
ATOM     22  H3  UNL     1      -3.016   0.133   1.733  1.00  0.00     0.163 HD
BRANCH  21  23
HETATM   23  C13 UNL     1      -4.226  -0.081  -0.005  1.00  0.00     0.100 C 
HETATM   24  C14 UNL     1      -5.509  -0.273   0.706  1.00  0.00     0.018 C 
HETATM   25  C15 UNL     1      -6.486   0.144  -0.430  1.00  0.00     0.018 C 
HETATM   26  C20 UNL     1      -5.917   1.041   1.307  1.00  0.00    -0.034 C 
HETATM   27  C16 UNL     1      -5.907   1.511  -0.136  1.00  0.00    -0.025 C 
HETATM   28  C17 UNL     1      -6.632   2.700  -0.521  1.00  0.00     0.017 C 
HETATM   29  C18 UNL     1      -4.470   1.346  -0.550  1.00  0.00     0.079 C 
HETATM   30  C21 UNL     1      -4.997   1.747   2.226  1.00  0.00     0.016 C 
HETATM   31  C22 UNL     1      -7.304   0.940   1.908  1.00  0.00     0.016 C 
BRANCH  29  32
HETATM   32  C19 UNL     1      -4.303   1.369  -2.032  1.00  0.00     0.238 C 
HETATM   33  O5  UNL     1      -4.327   2.451  -2.584  1.00  0.00    -0.306 OA
ENDBRANCH  29  32
ENDBRANCH  21  23
ENDBRANCH   1  19
BRANCH   1  34
HETATM   34  C23 UNL     1      -0.892  -1.858   1.990  1.00  0.00     0.009 C 
HETATM   35  C24 UNL     1      -1.337  -3.175   1.426  1.00  0.00     0.012 C 
HETATM   36  C25 UNL     1       0.332  -2.001   2.875  1.00  0.00     0.012 C 
ENDBRANCH   1  34
TORSDOF 10
