REMARK  12 active torsions:
REMARK  status: ('A' for Active; 'I' for Inactive)
REMARK    1  A    between atoms: C2_2  and  C4_4 
REMARK    2  A    between atoms: C4_4  and  C5_5 
REMARK    3  A    between atoms: C7_10  and  C8_11 
REMARK    4  A    between atoms: C8_11  and  C9_12 
REMARK    5  A    between atoms: C12_16  and  O3_17 
REMARK    6  A    between atoms: C13_19  and  C14_20 
REMARK    7  A    between atoms: C14_20  and  C15_21 
REMARK    8  A    between atoms: C18_24  and  C19_25 
REMARK    9  A    between atoms: C19_25  and  C20_26 
REMARK   10  A    between atoms: C23_29  and  O4_30 
REMARK   11  A    between atoms: C24_34  and  N3_35 
REMARK   12  A    between atoms: C25_38  and  O5_39 
ROOT
HETATM    1  C5  UNL     1       2.603  -0.959   0.638  1.00  0.00     0.145 C 
HETATM    2  N1  UNL     1       2.917   0.480   0.814  1.00  0.00    -0.348 N 
ATOM      3  H1  UNL     1       3.676   0.680   1.465  1.00  0.00     0.163 HD
HETATM    4  C6  UNL     1       2.339   1.590   0.232  1.00  0.00     0.247 C 
HETATM    5  O1  UNL     1       3.128   2.350  -0.450  1.00  0.00    -0.271 OA
HETATM    6  C7  UNL     1       0.931   2.064   0.263  1.00  0.00     0.216 C 
HETATM    7  O2  UNL     1       0.268   1.910  -0.932  1.00  0.00    -0.346 OA
HETATM    8  C12 UNL     1      -0.617   1.029  -1.432  1.00  0.00     0.262 C 
HETATM    9  C13 UNL     1      -1.751   0.353  -0.836  1.00  0.00     0.053 C 
HETATM   10  C18 UNL     1      -1.366  -0.786   0.052  1.00  0.00     0.069 C 
HETATM   11  C23 UNL     1      -1.058  -2.041  -0.681  1.00  0.00     0.121 C 
HETATM   12  N2  UNL     1       0.172  -2.606  -1.004  1.00  0.00    -0.325 N 
ATOM     13  H2  UNL     1       0.175  -3.621  -0.899  1.00  0.00     0.169 HD
HETATM   14  C24 UNL     1       1.423  -2.103  -1.445  1.00  0.00     0.132 C 
HETATM   15  C25 UNL     1       2.372  -1.269  -0.776  1.00  0.00     0.109 C 
ENDROOT
BRANCH   1  16
HETATM   16  C4  UNL     1       3.769  -1.738   1.199  1.00  0.00     0.036 C 
BRANCH  16  17
HETATM   17  C2  UNL     1       3.739  -3.197   1.178  1.00  0.00    -0.020 C 
HETATM   18  C1  UNL     1       2.590  -3.861   1.904  1.00  0.00     0.009 C 
HETATM   19  C3  UNL     1       4.003  -3.895  -0.113  1.00  0.00     0.009 C 
ENDBRANCH  16  17
ENDBRANCH   1  16
BRANCH  15  20
HETATM   20  O5  UNL     1       3.218  -0.637  -1.539  1.00  0.00    -0.359 OA
ATOM     21  H5  UNL     1       3.068  -0.838  -2.455  1.00  0.00     0.217 HD
ENDBRANCH  15  20
BRANCH  14  22
HETATM   22  N3  UNL     1       1.803  -2.461  -2.692  1.00  0.00    -0.383 N 
ATOM     23  H32 UNL     1       1.126  -3.056  -3.169  1.00  0.00     0.157 HD
ATOM     24  H31 UNL     1       2.702  -2.099  -3.009  1.00  0.00     0.157 HD
ENDBRANCH  14  22
BRANCH   6  25
HETATM   25  C8  UNL     1       0.817   3.502   0.787  1.00  0.00     0.045 C 
BRANCH  25  26
HETATM   26  C9  UNL     1       1.507   4.546   0.021  1.00  0.00    -0.020 C 
HETATM   27  C10 UNL     1       1.052   4.683  -1.412  1.00  0.00     0.009 C 
HETATM   28  C11 UNL     1       1.052   5.875   0.688  1.00  0.00     0.009 C 
ENDBRANCH  25  26
ENDBRANCH   6  25
BRANCH  11  29
HETATM   29  O4  UNL     1      -2.194  -2.592  -1.011  1.00  0.00    -0.349 OA
ATOM     30  H4  UNL     1      -1.997  -3.395  -1.480  1.00  0.00     0.219 HD
ENDBRANCH  11  29
BRANCH   8  31
HETATM   31  O3  UNL     1      -0.417   0.732  -2.682  1.00  0.00    -0.371 OA
ATOM     32  H3  UNL     1      -1.042   0.110  -3.035  1.00  0.00     0.212 HD
ENDBRANCH   8  31
BRANCH  10  33
HETATM   33  C19 UNL     1      -2.528  -1.056   1.047  1.00  0.00     0.017 C 
BRANCH  33  34
HETATM   34  C20 UNL     1      -2.180  -2.185   1.968  1.00  0.00    -0.022 C 
HETATM   35  C21 UNL     1      -3.297  -2.488   2.941  1.00  0.00     0.009 C 
HETATM   36  C22 UNL     1      -0.933  -1.777   2.760  1.00  0.00     0.009 C 
ENDBRANCH  33  34
ENDBRANCH  10  33
BRANCH   9  37
HETATM   37  C14 UNL     1      -2.832  -0.012  -1.830  1.00  0.00     0.014 C 
BRANCH  37  38
HETATM   38  C15 UNL     1      -3.386   1.221  -2.519  1.00  0.00    -0.022 C 
HETATM   39  C16 UNL     1      -3.991   2.182  -1.486  1.00  0.00     0.009 C 
HETATM   40  C17 UNL     1      -4.519   0.855  -3.454  1.00  0.00     0.009 C 
ENDBRANCH  37  38
ENDBRANCH   9  37
TORSDOF 12
