REMARK  12 active torsions:
REMARK  status: ('A' for Active; 'I' for Inactive)
REMARK    1  A    between atoms: C2_2  and  C3_3 
REMARK    2  A    between atoms: N1_6  and  C6_7 
REMARK    3  A    between atoms: C6_7  and  O1_8 
REMARK    4  A    between atoms: C7_10  and  N2_11 
REMARK    5  A    between atoms: C7_10  and  C13_20 
REMARK       I    between atoms: N2_11  and  C8_13 
REMARK    6  A    between atoms: C8_13  and  O3_15 
REMARK    7  A    between atoms: O3_15  and  C9_16 
REMARK    8  A    between atoms: C17_24  and  C18_25 
REMARK       I    between atoms: C18_25  and  N3_27 
REMARK    9  A    between atoms: N3_27  and  C19_29 
REMARK   10  A    between atoms: C19_29  and  C20_30 
REMARK   11  A    between atoms: C19_29  and  C24_34 
REMARK   12  A    between atoms: C20_30  and  C21_31 
ROOT
HETATM    1  C3  UNL     1      -2.293  -2.162   1.460  1.00  0.00     0.019 C 
HETATM    2  C4  UNL     1      -1.505  -3.440   1.356  1.00  0.00     0.027 C 
HETATM    3  C5  UNL     1      -0.507  -3.114   0.223  1.00  0.00     0.126 C 
HETATM    4  N1  UNL     1      -0.187  -1.776   0.445  1.00  0.00    -0.346 N 
HETATM    5  C17 UNL     1      -1.301  -1.132   1.178  1.00  0.00     0.182 C 
ENDROOT
BRANCH   4   6
HETATM    6  C6  UNL     1       0.937  -1.005   0.059  1.00  0.00     0.163 C 
HETATM    7  C7  UNL     1       2.099  -1.187  -0.755  1.00  0.00     0.072 C 
BRANCH   6   8
HETATM    8  O1  UNL     1       0.925   0.236   0.588  1.00  0.00    -0.345 OA
ATOM      9  H1  UNL     1       1.679   0.753   0.329  1.00  0.00     0.219 HD
ENDBRANCH   6   8
BRANCH   7  10
HETATM   10  N2  UNL     1       3.138  -0.174  -0.432  1.00  0.00    -0.301 N 
HETATM   11  C8  UNL     1       3.368   0.988  -1.210  1.00  0.00     0.365 C 
HETATM   12  O2  UNL     1       2.723   1.288  -2.242  1.00  0.00    -0.238 OA
ATOM     13  H2  UNL     1       3.717  -0.323   0.394  1.00  0.00     0.171 HD
BRANCH  11  14
HETATM   14  O3  UNL     1       4.380   1.892  -0.824  1.00  0.00    -0.294 OA
BRANCH  14  15
HETATM   15  C9  UNL     1       4.640   3.053  -1.549  1.00  0.00     0.061 C 
HETATM   16  C10 UNL     1       3.417   3.963  -1.600  1.00  0.00     0.046 C 
HETATM   17  C11 UNL     1       5.219   2.824  -2.916  1.00  0.00     0.046 C 
HETATM   18  C12 UNL     1       5.699   3.834  -0.748  1.00  0.00     0.046 C 
ENDBRANCH  14  15
ENDBRANCH  11  14
ENDBRANCH   7  10
BRANCH   7  19
HETATM   19  C13 UNL     1       2.738  -2.470  -1.081  1.00  0.00    -0.004 C 
HETATM   20  C14 UNL     1       4.005  -2.100  -1.958  1.00  0.00     0.021 C 
HETATM   21  C15 UNL     1       3.322  -3.239   0.064  1.00  0.00     0.021 C 
HETATM   22  C16 UNL     1       1.980  -3.399  -1.986  1.00  0.00     0.021 C 
ENDBRANCH   7  19
ENDBRANCH   4   6
BRANCH   5  23
HETATM   23  C18 UNL     1      -1.819   0.011   0.391  1.00  0.00     0.241 C 
HETATM   24  O4  UNL     1      -1.587   0.070  -0.826  1.00  0.00    -0.271 OA
HETATM   25  N3  UNL     1      -2.564   1.017   1.024  1.00  0.00    -0.345 N 
ATOM     26  H3  UNL     1      -2.731   0.950   2.028  1.00  0.00     0.163 HD
BRANCH  25  27
HETATM   27  C19 UNL     1      -3.108   2.155   0.292  1.00  0.00     0.186 C 
BRANCH  27  28
HETATM   28  C20 UNL     1      -4.503   2.466   0.698  1.00  0.00     0.041 C 
BRANCH  28  29
HETATM   29  C21 UNL     1      -5.482   1.324   0.490  1.00  0.00    -0.012 A 
HETATM   30  C22 UNL     1      -6.935   1.617   0.906  1.00  0.00     0.005 A 
HETATM   31  C23 UNL     1      -6.066   0.646   1.678  1.00  0.00     0.005 A 
ENDBRANCH  28  29
ENDBRANCH  27  28
BRANCH  27  32
HETATM   32  C24 UNL     1      -2.284   3.371   0.550  1.00  0.00     0.196 C 
HETATM   33  O5  UNL     1      -1.291   3.314   1.305  1.00  0.00    -0.646 OA
HETATM   34  O6  UNL     1      -2.614   4.567  -0.046  1.00  0.00    -0.646 OA
ENDBRANCH  27  32
ENDBRANCH  25  27
ENDBRANCH   5  23
BRANCH   1  35
HETATM   35  C2  UNL     1      -2.957  -2.037   2.824  1.00  0.00     0.002 C 
HETATM   36  C1  UNL     1      -3.898  -3.198   3.072  1.00  0.00     0.005 C 
ENDBRANCH   1  35
TORSDOF 12
