REMARK  9 active torsions:
REMARK  status: ('A' for Active; 'I' for Inactive)
REMARK    1  A    between atoms: C4_6  and  O3_7 
REMARK    2  A    between atoms: C6_10  and  O4_11 
REMARK    3  A    between atoms: C12_20  and  C13_21 
REMARK    4  A    between atoms: C17_27  and  O9_28 
REMARK    5  A    between atoms: C18_30  and  O10_31 
REMARK    6  A    between atoms: O10_31  and  C19_32 
REMARK    7  A    between atoms: C23_41  and  O15_42 
REMARK    8  A    between atoms: C25_47  and  O18_48 
REMARK    9  A    between atoms: C26_50  and  O19_51 
ROOT
HETATM    1  C13 UNL     1      -0.650   1.410   1.437  1.00  0.00     0.150 A 
HETATM    2  O7  UNL     1      -0.446   2.675   1.827  1.00  0.00    -0.269 OA
HETATM    3  C14 UNL     1       0.692   3.176   2.138  1.00  0.00     0.300 A 
HETATM    4  O8  UNL     1       0.844   4.378   2.503  1.00  0.00    -0.259 OA
HETATM    5  C15 UNL     1       1.851   2.414   2.091  1.00  0.00     0.088 A 
HETATM    6  C16 UNL     1       1.754   1.104   1.703  1.00  0.00     0.053 A 
HETATM    7  C17 UNL     1       0.464   0.607   1.373  1.00  0.00     0.116 A 
HETATM    8  C18 UNL     1       2.934   0.274   1.653  1.00  0.00     0.110 A 
HETATM    9  C24 UNL     1       4.111   0.829   2.003  1.00  0.00     0.176 A 
HETATM   10  O17 UNL     1       4.204   2.130   2.392  1.00  0.00    -0.325 OA
HETATM   11  C25 UNL     1       3.148   3.019   2.452  1.00  0.00     0.304 A 
ENDROOT
BRANCH   1  12
HETATM   12  C12 UNL     1      -2.010   1.024   1.124  1.00  0.00     0.147 A 
HETATM   13  O6  UNL     1      -3.049   1.868   1.286  1.00  0.00    -0.300 OA
HETATM   14  C11 UNL     1      -4.161   1.353   0.958  1.00  0.00     0.147 A 
HETATM   15  C1  UNL     1      -5.484   2.029   1.023  1.00  0.00     0.257 C 
HETATM   16  C10 UNL     1      -3.918   0.072   0.539  1.00  0.00     0.089 A 
HETATM   17  O1  UNL     1      -5.531   2.978   1.846  1.00  0.00    -0.281 OA
HETATM   18  C2  UNL     1      -6.677   1.718   0.263  1.00  0.00     0.238 C 
HETATM   19  O2  UNL     1      -7.541   2.606   0.237  1.00  0.00    -0.283 OA
HETATM   20  C3  UNL     1      -6.970   0.474  -0.472  1.00  0.00     0.066 A 
HETATM   21  C4  UNL     1      -8.179   0.584  -1.103  1.00  0.00     0.083 A 
HETATM   22  C8  UNL     1      -6.188  -0.660  -0.550  1.00  0.00     0.035 A 
HETATM   23  C5  UNL     1      -8.629  -0.486  -1.843  1.00  0.00     0.074 A 
HETATM   24  C6  UNL     1      -7.863  -1.642  -1.939  1.00  0.00     0.069 A 
HETATM   25  C7  UNL     1      -6.644  -1.717  -1.288  1.00  0.00     0.053 A 
HETATM   26  C9  UNL     1      -4.868  -0.919   0.073  1.00  0.00     0.199 C 
HETATM   27  O5  UNL     1      -4.575  -2.112   0.196  1.00  0.00    -0.286 OA
HETATM   28  C26 UNL     1      -2.541  -0.127   0.648  1.00  0.00     0.119 A 
BRANCH  21  29
HETATM   29  O3  UNL     1      -8.947   1.741  -1.007  1.00  0.00    -0.360 OA
ATOM     30  H3  UNL     1      -9.786   1.817  -1.445  1.00  0.00     0.217 HD
ENDBRANCH  21  29
BRANCH  24  31
HETATM   31  O4  UNL     1      -8.355  -2.693  -2.696  1.00  0.00    -0.361 OA
ATOM     32  H4  UNL     1      -7.832  -3.483  -2.762  1.00  0.00     0.217 HD
ENDBRANCH  24  31
BRANCH  28  33
HETATM   33  O19 UNL     1      -1.950  -1.287   0.312  1.00  0.00    -0.357 OA
ATOM     34  H19 UNL     1      -1.013  -1.422   0.386  1.00  0.00     0.218 HD
ENDBRANCH  28  33
ENDBRANCH   1  12
BRANCH   7  35
HETATM   35  O9  UNL     1       0.350  -0.656   1.003  1.00  0.00    -0.357 OA
ATOM     36  H9  UNL     1       1.120  -1.211   0.959  1.00  0.00     0.217 HD
ENDBRANCH   7  35
BRANCH   8  37
HETATM   37  O10 UNL     1       2.898  -1.042   1.264  1.00  0.00    -0.294 OA
BRANCH  37  38
HETATM   38  C19 UNL     1       3.688  -1.531   0.202  1.00  0.00     0.419 C 
HETATM   39  O11 UNL     1       3.342  -0.817  -0.944  1.00  0.00    -0.336 OA
HETATM   40  C20 UNL     1       4.438  -0.903  -1.799  1.00  0.00     0.217 C 
HETATM   41  C21 UNL     1       5.596  -1.276  -0.912  1.00  0.00     0.152 C 
HETATM   42  C22 UNL     1       6.592  -0.173  -0.936  1.00  0.00     0.234 C 
HETATM   43  C23 UNL     1       6.262  -2.522  -1.442  1.00  0.00     0.307 C 
HETATM   44  O16 UNL     1       5.037  -1.459   0.349  1.00  0.00    -0.319 OA
HETATM   45  O12 UNL     1       7.778  -0.636  -0.372  1.00  0.00    -0.271 OA
HETATM   46  S1  UNL     1       7.995  -2.073  -1.258  1.00  0.00     0.295 S 
HETATM   47  O13 UNL     1       8.613  -1.717  -2.558  1.00  0.00    -0.196 OA
HETATM   48  O14 UNL     1       8.754  -3.083  -0.488  1.00  0.00    -0.196 OA
BRANCH  43  49
HETATM   49  O15 UNL     1       5.939  -2.810  -2.743  1.00  0.00    -0.375 OA
ATOM     50  H15 UNL     1       6.358  -3.594  -3.077  1.00  0.00     0.211 HD
ENDBRANCH  43  49
ENDBRANCH  37  38
ENDBRANCH   8  37
BRANCH  11  51
HETATM   51  O18 UNL     1       3.386   4.018   1.490  1.00  0.00    -0.366 OA
ATOM     52  H18 UNL     1       4.221   4.407   1.722  1.00  0.00     0.213 HD
ENDBRANCH  11  51
TORSDOF 9
