REMARK  8 active torsions:
REMARK  status: ('A' for Active; 'I' for Inactive)
REMARK    1  A    between atoms: N2_9  and  C7_10 
REMARK    2  A    between atoms: C7_10  and  O2_11 
REMARK    3  A    between atoms: C7_10  and  N3_13 
REMARK    4  A    between atoms: N4_16  and  C10_17 
REMARK    5  A    between atoms: C12_19  and  O3_20 
REMARK    6  A    between atoms: C13_22  and  O4_23 
REMARK    7  A    between atoms: N5_28  and  O5_29 
REMARK    8  A    between atoms: C17_31  and  C18_32 
ROOT
HETATM    1  C18 UNL     1      -3.191   2.593   0.149  1.00  0.00     0.113 A 
HETATM    2  C19 UNL     1      -2.222   3.419  -0.381  1.00  0.00     0.161 A 
HETATM    3  N6  UNL     1      -2.563   4.681  -0.074  1.00  0.00    -0.090 N 
HETATM    4  C20 UNL     1      -1.859   5.864  -0.412  1.00  0.00     0.203 C 
HETATM    5  N7  UNL     1      -1.278   6.825  -0.671  1.00  0.00    -0.171 NA
HETATM    6  C21 UNL     1      -3.702   4.663   0.622  1.00  0.00     0.692 A 
HETATM    7  N8  UNL     1      -4.369   5.667   1.108  1.00  0.00    -0.233 N 
ATOM      8  H81 UNL     1      -5.239   5.653   1.640  1.00  0.00     0.174 HD
ATOM      9  H82 UNL     1      -4.080   6.640   1.006  1.00  0.00     0.174 HD
HETATM   10  N9  UNL     1      -4.080   3.389   0.755  1.00  0.00    -0.186 N 
ATOM     11  H9  UNL     1      -4.917   3.072   1.243  1.00  0.00     0.184 HD
ENDROOT
BRANCH   1  12
HETATM   12  C17 UNL     1      -3.190   1.117   0.037  1.00  0.00     0.164 A 
HETATM   13  N5  UNL     1      -4.375   0.356  -0.035  1.00  0.00    -0.202 N 
HETATM   14  C16 UNL     1      -4.314  -1.077  -0.150  1.00  0.00     0.118 A 
HETATM   15  C11 UNL     1      -3.053  -1.652  -0.186  1.00  0.00     0.078 A 
HETATM   16  C15 UNL     1      -5.463  -1.816  -0.221  1.00  0.00     0.142 A 
HETATM   17  C10 UNL     1      -1.950  -0.944  -0.120  1.00  0.00     0.145 A 
HETATM   18  C12 UNL     1      -2.996  -3.039  -0.299  1.00  0.00     0.116 A 
HETATM   19  N10 UNL     1      -2.071   0.510  -0.004  1.00  0.00    -0.323 N 
ATOM     20  H10 UNL     1      -1.217   1.065   0.047  1.00  0.00     0.169 HD
HETATM   21  C13 UNL     1      -4.167  -3.802  -0.371  1.00  0.00     0.113 A 
HETATM   22  C14 UNL     1      -5.377  -3.167  -0.330  1.00  0.00     0.040 A 
HETATM   23  C23 UNL     1      -6.482  -3.894  -0.400  1.00  0.00     0.036 A 
HETATM   24  C22 UNL     1      -7.748  -3.190  -0.354  1.00  0.00     0.115 A 
HETATM   25  N11 UNL     1      -7.822  -1.896  -0.249  1.00  0.00    -0.272 N 
HETATM   26  O6  UNL     1      -6.684  -1.133  -0.177  1.00  0.00    -0.235 OA
ATOM     27  H11 UNL     1      -8.736  -1.443  -0.220  1.00  0.00     0.194 HD
BRANCH  13  28
HETATM   28  O5  UNL     1      -5.578   0.962   0.008  1.00  0.00    -0.281 OA
ATOM     29  H5  UNL     1      -5.618   1.908   0.084  1.00  0.00     0.245 HD
ENDBRANCH  13  28
BRANCH  17  30
HETATM   30  N4  UNL     1      -0.674  -1.500  -0.156  1.00  0.00    -0.233 N 
HETATM   31  C9  UNL     1       0.054  -1.495  -1.431  1.00  0.00     0.178 C 
HETATM   32  C8  UNL     1       1.381  -2.203  -1.216  1.00  0.00     0.156 C 
HETATM   33  N3  UNL     1       2.052  -1.333  -0.129  1.00  0.00    -0.267 N 
HETATM   34  C24 UNL     1       1.252  -1.311   1.024  1.00  0.00     0.379 C 
HETATM   35  O7  UNL     1      -0.000  -2.005   0.869  1.00  0.00    -0.193 OA
HETATM   36  N12 UNL     1       1.878  -1.959   2.174  1.00  0.00    -0.260 N 
HETATM   37  O9  UNL     1       1.089  -0.203   1.845  1.00  0.00    -0.225 OA
HETATM   38  C25 UNL     1       1.104  -1.052   2.986  1.00  0.00     0.371 C 
ATOM     39  H12 UNL     1       2.552  -2.708   2.331  1.00  0.00     0.172 HD
HETATM   40  O8  UNL     1       0.676  -1.063   4.151  1.00  0.00    -0.238 OA
BRANCH  33  41
HETATM   41  C7  UNL     1       3.241  -0.812  -0.562  1.00  0.00     0.251 C 
BRANCH  41  42
HETATM   42  N2  UNL     1       4.285  -0.004  -0.110  1.00  0.00    -0.165 N 
HETATM   43  C6  UNL     1       4.628   0.639   0.985  1.00  0.00     0.356 A 
HETATM   44  N1  UNL     1       5.822   1.316   0.855  1.00  0.00    -0.257 N 
HETATM   45  O1  UNL     1       4.020   0.698   2.071  1.00  0.00    -0.244 OA
HETATM   46  C5  UNL     1       6.542   2.085   1.685  1.00  0.00     0.103 A 
HETATM   47  C26 UNL     1       6.220   1.064  -0.393  1.00  0.00     0.137 A 
HETATM   48  C4  UNL     1       7.727   2.654   1.297  1.00  0.00     0.018 A 
HETATM   49  C3  UNL     1       8.143   2.392  -0.002  1.00  0.00     0.012 A 
HETATM   50  C2  UNL     1       7.412   1.610  -0.850  1.00  0.00    -0.016 A 
HETATM   51  C1  UNL     1       7.854   1.338  -2.216  1.00  0.00     0.052 C 
HETATM   52  N13 UNL     1       5.318   0.283  -0.975  1.00  0.00    -0.271 N 
ATOM     53  H13 UNL     1       5.381  -0.059  -1.934  1.00  0.00     0.189 HD
ENDBRANCH  41  42
BRANCH  41  54
HETATM   54  O2  UNL     1       3.501  -1.196  -1.844  1.00  0.00    -0.331 OA
ATOM     55  H2  UNL     1       2.790  -1.746  -2.152  1.00  0.00     0.221 HD
ENDBRANCH  41  54
ENDBRANCH  33  41
ENDBRANCH  17  30
BRANCH  18  56
HETATM   56  O3  UNL     1      -1.783  -3.669  -0.339  1.00  0.00    -0.357 OA
ATOM     57  H3  UNL     1      -1.744  -4.615  -0.416  1.00  0.00     0.217 HD
ENDBRANCH  18  56
BRANCH  21  58
HETATM   58  O4  UNL     1      -4.086  -5.187  -0.483  1.00  0.00    -0.357 OA
ATOM     59  H4  UNL     1      -4.881  -5.705  -0.532  1.00  0.00     0.217 HD
ENDBRANCH  21  58
ENDBRANCH   1  12
TORSDOF 8
