REMARK  6 active torsions:
REMARK  status: ('A' for Active; 'I' for Inactive)
REMARK    1  A    between atoms: C2_2  and  C3_3 
REMARK    2  A    between atoms: C3_3  and  C4_4 
REMARK    3  A    between atoms: C5_7  and  O1_8 
REMARK       I    between atoms: N9_37  and  C13_39 
REMARK    4  A    between atoms: C13_39  and  O8_41 
REMARK    5  A    between atoms: C16_44  and  C17_45 
REMARK    6  A    between atoms: N13_57  and  O11_59 
ROOT
HETATM    1  C4  UNL     1      -3.592  -1.820  -0.178  1.00  0.00     0.157 C 
HETATM    2  N1  UNL     1      -4.058  -0.502   0.078  1.00  0.00    -0.367 N 
ATOM      3  H1  UNL     1      -4.837  -0.319   0.710  1.00  0.00     0.158 HD
HETATM    4  C5  UNL     1      -3.372   0.555  -0.602  1.00  0.00     0.364 C 
HETATM    5  N2  UNL     1      -3.578   1.846   0.016  1.00  0.00    -0.061 N 
HETATM    6  N3  UNL     1      -4.588   2.690  -0.252  1.00  0.00    -0.112 N 
ATOM      7  H3  UNL     1      -5.330   2.518  -0.930  1.00  0.00     0.206 HD
HETATM    8  C6  UNL     1      -4.477   3.786   0.500  1.00  0.00     0.705 A 
HETATM    9  N4  UNL     1      -5.254   4.834   0.536  1.00  0.00    -0.233 N 
ATOM     10  H41 UNL     1      -5.169   5.672   1.111  1.00  0.00     0.174 HD
ATOM     11  H42 UNL     1      -6.089   4.952  -0.038  1.00  0.00     0.174 HD
HETATM   12  N5  UNL     1      -3.396   3.633   1.243  1.00  0.00    -0.019 N 
ATOM     13  H5  UNL     1      -3.041   4.303   1.925  1.00  0.00     0.203 HD
HETATM   14  C7  UNL     1      -2.830   2.418   0.941  1.00  0.00     0.722 A 
HETATM   15  N6  UNL     1      -1.657   1.902   1.542  1.00  0.00    -0.133 N 
ATOM     16  H6  UNL     1      -1.649   1.838   2.560  1.00  0.00     0.190 HD
HETATM   17  C8  UNL     1      -0.489   1.465   0.858  1.00  0.00     0.379 C 
HETATM   18  O2  UNL     1       0.157   0.484   1.379  1.00  0.00    -0.238 OA
HETATM   19  O3  UNL     1      -0.009   2.021  -0.318  1.00  0.00    -0.302 OA
HETATM   20  C9  UNL     1       0.251   3.374  -0.550  1.00  0.00     0.197 C 
HETATM   21  C10 UNL     1       1.668   3.610  -1.045  1.00  0.00     0.191 C 
HETATM   22  S1  UNL     1       2.764   4.039   0.256  1.00  0.00     0.245 S 
HETATM   23  O4  UNL     1       3.584   5.219  -0.148  1.00  0.00    -0.204 OA
HETATM   24  O5  UNL     1       1.967   4.457   1.471  1.00  0.00    -0.204 OA
HETATM   25  N7  UNL     1       3.868   2.766   0.664  1.00  0.00    -0.224 N 
ATOM     26  H7  UNL     1       4.831   2.763   0.327  1.00  0.00     0.200 HD
HETATM   27  N8  UNL     1       3.418   1.841   1.401  1.00  0.00    -0.255 N 
ATOM     28  H8  UNL     1       2.444   1.916   1.695  1.00  0.00     0.191 HD
HETATM   29  C11 UNL     1       4.140   0.713   1.854  1.00  0.00     0.283 C 
HETATM   30  O6  UNL     1       4.060   0.359   3.060  1.00  0.00    -0.265 OA
HETATM   31  C12 UNL     1       5.005  -0.101   0.992  1.00  0.00     0.086 C 
HETATM   32  N9  UNL     1       6.195  -0.395   1.377  1.00  0.00    -0.301 N 
ATOM     33  H9  UNL     1       6.463  -0.028   2.290  1.00  0.00     0.171 HD
HETATM   34  C13 UNL     1       7.169  -1.142   0.726  1.00  0.00     0.364 C 
HETATM   35  O7  UNL     1       6.958  -2.316   0.374  1.00  0.00    -0.238 OA
HETATM   36  C15 UNL     1       4.560  -0.619  -0.341  1.00  0.00     0.097 C 
HETATM   37  C16 UNL     1       3.688  -1.826  -0.190  1.00  0.00     0.176 C 
HETATM   38  N10 UNL     1       2.514  -1.696  -1.046  1.00  0.00    -0.275 N 
HETATM   39  C18 UNL     1       2.373  -1.132  -2.252  1.00  0.00     0.202 A 
HETATM   40  N11 UNL     1       1.081  -1.280  -2.630  1.00  0.00    -0.338 N 
ATOM     41  H11 UNL     1       0.658  -0.956  -3.500  1.00  0.00     0.168 HD
HETATM   42  C19 UNL     1       0.466  -1.937  -1.633  1.00  0.00     0.121 A 
HETATM   43  N12 UNL     1       1.377  -2.188  -0.652  1.00  0.00    -0.283 N 
ATOM     44  H12 UNL     1       1.200  -2.672   0.228  1.00  0.00     0.188 HD
HETATM   45  C20 UNL     1      -0.957  -2.366  -1.525  1.00  0.00     0.255 C 
HETATM   46  O10 UNL     1      -1.238  -2.631  -0.194  1.00  0.00    -0.329 OA
HETATM   47  C21 UNL     1      -2.325  -2.178   0.540  1.00  0.00     0.161 C 
HETATM   48  N13 UNL     1      -2.210  -2.083   1.805  1.00  0.00    -0.249 N 
ATOM     49  H13 UNL     1      -1.298  -2.358   2.171  1.00  0.00     0.196 HD
ENDROOT
BRANCH  34  50
HETATM   50  O8  UNL     1       8.432  -0.602   0.440  1.00  0.00    -0.309 OA
HETATM   51  C14 UNL     1       9.440  -1.326  -0.217  1.00  0.00     0.215 C 
ENDBRANCH  34  50
BRANCH  37  52
HETATM   52  C17 UNL     1       3.304  -2.075   1.217  1.00  0.00     0.258 C 
HETATM   53  O9  UNL     1       3.971  -2.826   1.897  1.00  0.00    -0.305 OA
ENDBRANCH  37  52
BRANCH   1  54
HETATM   54  C3  UNL     1      -4.614  -2.852   0.239  1.00  0.00     0.033 C 
BRANCH  54  55
HETATM   55  C2  UNL     1      -5.927  -2.752  -0.457  1.00  0.00    -0.002 C 
HETATM   56  C1  UNL     1      -6.624  -1.441  -0.239  1.00  0.00     0.005 C 
ENDBRANCH  54  55
ENDBRANCH   1  54
BRANCH  48  57
HETATM   57  O11 UNL     1      -3.085  -1.683   2.733  1.00  0.00    -0.288 OA
ATOM     58  H11 UNL     1      -2.999  -1.612   3.676  1.00  0.00     0.244 HD
ENDBRANCH  48  57
BRANCH   4  59
HETATM   59  O1  UNL     1      -3.828   0.601  -1.946  1.00  0.00    -0.358 OA
ATOM     60  H1  UNL     1      -3.373   1.302  -2.397  1.00  0.00     0.214 HD
ENDBRANCH   4  59
TORSDOF 6
