REMARK  6 active torsions:
REMARK  status: ('A' for Active; 'I' for Inactive)
REMARK    1  A    between atoms: O1_2  and  C2_3 
REMARK    2  A    between atoms: C3_4  and  O2_5 
REMARK    3  A    between atoms: C15_21  and  O6_22 
REMARK    4  A    between atoms: C24_40  and  N3_41 
REMARK    5  A    between atoms: C25_46  and  C26_47 
REMARK    6  A    between atoms: C26_47  and  O13_48 
ROOT
HETATM    1  C2  UNL     1       6.227   0.204  -1.926  1.00  0.00     0.135 A 
HETATM    2  C3  UNL     1       7.006   0.697  -0.891  1.00  0.00     0.104 A 
HETATM    3  C4  UNL     1       6.436   0.996   0.327  1.00  0.00     0.078 A 
HETATM    4  C5  UNL     1       5.076   0.827   0.593  1.00  0.00     0.099 A 
HETATM    5  O3  UNL     1       4.769   1.179   1.824  1.00  0.00    -0.274 OA
HETATM    6  C6  UNL     1       3.561   1.364   2.313  1.00  0.00     0.299 C 
HETATM    7  O4  UNL     1       3.485   2.059   3.370  1.00  0.00    -0.259 OA
HETATM    8  C7  UNL     1       2.330   0.931   1.877  1.00  0.00     0.057 A 
HETATM    9  C8  UNL     1       1.308   1.110   2.787  1.00  0.00     0.058 A 
HETATM   10  C9  UNL     1       0.021   0.742   2.531  1.00  0.00     0.103 A 
HETATM   11  C10 UNL     1      -0.265   0.159   1.293  1.00  0.00     0.104 A 
HETATM   12  C11 UNL     1       0.769  -0.020   0.376  1.00  0.00     0.056 A 
HETATM   13  C12 UNL     1       2.064   0.358   0.652  1.00  0.00     0.034 A 
HETATM   14  C13 UNL     1       2.959   0.097  -0.390  1.00  0.00     0.199 C 
HETATM   15  O5  UNL     1       2.468  -0.426  -1.418  1.00  0.00    -0.286 OA
HETATM   16  C14 UNL     1       4.317   0.335  -0.449  1.00  0.00     0.085 A 
HETATM   17  C15 UNL     1       4.882   0.034  -1.671  1.00  0.00     0.119 A 
HETATM   18  O7  UNL     1      -1.552  -0.196   1.064  1.00  0.00    -0.332 OA
HETATM   19  C16 UNL     1      -2.547  -0.542   2.017  1.00  0.00     0.131 C 
HETATM   20  C17 UNL     1      -2.034  -0.160   3.406  1.00  0.00     0.217 C 
HETATM   21  O8  UNL     1      -1.068   0.874   3.364  1.00  0.00    -0.345 OA
HETATM   22  C18 UNL     1      -3.827   0.170   1.785  1.00  0.00     0.133 C 
HETATM   23  C19 UNL     1      -4.104   0.871   0.507  1.00  0.00     0.310 C 
HETATM   24  O9  UNL     1      -5.257   0.517  -0.257  1.00  0.00    -0.261 OA
HETATM   25  C20 UNL     1      -5.337  -0.575  -1.142  1.00  0.00     0.317 C 
HETATM   26  O10 UNL     1      -5.949  -0.655  -2.193  1.00  0.00    -0.257 OA
HETATM   27  C21 UNL     1      -4.575  -1.794  -0.748  1.00  0.00     0.159 A 
HETATM   28  N1  UNL     1      -3.922  -1.565   0.326  1.00  0.00    -0.330 N 
ATOM     29  H1  UNL     1      -3.949  -0.667   0.809  1.00  0.00     0.168 HD
HETATM   30  C22 UNL     1      -3.223  -2.569   0.750  1.00  0.00     0.160 A 
HETATM   31  O11 UNL     1      -3.412  -3.533  -0.080  1.00  0.00    -0.278 OA
HETATM   32  C23 UNL     1      -4.263  -3.069  -1.038  1.00  0.00     0.192 A 
HETATM   33  N2  UNL     1      -4.786  -3.732  -2.176  1.00  0.00    -0.072 NA
HETATM   34  C24 UNL     1      -2.541  -2.081   2.014  1.00  0.00     0.295 C 
HETATM   35  O12 UNL     1      -2.978   1.072  -0.298  1.00  0.00    -0.307 OA
HETATM   36  C25 UNL     1      -3.302   2.084  -1.186  1.00  0.00     0.307 C 
HETATM   37  O14 UNL     1      -3.497   3.245  -0.441  1.00  0.00    -0.236 OA
HETATM   38  S1  UNL     1      -4.415   2.649   0.832  1.00  0.00     0.329 S 
HETATM   39  O15 UNL     1      -5.848   2.975   0.749  1.00  0.00    -0.193 OA
HETATM   40  O16 UNL     1      -3.865   3.030   2.158  1.00  0.00    -0.193 OA
ENDROOT
BRANCH  34  41
HETATM   41  N3  UNL     1      -3.255  -2.659   3.108  1.00  0.00    -0.065 N 
ATOM     42  H33 UNL     1      -2.906  -2.299   3.996  1.00  0.00     0.275 HD
ATOM     43  H32 UNL     1      -4.210  -2.303   3.143  1.00  0.00     0.275 HD
ATOM     44  H31 UNL     1      -3.251  -3.679   3.106  1.00  0.00     0.275 HD
ENDBRANCH  34  41
BRANCH  36  45
HETATM   45  C26 UNL     1      -2.073   2.331  -2.045  1.00  0.00     0.226 C 
BRANCH  45  46
HETATM   46  O13 UNL     1      -0.984   2.718  -1.267  1.00  0.00    -0.396 OA
ATOM     47  H13 UNL     1      -0.216   2.872  -1.804  1.00  0.00     0.209 HD
ENDBRANCH  45  46
ENDBRANCH  36  45
BRANCH  17  48
HETATM   48  O6  UNL     1       4.094  -0.461  -2.706  1.00  0.00    -0.357 OA
ATOM     49  H6  UNL     1       3.168  -0.578  -2.530  1.00  0.00     0.218 HD
ENDBRANCH  17  48
BRANCH   1  50
HETATM   50  O1  UNL     1       6.805  -0.092  -3.143  1.00  0.00    -0.351 OA
HETATM   51  C1  UNL     1       7.345  -1.330  -3.504  1.00  0.00     0.210 C 
ENDBRANCH   1  50
BRANCH   2  52
HETATM   52  O2  UNL     1       8.372   0.882  -1.116  1.00  0.00    -0.358 OA
ATOM     53  H2  UNL     1       8.906   1.220  -0.407  1.00  0.00     0.217 HD
ENDBRANCH   2  52
TORSDOF 6
