REMARK  5 active torsions:
REMARK  status: ('A' for Active; 'I' for Inactive)
REMARK    1  A    between atoms: N2_7  and  N3_8 
REMARK    2  A    between atoms: C6_13  and  N4_14 
REMARK    3  A    between atoms: N4_14  and  O3_16 
REMARK    4  A    between atoms: C7_19  and  N6_20 
REMARK    5  A    between atoms: C18_41  and  O5_42 
ROOT
HETATM    1  N6  UNL     1      -2.453   1.325   0.447  1.00  0.00    -0.189 N 
ATOM      2  H6  UNL     1      -2.707   2.175   0.951  1.00  0.00     0.184 HD
HETATM    3  C8  UNL     1      -1.231   0.976   0.929  1.00  0.00     0.065 A 
HETATM    4  C9  UNL     1      -0.192   1.070   0.129  1.00  0.00     0.080 A 
HETATM    5  C10 UNL     1       1.151   0.736   0.504  1.00  0.00     0.114 A 
HETATM    6  N7  UNL     1       2.127   0.835  -0.254  1.00  0.00    -0.339 N 
ATOM      7  H7  UNL     1       1.853   1.187  -1.171  1.00  0.00     0.167 HD
HETATM    8  C11 UNL     1       3.508   0.593  -0.188  1.00  0.00     0.090 A 
HETATM    9  C12 UNL     1       4.393   0.291  -1.027  1.00  0.00     0.143 C 
HETATM   10  O4  UNL     1       4.517  -0.053  -2.367  1.00  0.00    -0.316 OA
HETATM   11  C13 UNL     1       4.775  -1.408  -2.656  1.00  0.00     0.235 C 
HETATM   12  C14 UNL     1       3.817  -2.445  -2.126  1.00  0.00     0.071 C 
HETATM   13  C15 UNL     1       4.762  -3.582  -1.422  1.00  0.00     0.108 C 
HETATM   14  C16 UNL     1       5.516  -2.775  -0.428  1.00  0.00     0.106 C 
HETATM   15  N8  UNL     1       7.011  -3.077  -0.841  1.00  0.00    -0.286 N 
ATOM     16  H8  UNL     1       7.478  -3.724  -1.476  1.00  0.00     0.188 HD
HETATM   17  N9  UNL     1       7.455  -1.973   0.128  1.00  0.00    -0.278 N 
ATOM     18  H9  UNL     1       8.027  -1.840   0.962  1.00  0.00     0.189 HD
HETATM   19  C17 UNL     1       6.571  -1.181  -0.838  1.00  0.00     0.168 C 
HETATM   20  S1  UNL     1       6.299   0.409  -0.510  1.00  0.00    -0.025 SA
HETATM   21  N10 UNL     1       5.999  -1.877  -1.947  1.00  0.00    -0.306 N 
HETATM   22  C18 UNL     1       5.969  -3.146  -2.657  1.00  0.00     0.236 C 
HETATM   23  N11 UNL     1       5.194  -2.174   0.739  1.00  0.00    -0.330 N 
ATOM     24  H11 UNL     1       5.087  -2.927   1.419  1.00  0.00     0.168 HD
HETATM   25  C19 UNL     1       4.931  -0.943   1.467  1.00  0.00     0.114 C 
HETATM   26  N12 UNL     1       5.660  -0.652   2.498  1.00  0.00    -0.385 N 
ATOM     27 1H12 UNL     1       5.476   0.211   3.009  1.00  0.00     0.157 HD
ATOM     28 2H12 UNL     1       6.426  -1.310   2.645  1.00  0.00     0.157 HD
HETATM   29  C20 UNL     1       3.787   0.040   1.248  1.00  0.00     0.054 A 
HETATM   30  C21 UNL     1       2.753  -0.045   2.081  1.00  0.00     0.116 A 
HETATM   31  N13 UNL     1       1.406   0.278   1.816  1.00  0.00    -0.306 N 
HETATM   32  C22 UNL     1       0.319   0.166   2.699  1.00  0.00     0.053 A 
HETATM   33  C23 UNL     1       0.558  -0.304   3.987  1.00  0.00     0.031 A 
HETATM   34  C24 UNL     1      -0.513  -0.432   4.846  1.00  0.00     0.002 A 
HETATM   35  C25 UNL     1      -1.805  -0.103   4.450  1.00  0.00     0.001 A 
HETATM   36  C26 UNL     1      -2.021   0.360   3.173  1.00  0.00     0.016 A 
HETATM   37  C27 UNL     1      -0.967   0.498   2.290  1.00  0.00     0.018 A 
ENDROOT
BRANCH   1  38
HETATM   38  C7  UNL     1      -3.391   1.105  -0.302  1.00  0.00     0.708 A 
HETATM   39  N5  UNL     1      -4.465   1.988  -0.285  1.00  0.00    -0.051 N 
HETATM   40  N1  UNL     1      -5.514   1.855  -1.037  1.00  0.00    -0.190 N 
HETATM   41  C6  UNL     1      -4.444   3.059   0.552  1.00  0.00     0.236 A 
HETATM   42  C3  UNL     1      -5.556   0.806  -1.870  1.00  0.00     0.148 A 
HETATM   43  C4  UNL     1      -6.533   2.748  -0.981  1.00  0.00     0.370 A 
HETATM   44  C2  UNL     1      -4.525  -0.105  -1.932  1.00  0.00     0.042 A 
HETATM   45  C1  UNL     1      -4.638  -1.245  -2.859  1.00  0.00     0.070 C 
HETATM   46  N14 UNL     1      -3.437   0.059  -1.135  1.00  0.00    -0.188 N 
HETATM   47  C28 UNL     1      -2.397  -0.936  -1.278  1.00  0.00     0.175 C 
HETATM   48  O1  UNL     1      -7.529   2.541  -1.757  1.00  0.00    -0.242 OA
HETATM   49  N2  UNL     1      -6.551   3.811  -0.173  1.00  0.00    -0.170 N 
HETATM   50  C5  UNL     1      -5.473   3.972   0.618  1.00  0.00     0.318 A 
HETATM   51  O2  UNL     1      -5.459   4.963   1.391  1.00  0.00    -0.262 OA
BRANCH  49  52
HETATM   52  N3  UNL     1      -7.649   4.686  -0.189  1.00  0.00    -0.331 N 
ATOM     53  H32 UNL     1      -8.465   4.564  -0.788  1.00  0.00     0.177 HD
ATOM     54  H31 UNL     1      -7.663   5.498   0.428  1.00  0.00     0.177 HD
ENDBRANCH  49  52
BRANCH  41  55
HETATM   55  N4  UNL     1      -3.438   3.250   1.323  1.00  0.00    -0.246 N 
ATOM     56  H4  UNL     1      -2.651   2.602   1.308  1.00  0.00     0.196 HD
BRANCH  55  57
HETATM   57  O3  UNL     1      -3.425   4.325   2.165  1.00  0.00    -0.288 OA
ATOM     58  H3  UNL     1      -2.679   4.467   2.736  1.00  0.00     0.244 HD
ENDBRANCH  55  57
ENDBRANCH  41  55
ENDBRANCH   1  38
BRANCH  22  59
HETATM   59  O5  UNL     1       5.168  -3.308  -3.708  1.00  0.00    -0.376 OA
ATOM     60  H5  UNL     1       5.812  -3.075  -4.367  1.00  0.00     0.212 HD
ENDBRANCH  22  59
TORSDOF 5
