REMARK  9 active torsions:
REMARK  status: ('A' for Active; 'I' for Inactive)
REMARK    1  A    between atoms: O1_2  and  C2_3 
REMARK    2  A    between atoms: C2_3  and  C3_5 
REMARK    3  A    between atoms: C4_6  and  O3_8 
REMARK    4  A    between atoms: C10_15  and  O5_16 
REMARK    5  A    between atoms: N1_18  and  O6_19 
REMARK    6  A    between atoms: O6_19  and  C11_20 
REMARK    7  A    between atoms: C11_20  and  N2_22 
REMARK    8  A    between atoms: C16_36  and  N5_37 
REMARK    9  A    between atoms: C21_45  and  O10_46 
ROOT
HETATM    1  C3  UNL     1      -2.147  -1.401   0.571  1.00  0.00     0.073 C 
HETATM    2  C4  UNL     1      -2.073  -2.412  -0.524  1.00  0.00     0.126 C 
HETATM    3  C5  UNL     1      -1.873  -3.854   0.029  1.00  0.00     0.058 C 
HETATM    4  C6  UNL     1      -1.016  -2.224  -1.558  1.00  0.00     0.042 C 
HETATM    5  C7  UNL     1      -1.326  -1.415  -2.756  1.00  0.00     0.131 C 
HETATM    6  C8  UNL     1      -2.629  -0.651  -2.876  1.00  0.00     0.189 C 
HETATM    7  O4  UNL     1      -2.670   0.268  -1.987  1.00  0.00    -0.386 OA
HETATM    8  C9  UNL     1      -3.452   1.025  -1.331  1.00  0.00     0.217 C 
HETATM    9  C10 UNL     1      -2.752   1.666  -0.149  1.00  0.00     0.244 C 
HETATM   10  N1  UNL     1      -2.305   0.873   0.918  1.00  0.00    -0.129 NA
HETATM   11  C12 UNL     1      -1.329  -0.182   0.544  1.00  0.00     0.165 C 
HETATM   12  S2  UNL     1      -0.476   0.633  -0.707  1.00  0.00    -0.060 SA
HETATM   13  S3  UNL     1      -0.168   0.036  -2.613  1.00  0.00    -0.082 SA
HETATM   14  C13 UNL     1      -0.229  -0.367   1.596  1.00  0.00     0.269 C 
HETATM   15  N3  UNL     1       0.141  -1.807   1.436  1.00  0.00    -0.037 N 
ATOM     16  H31 UNL     1      -0.647  -2.442   1.562  1.00  0.00     0.281 HD
ATOM     17  H32 UNL     1       0.715  -2.162   2.200  1.00  0.00     0.281 HD
HETATM   18  C14 UNL     1       0.755  -1.929   0.178  1.00  0.00     0.339 C 
HETATM   19  C15 UNL     1       1.722  -0.770   0.371  1.00  0.00     0.089 A 
HETATM   20  N4  UNL     1       2.955  -0.522  -0.094  1.00  0.00    -0.191 N 
ATOM     21  H4  UNL     1       3.372  -1.196  -0.736  1.00  0.00     0.184 HD
HETATM   22  C16 UNL     1       3.669   0.560   0.237  1.00  0.00     0.682 A 
HETATM   23  N6  UNL     1       3.116   1.425   1.071  1.00  0.00    -0.170 N 
ATOM     24  H6  UNL     1       3.642   2.257   1.338  1.00  0.00     0.186 HD
HETATM   25  C21 UNL     1       1.862   1.243   1.589  1.00  0.00     0.165 A 
HETATM   26  C22 UNL     1       1.109   0.136   1.259  1.00  0.00     0.054 A 
HETATM   27  N7  UNL     1       0.247  -1.930  -1.035  1.00  0.00    -0.355 N 
HETATM   28  C23 UNL     1       1.255  -2.372  -2.017  1.00  0.00     0.152 C 
ENDROOT
BRANCH  10  29
HETATM   29  O6  UNL     1      -1.772   1.645   1.860  1.00  0.00    -0.221 OA
BRANCH  29  30
HETATM   30  C11 UNL     1      -2.130   2.811   2.431  1.00  0.00     0.297 C 
HETATM   31  S1  UNL     1      -3.185   2.784   3.706  1.00  0.00    -0.025 SA
BRANCH  30  32
HETATM   32  N2  UNL     1      -1.688   4.100   2.048  1.00  0.00    -0.077 N 
HETATM   33  O7  UNL     1      -2.110   5.242   2.687  1.00  0.00    -0.529 OA
HETATM   34  O8  UNL     1      -0.823   4.289   1.040  1.00  0.00    -0.529 OA
ENDBRANCH  30  32
ENDBRANCH  29  30
ENDBRANCH  10  29
BRANCH   9  35
HETATM   35  O5  UNL     1      -3.676   2.580   0.370  1.00  0.00    -0.377 OA
ATOM     36  H5  UNL     1      -3.237   2.982   1.111  1.00  0.00     0.211 HD
ENDBRANCH   9  35
BRANCH   1  37
HETATM   37  C2  UNL     1      -3.528  -1.286   1.143  1.00  0.00     0.291 C 
HETATM   38  O2  UNL     1      -4.488  -1.924   0.674  1.00  0.00    -0.260 OA
BRANCH  37  39
HETATM   39  O1  UNL     1      -3.864  -0.488   2.213  1.00  0.00    -0.323 OA
HETATM   40  C1  UNL     1      -5.194  -0.414   2.724  1.00  0.00     0.213 C 
ENDBRANCH  37  39
ENDBRANCH   1  37
BRANCH   2  41
HETATM   41  O3  UNL     1      -3.328  -2.538  -1.119  1.00  0.00    -0.379 OA
ATOM     42  H3  UNL     1      -3.281  -3.182  -1.816  1.00  0.00     0.211 HD
ENDBRANCH   2  41
BRANCH  25  43
HETATM   43  O10 UNL     1       1.439   2.242   2.449  1.00  0.00    -0.345 OA
ATOM     44  H10 UNL     1       0.569   2.116   2.808  1.00  0.00     0.219 HD
ENDBRANCH  25  43
BRANCH  22  45
HETATM   45  N5  UNL     1       4.969   0.713  -0.323  1.00  0.00    -0.213 N 
HETATM   46  C17 UNL     1       5.770   1.895   0.029  1.00  0.00     0.167 C 
HETATM   47  C18 UNL     1       7.208   1.449   0.020  1.00  0.00     0.188 C 
HETATM   48  O9  UNL     1       7.636   0.997  -1.214  1.00  0.00    -0.388 OA
HETATM   49  C19 UNL     1       6.632   0.500  -2.013  1.00  0.00     0.188 C 
HETATM   50  C20 UNL     1       5.563  -0.225  -1.225  1.00  0.00     0.167 C 
ENDBRANCH  22  45
TORSDOF 9
