REMARK  5 active torsions:
REMARK  status: ('A' for Active; 'I' for Inactive)
REMARK    1  A    between atoms: C3_5  and  N2_6 
REMARK    2  A    between atoms: C7_18  and  O5_19 
REMARK    3  A    between atoms: O5_19  and  C8_20 
REMARK    4  A    between atoms: C9_23  and  N4_24 
REMARK    5  A    between atoms: C10_30  and  C11_31 
ROOT
HETATM    1  C1  UNL     1      -8.515   0.570   1.336  1.00  0.00     0.089 C 
HETATM    2  C2  UNL     1      -7.195   0.150   0.713  1.00  0.00     0.086 C 
HETATM    3  N1  UNL     1      -6.579   1.056   0.044  1.00  0.00    -0.344 N 
ATOM      4  H1  UNL     1      -7.047   1.962   0.007  1.00  0.00     0.163 HD
HETATM    5  C3  UNL     1      -5.345   0.985  -0.651  1.00  0.00     0.356 C 
HETATM    6  S1  UNL     1      -4.256   2.354  -0.099  1.00  0.00    -0.007 SA
HETATM    7  C4  UNL     1      -3.749   3.389  -1.436  1.00  0.00     0.333 C 
HETATM    8  O1  UNL     1      -4.578   3.721  -2.320  1.00  0.00    -0.251 OA
HETATM    9  O2  UNL     1      -2.452   3.830  -1.510  1.00  0.00    -0.234 OA
HETATM   10  C5  UNL     1      -1.327   3.098  -1.217  1.00  0.00     0.290 C 
HETATM   11  O3  UNL     1      -0.315   3.600  -0.619  1.00  0.00    -0.262 OA
HETATM   12  C6  UNL     1      -1.213   1.656  -1.582  1.00  0.00     0.283 C 
HETATM   13  O4  UNL     1      -0.684   1.001  -0.472  1.00  0.00    -0.343 OA
HETATM   14  C7  UNL     1       0.164  -0.012  -0.894  1.00  0.00     0.363 C 
HETATM   15  C17 UNL     1      -0.610  -1.076  -1.584  1.00  0.00     0.274 C 
HETATM   16  O7  UNL     1      -0.116  -1.648  -2.603  1.00  0.00    -0.268 OA
HETATM   17  N9  UNL     1      -1.899  -1.503  -1.164  1.00  0.00    -0.348 N 
ATOM     18  H9  UNL     1      -2.598  -1.722  -1.874  1.00  0.00     0.163 HD
HETATM   19  C18 UNL     1      -2.265  -1.641   0.253  1.00  0.00     0.226 C 
HETATM   20  C19 UNL     1      -3.161  -2.810   0.441  1.00  0.00     0.249 C 
HETATM   21  O8  UNL     1      -2.629  -3.972   0.493  1.00  0.00    -0.271 OA
HETATM   22  N10 UNL     1      -4.562  -2.747   0.568  1.00  0.00    -0.236 N 
ATOM     23  H10 UNL     1      -5.112  -3.406   0.018  1.00  0.00     0.183 HD
HETATM   24  S3  UNL     1      -5.425  -1.645   1.579  1.00  0.00     0.326 S 
HETATM   25  O9  UNL     1      -5.934  -2.500   2.743  1.00  0.00    -0.182 OA
HETATM   26  O10 UNL     1      -4.473  -0.475   2.252  1.00  0.00    -0.182 OA
HETATM   27  N11 UNL     1      -6.687  -1.139   0.849  1.00  0.00    -0.257 N 
ATOM     28  H11 UNL     1      -7.238  -1.866   0.393  1.00  0.00     0.181 HD
ENDROOT
BRANCH  14  29
HETATM   29  O5  UNL     1       0.947  -0.503   0.155  1.00  0.00    -0.280 OA
BRANCH  29  30
HETATM   30  C8  UNL     1       2.329  -0.399   0.149  1.00  0.00     0.242 A 
HETATM   31  N3  UNL     1       2.916   0.200  -0.913  1.00  0.00    -0.153 N 
HETATM   32  C9  UNL     1       4.244   0.349  -1.013  1.00  0.00     0.702 A 
ATOM     33  H3  UNL     1       2.325   0.552  -1.666  1.00  0.00     0.188 HD
HETATM   34  N5  UNL     1       5.006  -0.121  -0.008  1.00  0.00    -0.062 N 
HETATM   35  N6  UNL     1       6.323  -0.003  -0.051  1.00  0.00    -0.261 N 
HETATM   36  C16 UNL     1       4.453  -0.722   1.063  1.00  0.00     0.217 A 
HETATM   37  C10 UNL     1       7.106  -0.449   0.913  1.00  0.00     0.141 A 
ATOM     38  H6  UNL     1       6.749   0.450  -0.860  1.00  0.00     0.190 HD
HETATM   39  N7  UNL     1       6.612  -1.044   1.982  1.00  0.00    -0.304 N 
HETATM   40  C15 UNL     1       5.279  -1.184   2.063  1.00  0.00     0.293 A 
ATOM     41  H7  UNL     1       7.223  -1.387   2.723  1.00  0.00     0.171 HD
HETATM   42  O6  UNL     1       4.719  -1.743   3.053  1.00  0.00    -0.264 OA
HETATM   43  N8  UNL     1       3.098  -0.864   1.147  1.00  0.00    -0.301 N 
ATOM     44  H8  UNL     1       2.675  -1.317   1.957  1.00  0.00     0.171 HD
BRANCH  32  45
HETATM   45  N4  UNL     1       4.831   0.917  -2.015  1.00  0.00    -0.233 N 
ATOM     46  H42 UNL     1       4.254   1.273  -2.777  1.00  0.00     0.174 HD
ATOM     47  H41 UNL     1       5.842   1.030  -2.091  1.00  0.00     0.174 HD
ENDBRANCH  32  45
BRANCH  37  48
HETATM   48  C11 UNL     1       8.564  -0.269   0.775  1.00  0.00     0.050 A 
HETATM   49  C12 UNL     1       9.250   0.319  -0.250  1.00  0.00     0.023 A 
HETATM   50  C13 UNL     1      10.584   0.369  -0.158  1.00  0.00     0.009 A 
HETATM   51  C14 UNL     1      11.155  -0.177   0.962  1.00  0.00     0.050 A 
HETATM   52  S2  UNL     1       9.807  -0.739   1.844  1.00  0.00    -0.098 SA
ENDBRANCH  37  48
ENDBRANCH  29  30
ENDBRANCH  14  29
BRANCH   5  53
HETATM   53  N2  UNL     1      -5.520   1.198  -2.102  1.00  0.00    -0.049 N 
ATOM     54  H23 UNL     1      -6.204   0.550  -2.493  1.00  0.00     0.277 HD
ATOM     55  H22 UNL     1      -6.004   2.075  -2.293  1.00  0.00     0.277 HD
ATOM     56  H21 UNL     1      -4.632   1.147  -2.602  1.00  0.00     0.277 HD
ENDBRANCH   5  53
TORSDOF 5
