REMARK  9 active torsions:
REMARK  status: ('A' for Active; 'I' for Inactive)
REMARK    1  A    between atoms: C2_2  and  C3_3 
REMARK    2  A    between atoms: C3_3  and  O1_4 
REMARK    3  A    between atoms: N1_6  and  C4_8 
REMARK    4  A    between atoms: C5_11  and  C6_12 
REMARK    5  A    between atoms: C12_20  and  N4_21 
REMARK    6  A    between atoms: N4_21  and  C13_22 
REMARK    7  A    between atoms: C16_25  and  C17_26 
REMARK    8  A    between atoms: C17_26  and  N5_27 
REMARK    9  A    between atoms: N5_27  and  O2_28 
REMARK       I    between atoms: N5_27  and  C18_30 
ROOT
HETATM    1  C4  UNL     1      -1.910  -0.552  -0.734  1.00  0.00     0.166 A 
HETATM    2  N2  UNL     1      -3.239  -0.149  -0.650  1.00  0.00    -0.340 N 
ATOM      3  H2  UNL     1      -3.935  -0.650  -1.203  1.00  0.00     0.167 HD
HETATM    4  C5  UNL     1      -3.641   0.848   0.109  1.00  0.00     0.030 A 
HETATM    5  C11 UNL     1      -2.722   1.534   0.859  1.00  0.00     0.116 A 
HETATM    6  N3  UNL     1      -1.456   1.184   0.806  1.00  0.00    -0.337 N 
ATOM      7  H3  UNL     1      -0.791   1.710   1.372  1.00  0.00     0.168 HD
HETATM    8  C12 UNL     1      -0.970   0.149   0.032  1.00  0.00     0.217 A 
ENDROOT
BRANCH   8   9
HETATM    9  N4  UNL     1       0.213  -0.090   0.084  1.00  0.00    -0.422 NA
BRANCH   9  10
HETATM   10  C13 UNL     1       1.510  -0.369   0.128  1.00  0.00     0.165 C 
HETATM   11  C14 UNL     1       1.821  -1.663   0.890  1.00  0.00     0.040 C 
HETATM   12  C15 UNL     1       3.230  -2.043   0.479  1.00  0.00     0.009 C 
HETATM   13  C16 UNL     1       4.160  -1.057   1.171  1.00  0.00     0.006 C 
HETATM   14  C20 UNL     1       3.490   0.185   1.560  1.00  0.00     0.009 C 
HETATM   15  C21 UNL     1       2.442   0.732   0.630  1.00  0.00     0.040 C 
BRANCH  13  16
HETATM   16  C17 UNL     1       5.495  -0.995   0.511  1.00  0.00     0.163 C 
BRANCH  16  17
HETATM   17  N5  UNL     1       5.558  -0.632  -0.856  1.00  0.00    -0.229 N 
HETATM   18  C18 UNL     1       5.724   0.654  -1.372  1.00  0.00     0.239 C 
HETATM   19  C19 UNL     1       5.928   1.898  -0.556  1.00  0.00     0.119 C 
HETATM   20  O3  UNL     1       5.705   0.780  -2.657  1.00  0.00    -0.272 OA
BRANCH  17  21
HETATM   21  O2  UNL     1       5.460  -1.668  -1.766  1.00  0.00    -0.285 OA
ATOM     22  H2  UNL     1       5.502  -1.424  -2.683  1.00  0.00     0.245 HD
ENDBRANCH  17  21
ENDBRANCH  16  17
ENDBRANCH  13  16
ENDBRANCH   9  10
ENDBRANCH   8   9
BRANCH   1  23
HETATM   23  N1  UNL     1      -1.599  -1.468  -1.461  1.00  0.00    -0.319 N 
HETATM   24  C3  UNL     1      -0.755  -2.306  -2.016  1.00  0.00     0.140 C 
ATOM     25  H1  UNL     1      -2.491  -1.742  -1.872  1.00  0.00     0.169 HD
BRANCH  24  26
HETATM   26  C2  UNL     1      -0.823  -3.801  -1.832  1.00  0.00     0.046 C 
HETATM   27  C1  UNL     1      -1.779  -4.269  -1.074  1.00  0.00     0.015 C 
ENDBRANCH  24  26
BRANCH  24  28
HETATM   28  O1  UNL     1       0.230  -1.948  -2.786  1.00  0.00    -0.346 OA
ATOM     29  H1  UNL     1       0.273  -1.006  -2.902  1.00  0.00     0.219 HD
ENDBRANCH  24  28
ENDBRANCH   1  23
BRANCH   4  30
HETATM   30  C6  UNL     1      -5.050   1.227   0.161  1.00  0.00     0.037 C 
HETATM   31  C7  UNL     1      -5.311   2.658  -0.310  1.00  0.00     0.011 C 
HETATM   32  C8  UNL     1      -6.772   2.793   0.144  1.00  0.00     0.001 C 
HETATM   33  C9  UNL     1      -6.657   2.331   1.589  1.00  0.00     0.001 C 
HETATM   34  C10 UNL     1      -5.584   1.262   1.575  1.00  0.00     0.011 C 
ENDBRANCH   4  30
TORSDOF 9
