REMARK  6 active torsions:
REMARK  status: ('A' for Active; 'I' for Inactive)
REMARK    1  A    between atoms: N1_1  and  C1_5 
REMARK    2  A    between atoms: C1_5  and  C2_6 
REMARK    3  A    between atoms: C2_6  and  N2_7 
REMARK    4  A    between atoms: N2_7  and  C3_9 
REMARK    5  A    between atoms: C3_9  and  C4_10 
REMARK    6  A    between atoms: N5_15  and  O1_16 
ROOT
HETATM    1  C4  UNL     1       0.749  -0.121  -0.613  1.00  0.00     0.138 A 
HETATM    2  N3  UNL     1       1.950  -0.618  -0.571  1.00  0.00    -0.311 N 
ATOM      3  H3  UNL     1       2.046  -1.600  -0.830  1.00  0.00     0.170 HD
HETATM    4  C5  UNL     1       3.124   0.050  -0.209  1.00  0.00     0.239 A 
HETATM    5  N4  UNL     1       4.389  -0.591  -0.209  1.00  0.00    -0.059 NA
HETATM    6  N5  UNL     1       3.024   1.296   0.125  1.00  0.00    -0.116 N 
HETATM    7  N6  UNL     1       1.777   1.920   0.114  1.00  0.00    -0.212 N 
ATOM      8  H6  UNL     1       1.712   2.902   0.382  1.00  0.00     0.211 HD
HETATM    9  N7  UNL     1       0.600   1.229  -0.258  1.00  0.00    -0.268 N 
ATOM     10  H7  UNL     1      -0.311   1.688  -0.268  1.00  0.00     0.190 HD
ENDROOT
BRANCH   1  11
HETATM   11  C3  UNL     1      -0.354  -1.037  -1.032  1.00  0.00     0.133 C 
BRANCH  11  12
HETATM   12  N2  UNL     1      -1.041  -1.569   0.071  1.00  0.00    -0.394 N 
ATOM     13  H2  UNL     1      -0.925  -2.547   0.338  1.00  0.00     0.159 HD
BRANCH  12  14
HETATM   14  C2  UNL     1      -1.893  -0.718   0.799  1.00  0.00     0.146 C 
BRANCH  14  15
HETATM   15  C1  UNL     1      -3.155  -0.351  -0.005  1.00  0.00     0.249 C 
BRANCH  15  16
HETATM   16  N1  UNL     1      -3.959   0.490   0.831  1.00  0.00    -0.078 N 
ATOM     17  H13 UNL     1      -4.170   0.070   1.736  1.00  0.00     0.274 HD
ATOM     18  H12 UNL     1      -3.456   1.306   1.179  1.00  0.00     0.274 HD
ATOM     19  H11 UNL     1      -4.794   0.733   0.299  1.00  0.00     0.274 HD
ENDBRANCH  15  16
ENDBRANCH  14  15
ENDBRANCH  12  14
ENDBRANCH  11  12
ENDBRANCH   1  11
BRANCH   6  20
HETATM   20  O1  UNL     1       4.137   2.007   0.490  1.00  0.00    -0.264 OA
ATOM     21  H1  UNL     1       4.064   2.922   0.735  1.00  0.00     0.247 HD
ENDBRANCH   6  20
TORSDOF 6
