REMARK  5 active torsions:
REMARK  status: ('A' for Active; 'I' for Inactive)
REMARK    1  A    between atoms: N1_2  and  N2_3 
REMARK    2  A    between atoms: N1_2  and  C2_6 
REMARK    3  A    between atoms: C2_6  and  C3_7 
REMARK    4  A    between atoms: C3_7  and  N3_8 
REMARK    5  A    between atoms: N3_8  and  C4_10 
ROOT
HETATM    1  N3  UNL     1      -0.009  -0.186  -0.108  1.00  0.00    -0.200 N 
ATOM      2  H3  UNL     1      -0.461  -1.039  -0.438  1.00  0.00     0.183 HD
ENDROOT
BRANCH   1   3
HETATM    3  C3  UNL     1      -0.760   0.838   0.500  1.00  0.00     0.119 C 
BRANCH   3   4
HETATM    4  C2  UNL     1      -2.168   0.626   0.865  1.00  0.00     0.099 C 
BRANCH   4   5
HETATM    5  N1  UNL     1      -3.142   0.294  -0.092  1.00  0.00    -0.217 NA
HETATM    6  C1  UNL     1      -3.101  -1.011  -0.671  1.00  0.00     0.141 C 
BRANCH   5   7
HETATM    7  N2  UNL     1      -4.403   0.395   0.564  1.00  0.00    -0.360 NA
ATOM      8  H22 UNL     1      -5.110   0.154  -0.131  1.00  0.00     0.171 HD
ATOM      9  H21 UNL     1      -4.432   1.327   0.977  1.00  0.00     0.171 HD
ENDBRANCH   5   7
ENDBRANCH   4   5
ENDBRANCH   3   4
ENDBRANCH   1   3
BRANCH   1  10
HETATM   10  C4  UNL     1       1.399  -0.004  -0.252  1.00  0.00     0.689 C 
HETATM   11  N4  UNL     1       2.077   0.569   0.726  1.00  0.00    -0.224 N 
HETATM   12  C5  UNL     1       3.508   0.696   0.455  1.00  0.00     0.155 C 
ATOM     13  H4  UNL     1       1.643   0.893   1.590  1.00  0.00     0.177 HD
HETATM   14  C6  UNL     1       3.953  -0.729   0.082  1.00  0.00     0.155 C 
HETATM   15  N5  UNL     1       3.381  -1.045  -1.189  1.00  0.00    -0.125 NA
HETATM   16  N6  UNL     1       2.147  -0.403  -1.386  1.00  0.00    -0.137 N 
ATOM     17  H6  UNL     1       1.797  -0.228  -2.328  1.00  0.00     0.201 HD
ENDBRANCH   1  10
TORSDOF 5
