REMARK  5 active torsions:
REMARK  status: ('A' for Active; 'I' for Inactive)
REMARK    1  A    between atoms: N1_2  and  N2_3 
REMARK    2  A    between atoms: N1_2  and  C2_6 
REMARK    3  A    between atoms: C2_6  and  C3_7 
REMARK    4  A    between atoms: C4_10  and  N4_11 
REMARK    5  A    between atoms: N4_11  and  C5_13 
ROOT
HETATM    1  C3  UNL     1      -0.554   0.005   0.609  1.00  0.00     0.111 A 
HETATM    2  N3  UNL     1       0.264  -0.592  -0.331  1.00  0.00    -0.185 N 
ATOM      3  H3  UNL     1      -0.133  -1.213  -1.036  1.00  0.00     0.184 HD
HETATM    4  C4  UNL     1       1.592  -0.348  -0.311  1.00  0.00     0.698 A 
HETATM    5  N6  UNL     1       2.105   0.501   0.613  1.00  0.00    -0.130 N 
ATOM      6  H6  UNL     1       3.102   0.718   0.621  1.00  0.00     0.205 HD
HETATM    7  N7  UNL     1       1.281   1.051   1.516  1.00  0.00    -0.270 N 
ATOM      8  H7  UNL     1       1.692   1.668   2.217  1.00  0.00     0.189 HD
HETATM    9  C6  UNL     1       0.000   0.857   1.564  1.00  0.00     0.143 A 
HETATM   10  N8  UNL     1      -0.720   1.454   2.491  1.00  0.00    -0.383 N 
ATOM     11  H81 UNL     1      -0.315   2.077   3.189  1.00  0.00     0.157 HD
ATOM     12  H82 UNL     1      -1.728   1.301   2.529  1.00  0.00     0.157 HD
ENDROOT
BRANCH   1  13
HETATM   13  C2  UNL     1      -1.991  -0.576   0.701  1.00  0.00     0.143 C 
BRANCH  13  14
HETATM   14  N1  UNL     1      -2.809  -0.333  -0.408  1.00  0.00    -0.312 N 
HETATM   15  C1  UNL     1      -3.358   0.959  -0.441  1.00  0.00     0.176 C 
BRANCH  14  16
HETATM   16  N2  UNL     1      -3.486  -1.293  -1.037  1.00  0.00    -0.344 N 
ATOM     17  H22 UNL     1      -4.082  -1.116  -1.845  1.00  0.00     0.177 HD
ATOM     18  H21 UNL     1      -3.087  -2.232  -1.013  1.00  0.00     0.177 HD
ENDBRANCH  14  16
ENDBRANCH  13  14
ENDBRANCH   1  13
BRANCH   4  19
HETATM   19  N4  UNL     1       2.554  -0.987  -1.211  1.00  0.00    -0.188 N 
ATOM     20  H4  UNL     1       2.241  -1.594  -1.968  1.00  0.00     0.184 HD
BRANCH  19  21
HETATM   21  C5  UNL     1       3.918  -0.740  -1.002  1.00  0.00     0.207 C 
HETATM   22  N5  UNL     1       4.391   0.605  -1.170  1.00  0.00    -0.096 NA
ENDBRANCH  19  21
ENDBRANCH   4  19
TORSDOF 5
