REMARK  5 active torsions:
REMARK  status: ('A' for Active; 'I' for Inactive)
REMARK    1  A    between atoms: C4_9  and  C5_10 
REMARK    2  A    between atoms: C5_10  and  N4_11 
REMARK    3  A    between atoms: N4_11  and  C6_14 
REMARK    4  A    between atoms: C6_14  and  C7_15 
REMARK    5  A    between atoms: C7_15  and  N5_16 
ROOT
HETATM    1  C1  UNL     1       4.136   1.077  -0.132  1.00  0.00     0.055 C 
HETATM    2  C2  UNL     1       3.002   0.197  -0.636  1.00  0.00     0.174 C 
HETATM    3  N1  UNL     1       3.352  -1.161  -0.428  1.00  0.00    -0.365 N 
ATOM      4  H1  UNL     1       4.329  -1.355  -0.648  1.00  0.00     0.162 HD
HETATM    5  C3  UNL     1       2.717  -2.204  -0.025  1.00  0.00     0.191 C 
HETATM    6  N2  UNL     1       1.353  -2.285   0.363  1.00  0.00    -0.298 N 
ATOM      7  H2  UNL     1       0.920  -3.208   0.321  1.00  0.00     0.183 HD
HETATM    8  N3  UNL     1       0.541  -1.232   0.797  1.00  0.00    -0.113 NA
HETATM    9  C4  UNL     1       0.649  -0.130  -0.142  1.00  0.00     0.219 C 
HETATM   10  N6  UNL     1       1.829   0.651   0.033  1.00  0.00    -0.382 N 
ATOM     11  H6  UNL     1       1.833   1.493   0.609  1.00  0.00     0.157 HD
ENDROOT
BRANCH   9  12
HETATM   12  C5  UNL     1      -0.533   0.787   0.132  1.00  0.00     0.276 C 
BRANCH  12  13
HETATM   13  N4  UNL     1      -1.797   0.097  -0.055  1.00  0.00    -0.070 N 
ATOM     14  H42 UNL     1      -1.889  -0.336  -0.974  1.00  0.00     0.277 HD
ATOM     15  H41 UNL     1      -1.876  -0.758   0.496  1.00  0.00     0.277 HD
BRANCH  13  16
HETATM   16  C6  UNL     1      -2.844   1.067   0.233  1.00  0.00     0.259 C 
BRANCH  16  17
HETATM   17  C7  UNL     1      -4.197   0.445   0.066  1.00  0.00     0.257 C 
BRANCH  17  18
HETATM   18  N5  UNL     1      -4.362  -0.665   0.954  1.00  0.00    -0.078 N 
ATOM     19  H53 UNL     1      -3.616  -1.351   0.842  1.00  0.00     0.274 HD
ATOM     20  H52 UNL     1      -4.186  -0.401   1.923  1.00  0.00     0.274 HD
ATOM     21  H51 UNL     1      -5.283  -1.088   0.840  1.00  0.00     0.274 HD
ENDBRANCH  17  18
ENDBRANCH  16  17
ENDBRANCH  13  16
ENDBRANCH  12  13
ENDBRANCH   9  12
TORSDOF 5
