REMARK  7 active torsions:
REMARK  status: ('A' for Active; 'I' for Inactive)
REMARK    1  A    between atoms: N1_2  and  C2_3 
REMARK    2  A    between atoms: N1_2  and  C5_10 
REMARK    3  A    between atoms: C2_3  and  C3_4 
REMARK    4  A    between atoms: C3_4  and  C4_5 
REMARK    5  A    between atoms: C4_5  and  N2_6 
REMARK    6  A    between atoms: C6_15  and  N5_16 
REMARK    7  A    between atoms: N6_19  and  N7_20 
ROOT
HETATM    1  C5  UNL     1       1.351  -0.285   0.211  1.00  0.00     0.731 A 
HETATM    2  N3  UNL     1       1.995  -0.216   1.420  1.00  0.00    -0.115 N 
ATOM      3  H3  UNL     1       1.684  -0.673   2.277  1.00  0.00     0.206 HD
HETATM    4  N4  UNL     1       3.078   0.531   1.307  1.00  0.00    -0.116 N 
ATOM      5  H4  UNL     1       3.735   0.744   2.058  1.00  0.00     0.206 HD
HETATM    6  C6  UNL     1       3.170   0.964   0.039  1.00  0.00     0.726 A 
HETATM    7  N6  UNL     1       2.099   0.453  -0.621  1.00  0.00     0.085 N 
ENDROOT
BRANCH   1   8
HETATM    8  N1  UNL     1       0.141  -0.991  -0.036  1.00  0.00    -0.218 N 
HETATM    9  C1  UNL     1       0.190  -2.444   0.132  1.00  0.00     0.168 C 
BRANCH   8  10
HETATM   10  C2  UNL     1      -1.083  -0.332  -0.428  1.00  0.00     0.142 C 
BRANCH  10  11
HETATM   11  C3  UNL     1      -2.087  -0.407   0.699  1.00  0.00     0.048 C 
BRANCH  11  12
HETATM   12  C4  UNL     1      -3.401   0.254   0.358  1.00  0.00     0.231 C 
BRANCH  12  13
HETATM   13  N2  UNL     1      -3.152   1.627   0.063  1.00  0.00    -0.079 N 
ATOM     14  H23 UNL     1      -2.656   2.106   0.815  1.00  0.00     0.274 HD
ATOM     15  H22 UNL     1      -2.450   1.750  -0.667  1.00  0.00     0.274 HD
ATOM     16  H21 UNL     1      -4.040   2.074  -0.167  1.00  0.00     0.274 HD
ENDBRANCH  12  13
ENDBRANCH  11  12
ENDBRANCH  10  11
ENDBRANCH   8  10
ENDBRANCH   1   8
BRANCH   7  17
HETATM   17  N7  UNL     1       1.793   0.663  -1.982  1.00  0.00    -0.309 N 
ATOM     18  H72 UNL     1       0.988   0.279  -2.478  1.00  0.00     0.178 HD
ATOM     19  H71 UNL     1       2.362   1.225  -2.615  1.00  0.00     0.178 HD
ENDBRANCH   7  17
BRANCH   6  20
HETATM   20  N5  UNL     1       4.062   1.719  -0.512  1.00  0.00    -0.231 N 
ATOM     21  H52 UNL     1       4.867   2.103  -0.016  1.00  0.00     0.174 HD
ATOM     22  H51 UNL     1       4.132   2.048  -1.475  1.00  0.00     0.174 HD
ENDBRANCH   6  20
TORSDOF 7
