REMARK  6 active torsions:
REMARK  status: ('A' for Active; 'I' for Inactive)
REMARK    1  A    between atoms: C2_2  and  C3_3 
REMARK    2  A    between atoms: C3_3  and  C4_4 
REMARK    3  A    between atoms: C4_4  and  C5_5 
REMARK    4  A    between atoms: C5_5  and  N1_7 
REMARK    5  A    between atoms: N1_7  and  C7_9 
REMARK    6  A    between atoms: C7_9  and  C8_10 
ROOT
HETATM    1  N1  UNL     1      -0.536  -0.874  -0.355  1.00  0.00    -0.409 N 
ATOM      2  H1  UNL     1      -0.690  -1.786  -0.786  1.00  0.00     0.154 HD
ENDROOT
BRANCH   1   3
HETATM    3  C5  UNL     1       0.760  -0.684   0.032  1.00  0.00     0.073 C 
HETATM    4  C6  UNL     1       1.089  -0.544   1.468  1.00  0.00     0.032 C 
BRANCH   3   5
HETATM    5  C4  UNL     1       1.414   0.418  -0.742  1.00  0.00     0.028 C 
BRANCH   5   6
HETATM    6  C3  UNL     1       2.888   0.499  -0.754  1.00  0.00     0.028 C 
BRANCH   6   7
HETATM    7  C2  UNL     1       3.611   0.696   0.504  1.00  0.00    -0.037 C 
HETATM    8  C1  UNL     1       4.536  -0.183   0.868  1.00  0.00     0.007 C 
ENDBRANCH   6   7
ENDBRANCH   5   6
ENDBRANCH   3   5
ENDBRANCH   1   3
BRANCH   1   9
HETATM    9  C7  UNL     1      -1.660  -0.128  -0.296  1.00  0.00     0.025 A 
HETATM   10  C10 UNL     1      -1.789   1.033  -1.299  1.00  0.00     0.033 A 
HETATM   11  C11 UNL     1      -1.979   1.186   0.211  1.00  0.00     0.033 A 
BRANCH   9  12
HETATM   12  C8  UNL     1      -2.897  -1.077  -0.336  1.00  0.00     0.026 C 
HETATM   13  C9  UNL     1      -4.190  -0.340  -0.256  1.00  0.00     0.007 C 
ENDBRANCH   9  12
ENDBRANCH   1   9
TORSDOF 6
