REMARK  7 active torsions:
REMARK  status: ('A' for Active; 'I' for Inactive)
REMARK    1  A    between atoms: C2_2  and  C4_4 
REMARK    2  A    between atoms: C4_4  and  C5_5 
REMARK    3  A    between atoms: C5_5  and  N1_6 
REMARK    4  A    between atoms: N1_6  and  C6_9 
REMARK    5  A    between atoms: C6_9  and  C7_10 
REMARK    6  A    between atoms: C7_10  and  C8_11 
REMARK    7  A    between atoms: C8_11  and  C9_12 
ROOT
HETATM    1  N1  UNL     1      -0.533   0.651  -0.206  1.00  0.00    -0.075 N 
ATOM      2  H11 UNL     1      -0.197   0.566   0.753  1.00  0.00     0.277 HD
ATOM      3  H12 UNL     1      -1.229   1.382  -0.057  1.00  0.00     0.277 HD
ENDROOT
BRANCH   1   4
HETATM    4  C5  UNL     1      -1.123  -0.560  -0.674  1.00  0.00     0.232 C 
BRANCH   4   5
HETATM    5  C4  UNL     1      -2.308  -1.053   0.103  1.00  0.00     0.031 C 
BRANCH   5   6
HETATM    6  C2  UNL     1      -3.401  -0.020   0.063  1.00  0.00    -0.021 C 
HETATM    7  C1  UNL     1      -3.032   1.307   0.662  1.00  0.00     0.009 C 
HETATM    8  C3  UNL     1      -4.629  -0.620   0.717  1.00  0.00     0.009 C 
ENDBRANCH   5   6
ENDBRANCH   4   5
ENDBRANCH   1   4
BRANCH   1   9
HETATM    9  C6  UNL     1       0.500   1.072  -1.097  1.00  0.00     0.232 C 
BRANCH   9  10
HETATM   10  C7  UNL     1       1.685   0.157  -1.045  1.00  0.00     0.028 C 
BRANCH  10  11
HETATM   11  C8  UNL     1       2.271   0.152   0.331  1.00  0.00     0.006 C 
BRANCH  11  12
HETATM   12  C9  UNL     1       3.503  -0.727   0.420  1.00  0.00    -0.014 A 
HETATM   13  C10 UNL     1       4.679  -0.450  -0.428  1.00  0.00     0.005 A 
HETATM   14  C11 UNL     1       4.718  -0.012   1.003  1.00  0.00     0.005 A 
ENDBRANCH  11  12
ENDBRANCH  10  11
ENDBRANCH   9  10
ENDBRANCH   1   9
TORSDOF 7
