REMARK  6 active torsions:
REMARK  status: ('A' for Active; 'I' for Inactive)
REMARK    1  A    between atoms: C2_2  and  C3_3 
REMARK    2  A    between atoms: C3_3  and  C5_5 
REMARK    3  A    between atoms: C6_6  and  C7_7 
REMARK    4  A    between atoms: C6_6  and  C9_11 
REMARK    5  A    between atoms: C7_7  and  C8_8 
REMARK    6  A    between atoms: C8_8  and  O1_9 
ROOT
HETATM    1  C5  UNL     1       0.185  -0.181   0.403  1.00  0.00    -0.015 C 
HETATM    2  C6  UNL     1      -1.115  -0.072  -0.191  1.00  0.00    -0.059 C 
ENDROOT
BRANCH   2   3
HETATM    3  C7  UNL     1      -2.133   0.941   0.057  1.00  0.00     0.006 C 
BRANCH   3   4
HETATM    4  C8  UNL     1      -1.967   2.378  -0.207  1.00  0.00     0.192 C 
BRANCH   4   5
HETATM    5  O1  UNL     1      -1.037   3.006   0.536  1.00  0.00    -0.397 OA
ATOM      6  H1  UNL     1      -0.930   3.934   0.365  1.00  0.00     0.209 HD
ENDBRANCH   4   5
ENDBRANCH   3   4
ENDBRANCH   2   3
BRANCH   2   7
HETATM    7  C9  UNL     1      -1.850  -1.441  -0.217  1.00  0.00     0.018 A 
HETATM    8  C10 UNL     1      -1.274  -2.577  -0.921  1.00  0.00     0.010 A 
HETATM    9  C11 UNL     1      -1.355  -2.575   0.571  1.00  0.00     0.010 A 
ENDBRANCH   2   7
BRANCH   1  10
HETATM   10  C3  UNL     1       1.253   0.835   0.271  1.00  0.00     0.004 C 
HETATM   11  C4  UNL     1       1.661   1.127  -1.137  1.00  0.00     0.014 C 
BRANCH  10  12
HETATM   12  C2  UNL     1       2.530   0.294   1.020  1.00  0.00     0.003 C 
HETATM   13  C1  UNL     1       3.015  -0.950   0.341  1.00  0.00     0.006 C 
ENDBRANCH  10  12
ENDBRANCH   1  10
TORSDOF 6
