REMARK  6 active torsions:
REMARK  status: ('A' for Active; 'I' for Inactive)
REMARK    1  A    between atoms: C3_3  and  C4_4 
REMARK    2  A    between atoms: C4_4  and  C5_5 
REMARK    3  A    between atoms: C5_5  and  N1_6 
REMARK    4  A    between atoms: N1_6  and  C6_9 
REMARK    5  A    between atoms: C6_9  and  C7_10 
REMARK    6  A    between atoms: C7_10  and  C8_11 
ROOT
HETATM    1  C1  UNL     1       5.206   1.658   0.084  1.00  0.00     0.012 C 
HETATM    2  C2  UNL     1       4.638   0.604  -0.075  1.00  0.00    -0.117 C 
HETATM    3  C3  UNL     1       3.987  -0.681  -0.279  1.00  0.00     0.095 C 
ENDROOT
BRANCH   3   4
HETATM    4  C4  UNL     1       2.764  -0.849   0.737  1.00  0.00     0.039 C 
BRANCH   4   5
HETATM    5  C5  UNL     1       1.809   0.230   0.377  1.00  0.00     0.233 C 
BRANCH   5   6
HETATM    6  N1  UNL     1       1.141  -0.134  -0.847  1.00  0.00    -0.075 N 
ATOM      7  H12 UNL     1       1.004   0.647  -1.489  1.00  0.00     0.277 HD
ATOM      8  H11 UNL     1       1.711  -0.704  -1.472  1.00  0.00     0.277 HD
BRANCH   6   9
HETATM    9  C6  UNL     1      -0.147  -0.802  -0.416  1.00  0.00     0.232 C 
BRANCH   9  10
HETATM   10  C7  UNL     1      -1.073   0.268   0.062  1.00  0.00     0.032 C 
BRANCH  10  11
HETATM   11  C8  UNL     1      -2.400  -0.315   0.540  1.00  0.00    -0.013 C 
HETATM   12  C9  UNL     1      -3.278   0.862   1.035  1.00  0.00     0.005 C 
HETATM   13  C10 UNL     1      -4.644   0.429   0.565  1.00  0.00     0.000 C 
HETATM   14  C11 UNL     1      -4.373   0.029  -0.847  1.00  0.00     0.000 C 
HETATM   15  C12 UNL     1      -3.110  -0.827  -0.722  1.00  0.00     0.005 C 
ENDBRANCH  10  11
ENDBRANCH   9  10
ENDBRANCH   6   9
ENDBRANCH   5   6
ENDBRANCH   4   5
ENDBRANCH   3   4
TORSDOF 6
