REMARK  3 active torsions:
REMARK  status: ('A' for Active; 'I' for Inactive)
REMARK    1  A    between atoms: C9_9  and  N1_10 
REMARK       I    between atoms: N1_10  and  C10_12 
REMARK    2  A    between atoms: C10_12  and  C11_14 
REMARK    3  A    between atoms: C12_15  and  C13_16 
ROOT
HETATM    1  C1  UNL     1      -6.674   3.182  -3.102  1.00  0.00     0.068 C 
HETATM    2  C2  UNL     1      -5.689   2.389  -2.290  1.00  0.00     0.006 A 
HETATM    3  C3  UNL     1      -5.965   1.404  -1.364  1.00  0.00     0.038 A 
HETATM    4  C4  UNL     1      -4.793   0.911  -0.828  1.00  0.00    -0.007 A 
HETATM    5  C5  UNL     1      -4.443  -0.042   0.102  1.00  0.00     0.026 A 
HETATM    6  C6  UNL     1      -3.142  -0.322   0.441  1.00  0.00    -0.025 A 
HETATM    7  C7  UNL     1      -2.786  -1.279   1.375  1.00  0.00     0.014 A 
HETATM    8  C8  UNL     1      -1.476  -1.510   1.667  1.00  0.00     0.030 A 
HETATM    9  C9  UNL     1      -0.445  -0.797   1.042  1.00  0.00     0.035 A 
HETATM   10  C18 UNL     1      -0.825   0.146   0.121  1.00  0.00     0.042 A 
HETATM   11  C19 UNL     1      -2.149   0.393  -0.188  1.00  0.00    -0.022 A 
HETATM   12  C20 UNL     1      -2.465   1.369  -1.138  1.00  0.00     0.042 A 
HETATM   13  C21 UNL     1      -3.786   1.620  -1.450  1.00  0.00     0.043 A 
HETATM   14  N3  UNL     1      -4.349   2.497  -2.319  1.00  0.00    -0.359 N 
ATOM     15  H3  UNL     1      -3.830   3.146  -2.910  1.00  0.00     0.166 HD
ENDROOT
BRANCH   9  16
HETATM   16  N1  UNL     1       0.860  -1.105   1.434  1.00  0.00    -0.324 N 
HETATM   17  C10 UNL     1       2.020  -0.783   0.704  1.00  0.00     0.245 C 
HETATM   18  O1  UNL     1       1.989  -0.190  -0.377  1.00  0.00    -0.268 OA
ATOM     19  H1  UNL     1       0.982  -1.601   2.317  1.00  0.00     0.169 HD
BRANCH  17  20
HETATM   20  C11 UNL     1       3.353  -1.154   1.222  1.00  0.00     0.075 C 
HETATM   21  C12 UNL     1       4.414  -0.846   0.532  1.00  0.00     0.017 C 
BRANCH  21  22
HETATM   22  C13 UNL     1       5.755  -1.177   0.975  1.00  0.00    -0.034 A 
HETATM   23  C14 UNL     1       6.067  -1.831   2.135  1.00  0.00     0.028 A 
HETATM   24  C15 UNL     1       7.364  -2.120   2.508  1.00  0.00     0.088 A 
HETATM   25  N2  UNL     1       8.366  -1.745   1.701  1.00  0.00    -0.375 N 
HETATM   26  C16 UNL     1       8.104  -1.105   0.559  1.00  0.00     0.088 A 
ATOM     27  H2  UNL     1       9.331  -1.949   1.960  1.00  0.00     0.164 HD
HETATM   28  C17 UNL     1       6.827  -0.802   0.160  1.00  0.00     0.028 A 
ENDBRANCH  21  22
ENDBRANCH  17  20
ENDBRANCH   9  16
TORSDOF 3
