REMARK  3 active torsions:
REMARK  status: ('A' for Active; 'I' for Inactive)
REMARK    1  A    between atoms: C6_6  and  N1_7 
REMARK    2  A    between atoms: N1_7  and  C7_9 
REMARK    3  A    between atoms: C12_14  and  C13_15 
ROOT
HETATM    1  C7  UNL     1       0.109   0.601  -1.174  1.00  0.00     0.041 A 
HETATM    2  C8  UNL     1       0.922   0.372  -2.290  1.00  0.00     0.030 A 
HETATM    3  C9  UNL     1       0.345   0.355  -3.547  1.00  0.00     0.002 A 
HETATM    4  C10 UNL     1      -1.013   0.564  -3.671  1.00  0.00     0.001 A 
HETATM    5  C11 UNL     1      -1.808   0.788  -2.585  1.00  0.00     0.016 A 
HETATM    6  C12 UNL     1      -1.243   0.808  -1.321  1.00  0.00     0.019 A 
ENDROOT
BRANCH   6   7
HETATM    7  C13 UNL     1      -2.061   1.104  -0.151  1.00  0.00     0.071 A 
HETATM    8  N2  UNL     1      -1.817   2.215   0.581  1.00  0.00    -0.296 N 
HETATM    9  N3  UNL     1      -2.495   2.559   1.639  1.00  0.00    -0.265 N 
ATOM     10  H2  UNL     1      -1.053   2.823   0.286  1.00  0.00     0.187 HD
HETATM   11  C14 UNL     1      -3.504   1.767   2.038  1.00  0.00     0.271 A 
ATOM     12  H3  UNL     1      -2.265   3.410   2.152  1.00  0.00     0.190 HD
HETATM   13  O1  UNL     1      -4.184   2.061   3.052  1.00  0.00    -0.266 OA
HETATM   14  C15 UNL     1      -3.828   0.611   1.354  1.00  0.00     0.046 A 
HETATM   15  C16 UNL     1      -4.854  -0.210   1.757  1.00  0.00     0.018 A 
HETATM   16  C20 UNL     1      -3.083   0.274   0.229  1.00  0.00     0.009 A 
HETATM   17  C17 UNL     1      -5.190  -1.373   1.093  1.00  0.00     0.001 A 
HETATM   18  C18 UNL     1      -4.439  -1.683  -0.013  1.00  0.00     0.001 A 
HETATM   19  C19 UNL     1      -3.400  -0.873  -0.441  1.00  0.00     0.015 A 
ENDBRANCH   6   7
BRANCH   1  20
HETATM   20  N1  UNL     1       0.752   0.600   0.091  1.00  0.00    -0.384 N 
ATOM     21  H1  UNL     1       0.200   0.819   0.920  1.00  0.00     0.160 HD
BRANCH  20  22
HETATM   22  C6  UNL     1       2.154   0.302   0.253  1.00  0.00     0.085 C 
HETATM   23  C5  UNL     1       2.607   0.628   1.674  1.00  0.00     0.026 C 
HETATM   24  C4  UNL     1       3.803  -0.202   2.072  1.00  0.00     0.006 C 
HETATM   25  C3  UNL     1       4.685  -0.586   0.905  1.00  0.00     0.033 C 
HETATM   26  C2  UNL     1       3.876  -1.317  -0.121  1.00  0.00    -0.087 C 
HETATM   27  C1  UNL     1       4.473  -1.994  -1.066  1.00  0.00     0.014 C 
HETATM   28  C21 UNL     1       2.403  -1.194   0.041  1.00  0.00     0.058 C 
ENDBRANCH  20  22
ENDBRANCH   1  20
TORSDOF 3
