REMARK  10 active torsions:
REMARK  status: ('A' for Active; 'I' for Inactive)
REMARK    1  A    between atoms: C2_2  and  C3_3 
REMARK    2  A    between atoms: C3_3  and  C4_4 
REMARK    3  A    between atoms: C4_4  and  C5_5 
REMARK    4  A    between atoms: C5_5  and  C6_6 
REMARK    5  A    between atoms: C6_6  and  N1_7 
REMARK    6  A    between atoms: N1_7  and  C7_9 
REMARK    7  A    between atoms: C7_9  and  C8_10 
REMARK    8  A    between atoms: C8_10  and  C9_11 
REMARK    9  A    between atoms: C9_11  and  C10_12 
REMARK   10  A    between atoms: C10_12  and  C11_13 
ROOT
HETATM    1  C8  UNL     1      -1.902   0.262  -0.526  1.00  0.00     0.044 C 
ENDROOT
BRANCH   1   2
HETATM    2  C7  UNL     1      -0.759  -0.367  -1.192  1.00  0.00     0.060 C 
BRANCH   2   3
HETATM    3  N1  UNL     1       0.582  -0.120  -0.911  1.00  0.00    -0.382 N 
ATOM      4  H1  UNL     1       1.155   0.363  -1.603  1.00  0.00     0.163 HD
BRANCH   3   5
HETATM    5  C6  UNL     1       1.159  -0.516   0.289  1.00  0.00     0.060 C 
BRANCH   5   6
HETATM    6  C5  UNL     1       2.688  -0.502   0.297  1.00  0.00     0.044 C 
BRANCH   6   7
HETATM    7  C4  UNL     1       3.304   0.813   0.011  1.00  0.00     0.005 C 
BRANCH   7   8
HETATM    8  C3  UNL     1       4.816   0.647   0.101  1.00  0.00     0.000 C 
BRANCH   8   9
HETATM    9  C2  UNL     1       5.377  -0.346  -0.859  1.00  0.00    -0.005 C 
HETATM   10  C1  UNL     1       6.895  -0.396  -0.642  1.00  0.00     0.005 C 
ENDBRANCH   8   9
ENDBRANCH   7   8
ENDBRANCH   6   7
ENDBRANCH   5   6
ENDBRANCH   3   5
ENDBRANCH   2   3
ENDBRANCH   1   2
BRANCH   1  11
HETATM   11  C9  UNL     1      -2.090   0.038   0.937  1.00  0.00     0.010 C 
BRANCH  11  12
HETATM   12  C10 UNL     1      -3.371   0.713   1.466  1.00  0.00     0.039 C 
BRANCH  12  13
HETATM   13  C11 UNL     1      -4.565   0.163   0.823  1.00  0.00    -0.056 A 
HETATM   14  C12 UNL     1      -5.169  -0.981   1.309  1.00  0.00     0.024 A 
HETATM   15  C13 UNL     1      -6.314  -1.514   0.730  1.00  0.00     0.088 A 
HETATM   16  N2  UNL     1      -6.863  -0.903  -0.344  1.00  0.00    -0.375 N 
HETATM   17  C14 UNL     1      -6.283   0.208  -0.824  1.00  0.00     0.088 A 
ATOM     18  H2  UNL     1      -7.704  -1.280  -0.782  1.00  0.00     0.164 HD
HETATM   19  C15 UNL     1      -5.155   0.752  -0.271  1.00  0.00     0.024 A 
ENDBRANCH  12  13
ENDBRANCH  11  12
ENDBRANCH   1  11
TORSDOF 10
