REMARK  10 active torsions:
REMARK  status: ('A' for Active; 'I' for Inactive)
REMARK    1  A    between atoms: C2_2  and  C3_3 
REMARK    2  A    between atoms: C3_3  and  C4_4 
REMARK    3  A    between atoms: C4_4  and  C5_5 
REMARK    4  A    between atoms: C5_5  and  C6_6 
REMARK    5  A    between atoms: C6_6  and  C7_7 
REMARK    6  A    between atoms: C10_10  and  C11_11 
REMARK    7  A    between atoms: C11_11  and  C12_12 
REMARK    8  A    between atoms: C12_12  and  C13_13 
REMARK    9  A    between atoms: C13_13  and  N1_14 
REMARK   10  A    between atoms: N1_14  and  C14_17 
ROOT
HETATM    1  C7  UNL     1       0.501  -1.054  -0.339  1.00  0.00    -0.010 C 
HETATM    2  C8  UNL     1      -0.247  -0.035  -1.123  1.00  0.00     0.005 C 
HETATM    3  C9  UNL     1      -1.253  -1.131  -1.409  1.00  0.00     0.005 C 
HETATM    4  C10 UNL     1      -0.804  -1.787  -0.154  1.00  0.00    -0.010 C 
ENDROOT
BRANCH   4   5
HETATM    5  C11 UNL     1      -1.556  -1.747   1.069  1.00  0.00     0.006 C 
BRANCH   5   6
HETATM    6  C12 UNL     1      -2.139  -0.608   1.733  1.00  0.00     0.028 C 
BRANCH   6   7
HETATM    7  C13 UNL     1      -3.195   0.212   1.067  1.00  0.00     0.232 C 
BRANCH   7   8
HETATM    8  N1  UNL     1      -4.393  -0.531   0.719  1.00  0.00    -0.075 N 
ATOM      9  H12 UNL     1      -4.198  -1.321   0.104  1.00  0.00     0.277 HD
ATOM     10  H11 UNL     1      -4.769  -1.057   1.508  1.00  0.00     0.277 HD
BRANCH   8  11
HETATM   11  C14 UNL     1      -5.358   0.385   0.154  1.00  0.00     0.228 C 
HETATM   12  C15 UNL     1      -4.858   0.865  -1.177  1.00  0.00     0.034 C 
ENDBRANCH   8  11
ENDBRANCH   7   8
ENDBRANCH   6   7
ENDBRANCH   5   6
ENDBRANCH   4   5
BRANCH   1  13
HETATM   13  C6  UNL     1       1.268  -0.670   0.838  1.00  0.00     0.005 C 
BRANCH  13  14
HETATM   14  C5  UNL     1       2.339   0.362   0.443  1.00  0.00     0.000 C 
BRANCH  14  15
HETATM   15  C4  UNL     1       3.260  -0.202  -0.544  1.00  0.00     0.000 C 
BRANCH  15  16
HETATM   16  C3  UNL     1       4.376   0.591  -1.080  1.00  0.00    -0.000 C 
BRANCH  16  17
HETATM   17  C2  UNL     1       5.425   1.121  -0.199  1.00  0.00    -0.005 C 
HETATM   18  C1  UNL     1       4.921   2.097   0.817  1.00  0.00     0.005 C 
ENDBRANCH  16  17
ENDBRANCH  15  16
ENDBRANCH  14  15
ENDBRANCH  13  14
ENDBRANCH   1  13
TORSDOF 10
