REMARK  3 active torsions:
REMARK  status: ('A' for Active; 'I' for Inactive)
REMARK       I    between atoms: C1_2  and  N1_4 
REMARK    1  A    between atoms: N1_4  and  C2_6 
REMARK    2  A    between atoms: C2_6  and  C3_7 
REMARK    3  A    between atoms: C6_11  and  C7_12 
ROOT
HETATM    1  C3  UNL     1      -0.927   0.853  -0.313  1.00  0.00     0.013 A 
HETATM    2  S1  UNL     1      -1.655   2.350   0.087  1.00  0.00    -0.104 SA
HETATM    3  C4  UNL     1      -0.339   3.153   0.813  1.00  0.00     0.051 A 
HETATM    4  C5  UNL     1       0.663   2.218   0.730  1.00  0.00     0.022 A 
HETATM    5  C6  UNL     1       0.378   1.036   0.156  1.00  0.00     0.014 A 
ENDROOT
BRANCH   5   6
HETATM    6  C7  UNL     1       1.389  -0.049  -0.004  1.00  0.00     0.105 A 
HETATM    7  N2  UNL     1       1.960  -0.482  -1.112  1.00  0.00    -0.290 N 
HETATM    8  N3  UNL     1       2.879  -1.365  -1.053  1.00  0.00    -0.259 N 
ATOM      9  H2  UNL     1       1.667  -0.111  -2.016  1.00  0.00     0.188 HD
HETATM   10  C8  UNL     1       3.236  -1.833   0.146  1.00  0.00     0.304 A 
ATOM     11  H3  UNL     1       3.331  -1.706  -1.902  1.00  0.00     0.191 HD
HETATM   12  O2  UNL     1       4.122  -2.719   0.415  1.00  0.00    -0.258 OA
HETATM   13  S2  UNL     1       2.203  -0.951   1.193  1.00  0.00    -0.008 SA
ENDBRANCH   5   6
BRANCH   1  14
HETATM   14  C2  UNL     1      -1.511  -0.252  -1.107  1.00  0.00     0.170 C 
BRANCH  14  15
HETATM   15  N1  UNL     1      -2.263  -1.158  -0.299  1.00  0.00    -0.343 N 
HETATM   16  C1  UNL     1      -2.851  -0.961   0.951  1.00  0.00     0.314 C 
HETATM   17  O1  UNL     1      -2.827   0.104   1.612  1.00  0.00    -0.254 OA
HETATM   18 CL1  UNL     1      -3.712  -2.292   1.733  1.00  0.00    -0.020 Cl
ATOM     19  H1  UNL     1      -2.389  -2.089  -0.695  1.00  0.00     0.164 HD
ENDBRANCH  14  15
ENDBRANCH   1  14
TORSDOF 3
