REMARK  2 active torsions:
REMARK  status: ('A' for Active; 'I' for Inactive)
REMARK    1  A    between atoms: S1_2  and  C1_4 
REMARK    2  A    between atoms: S1_2  and  N3_13 
ROOT
HETATM    1  C1  UNL     1      -1.551  -0.629  -0.299  1.00  0.00     0.094 A 
HETATM    2  C2  UNL     1      -2.133  -1.500   0.534  1.00  0.00     0.132 A 
HETATM    3  N1  UNL     1      -3.419  -1.239   1.083  1.00  0.00    -0.309 N 
ATOM      4  H1  UNL     1      -3.838  -1.922   1.715  1.00  0.00     0.186 HD
HETATM    5  N2  UNL     1      -4.119  -0.079   0.781  1.00  0.00    -0.290 N 
ATOM      6  H2  UNL     1      -5.041   0.104   1.178  1.00  0.00     0.188 HD
HETATM    7  C3  UNL     1      -3.496   0.846  -0.107  1.00  0.00     0.119 A 
HETATM    8 CL1  UNL     1      -4.316   2.332  -0.537  1.00  0.00    -0.063 Cl
HETATM    9  C4  UNL     1      -2.300   0.585  -0.607  1.00  0.00     0.069 A 
ENDROOT
BRANCH   1  10
HETATM   10  S1  UNL     1       0.005  -0.879  -1.003  1.00  0.00     0.245 S 
HETATM   11  O1  UNL     1       0.008  -0.352  -2.417  1.00  0.00    -0.206 OA
HETATM   12  O2  UNL     1       0.208  -2.383  -1.129  1.00  0.00    -0.206 OA
BRANCH  10  13
HETATM   13  N3  UNL     1       1.294  -0.266  -0.081  1.00  0.00    -0.205 NA
HETATM   14  C5  UNL     1       1.181   1.166   0.080  1.00  0.00     0.117 C 
HETATM   15  C6  UNL     1       2.275   1.771   0.885  1.00  0.00     0.089 C 
HETATM   16  S2  UNL     1       3.556   0.601   1.378  1.00  0.00    -0.167 SA
HETATM   17  C7  UNL     1       3.578  -0.842   0.249  1.00  0.00     0.089 C 
HETATM   18  C8  UNL     1       2.524  -0.520  -0.816  1.00  0.00     0.117 C 
ENDBRANCH  10  13
ENDBRANCH   1  10
TORSDOF 2
