REMARK  5 active torsions:
REMARK  status: ('A' for Active; 'I' for Inactive)
REMARK    1  A    between atoms: C2_2  and  S1_3 
REMARK    2  A    between atoms: S1_3  and  C3_4 
REMARK    3  A    between atoms: C4_7  and  C5_8 
REMARK    4  A    between atoms: C7_11  and  O1_12 
REMARK    5  A    between atoms: C8_14  and  O2_15 
ROOT
HETATM    1  C3  UNL     1       1.289  -0.504  -0.532  1.00  0.00     0.160 A 
HETATM    2  N1  UNL     1      -0.028  -0.771  -0.425  1.00  0.00    -0.320 N 
ATOM      3  H1  UNL     1      -0.470  -1.672  -0.606  1.00  0.00     0.169 HD
HETATM    4  C4  UNL     1      -0.651   0.336  -0.044  1.00  0.00     0.142 A 
HETATM    5  N2  UNL     1       0.303   1.285   0.080  1.00  0.00    -0.282 N 
ATOM      6  H2  UNL     1       0.132   2.250   0.362  1.00  0.00     0.188 HD
HETATM    7  N3  UNL     1       1.486   0.785  -0.215  1.00  0.00    -0.278 N 
ATOM      8  H3  UNL     1       2.377   1.281  -0.204  1.00  0.00     0.189 HD
ENDROOT
BRANCH   4   9
HETATM    9  C5  UNL     1      -2.082   0.603   0.223  1.00  0.00     0.086 A 
HETATM   10  S2  UNL     1      -2.766   2.116   0.707  1.00  0.00    -0.092 SA
HETATM   11  C6  UNL     1      -4.396   1.655   0.810  1.00  0.00     0.090 A 
HETATM   12  C7  UNL     1      -4.372   0.341   0.468  1.00  0.00     0.106 A 
HETATM   13  C8  UNL     1      -3.170  -0.208   0.162  1.00  0.00     0.120 A 
BRANCH  12  14
HETATM   14  O1  UNL     1      -5.569  -0.420   0.435  1.00  0.00    -0.357 OA
ATOM     15  H1  UNL     1      -5.552  -1.339   0.196  1.00  0.00     0.217 HD
ENDBRANCH  12  14
BRANCH  13  16
HETATM   16  O2  UNL     1      -3.033  -1.579  -0.210  1.00  0.00    -0.357 OA
ATOM     17  H2  UNL     1      -3.794  -2.146  -0.253  1.00  0.00     0.218 HD
ENDBRANCH  13  16
ENDBRANCH   4   9
BRANCH   1  18
HETATM   18  S1  UNL     1       2.559  -1.649  -1.012  1.00  0.00    -0.093 SA
BRANCH  18  19
HETATM   19  C2  UNL     1       4.157  -0.813  -1.007  1.00  0.00     0.078 C 
HETATM   20  C1  UNL     1       4.577  -0.402   0.391  1.00  0.00     0.016 C 
ENDBRANCH  18  19
ENDBRANCH   1  18
TORSDOF 5
