REMARK  2 active torsions:
REMARK  status: ('A' for Active; 'I' for Inactive)
REMARK       I    between atoms: C1_2  and  N1_3 
REMARK    1  A    between atoms: C1_2  and  C5_10 
REMARK    2  A    between atoms: N1_3  and  C2_5 
ROOT
HETATM    1  C5  UNL     1       1.506  -0.354  -0.333  1.00  0.00     0.116 A 
HETATM    2  C6  UNL     1       2.071   0.566   0.508  1.00  0.00     0.042 A 
HETATM    3  C7  UNL     1       3.442   0.799   0.529  1.00  0.00     0.078 A 
HETATM    4  C8  UNL     1       4.212   0.060  -0.337  1.00  0.00     0.259 A 
HETATM    5  O2  UNL     1       5.469   0.228  -0.363  1.00  0.00    -0.267 OA
HETATM    6  N2  UNL     1       3.637  -0.840  -1.156  1.00  0.00    -0.266 N 
ATOM      7  H2  UNL     1       4.223  -1.380  -1.793  1.00  0.00     0.190 HD
HETATM    8  N3  UNL     1       2.305  -1.044  -1.154  1.00  0.00    -0.293 N 
ATOM      9  H3  UNL     1       1.901  -1.734  -1.787  1.00  0.00     0.187 HD
ENDROOT
BRANCH   1  10
HETATM   10  C1  UNL     1       0.083  -0.574  -0.333  1.00  0.00     0.274 C 
HETATM   11  O1  UNL     1      -0.418  -1.441  -1.130  1.00  0.00    -0.266 OA
HETATM   12  N1  UNL     1      -0.819   0.128   0.517  1.00  0.00    -0.316 N 
ATOM     13  H1  UNL     1      -0.477   0.830   1.173  1.00  0.00     0.170 HD
BRANCH  12  14
HETATM   14  C2  UNL     1      -2.246  -0.179   0.429  1.00  0.00     0.080 C 
HETATM   15  C3  UNL     1      -3.190   0.651   0.121  1.00  0.00     0.022 C 
HETATM   16  C4  UNL     1      -4.577   0.261   0.058  1.00  0.00     0.116 C 
HETATM   17  S1  UNL     1      -4.700  -1.538  -0.183  1.00  0.00    -0.087 SA
HETATM   18  S2  UNL     1      -2.774  -1.858   0.764  1.00  0.00    -0.040 SA
ENDBRANCH  12  14
ENDBRANCH   1  10
TORSDOF 2
