REMARK  14 active torsions:
REMARK  status: ('A' for Active; 'I' for Inactive)
REMARK    1  A    between atoms: C5_12  and  C6_13 
REMARK    2  A    between atoms: C6_13  and  C7_14 
REMARK    3  A    between atoms: C10_17  and  O2_18 
REMARK    4  A    between atoms: O2_18  and  C11_19 
REMARK    5  A    between atoms: C11_19  and  C12_20 
REMARK    6  A    between atoms: C12_20  and  C13_21 
REMARK    7  A    between atoms: C13_21  and  C14_22 
REMARK    8  A    between atoms: C14_22  and  C15_23 
REMARK    9  A    between atoms: C15_23  and  C16_24 
REMARK   10  A    between atoms: C16_24  and  C17_25 
REMARK   11  A    between atoms: C17_25  and  C18_26 
REMARK   12  A    between atoms: C18_26  and  C19_27 
REMARK   13  A    between atoms: C24_37  and  N6_38 
REMARK   14  A    between atoms: N6_38  and  C25_40 
ROOT
HETATM    1  C7  UNL     1      -4.184   0.844  -1.585  1.00  0.00    -0.026 A 
HETATM    2  C8  UNL     1      -2.992   1.149  -2.240  1.00  0.00     0.012 A 
HETATM    3  C9  UNL     1      -1.816   0.462  -2.075  1.00  0.00     0.037 A 
HETATM    4  C10 UNL     1      -1.848  -0.591  -1.197  1.00  0.00     0.070 A 
HETATM    5  C23 UNL     1      -3.056  -0.916  -0.526  1.00  0.00     0.067 A 
HETATM    6  C24 UNL     1      -4.215  -0.203  -0.719  1.00  0.00     0.058 A 
ENDROOT
BRANCH   4   7
HETATM    7  O2  UNL     1      -0.752  -1.369  -0.916  1.00  0.00    -0.351 OA
BRANCH   7   8
HETATM    8  C11 UNL     1       0.521  -1.203  -1.406  1.00  0.00     0.175 C 
BRANCH   8   9
HETATM    9  C12 UNL     1       1.135   0.082  -0.908  1.00  0.00     0.027 C 
BRANCH   9  10
HETATM   10  C13 UNL     1       2.513   0.212  -1.489  1.00  0.00     0.002 C 
BRANCH  10  11
HETATM   11  C14 UNL     1       3.485  -0.852  -1.101  1.00  0.00     0.000 C 
BRANCH  11  12
HETATM   12  C15 UNL     1       3.662  -0.843   0.397  1.00  0.00     0.000 C 
BRANCH  12  13
HETATM   13  C16 UNL     1       4.660  -1.873   0.857  1.00  0.00     0.000 C 
BRANCH  13  14
HETATM   14  C17 UNL     1       6.030  -1.636   0.251  1.00  0.00     0.002 C 
BRANCH  14  15
HETATM   15  C18 UNL     1       6.481  -0.278   0.666  1.00  0.00     0.035 C 
BRANCH  15  16
HETATM   16  C19 UNL     1       7.834   0.127   0.145  1.00  0.00     0.203 C 
HETATM   17  C20 UNL     1       8.213   1.490   0.591  1.00  0.00     0.146 C 
HETATM   18  N4  UNL     1       9.288   1.608   1.509  1.00  0.00    -0.418 N 
HETATM   19  C21 UNL     1      10.469   0.871   1.168  1.00  0.00     0.141 C 
ATOM     20  H4  UNL     1       9.225   2.178   2.353  1.00  0.00     0.153 HD
HETATM   21  C22 UNL     1      10.197  -0.288   0.245  1.00  0.00     0.252 C 
HETATM   22  N5  UNL     1       8.877  -0.833   0.411  1.00  0.00    -0.068 N 
ATOM     23  H52 UNL     1       8.766  -1.244   1.338  1.00  0.00     0.277 HD
ATOM     24  H51 UNL     1       8.755  -1.671  -0.158  1.00  0.00     0.277 HD
ENDBRANCH  15  16
ENDBRANCH  14  15
ENDBRANCH  13  14
ENDBRANCH  12  13
ENDBRANCH  11  12
ENDBRANCH  10  11
ENDBRANCH   9  10
ENDBRANCH   8   9
ENDBRANCH   7   8
ENDBRANCH   4   7
BRANCH   6  25
HETATM   25  N6  UNL     1      -5.408  -0.571  -0.057  1.00  0.00    -0.192 N 
ATOM     26  H6  UNL     1      -6.238  -0.025  -0.290  1.00  0.00     0.184 HD
BRANCH  25  27
HETATM   27  C25 UNL     1      -5.586  -1.594   0.879  1.00  0.00     0.674 C 
HETATM   28  N7  UNL     1      -6.778  -2.211   0.915  1.00  0.00    -0.226 N 
HETATM   29  C26 UNL     1      -6.971  -3.286   1.901  1.00  0.00     0.139 C 
ATOM     30  H7  UNL     1      -7.528  -1.942   0.278  1.00  0.00     0.177 HD
HETATM   31  C27 UNL     1      -5.784  -4.224   1.856  1.00  0.00     0.040 C 
HETATM   32  C28 UNL     1      -4.545  -3.462   2.169  1.00  0.00     0.139 C 
HETATM   33  N8  UNL     1      -4.678  -2.069   1.846  1.00  0.00    -0.226 N 
ATOM     34  H8  UNL     1      -4.090  -1.395   2.337  1.00  0.00     0.177 HD
ENDBRANCH  25  27
ENDBRANCH   6  25
BRANCH   1  35
HETATM   35  C6  UNL     1      -5.303   1.755  -1.909  1.00  0.00     0.084 C 
BRANCH  35  36
HETATM   36  C5  UNL     1      -5.583   2.804  -0.942  1.00  0.00     0.006 A 
HETATM   37  C2  UNL     1      -6.752   2.998  -0.295  1.00  0.00     0.116 A 
HETATM   38  N1  UNL     1      -7.864   2.504  -0.505  1.00  0.00    -0.362 N 
HETATM   39  N2  UNL     1      -6.763   3.963   0.704  1.00  0.00    -0.294 N 
HETATM   40  C1  UNL     1      -8.621   1.619  -1.220  1.00  0.00     0.120 C 
ATOM     41  H1  UNL     1      -8.503   2.960   0.146  1.00  0.00     0.165 HD
HETATM   42  C3  UNL     1      -5.716   4.692   1.049  1.00  0.00     0.325 A 
ATOM     43  H2  UNL     1      -7.638   4.119   1.205  1.00  0.00     0.172 HD
HETATM   44  O1  UNL     1      -5.793   5.569   1.984  1.00  0.00    -0.247 OA
HETATM   45  N3  UNL     1      -4.564   4.497   0.401  1.00  0.00    -0.318 N 
HETATM   46  C4  UNL     1      -4.467   3.578  -0.580  1.00  0.00     0.104 A 
ATOM     47  H3  UNL     1      -3.746   5.052   0.652  1.00  0.00     0.170 HD
ENDBRANCH  35  36
ENDBRANCH   1  35
TORSDOF 14
