REMARK  20 active torsions:
REMARK  status: ('A' for Active; 'I' for Inactive)
REMARK    1  A    between atoms: C4_4  and  C5_5 
REMARK    2  A    between atoms: C5_5  and  C6_6 
REMARK    3  A    between atoms: C7_7  and  C9_9 
REMARK    4  A    between atoms: C9_9  and  C10_10 
REMARK    5  A    between atoms: C10_10  and  C11_11 
REMARK    6  A    between atoms: C12_12  and  C13_13 
REMARK    7  A    between atoms: C13_13  and  C14_14 
REMARK    8  A    between atoms: C14_14  and  C15_15 
REMARK    9  A    between atoms: C15_15  and  O1_16 
REMARK   10  A    between atoms: C15_15  and  C16_18 
REMARK   11  A    between atoms: C18_20  and  O2_21 
REMARK   12  A    between atoms: C18_20  and  C19_23 
REMARK   13  A    between atoms: C19_23  and  C21_25 
REMARK   14  A    between atoms: C19_23  and  N1_40 
REMARK   15  A    between atoms: C21_25  and  O3_26 
REMARK   16  A    between atoms: C21_25  and  C22_28 
REMARK   17  A    between atoms: C23_30  and  C24_31 
REMARK   18  A    between atoms: C24_31  and  O5_32 
REMARK   19  A    between atoms: C25_34  and  O6_35 
REMARK   20  A    between atoms: C26_37  and  O7_38 
ROOT
HETATM    1  C16 UNL     1      -1.823   0.756  -0.086  1.00  0.00    -0.023 C 
HETATM    2  C17 UNL     1      -0.947   1.718  -0.755  1.00  0.00     0.049 C 
HETATM    3  C18 UNL     1      -2.694  -0.209  -0.716  1.00  0.00     0.089 C 
ENDROOT
BRANCH   3   4
HETATM    4  O2  UNL     1      -1.932  -1.268  -1.237  1.00  0.00    -0.362 OA
ATOM      5  H2  UNL     1      -2.505  -1.903  -1.651  1.00  0.00     0.217 HD
ENDBRANCH   3   4
BRANCH   3   6
HETATM    6  C19 UNL     1      -3.848   0.060  -1.556  1.00  0.00     0.232 C 
HETATM    7  C20 UNL     1      -3.602   0.004  -3.068  1.00  0.00     0.060 C 
BRANCH   6   8
HETATM    8  C21 UNL     1      -4.774  -1.210  -1.399  1.00  0.00     0.195 C 
BRANCH   8   9
HETATM    9  O3  UNL     1      -5.812  -1.057  -2.312  1.00  0.00    -0.390 OA
ATOM     10  H3  UNL     1      -6.369  -1.821  -2.218  1.00  0.00     0.210 HD
ENDBRANCH   8   9
BRANCH   8  11
HETATM   11  C22 UNL     1      -5.367  -1.287  -0.015  1.00  0.00     0.185 C 
HETATM   12  O4  UNL     1      -6.013  -0.211   0.458  1.00  0.00    -0.370 OA
HETATM   13  C23 UNL     1      -7.343  -0.475   0.698  1.00  0.00     0.177 C 
HETATM   14  C25 UNL     1      -7.678  -1.851   0.260  1.00  0.00     0.180 C 
HETATM   15  C26 UNL     1      -6.338  -2.456  -0.076  1.00  0.00     0.181 C 
BRANCH  13  16
HETATM   16  C24 UNL     1      -7.829  -0.253   2.093  1.00  0.00     0.198 C 
BRANCH  16  17
HETATM   17  O5  UNL     1      -7.657   1.083   2.471  1.00  0.00    -0.398 OA
ATOM     18  H5  UNL     1      -7.966   1.224   3.358  1.00  0.00     0.209 HD
ENDBRANCH  16  17
ENDBRANCH  13  16
BRANCH  14  19
HETATM   19  O6  UNL     1      -8.365  -2.591   1.207  1.00  0.00    -0.390 OA
ATOM     20  H6  UNL     1      -8.580  -3.473   0.926  1.00  0.00     0.210 HD
ENDBRANCH  14  19
BRANCH  15  21
HETATM   21  O7  UNL     1      -6.011  -3.468   0.834  1.00  0.00    -0.390 OA
ATOM     22  H7  UNL     1      -6.618  -4.198   0.796  1.00  0.00     0.210 HD
ENDBRANCH  15  21
ENDBRANCH   8  11
ENDBRANCH   6   8
BRANCH   6  23
HETATM   23  N1  UNL     1      -4.779   1.101  -1.227  1.00  0.00     0.107 N 
HETATM   24  C27 UNL     1      -4.504   2.431  -1.043  1.00  0.00     0.276 A 
HETATM   25  C28 UNL     1      -5.398   2.851  -2.186  1.00  0.00     0.060 A 
HETATM   26  C29 UNL     1      -5.756   1.402  -2.268  1.00  0.00     0.276 A 
ENDBRANCH   6  23
ENDBRANCH   3   6
BRANCH   1  27
HETATM   27  C15 UNL     1      -1.013   0.239   1.114  1.00  0.00     0.159 C 
BRANCH  27  28
HETATM   28  C14 UNL     1       0.344  -0.264   0.689  1.00  0.00     0.121 C 
BRANCH  28  29
HETATM   29  C13 UNL     1       1.455   0.262   1.030  1.00  0.00    -0.153 C 
BRANCH  29  30
HETATM   30  C12 UNL     1       2.644   0.847   1.412  1.00  0.00     0.047 C 
HETATM   31  C11 UNL     1       3.906   0.473   0.986  1.00  0.00    -0.019 C 
BRANCH  31  32
HETATM   32  C10 UNL     1       4.892   1.308   1.619  1.00  0.00     0.032 C 
BRANCH  32  33
HETATM   33  C9  UNL     1       6.161   0.628   0.823  1.00  0.00     0.037 C 
BRANCH  33  34
HETATM   34  C7  UNL     1       7.371   1.198   1.176  1.00  0.00    -0.087 C 
HETATM   35  C6  UNL     1       8.529   0.845   0.660  1.00  0.00    -0.021 C 
HETATM   36  C8  UNL     1       7.452   2.319   2.209  1.00  0.00     0.043 C 
BRANCH  35  37
HETATM   37  C5  UNL     1       8.680  -0.231  -0.355  1.00  0.00     0.054 C 
BRANCH  37  38
HETATM   38  C4  UNL     1       9.710  -1.178   0.107  1.00  0.00    -0.021 C 
HETATM   39  C2  UNL     1      10.864  -1.328  -0.471  1.00  0.00    -0.091 C 
HETATM   40  C1  UNL     1      11.857  -2.336   0.085  1.00  0.00     0.042 C 
HETATM   41  C3  UNL     1      11.308  -0.572  -1.648  1.00  0.00     0.042 C 
ENDBRANCH  37  38
ENDBRANCH  35  37
ENDBRANCH  33  34
ENDBRANCH  32  33
ENDBRANCH  31  32
ENDBRANCH  29  30
ENDBRANCH  28  29
ENDBRANCH  27  28
BRANCH  27  42
HETATM   42  O1  UNL     1      -1.707  -0.739   1.803  1.00  0.00    -0.390 OA
ATOM     43  H1  UNL     1      -2.562  -0.422   2.071  1.00  0.00     0.210 HD
ENDBRANCH  27  42
ENDBRANCH   1  27
TORSDOF 20
