REMARK  14 active torsions:
REMARK  status: ('A' for Active; 'I' for Inactive)
REMARK    1  A    between atoms: C2_2  and  C3_3 
REMARK    2  A    between atoms: C3_3  and  N1_4 
REMARK    3  A    between atoms: N1_4  and  C4_5 
REMARK    4  A    between atoms: N1_4  and  C12_22 
REMARK    5  A    between atoms: C4_5  and  C5_6 
REMARK    6  A    between atoms: C5_6  and  N2_7 
REMARK       I    between atoms: N2_7  and  C6_9 
REMARK    7  A    between atoms: C6_9  and  C7_11 
REMARK    8  A    between atoms: C9_13  and  C10_14 
REMARK    9  A    between atoms: C12_22  and  C13_23 
REMARK   10  A    between atoms: C13_23  and  C14_24 
REMARK   11  A    between atoms: N6_27  and  C17_28 
REMARK   12  A    between atoms: C18_31  and  N8_32 
REMARK   13  A    between atoms: C19_37  and  S1_38 
REMARK   14  A    between atoms: S1_38  and  C20_39 
ROOT
HETATM    1  C12 UNL     1      -0.493  -1.826  -1.018  1.00  0.00     0.127 C 
ENDROOT
BRANCH   1   2
HETATM    2  N1  UNL     1      -1.820  -2.253  -1.329  1.00  0.00    -0.372 N 
BRANCH   2   3
HETATM    3  C3  UNL     1      -1.956  -3.595  -1.685  1.00  0.00     0.062 C 
BRANCH   3   4
HETATM    4  C2  UNL     1      -2.523  -4.576  -0.734  1.00  0.00     0.040 C 
HETATM    5  C1  UNL     1      -1.683  -4.605   0.551  1.00  0.00     0.010 C 
ENDBRANCH   3   4
ENDBRANCH   2   3
BRANCH   2   6
HETATM    6  C4  UNL     1      -2.888  -1.399  -1.143  1.00  0.00     0.082 C 
BRANCH   6   7
HETATM    7  C5  UNL     1      -3.818  -1.573   0.002  1.00  0.00     0.167 C 
BRANCH   7   8
HETATM    8  N2  UNL     1      -4.830  -0.489  -0.015  1.00  0.00    -0.351 N 
HETATM    9  C6  UNL     1      -5.838  -0.465   0.979  1.00  0.00     0.268 C 
HETATM   10  O1  UNL     1      -5.915  -1.343   1.883  1.00  0.00    -0.266 OA
ATOM     11  H2  UNL     1      -4.800   0.232  -0.736  1.00  0.00     0.163 HD
BRANCH   9  12
HETATM   12  C7  UNL     1      -6.819   0.622   0.946  1.00  0.00     0.101 A 
HETATM   13  C8  UNL     1      -6.860   1.706   0.095  1.00  0.00     0.051 A 
HETATM   14  C9  UNL     1      -7.939   2.490   0.383  1.00  0.00     0.022 A 
HETATM   15  C11 UNL     1      -8.577   1.874   1.435  1.00  0.00     0.103 A 
HETATM   16  N5  UNL     1      -7.901   0.759   1.765  1.00  0.00    -0.361 N 
ATOM     17  H5  UNL     1      -8.158   0.115   2.513  1.00  0.00     0.165 HD
BRANCH  14  18
HETATM   18  C10 UNL     1      -8.333   3.738  -0.282  1.00  0.00     0.121 C 
HETATM   19  N3  UNL     1      -9.388   4.383   0.087  1.00  0.00    -0.387 N 
ATOM     20  H32 UNL     1      -9.946   4.005   0.853  1.00  0.00     0.157 HD
ATOM     21  H31 UNL     1      -9.662   5.250  -0.375  1.00  0.00     0.157 HD
HETATM   22  N4  UNL     1      -7.562   4.261  -1.340  1.00  0.00    -0.082 NA
ENDBRANCH  14  18
ENDBRANCH   9  12
ENDBRANCH   7   8
ENDBRANCH   6   7
ENDBRANCH   2   6
ENDBRANCH   1   2
BRANCH   1  23
HETATM   23  C13 UNL     1      -0.439  -0.357  -0.812  1.00  0.00     0.025 C 
BRANCH  23  24
HETATM   24  C14 UNL     1       0.962   0.139  -0.493  1.00  0.00    -0.010 C 
HETATM   25  C15 UNL     1       1.941  -0.201  -1.569  1.00  0.00     0.024 C 
HETATM   26  C16 UNL     1       3.259   0.433  -1.155  1.00  0.00     0.125 C 
HETATM   27  N6  UNL     1       3.718  -0.146   0.073  1.00  0.00    -0.366 N 
HETATM   28  C24 UNL     1       2.817  -0.777   0.980  1.00  0.00     0.125 C 
HETATM   29  C25 UNL     1       1.428  -0.278   0.852  1.00  0.00     0.024 C 
BRANCH  27  30
HETATM   30  C17 UNL     1       5.102  -0.133   0.404  1.00  0.00     0.127 A 
HETATM   31  N7  UNL     1       5.830  -1.278   0.324  1.00  0.00    -0.176 N 
HETATM   32  C18 UNL     1       7.133  -1.336   0.611  1.00  0.00     0.678 A 
ATOM     33  H7  UNL     1       5.359  -2.134   0.031  1.00  0.00     0.186 HD
HETATM   34  N9  UNL     1       7.776  -0.227   0.999  1.00  0.00    -0.185 N 
HETATM   35  C19 UNL     1       7.091   0.950   1.094  1.00  0.00     0.095 A 
ATOM     36  H9  UNL     1       8.771  -0.262   1.222  1.00  0.00     0.185 HD
HETATM   37  C22 UNL     1       5.746   1.016   0.800  1.00  0.00     0.017 A 
HETATM   38  C23 UNL     1       4.951   2.262   0.903  1.00  0.00     0.055 C 
BRANCH  32  39
HETATM   39  N8  UNL     1       7.816  -2.445   0.534  1.00  0.00    -0.234 N 
ATOM     40  H82 UNL     1       7.326  -3.290   0.239  1.00  0.00     0.174 HD
ATOM     41  H81 UNL     1       8.811  -2.489   0.753  1.00  0.00     0.174 HD
ENDBRANCH  32  39
BRANCH  35  42
HETATM   42  S1  UNL     1       7.964   2.410   1.642  1.00  0.00    -0.112 SA
BRANCH  42  43
HETATM   43  C20 UNL     1       8.736   3.200   0.222  1.00  0.00     0.076 C 
HETATM   44  C21 UNL     1       7.707   3.761  -0.698  1.00  0.00     0.016 C 
ENDBRANCH  42  43
ENDBRANCH  35  42
ENDBRANCH  27  30
ENDBRANCH  23  24
ENDBRANCH   1  23
TORSDOF 14
