REMARK  9 active torsions:
REMARK  status: ('A' for Active; 'I' for Inactive)
REMARK    1  A    between atoms: O1_2  and  C2_3 
REMARK    2  A    between atoms: C4_5  and  C5_6 
REMARK    3  A    between atoms: C6_8  and  C7_9 
REMARK    4  A    between atoms: C8_10  and  O2_11 
REMARK    5  A    between atoms: C12_17  and  O3_18 
REMARK    6  A    between atoms: C14_20  and  O4_21 
REMARK    7  A    between atoms: C18_25  and  O5_26 
REMARK    8  A    between atoms: C20_29  and  O6_30 
REMARK    9  A    between atoms: C22_32  and  O7_33 
ROOT
HETATM    1  C7  UNL     1      -0.850  -0.736   0.420  1.00  0.00     0.034 A 
HETATM    2  C8  UNL     1      -1.233  -1.714   1.348  1.00  0.00     0.079 A 
HETATM    3  C9  UNL     1      -2.526  -1.865   1.779  1.00  0.00     0.053 A 
HETATM    4  C10 UNL     1      -3.495  -1.044   1.302  1.00  0.00     0.021 A 
HETATM    5  C11 UNL     1      -4.815  -1.202   1.748  1.00  0.00     0.163 A 
HETATM    6  F2  UNL     1      -5.146  -2.157   2.645  1.00  0.00    -0.202 F 
HETATM    7  C12 UNL     1      -5.805  -0.383   1.277  1.00  0.00     0.141 A 
HETATM    8  C14 UNL     1      -5.460   0.597   0.355  1.00  0.00     0.105 A 
HETATM    9  C16 UNL     1      -4.167   0.755  -0.085  1.00  0.00     0.055 A 
HETATM   10  C17 UNL     1      -3.164  -0.076   0.393  1.00  0.00     0.014 A 
HETATM   11  C18 UNL     1      -1.850   0.086  -0.055  1.00  0.00     0.090 A 
ENDROOT
BRANCH   1  12
HETATM   12  C6  UNL     1       0.543  -0.648  -0.004  1.00  0.00     0.060 C 
HETATM   13  C5  UNL     1       1.334   0.377   0.192  1.00  0.00     0.127 C 
HETATM   14  F1  UNL     1       0.834   1.445   0.904  1.00  0.00    -0.205 F 
BRANCH  13  15
HETATM   15  C4  UNL     1       2.717   0.444  -0.244  1.00  0.00     0.008 A 
HETATM   16  C3  UNL     1       3.329  -0.593  -0.907  1.00  0.00     0.054 A 
HETATM   17  C2  UNL     1       4.665  -0.481  -1.312  1.00  0.00     0.105 A 
HETATM   18  C22 UNL     1       5.338   0.668  -1.037  1.00  0.00     0.135 A 
HETATM   19  C20 UNL     1       4.769   1.743  -0.371  1.00  0.00     0.105 A 
HETATM   20  C19 UNL     1       3.457   1.589   0.008  1.00  0.00     0.054 A 
BRANCH  17  21
HETATM   21  O1  UNL     1       5.276  -1.525  -1.978  1.00  0.00    -0.353 OA
HETATM   22  C1  UNL     1       4.515  -2.687  -2.227  1.00  0.00     0.210 C 
ENDBRANCH  17  21
BRANCH  18  23
HETATM   23  O7  UNL     1       6.656   0.790  -1.432  1.00  0.00    -0.351 OA
HETATM   24  C23 UNL     1       7.644   0.353  -0.488  1.00  0.00     0.210 C 
ENDBRANCH  18  23
BRANCH  19  25
HETATM   25  O6  UNL     1       5.506   2.888  -0.119  1.00  0.00    -0.353 OA
HETATM   26  C21 UNL     1       4.864   3.948   0.563  1.00  0.00     0.210 C 
ENDBRANCH  19  25
ENDBRANCH  13  15
ENDBRANCH   1  12
BRANCH   2  27
HETATM   27  O2  UNL     1      -0.237  -2.559   1.840  1.00  0.00    -0.360 OA
ATOM     28  H2  UNL     1      -0.497  -3.222   2.469  1.00  0.00     0.217 HD
ENDBRANCH   2  27
BRANCH  11  29
HETATM   29  O5  UNL     1      -1.595   1.080  -0.985  1.00  0.00    -0.359 OA
ATOM     30  H5  UNL     1      -2.284   1.646  -1.312  1.00  0.00     0.217 HD
ENDBRANCH  11  29
BRANCH   8  31
HETATM   31  O4  UNL     1      -6.464   1.426  -0.121  1.00  0.00    -0.353 OA
HETATM   32  C15 UNL     1      -6.172   2.426  -1.047  1.00  0.00     0.210 C 
ENDBRANCH   8  31
BRANCH   7  33
HETATM   33  O3  UNL     1      -7.124  -0.522   1.706  1.00  0.00    -0.350 OA
HETATM   34  C13 UNL     1      -7.969  -1.385   0.980  1.00  0.00     0.210 C 
ENDBRANCH   7  33
TORSDOF 9
