REMARK  9 active torsions:
REMARK  status: ('A' for Active; 'I' for Inactive)
REMARK    1  A    between atoms: C2_2  and  O1_5 
REMARK    2  A    between atoms: O1_5  and  C5_6 
REMARK    3  A    between atoms: C5_6  and  C6_7 
REMARK    4  A    between atoms: C6_7  and  O2_8 
REMARK    5  A    between atoms: O2_8  and  C7_9 
REMARK    6  A    between atoms: C10_12  and  C11_13 
REMARK    7  A    between atoms: C15_21  and  N3_22 
REMARK    8  A    between atoms: N3_22  and  C16_24 
REMARK    9  A    between atoms: C21_29  and  C22_30 
ROOT
HETATM    1  C11 UNL     1      -1.610   1.174   1.927  1.00  0.00     0.106 A 
HETATM    2  N1  UNL     1      -1.669   2.285   2.769  1.00  0.00    -0.331 N 
ATOM      3  H1  UNL     1      -0.877   2.856   3.065  1.00  0.00     0.168 HD
HETATM    4  C12 UNL     1      -2.941   2.469   3.119  1.00  0.00     0.157 A 
HETATM    5  S1  UNL     1      -3.991   3.452   4.042  1.00  0.00    -0.064 SA
HETATM    6  C13 UNL     1      -5.451   2.650   3.683  1.00  0.00     0.071 A 
HETATM    7  C14 UNL     1      -5.029   1.648   2.852  1.00  0.00     0.108 A 
HETATM    8  N2  UNL     1      -3.741   1.571   2.574  1.00  0.00    -0.286 N 
HETATM    9  C15 UNL     1      -2.889   0.737   1.798  1.00  0.00     0.139 A 
ENDROOT
BRANCH   1  10
HETATM   10  C10 UNL     1      -0.317   0.705   1.450  1.00  0.00     0.065 A 
HETATM   11  C9  UNL     1       0.033  -0.439   0.818  1.00  0.00     0.036 A 
HETATM   12  C8  UNL     1       1.414  -0.463   0.733  1.00  0.00     0.058 A 
HETATM   13  C7  UNL     1       1.917   0.665   1.314  1.00  0.00     0.142 A 
HETATM   14  N4  UNL     1       0.849   1.360   1.742  1.00  0.00    -0.335 N 
ATOM     15  H4  UNL     1       0.901   2.259   2.222  1.00  0.00     0.168 HD
BRANCH  13  16
HETATM   16  O2  UNL     1       3.253   1.055   1.454  1.00  0.00    -0.334 OA
BRANCH  16  17
HETATM   17  C6  UNL     1       4.218   0.122   0.902  1.00  0.00     0.203 C 
BRANCH  17  18
HETATM   18  C5  UNL     1       5.597   0.604   1.089  1.00  0.00     0.195 C 
BRANCH  18  19
HETATM   19  O1  UNL     1       6.557  -0.207   0.619  1.00  0.00    -0.379 OA
BRANCH  19  20
HETATM   20  C2  UNL     1       6.716  -0.578  -0.647  1.00  0.00     0.050 C 
HETATM   21  C1  UNL     1       8.035  -1.411  -0.699  1.00  0.00     0.045 C 
HETATM   22  C3  UNL     1       5.689  -1.501  -1.227  1.00  0.00     0.045 C 
HETATM   23  C4  UNL     1       6.974   0.616  -1.551  1.00  0.00     0.045 C 
ENDBRANCH  19  20
ENDBRANCH  18  19
ENDBRANCH  17  18
ENDBRANCH  16  17
ENDBRANCH  13  16
ENDBRANCH   1  10
BRANCH   9  24
HETATM   24  N3  UNL     1      -3.432  -0.174   0.873  1.00  0.00    -0.369 N 
ATOM     25  H3  UNL     1      -4.254  -0.651   1.243  1.00  0.00     0.161 HD
BRANCH  24  26
HETATM   26  C16 UNL     1      -3.122  -0.591  -0.437  1.00  0.00     0.092 C 
HETATM   27  C17 UNL     1      -3.377  -2.051  -0.696  1.00  0.00     0.026 C 
HETATM   28  C18 UNL     1      -4.661  -2.377  -1.361  1.00  0.00     0.002 C 
HETATM   29  C19 UNL     1      -5.847  -1.579  -0.867  1.00  0.00     0.001 C 
HETATM   30  C20 UNL     1      -5.561  -0.094  -0.886  1.00  0.00     0.012 C 
HETATM   31  C21 UNL     1      -4.178   0.115  -1.371  1.00  0.00     0.073 C 
BRANCH  31  32
HETATM   32  C22 UNL     1      -3.768   1.547  -1.484  1.00  0.00     0.359 C 
HETATM   33  F1  UNL     1      -2.521   1.704  -2.019  1.00  0.00    -0.214 F 
HETATM   34  F2  UNL     1      -4.663   2.205  -2.290  1.00  0.00    -0.214 F 
ENDBRANCH  31  32
ENDBRANCH  24  26
ENDBRANCH   9  24
TORSDOF 9
