REMARK  10 active torsions:
REMARK  status: ('A' for Active; 'I' for Inactive)
REMARK    1  A    between atoms: C3_3  and  C4_4 
REMARK    2  A    between atoms: N1_10  and  C6_11 
REMARK    3  A    between atoms: C9_14  and  O2_15 
REMARK    4  A    between atoms: C10_17  and  C11_18 
REMARK    5  A    between atoms: N2_19  and  C12_21 
REMARK    6  A    between atoms: C12_21  and  C13_22 
REMARK    7  A    between atoms: C13_22  and  C14_23 
REMARK    8  A    between atoms: C14_23  and  S1_24 
REMARK    9  A    between atoms: S1_24  and  C15_25 
REMARK   10  A    between atoms: N3_33  and  O3_34 
ROOT
HETATM    1  C6  UNL     1       3.160  -0.677  -0.328  1.00  0.00     0.063 A 
HETATM    2  C7  UNL     1       3.694  -1.190   0.816  1.00  0.00     0.034 A 
HETATM    3  C8  UNL     1       3.109  -2.198   1.540  1.00  0.00     0.040 A 
HETATM    4  C9  UNL     1       1.897  -2.732   1.078  1.00  0.00     0.077 A 
HETATM    5  C10 UNL     1       1.320  -2.247  -0.072  1.00  0.00     0.014 A 
HETATM    6  C22 UNL     1       1.949  -1.239  -0.754  1.00  0.00     0.047 A 
ENDROOT
BRANCH   5   7
HETATM    7  C11 UNL     1       0.042  -2.804  -0.567  1.00  0.00     0.097 C 
HETATM    8  N2  UNL     1      -0.532  -3.754   0.093  1.00  0.00    -0.398 N 
ATOM      9  H2  UNL     1      -0.056  -4.070   0.938  1.00  0.00     0.158 HD
BRANCH   8  10
HETATM   10  C12 UNL     1      -1.749  -4.407  -0.224  1.00  0.00     0.119 C 
BRANCH  10  11
HETATM   11  C13 UNL     1      -2.947  -4.100   0.589  1.00  0.00     0.030 C 
BRANCH  11  12
HETATM   12  C14 UNL     1      -3.428  -2.698   0.600  1.00  0.00     0.081 C 
BRANCH  12  13
HETATM   13  S1  UNL     1      -2.309  -1.478   1.262  1.00  0.00    -0.135 SA
BRANCH  13  14
HETATM   14  C15 UNL     1      -3.048   0.138   1.088  1.00  0.00    -0.026 C 
HETATM   15  C16 UNL     1      -4.236   0.263   0.512  1.00  0.00    -0.013 C 
HETATM   16  C17 UNL     1      -5.016   1.461   0.265  1.00  0.00     0.028 C 
HETATM   17  C18 UNL     1      -5.239   2.382   1.406  1.00  0.00     0.004 C 
HETATM   18  C19 UNL     1      -4.066   2.687   2.262  1.00  0.00     0.001 C 
HETATM   19  C20 UNL     1      -2.817   2.598   1.413  1.00  0.00     0.005 C 
HETATM   20  C21 UNL     1      -2.220   1.234   1.630  1.00  0.00     0.045 C 
ENDBRANCH  13  14
ENDBRANCH  12  13
ENDBRANCH  11  12
ENDBRANCH  10  11
ENDBRANCH   8  10
ENDBRANCH   5   7
BRANCH   4  21
HETATM   21  O2  UNL     1       1.293  -3.743   1.785  1.00  0.00    -0.360 OA
ATOM     22  H2  UNL     1       0.472  -4.105   1.472  1.00  0.00     0.217 HD
ENDBRANCH   4  21
BRANCH   1  23
HETATM   23  N1  UNL     1       3.774   0.371  -1.068  1.00  0.00    -0.193 N 
HETATM   24  C5  UNL     1       4.874   0.317  -1.835  1.00  0.00     0.286 A 
HETATM   25  C3  UNL     1       5.107   1.570  -2.360  1.00  0.00     0.143 A 
HETATM   26  O1  UNL     1       5.560  -0.698  -2.033  1.00  0.00    -0.265 OA
HETATM   27  C2  UNL     1       4.102   2.374  -1.875  1.00  0.00     0.076 A 
HETATM   28  C1  UNL     1       3.901   3.798  -2.139  1.00  0.00     0.074 C 
HETATM   29  N3  UNL     1       3.311   1.615  -1.095  1.00  0.00    -0.157 N 
BRANCH  25  30
HETATM   30  C4  UNL     1       6.183   2.010  -3.254  1.00  0.00     0.424 C 
HETATM   31  F1  UNL     1       6.990   0.914  -3.515  1.00  0.00    -0.166 F 
HETATM   32  F2  UNL     1       5.697   2.428  -4.490  1.00  0.00    -0.166 F 
HETATM   33  F3  UNL     1       6.993   2.961  -2.671  1.00  0.00    -0.166 F 
ENDBRANCH  25  30
BRANCH  29  34
HETATM   34  O3  UNL     1       2.192   2.050  -0.422  1.00  0.00    -0.267 OA
ATOM     35  H3  UNL     1       1.633   1.514   0.129  1.00  0.00     0.247 HD
ENDBRANCH  29  34
ENDBRANCH   1  23
TORSDOF 10
