REMARK  8 active torsions:
REMARK  status: ('A' for Active; 'I' for Inactive)
REMARK    1  A    between atoms: O1_2  and  C2_3 
REMARK    2  A    between atoms: C5_7  and  C6_8 
REMARK    3  A    between atoms: C7_10  and  C8_11 
REMARK    4  A    between atoms: C11_14  and  C12_15 
REMARK    5  A    between atoms: C12_15  and  O3_16 
REMARK    6  A    between atoms: C12_15  and  O4_18 
REMARK    7  A    between atoms: C14_20  and  C15_21 
REMARK    8  A    between atoms: C21_34  and  O5_35 
ROOT
HETATM    1  C6  UNL     1       0.311  -0.665   0.426  1.00  0.00     0.103 A 
HETATM    2  O2  UNL     1       0.037  -1.929   0.535  1.00  0.00    -0.312 OA
HETATM    3  C7  UNL     1      -1.212  -2.183   0.177  1.00  0.00     0.069 A 
HETATM    4  C11 UNL     1      -1.777  -1.011  -0.186  1.00  0.00     0.040 A 
HETATM    5  C14 UNL     1      -0.810  -0.004  -0.034  1.00  0.00     0.026 A 
ENDROOT
BRANCH   5   6
HETATM    6  C15 UNL     1      -0.923   1.427  -0.306  1.00  0.00     0.019 A 
HETATM    7  C16 UNL     1      -0.350   2.002  -1.420  1.00  0.00     0.018 A 
HETATM    8  C17 UNL     1      -0.462   3.350  -1.651  1.00  0.00     0.034 A 
HETATM    9  C18 UNL     1      -1.155   4.149  -0.766  1.00  0.00     0.080 A 
HETATM   10  N1  UNL     1      -1.437   5.475  -0.713  1.00  0.00    -0.284 N 
HETATM   11  C19 UNL     1      -1.730   3.584   0.348  1.00  0.00     0.117 A 
HETATM   12  N2  UNL     1      -2.153   5.712   0.384  1.00  0.00    -0.242 N 
ATOM     13  H1  UNL     1      -1.149   6.173  -1.399  1.00  0.00     0.188 HD
HETATM   14  N3  UNL     1      -2.343   4.591   1.041  1.00  0.00    -0.281 N 
ATOM     15  H2  UNL     1      -2.502   6.627   0.671  1.00  0.00     0.208 HD
ATOM     16  H3  UNL     1      -2.858   4.489   1.916  1.00  0.00     0.188 HD
HETATM   17  C20 UNL     1      -1.611   2.231   0.570  1.00  0.00     0.158 A 
HETATM   18  F2  UNL     1      -2.193   1.734   1.695  1.00  0.00    -0.203 F 
ENDBRANCH   5   6
BRANCH   1  19
HETATM   19  C5  UNL     1       1.623  -0.111   0.759  1.00  0.00     0.071 A 
HETATM   20  C4  UNL     1       1.927   0.358   2.020  1.00  0.00     0.134 A 
HETATM   21  C3  UNL     1       3.171   0.877   2.310  1.00  0.00     0.080 A 
HETATM   22  F1  UNL     1       0.939   0.281   2.953  1.00  0.00    -0.205 F 
HETATM   23  C2  UNL     1       4.173   0.956   1.366  1.00  0.00     0.073 A 
HETATM   24  C23 UNL     1       3.881   0.490   0.100  1.00  0.00     0.074 A 
HETATM   25  C21 UNL     1       2.636  -0.030  -0.192  1.00  0.00     0.086 A 
BRANCH  23  26
HETATM   26  O1  UNL     1       5.425   1.485   1.684  1.00  0.00    -0.356 OA
HETATM   27  C1  UNL     1       6.485   1.598   0.792  1.00  0.00     0.210 C 
ENDBRANCH  23  26
BRANCH  25  28
HETATM   28  O5  UNL     1       2.329  -0.501  -1.457  1.00  0.00    -0.355 OA
HETATM   29  C22 UNL     1       3.308  -0.449  -2.469  1.00  0.00     0.210 C 
ENDBRANCH  25  28
ENDBRANCH   1  19
BRANCH   4  30
HETATM   30  C12 UNL     1      -3.097  -0.709  -0.690  1.00  0.00     0.294 C 
BRANCH  30  31
HETATM   31  O3  UNL     1      -2.975   0.200  -1.798  1.00  0.00    -0.367 OA
ATOM     32  H3  UNL     1      -3.843   0.399  -2.129  1.00  0.00     0.213 HD
ENDBRANCH  30  31
BRANCH  30  33
HETATM   33  O4  UNL     1      -3.881  -1.719  -1.156  1.00  0.00    -0.362 OA
HETATM   34  C13 UNL     1      -5.167  -1.664  -0.598  1.00  0.00     0.205 C 
ENDBRANCH  30  33
ENDBRANCH   4  30
BRANCH   3  35
HETATM   35  C8  UNL     1      -1.820  -3.507   0.193  1.00  0.00     0.035 C 
HETATM   36  C9  UNL     1      -0.686  -4.539   0.374  1.00  0.00     0.016 C 
HETATM   37  C10 UNL     1      -2.673  -3.715   1.464  1.00  0.00     0.016 C 
ENDBRANCH   3  35
TORSDOF 8
