REMARK  9 active torsions:
REMARK  status: ('A' for Active; 'I' for Inactive)
REMARK    1  A    between atoms: C4_4  and  C5_5 
REMARK    2  A    between atoms: C10_10  and  C11_11 
REMARK    3  A    between atoms: C11_11  and  C13_13 
REMARK    4  A    between atoms: C13_13  and  O2_15 
REMARK    5  A    between atoms: O2_15  and  C14_16 
REMARK    6  A    between atoms: C14_16  and  C15_17 
REMARK    7  A    between atoms: C15_17  and  C17_19 
REMARK    8  A    between atoms: C17_19  and  O3_20 
REMARK    9  A    between atoms: C18_22  and  O4_24 
ROOT
HETATM    1  C5  UNL     1      -2.364  -0.006   0.215  1.00  0.00     0.046 C 
HETATM    2  C6  UNL     1      -2.675   1.377  -0.310  1.00  0.00    -0.008 C 
HETATM    3  C7  UNL     1      -2.247   2.463   0.660  1.00  0.00     0.011 C 
HETATM    4  C8  UNL     1      -2.216   1.628  -1.701  1.00  0.00     0.005 C 
HETATM    5  C9  UNL     1      -1.041   0.783  -2.128  1.00  0.00     0.009 C 
HETATM    6  C10 UNL     1      -0.178   0.503  -0.889  1.00  0.00     0.033 C 
HETATM    7  C18 UNL     1      -0.963  -0.470  -0.062  1.00  0.00     0.066 C 
HETATM    8  C19 UNL     1      -0.928  -1.857  -0.664  1.00  0.00     0.047 C 
ENDROOT
BRANCH   6   9
HETATM    9  C11 UNL     1       1.122  -0.029  -1.390  1.00  0.00     0.088 C 
HETATM   10  C12 UNL     1       1.820   0.986  -2.310  1.00  0.00     0.021 C 
BRANCH   9  11
HETATM   11  C13 UNL     1       2.093  -0.300  -0.270  1.00  0.00     0.263 C 
HETATM   12  O1  UNL     1       2.552  -1.447  -0.115  1.00  0.00    -0.265 OA
BRANCH  11  13
HETATM   13  O2  UNL     1       2.495   0.664   0.590  1.00  0.00    -0.321 OA
BRANCH  13  14
HETATM   14  C14 UNL     1       3.361   0.684   1.661  1.00  0.00     0.185 C 
BRANCH  14  15
HETATM   15  C15 UNL     1       4.803   0.490   1.456  1.00  0.00     0.029 C 
HETATM   16  C16 UNL     1       5.382   1.551   0.527  1.00  0.00     0.014 C 
BRANCH  15  17
HETATM   17  C17 UNL     1       5.363  -0.817   1.089  1.00  0.00     0.170 C 
BRANCH  17  18
HETATM   18  O3  UNL     1       5.117  -1.852   1.998  1.00  0.00    -0.400 OA
ATOM     19  H3  UNL     1       5.479  -2.698   1.761  1.00  0.00     0.209 HD
ENDBRANCH  17  18
ENDBRANCH  15  17
ENDBRANCH  14  15
ENDBRANCH  13  14
ENDBRANCH  11  13
ENDBRANCH   9  11
ENDBRANCH   6   9
BRANCH   7  20
HETATM   20  O4  UNL     1      -0.303  -0.584   1.185  1.00  0.00    -0.389 OA
ATOM     21  H4  UNL     1       0.583  -0.878   1.010  1.00  0.00     0.210 HD
ENDBRANCH   7  20
BRANCH   1  22
HETATM   22  C4  UNL     1      -3.415  -0.910  -0.326  1.00  0.00    -0.017 C 
HETATM   23  C2  UNL     1      -4.318  -1.505   0.442  1.00  0.00    -0.091 C 
HETATM   24  C1  UNL     1      -5.356  -2.396  -0.075  1.00  0.00     0.042 C 
HETATM   25  C3  UNL     1      -4.258  -1.241   1.911  1.00  0.00     0.042 C 
ENDBRANCH   1  22
TORSDOF 9
