REMARK  9 active torsions:
REMARK  status: ('A' for Active; 'I' for Inactive)
REMARK    1  A    between atoms: C5_5  and  O1_7 
REMARK    2  A    between atoms: C13_15  and  O2_16 
REMARK    3  A    between atoms: O2_16  and  C14_17 
REMARK    4  A    between atoms: C14_17  and  C15_19 
REMARK    5  A    between atoms: C15_19  and  C16_20 
REMARK    6  A    between atoms: C16_20  and  C17_21 
REMARK    7  A    between atoms: C17_21  and  C18_22 
REMARK    8  A    between atoms: C18_22  and  C19_23 
REMARK    9  A    between atoms: C19_23  and  O4_24 
ROOT
HETATM    1  C1  UNL     1      -0.244  -1.288   2.603  1.00  0.00     0.017 C 
HETATM    2  C2  UNL     1      -0.999  -0.784   1.645  1.00  0.00    -0.059 C 
HETATM    3  C3  UNL     1      -2.452  -0.488   1.719  1.00  0.00     0.044 C 
HETATM    4  C4  UNL     1      -2.626   0.514   0.596  1.00  0.00     0.035 C 
HETATM    5  C5  UNL     1      -4.032   0.771   0.232  1.00  0.00     0.059 C 
HETATM    6  C6  UNL     1      -4.906   0.388   1.435  1.00  0.00     0.046 C 
HETATM    7  C7  UNL     1      -4.503   0.093  -1.022  1.00  0.00     0.038 C 
HETATM    8  C8  UNL     1      -3.793  -1.218  -1.272  1.00  0.00     0.008 C 
HETATM    9  C9  UNL     1      -2.301  -1.064  -1.336  1.00  0.00    -0.007 C 
HETATM   10  C10 UNL     1      -1.694  -2.432  -1.085  1.00  0.00     0.011 C 
HETATM   11  C11 UNL     1      -1.744   0.010  -0.487  1.00  0.00    -0.003 C 
HETATM   12  C12 UNL     1      -1.348   1.219  -1.347  1.00  0.00     0.019 C 
HETATM   13  C13 UNL     1      -0.512  -0.414   0.291  1.00  0.00     0.169 C 
ENDROOT
BRANCH  13  14
HETATM   14  O2  UNL     1       0.370   0.689   0.377  1.00  0.00    -0.311 OA
BRANCH  14  15
HETATM   15  C14 UNL     1       1.678   0.625  -0.120  1.00  0.00     0.259 C 
HETATM   16  O3  UNL     1       1.991  -0.473  -0.636  1.00  0.00    -0.265 OA
BRANCH  15  17
HETATM   17  C15 UNL     1       2.583   1.785  -0.022  1.00  0.00     0.111 C 
BRANCH  17  18
HETATM   18  C16 UNL     1       3.937   1.492  -0.551  1.00  0.00     0.010 C 
BRANCH  18  19
HETATM   19  C17 UNL     1       4.704   0.419   0.132  1.00  0.00     0.002 C 
BRANCH  19  20
HETATM   20  C18 UNL     1       6.070   0.265  -0.545  1.00  0.00     0.026 C 
BRANCH  20  21
HETATM   21  C19 UNL     1       6.868  -0.825   0.137  1.00  0.00     0.164 C 
BRANCH  21  22
HETATM   22  O4  UNL     1       7.072  -0.520   1.481  1.00  0.00    -0.401 OA
ATOM     23  H4  UNL     1       7.573  -1.204   1.909  1.00  0.00     0.209 HD
ENDBRANCH  21  22
ENDBRANCH  20  21
ENDBRANCH  19  20
ENDBRANCH  18  19
ENDBRANCH  17  18
ENDBRANCH  15  17
ENDBRANCH  14  15
ENDBRANCH  13  14
BRANCH   5  24
HETATM   24  O1  UNL     1      -4.229   2.146   0.055  1.00  0.00    -0.390 OA
ATOM     25  H1  UNL     1      -5.135   2.312  -0.179  1.00  0.00     0.210 HD
ENDBRANCH   5  24
TORSDOF 9
