REMARK  7 active torsions:
REMARK  status: ('A' for Active; 'I' for Inactive)
REMARK    1  A    between atoms: C5_6  and  S1_7 
REMARK    2  A    between atoms: S1_7  and  C6_8 
REMARK    3  A    between atoms: C6_8  and  C7_9 
REMARK    4  A    between atoms: C7_9  and  C10_12 
REMARK    5  A    between atoms: C10_12  and  N2_13 
REMARK    6  A    between atoms: N4_20  and  C12_22 
REMARK    7  A    between atoms: C12_22  and  C14_24 
ROOT
HETATM    1  C1  UNL     1      -0.610  -2.421   3.156  1.00  0.00     0.050 C 
HETATM    2  C2  UNL     1      -0.577  -1.586   1.918  1.00  0.00    -0.029 A 
HETATM    3  C3  UNL     1       0.611  -1.554   1.198  1.00  0.00     0.084 A 
HETATM    4  C4  UNL     1       1.763  -2.299   1.627  1.00  0.00     0.103 C 
HETATM    5  N1  UNL     1       2.690  -2.903   1.985  1.00  0.00    -0.191 NA
HETATM    6  C5  UNL     1       0.613  -0.772   0.058  1.00  0.00     0.092 A 
HETATM    7  N3  UNL     1      -0.467  -0.100  -0.306  1.00  0.00    -0.336 N 
ATOM      8  H3  UNL     1      -0.410   0.461  -1.156  1.00  0.00     0.168 HD
HETATM    9  C11 UNL     1      -1.668  -0.102   0.380  1.00  0.00     0.108 A 
HETATM   10  N4  UNL     1      -2.614   0.555  -0.036  1.00  0.00    -0.371 N 
ATOM     11  H4  UNL     1      -2.289   1.014  -0.887  1.00  0.00     0.161 HD
HETATM   12  C17 UNL     1      -1.699  -0.872   1.517  1.00  0.00    -0.011 A 
HETATM   13  C18 UNL     1      -2.887  -1.009   2.387  1.00  0.00     0.052 C 
ENDROOT
BRANCH   6  14
HETATM   14  S1  UNL     1       2.135  -0.724  -0.877  1.00  0.00    -0.110 SA
BRANCH  14  15
HETATM   15  C6  UNL     1       3.207   0.622  -0.305  1.00  0.00     0.091 C 
BRANCH  15  16
HETATM   16  C7  UNL     1       4.494   0.681  -1.079  1.00  0.00    -0.015 C 
HETATM   17  C8  UNL     1       4.304   0.902  -2.542  1.00  0.00     0.017 C 
HETATM   18  C9  UNL     1       5.262   1.896  -0.541  1.00  0.00     0.017 C 
BRANCH  16  19
HETATM   19  C10 UNL     1       5.366  -0.511  -0.865  1.00  0.00     0.239 C 
BRANCH  19  20
HETATM   20  N2  UNL     1       5.751  -0.687   0.522  1.00  0.00    -0.079 N 
ATOM     21  H23 UNL     1       6.191   0.157   0.888  1.00  0.00     0.274 HD
ATOM     22  H22 UNL     1       4.930  -0.722   1.127  1.00  0.00     0.274 HD
ATOM     23  H21 UNL     1       6.347  -1.502   0.668  1.00  0.00     0.274 HD
ENDBRANCH  19  20
ENDBRANCH  16  19
ENDBRANCH  15  16
ENDBRANCH  14  15
ENDBRANCH   6  14
BRANCH  10  24
HETATM   24  C12 UNL     1      -3.884   0.937   0.132  1.00  0.00     0.082 C 
HETATM   25  C13 UNL     1      -3.972   2.489   0.015  1.00  0.00     0.032 C 
BRANCH  24  26
HETATM   26  C14 UNL     1      -4.877   0.469  -0.943  1.00  0.00    -0.000 C 
HETATM   27  C15 UNL     1      -4.961  -1.015  -1.060  1.00  0.00     0.011 C 
HETATM   28  C16 UNL     1      -4.535   1.047  -2.287  1.00  0.00     0.011 C 
ENDBRANCH  24  26
ENDBRANCH  10  24
TORSDOF 7
