REMARK  1 active torsions:
REMARK  status: ('A' for Active; 'I' for Inactive)
REMARK    1  A    between atoms: C4_5  and  O1_6 
ROOT
HETATM    1  N1  UNL     1       3.480  -1.102  -0.633  1.00  0.00    -0.196 NA
HETATM    2  C1  UNL     1       2.485  -0.756  -0.156  1.00  0.00     0.074 C 
HETATM    3  C2  UNL     1       1.241  -0.342   0.434  1.00  0.00     0.156 C 
HETATM    4  C3  UNL     1       0.040  -0.675  -0.463  1.00  0.00     0.062 C 
HETATM    5  C4  UNL     1      -1.077   0.096   0.175  1.00  0.00     0.129 C 
HETATM    6  C5  UNL     1      -0.684   1.540  -0.158  1.00  0.00     0.107 C 
HETATM    7  S1  UNL     1       1.055   1.487   0.445  1.00  0.00    -0.147 SA
ENDROOT
BRANCH   5   8
HETATM    8  O1  UNL     1      -2.319  -0.218  -0.323  1.00  0.00    -0.395 OA
ATOM      9  H1  UNL     1      -3.027   0.270   0.081  1.00  0.00     0.210 HD
ENDBRANCH   5   8
TORSDOF 1
