REMARK  2 active torsions:
REMARK  status: ('A' for Active; 'I' for Inactive)
REMARK    1  A    between atoms: N2_6  and  O1_7 
REMARK    2  A    between atoms: N3_9  and  O2_10 
ROOT
HETATM    1  C1  UNL     1      -1.547  -1.420  -0.163  1.00  0.00     0.064 C 
HETATM    2  C2  UNL     1      -0.321  -0.577  -0.154  1.00  0.00     0.339 C 
HETATM    3  N1  UNL     1      -0.552   0.707   0.479  1.00  0.00     0.121 N 
HETATM    4  C3  UNL     1      -1.226   1.647  -0.358  1.00  0.00     0.314 C 
HETATM    5  C4  UNL     1       0.762   1.108   0.876  1.00  0.00     0.415 C 
HETATM    6  N2  UNL     1       1.638  -0.051   0.686  1.00  0.00    -0.073 NA
HETATM    7  N3  UNL     1       0.718  -1.103   0.748  1.00  0.00    -0.068 NA
ENDROOT
BRANCH   6   8
HETATM    8  O1  UNL     1       2.103   0.062  -0.598  1.00  0.00    -0.294 OA
ATOM      9  H1  UNL     1       2.671  -0.689  -0.721  1.00  0.00     0.238 HD
ENDBRANCH   6   8
BRANCH   7  10
HETATM   10  O2  UNL     1       1.197  -2.272   0.355  1.00  0.00    -0.294 OA
ATOM     11  H2  UNL     1       1.867  -2.611   0.937  1.00  0.00     0.238 HD
ENDBRANCH   7  10
TORSDOF 2
