REMARK  2 active torsions:
REMARK  status: ('A' for Active; 'I' for Inactive)
REMARK    1  A    between atoms: N1_5  and  O1_6 
REMARK    2  A    between atoms: C4_8  and  O2_9 
ROOT
HETATM    1  C1  UNL     1       1.866  -0.318   0.475  1.00  0.00     0.026 C 
HETATM    2  C2  UNL     1       0.969  -0.264  -0.723  1.00  0.00     0.100 C 
HETATM    3  S1  UNL     1      -0.063  -1.787  -0.761  1.00  0.00    -0.113 SA
HETATM    4  C3  UNL     1      -1.661  -0.984  -0.310  1.00  0.00     0.165 C 
HETATM    5  N1  UNL     1      -1.182   0.246   0.176  1.00  0.00    -0.235 N 
HETATM    6  C4  UNL     1      -0.140   0.775  -0.561  1.00  0.00     0.260 C 
ENDROOT
BRANCH   5   7
HETATM    7  O1  UNL     1      -1.794   0.892   1.092  1.00  0.00    -0.285 OA
ATOM      8  H1  UNL     1      -1.470   1.723   1.420  1.00  0.00     0.245 HD
ENDBRANCH   5   7
BRANCH   6   9
HETATM    9  O2  UNL     1       0.315   1.951  -0.038  1.00  0.00    -0.373 OA
ATOM     10  H2  UNL     1      -0.374   2.597   0.063  1.00  0.00     0.212 HD
ENDBRANCH   6   9
TORSDOF 2
