REMARK  2 active torsions:
REMARK  status: ('A' for Active; 'I' for Inactive)
REMARK    1  A    between atoms: O1_1  and  C1_3 
REMARK    2  A    between atoms: C4_7  and  O2_8 
ROOT
HETATM    1  C1  UNL     1       1.201   0.174   0.108  1.00  0.00     0.269 C 
HETATM    2  C2  UNL     1       1.181  -1.317   0.305  1.00  0.00     0.134 C 
HETATM    3  S1  UNL     1      -0.439  -2.035  -0.085  1.00  0.00    -0.159 SA
HETATM    4  C3  UNL     1      -1.669  -0.725  -0.243  1.00  0.00     0.134 C 
HETATM    5  C4  UNL     1      -0.963   0.623  -0.288  1.00  0.00     0.269 C 
HETATM    6  O3  UNL     1       0.043   0.721   0.654  1.00  0.00    -0.330 OA
ENDROOT
BRANCH   1   7
HETATM    7  O1  UNL     1       2.357   0.692   0.646  1.00  0.00    -0.370 OA
ATOM      8  H1  UNL     1       2.370   1.634   0.522  1.00  0.00     0.212 HD
ENDBRANCH   1   7
BRANCH   5   9
HETATM    9  O2  UNL     1      -1.884   1.649  -0.228  1.00  0.00    -0.370 OA
ATOM     10  H2  UNL     1      -1.443   2.490  -0.256  1.00  0.00     0.212 HD
ENDBRANCH   5   9
TORSDOF 2
