REMARK  2 active torsions:
REMARK  status: ('A' for Active; 'I' for Inactive)
REMARK    1  A    between atoms: O1_1  and  C1_3 
REMARK    2  A    between atoms: C4_7  and  O2_8 
ROOT
HETATM    1  C1  UNL     1      -0.486   0.468  -0.603  1.00  0.00     0.157 C 
HETATM    2  C2  UNL     1       0.648  -0.551  -0.710  1.00  0.00     0.045 C 
HETATM    3  C3  UNL     1       1.626  -0.138   0.399  1.00  0.00     0.079 C 
HETATM    4  S1  UNL     1       0.416   0.078   1.770  1.00  0.00    -0.135 SA
HETATM    5  C4  UNL     1      -1.108   0.051   0.740  1.00  0.00     0.208 C 
ENDROOT
BRANCH   1   6
HETATM    6  O1  UNL     1      -0.036   1.760  -0.550  1.00  0.00    -0.392 OA
ATOM      7  H1  UNL     1      -0.741   2.393  -0.483  1.00  0.00     0.210 HD
ENDBRANCH   1   6
BRANCH   5   8
HETATM    8  O2  UNL     1      -1.559  -1.239   0.578  1.00  0.00    -0.383 OA
ATOM      9  H2  UNL     1      -1.943  -1.497   1.408  1.00  0.00     0.211 HD
ENDBRANCH   5   8
TORSDOF 2
