REMARK  2 active torsions:
REMARK  status: ('A' for Active; 'I' for Inactive)
REMARK    1  A    between atoms: C2_2  and  C3_3 
REMARK    2  A    between atoms: N4_14  and  C7_15 
ROOT
HETATM    1  C3  UNL     1       3.079   0.232   0.724  1.00  0.00     0.260 C 
HETATM    2  N1  UNL     1       3.621  -0.918   0.008  1.00  0.00    -0.058 N 
ATOM      3  H11 UNL     1       3.831  -1.727   0.593  1.00  0.00     0.278 HD
ATOM      4  H12 UNL     1       4.572  -0.797  -0.340  1.00  0.00     0.278 HD
HETATM    5  C4  UNL     1       2.607  -1.153  -1.033  1.00  0.00     0.277 C 
HETATM    6  C5  UNL     1       1.318  -0.840  -0.379  1.00  0.00     0.033 A 
HETATM    7  C6  UNL     1       1.627  -0.007   0.674  1.00  0.00     0.072 A 
HETATM    8  N2  UNL     1       0.649   0.457   1.472  1.00  0.00    -0.287 N 
ATOM      9  H2  UNL     1       0.872   1.074   2.253  1.00  0.00     0.188 HD
HETATM   10  N3  UNL     1      -0.594   0.110   1.238  1.00  0.00    -0.239 N 
ATOM     11  H3  UNL     1      -1.316   0.476   1.859  1.00  0.00     0.208 HD
HETATM   12  N4  UNL     1      -0.973  -0.684   0.250  1.00  0.00    -0.262 N 
HETATM   13  C12 UNL     1      -0.010  -1.162  -0.563  1.00  0.00     0.129 A 
HETATM   14  S1  UNL     1      -0.398  -2.152  -1.811  1.00  0.00    -0.058 SA
ENDROOT
BRANCH  12  15
HETATM   15  C7  UNL     1      -2.367  -1.027   0.050  1.00  0.00     0.111 C 
HETATM   16  C8  UNL     1      -2.976  -0.227  -1.084  1.00  0.00     0.027 C 
HETATM   17  C9  UNL     1      -3.072   1.151  -0.463  1.00  0.00     0.002 C 
HETATM   18  C10 UNL     1      -3.684   0.824   0.889  1.00  0.00     0.002 C 
HETATM   19  C11 UNL     1      -3.176  -0.561   1.238  1.00  0.00     0.027 C 
ENDBRANCH  12  15
BRANCH   1  20
HETATM   20  C2  UNL     1       3.464   1.505   0.050  1.00  0.00     0.002 C 
HETATM   21  C1  UNL     1       4.722   1.724  -0.305  1.00  0.00     0.009 C 
ENDBRANCH   1  20
TORSDOF 2
