REMARK  3 active torsions:
REMARK  status: ('A' for Active; 'I' for Inactive)
REMARK    1  A    between atoms: C2_2  and  C3_3 
REMARK    2  A    between atoms: C3_3  and  C4_4 
REMARK    3  A    between atoms: C4_4  and  N1_5 
ROOT
HETATM    1  C1  UNL     1      -2.357  -1.619   0.965  1.00  0.00     0.079 C 
HETATM    2  C2  UNL     1      -1.988  -0.219   0.529  1.00  0.00     0.168 C 
HETATM    3  O1  UNL     1      -1.563   0.468   1.658  1.00  0.00    -0.347 OA
HETATM    4  C5  UNL     1      -0.179   0.335   1.709  1.00  0.00     0.276 C 
HETATM    5  C6  UNL     1       0.182   0.247   0.249  1.00  0.00     0.338 C 
HETATM    6  O2  UNL     1       0.433   1.470  -0.333  1.00  0.00    -0.166 OA
HETATM    7  O3  UNL     1       1.312   1.134  -1.283  1.00  0.00    -0.195 OA
HETATM    8  C7  UNL     1       2.163   0.317  -0.598  1.00  0.00     0.203 C 
HETATM    9  C8  UNL     1       3.185  -0.387  -1.409  1.00  0.00     0.072 C 
HETATM   10  C9  UNL     1       4.261  -0.770  -0.391  1.00  0.00     0.006 C 
HETATM   11  C10 UNL     1       3.992   0.084   0.830  1.00  0.00     0.006 C 
HETATM   12  C11 UNL     1       3.027   1.171   0.338  1.00  0.00     0.072 C 
HETATM   13  O4  UNL     1       1.322  -0.525   0.110  1.00  0.00    -0.289 OA
HETATM   14  O5  UNL     1      -0.937  -0.299  -0.348  1.00  0.00    -0.292 OA
ENDROOT
BRANCH   2  15
HETATM   15  C3  UNL     1      -3.178   0.521  -0.039  1.00  0.00     0.095 C 
BRANCH  15  16
HETATM   16  C4  UNL     1      -3.756  -0.179  -1.246  1.00  0.00     0.235 C 
BRANCH  16  17
HETATM   17  N1  UNL     1      -4.893   0.644  -1.686  1.00  0.00    -0.079 N 
ATOM     18  H13 UNL     1      -5.578   0.819  -0.950  1.00  0.00     0.274 HD
ATOM     19  H12 UNL     1      -4.647   1.618  -1.860  1.00  0.00     0.274 HD
ATOM     20  H11 UNL     1      -5.283   0.171  -2.501  1.00  0.00     0.274 HD
ENDBRANCH  16  17
ENDBRANCH  15  16
ENDBRANCH   2  15
TORSDOF 3
