REMARK  3 active torsions:
REMARK  status: ('A' for Active; 'I' for Inactive)
REMARK    1  A    between atoms: C2_2  and  O1_3 
REMARK    2  A    between atoms: C2_2  and  N1_5 
REMARK    3  A    between atoms: N3_11  and  N4_13 
ROOT
HETATM    1  N1  UNL     1       3.124   0.190  -0.694  1.00  0.00    -0.210 N 
HETATM    2  N2  UNL     1       3.694   1.006  -1.520  1.00  0.00    -0.295 N 
ATOM      3  H2  UNL     1       4.664   1.281  -1.363  1.00  0.00     0.187 HD
HETATM    4  C3  UNL     1       3.053   1.484  -2.550  1.00  0.00     0.160 A 
HETATM    5  S1  UNL     1       1.532   0.751  -2.371  1.00  0.00    -0.044 SA
HETATM    6  C4  UNL     1       1.860  -0.145  -0.931  1.00  0.00     0.188 A 
HETATM    7  N3  UNL     1       1.036  -0.947  -0.290  1.00  0.00    -0.278 N 
ATOM      8  H3  UNL     1       1.341  -1.440   0.549  1.00  0.00     0.189 HD
ENDROOT
BRANCH   1   9
HETATM    9  C2  UNL     1       3.897  -0.321   0.425  1.00  0.00     0.154 C 
HETATM   10  C1  UNL     1       3.383  -0.775   1.535  1.00  0.00     0.073 C 
BRANCH   9  11
HETATM   11  O1  UNL     1       5.304  -0.334   0.313  1.00  0.00    -0.345 OA
ATOM     12  H1  UNL     1       5.678  -0.003  -0.495  1.00  0.00     0.219 HD
ENDBRANCH   9  11
ENDBRANCH   1   9
BRANCH   7  13
HETATM   13  N4  UNL     1      -0.239  -1.110  -0.768  1.00  0.00    -0.307 N 
HETATM   14  C5  UNL     1      -1.312  -0.703  -0.150  1.00  0.00     0.004 C 
HETATM   15  C6  UNL     1      -1.190  -0.018   1.146  1.00  0.00     0.054 C 
HETATM   16  C10 UNL     1      -2.599  -0.976  -0.836  1.00  0.00     0.054 C 
HETATM   17  C7  UNL     1      -2.529   0.379   1.674  1.00  0.00     0.006 C 
HETATM   18  C8  UNL     1      -3.307   1.010   0.531  1.00  0.00     0.001 C 
HETATM   19  C9  UNL     1      -3.683  -0.019  -0.480  1.00  0.00     0.006 C 
ATOM     20  H4  UNL     1      -0.355  -1.580  -1.666  1.00  0.00     0.186 HD
ENDBRANCH   7  13
TORSDOF 3
