REMARK  2 active torsions:
REMARK  status: ('A' for Active; 'I' for Inactive)
REMARK       I    between atoms: C1_2  and  N1_3 
REMARK    1  A    between atoms: C1_2  and  C8_11 
REMARK    2  A    between atoms: N1_3  and  C2_5 
ROOT
HETATM    1  O1  UNL     1       1.419   1.575  -1.909  1.00  0.00    -0.272 OA
HETATM    2  C1  UNL     1       1.764   0.692  -1.098  1.00  0.00     0.233 C 
HETATM    3  N1  UNL     1       0.761  -0.000  -0.369  1.00  0.00    -0.355 N 
ATOM      4  H1  UNL     1       1.046  -0.721   0.294  1.00  0.00     0.162 HD
ENDROOT
BRANCH   3   5
HETATM    5  C2  UNL     1      -0.664   0.282  -0.532  1.00  0.00     0.084 C 
HETATM    6  C3  UNL     1      -1.429  -0.923  -0.971  1.00  0.00     0.025 C 
HETATM    7  C4  UNL     1      -2.472  -1.400  -0.025  1.00  0.00     0.002 C 
HETATM    8  C5  UNL     1      -3.229  -0.356   0.699  1.00  0.00     0.000 C 
HETATM    9  C6  UNL     1      -2.666   1.021   0.622  1.00  0.00     0.002 C 
HETATM   10  C7  UNL     1      -1.147   0.864   0.771  1.00  0.00     0.025 C 
ENDBRANCH   3   5
BRANCH   2  11
HETATM   11  C8  UNL     1       3.166   0.335  -0.862  1.00  0.00     0.161 C 
HETATM   12  C9  UNL     1       3.457   0.591   0.608  1.00  0.00     0.112 C 
HETATM   13  S1  UNL     1       5.231   0.181   0.842  1.00  0.00    -0.084 SA
HETATM   14  S2  UNL     1       5.233  -1.750  -0.132  1.00  0.00    -0.024 SA
HETATM   15  S3  UNL     1       3.314  -1.482  -1.090  1.00  0.00    -0.071 SA
ENDBRANCH   2  11
TORSDOF 2
