REMARK  6 active torsions:
REMARK  status: ('A' for Active; 'I' for Inactive)
REMARK    1  A    between atoms: N1_1  and  C1_4 
REMARK    2  A    between atoms: N2_12  and  C7_13 
REMARK    3  A    between atoms: C7_13  and  C8_14 
REMARK    4  A    between atoms: C8_14  and  C9_15 
REMARK    5  A    between atoms: C9_15  and  N3_16 
REMARK       I    between atoms: N3_16  and  C10_18 
REMARK    6  A    between atoms: C10_18  and  C11_20 
ROOT
HETATM    1  C1  UNL     1       7.667   1.502   2.075  1.00  0.00     0.110 A 
HETATM    2  S1  UNL     1       7.570   1.866   0.432  1.00  0.00    -0.069 SA
HETATM    3  C2  UNL     1       6.123   1.212  -0.147  1.00  0.00     0.000 A 
HETATM    4  C3  UNL     1       5.400   0.572   0.792  1.00  0.00     0.008 A 
HETATM    5  S2  UNL     1       6.215   0.652   2.256  1.00  0.00    -0.068 SA
HETATM    6  C4  UNL     1       4.373   0.260  -0.230  1.00  0.00     0.005 A 
HETATM    7  C5  UNL     1       3.040   0.908  -0.015  1.00  0.00     0.036 C 
HETATM    8  C6  UNL     1       2.253   0.689  -1.323  1.00  0.00     0.128 C 
HETATM    9  N2  UNL     1       2.017  -0.662  -1.458  1.00  0.00    -0.374 N 
HETATM   10  C17 UNL     1       3.122  -1.521  -1.433  1.00  0.00     0.064 C 
HETATM   11  C18 UNL     1       4.178  -1.222  -0.435  1.00  0.00     0.060 C 
HETATM   12  C19 UNL     1       5.160   0.970  -1.288  1.00  0.00     0.062 A 
ENDROOT
BRANCH   9  13
HETATM   13  C7  UNL     1       0.821  -1.261  -1.800  1.00  0.00     0.064 C 
BRANCH  13  14
HETATM   14  C8  UNL     1      -0.333  -1.320  -0.870  1.00  0.00     0.064 C 
BRANCH  14  15
HETATM   15  C9  UNL     1      -0.811   0.038  -0.462  1.00  0.00     0.128 C 
BRANCH  15  16
HETATM   16  N3  UNL     1      -1.987  -0.026   0.410  1.00  0.00    -0.360 N 
HETATM   17  C10 UNL     1      -3.204  -0.583  -0.026  1.00  0.00     0.221 C 
HETATM   18  O1  UNL     1      -3.340  -1.041  -1.179  1.00  0.00    -0.273 OA
ATOM     19  H3  UNL     1      -1.922   0.343   1.359  1.00  0.00     0.162 HD
BRANCH  17  20
HETATM   20  C11 UNL     1      -4.376  -0.637   0.896  1.00  0.00     0.078 C 
HETATM   21  C12 UNL     1      -5.528  -1.287   0.203  1.00  0.00     0.014 C 
HETATM   22  C13 UNL     1      -6.441  -0.261  -0.423  1.00  0.00     0.001 C 
HETATM   23  C14 UNL     1      -7.048   0.654   0.619  1.00  0.00     0.000 C 
HETATM   24  C15 UNL     1      -6.141   0.793   1.824  1.00  0.00     0.001 C 
HETATM   25  C16 UNL     1      -4.716   0.767   1.378  1.00  0.00     0.014 C 
ENDBRANCH  17  20
ENDBRANCH  15  16
ENDBRANCH  14  15
ENDBRANCH  13  14
ENDBRANCH   9  13
BRANCH   1  26
HETATM   26  N1  UNL     1       8.597   1.795   2.948  1.00  0.00    -0.388 N 
ATOM     27  H12 UNL     1       9.472   2.307   2.839  1.00  0.00     0.157 HD
ATOM     28  H11 UNL     1       8.656   1.575   3.942  1.00  0.00     0.157 HD
ENDBRANCH   1  26
TORSDOF 6
