REMARK  7 active torsions:
REMARK  status: ('A' for Active; 'I' for Inactive)
REMARK    1  A    between atoms: C2_2  and  N1_3 
REMARK    2  A    between atoms: C7_9  and  O2_10 
REMARK    3  A    between atoms: O2_10  and  C8_11 
REMARK    4  A    between atoms: C8_11  and  N4_16 
REMARK    5  A    between atoms: N4_16  and  C10_18 
REMARK    6  A    between atoms: C10_18  and  C11_19 
REMARK    7  A    between atoms: C11_19  and  C12_20 
ROOT
HETATM    1  C8  UNL     1       0.208  -0.507  -0.117  1.00  0.00     0.233 C 
HETATM    2  N2  UNL     1       0.231  -1.578   0.529  1.00  0.00    -0.259 N 
ATOM      3  H2  UNL     1       1.171  -1.971   0.574  1.00  0.00     0.181 HD
HETATM    4  C9  UNL     1      -0.659  -2.346   1.179  1.00  0.00     0.185 C 
HETATM    5  N3  UNL     1      -1.403  -3.028   1.746  1.00  0.00    -0.172 NA
ENDROOT
BRANCH   1   6
HETATM    6  O2  UNL     1       1.439  -0.066  -0.638  1.00  0.00    -0.279 OA
BRANCH   6   7
HETATM    7  C7  UNL     1       2.568   0.066   0.160  1.00  0.00     0.080 A 
HETATM    8  C6  UNL     1       2.648  -0.179   1.500  1.00  0.00     0.040 A 
HETATM    9  C5  UNL     1       3.834  -0.015   2.192  1.00  0.00     0.040 A 
HETATM   10  C4  UNL     1       4.982   0.397   1.582  1.00  0.00     0.079 A 
HETATM   11  O1  UNL     1       6.210   0.590   2.179  1.00  0.00    -0.332 OA
HETATM   12  C20 UNL     1       4.917   0.652   0.217  1.00  0.00    -0.004 A 
HETATM   13  C3  UNL     1       7.400   0.238   1.494  1.00  0.00     0.296 C 
HETATM   14  N1  UNL     1       7.333   0.398   0.091  1.00  0.00    -0.388 N 
HETATM   15  C21 UNL     1       6.193   1.104  -0.401  1.00  0.00     0.160 C 
HETATM   16  C19 UNL     1       3.761   0.494  -0.468  1.00  0.00     0.049 A 
BRANCH  14  17
HETATM   17  C2  UNL     1       7.695  -0.730  -0.701  1.00  0.00     0.115 C 
HETATM   18  C1  UNL     1       9.135  -1.116  -0.661  1.00  0.00     0.026 C 
ENDBRANCH  14  17
ENDBRANCH   6   7
ENDBRANCH   1   6
BRANCH   1  19
HETATM   19  N4  UNL     1      -0.977   0.266  -0.346  1.00  0.00    -0.355 N 
ATOM     20  H4  UNL     1      -0.904   1.130  -0.883  1.00  0.00     0.163 HD
BRANCH  19  21
HETATM   21  C10 UNL     1      -2.272  -0.135   0.156  1.00  0.00     0.123 C 
BRANCH  21  22
HETATM   22  C11 UNL     1      -3.306   0.895  -0.272  1.00  0.00     0.024 C 
BRANCH  22  23
HETATM   23  C12 UNL     1      -4.685   0.568   0.219  1.00  0.00    -0.013 C 
HETATM   24  C13 UNL     1      -5.139  -0.763  -0.320  1.00  0.00     0.005 C 
HETATM   25  C14 UNL     1      -6.561  -1.005   0.164  1.00  0.00     0.004 C 
HETATM   26  C15 UNL     1      -7.449   0.031  -0.471  1.00  0.00    -0.019 C 
HETATM   27  C16 UNL     1      -7.449  -0.193  -1.950  1.00  0.00     0.010 C 
HETATM   28  C17 UNL     1      -7.052   1.417  -0.054  1.00  0.00     0.004 C 
HETATM   29  C18 UNL     1      -5.599   1.698  -0.207  1.00  0.00     0.005 C 
ENDBRANCH  22  23
ENDBRANCH  21  22
ENDBRANCH  19  21
ENDBRANCH   1  19
TORSDOF 7
