REMARK  7 active torsions:
REMARK  status: ('A' for Active; 'I' for Inactive)
REMARK    1  A    between atoms: O1_2  and  C2_3 
REMARK    2  A    between atoms: C3_5  and  O3_6 
REMARK    3  A    between atoms: C7_10  and  O4_11 
REMARK    4  A    between atoms: C11_16  and  O5_17 
REMARK    5  A    between atoms: C14_21  and  C16_23 
REMARK    6  A    between atoms: C16_23  and  C17_24 
REMARK    7  A    between atoms: C17_24  and  C18_25 
ROOT
HETATM    1  C2  UNL     1      -2.690  -0.329   0.951  1.00  0.00     0.269 C 
HETATM    2  O2  UNL     1      -3.174   0.202  -0.210  1.00  0.00    -0.325 OA
HETATM    3  C3  UNL     1      -2.393   1.277  -0.587  1.00  0.00     0.171 C 
HETATM    4  C5  UNL     1      -2.436   1.603  -2.040  1.00  0.00     0.071 C 
HETATM    5  C6  UNL     1      -1.024   1.545  -2.637  1.00  0.00     0.037 C 
HETATM    6  C7  UNL     1      -0.594   0.075  -2.531  1.00  0.00     0.123 C 
HETATM    7  C8  UNL     1      -0.702  -0.375  -1.123  1.00  0.00     0.033 C 
HETATM    8  C9  UNL     1      -0.990   0.759  -0.199  1.00  0.00     0.067 C 
HETATM    9  C10 UNL     1      -1.287   0.250   1.183  1.00  0.00     0.080 C 
HETATM   10  C11 UNL     1      -0.365  -0.767   1.705  1.00  0.00     0.132 C 
HETATM   11  C12 UNL     1       0.348  -1.629   0.747  1.00  0.00     0.019 C 
HETATM   12  C13 UNL     1      -0.366  -2.979   0.574  1.00  0.00     0.013 C 
HETATM   13  C14 UNL     1       0.561  -1.073  -0.629  1.00  0.00    -0.032 C 
HETATM   14  C15 UNL     1       0.778  -2.216  -1.603  1.00  0.00     0.016 C 
ENDROOT
BRANCH  13  15
HETATM   15  C16 UNL     1       1.716  -0.136  -0.677  1.00  0.00     0.014 C 
BRANCH  15  16
HETATM   16  C17 UNL     1       3.032  -0.668  -0.235  1.00  0.00     0.028 C 
BRANCH  16  17
HETATM   17  C18 UNL     1       4.023   0.463  -0.392  1.00  0.00    -0.025 C 
HETATM   18  C19 UNL     1       4.692   0.932   0.633  1.00  0.00    -0.091 C 
HETATM   19  C20 UNL     1       5.657   2.043   0.442  1.00  0.00     0.042 C 
HETATM   20  C21 UNL     1       4.478   0.345   1.986  1.00  0.00     0.042 C 
ENDBRANCH  16  17
ENDBRANCH  15  16
ENDBRANCH  13  15
BRANCH   6  21
HETATM   21  O4  UNL     1      -1.572  -0.614  -3.293  1.00  0.00    -0.395 OA
ATOM     22  H4  UNL     1      -1.306  -1.524  -3.227  1.00  0.00     0.210 HD
ENDBRANCH   6  21
BRANCH  10  23
HETATM   23  O5  UNL     1       0.553  -0.126   2.572  1.00  0.00    -0.395 OA
ATOM     24  H5  UNL     1       1.149  -0.784   2.910  1.00  0.00     0.210 HD
ENDBRANCH  10  23
BRANCH   3  25
HETATM   25  O3  UNL     1      -2.718   2.384   0.175  1.00  0.00    -0.359 OA
HETATM   26  C4  UNL     1      -4.051   2.695  -0.013  1.00  0.00     0.205 C 
ENDBRANCH   3  25
BRANCH   1  27
HETATM   27  O1  UNL     1      -3.542  -0.075   1.988  1.00  0.00    -0.365 OA
HETATM   28  C1  UNL     1      -3.996  -1.210   2.641  1.00  0.00     0.204 C 
ENDBRANCH   1  27
TORSDOF 7
