REMARK  5 active torsions:
REMARK  status: ('A' for Active; 'I' for Inactive)
REMARK    1  A    between atoms: S1_2  and  C2_3 
REMARK    2  A    between atoms: C3_6  and  S2_7 
REMARK    3  A    between atoms: S2_7  and  C4_8 
REMARK    4  A    between atoms: C4_8  and  C5_9 
REMARK    5  A    between atoms: C7_16  and  C8_17 
ROOT
HETATM    1  C2  UNL     1       1.258   0.563  -0.606  1.00  0.00     0.084 A 
HETATM    2  N1  UNL     1       2.575   0.778  -0.347  1.00  0.00    -0.331 N 
ATOM      3  H1  UNL     1       3.223   0.914  -1.123  1.00  0.00     0.168 HD
HETATM    4  C3  UNL     1       3.028   0.813   0.889  1.00  0.00     0.148 A 
HETATM    5  N2  UNL     1       2.172   0.635   1.871  1.00  0.00    -0.303 N 
ATOM      6  H2  UNL     1       2.517   0.662   2.831  1.00  0.00     0.171 HD
HETATM    7  C6  UNL     1       0.829   0.413   1.659  1.00  0.00     0.257 A 
HETATM    8  O3  UNL     1       0.264   0.285   2.755  1.00  0.00    -0.267 OA
HETATM    9  C7  UNL     1       0.306   0.364   0.381  1.00  0.00     0.052 A 
ENDROOT
BRANCH   9  10
HETATM   10  C8  UNL     1      -1.111   0.101   0.180  1.00  0.00    -0.004 C 
HETATM   11  C9  UNL     1      -1.237  -1.182  -0.649  1.00  0.00     0.019 C 
HETATM   12  C10 UNL     1      -2.654  -1.726  -0.670  1.00  0.00    -0.013 C 
HETATM   13  C11 UNL     1      -3.280  -1.902   0.664  1.00  0.00     0.009 C 
HETATM   14  C15 UNL     1      -3.438  -0.678  -1.477  1.00  0.00     0.009 C 
HETATM   15  C12 UNL     1      -3.261  -0.565   1.369  1.00  0.00    -0.013 C 
HETATM   16  C13 UNL     1      -4.016   0.492   0.622  1.00  0.00     0.009 C 
HETATM   17  C17 UNL     1      -1.825  -0.049   1.490  1.00  0.00     0.019 C 
HETATM   18  C14 UNL     1      -3.359   0.591  -0.715  1.00  0.00    -0.013 C 
HETATM   19  C16 UNL     1      -1.905   1.094  -0.572  1.00  0.00     0.019 C 
ENDBRANCH   9  10
BRANCH   1  20
HETATM   20  S1  UNL     1       0.821   0.559  -2.299  1.00  0.00    -0.116 SA
HETATM   21  C1  UNL     1       0.732   2.210  -3.052  1.00  0.00     0.097 C 
ENDBRANCH   1  20
BRANCH   4  22
HETATM   22  S2  UNL     1       4.785   1.104   1.153  1.00  0.00    -0.083 SA
BRANCH  22  23
HETATM   23  C4  UNL     1       5.574  -0.531   1.169  1.00  0.00     0.195 C 
BRANCH  23  24
HETATM   24  C5  UNL     1       7.039  -0.422   1.381  1.00  0.00     0.182 C 
HETATM   25  O1  UNL     1       7.529   0.715   1.515  1.00  0.00    -0.647 OA
HETATM   26  O2  UNL     1       7.768  -1.593   1.415  1.00  0.00    -0.647 OA
ENDBRANCH  23  24
ENDBRANCH  22  23
ENDBRANCH   4  22
TORSDOF 5
