REMARK  10 active torsions:
REMARK  status: ('A' for Active; 'I' for Inactive)
REMARK    1  A    between atoms: C2_2  and  C3_3 
REMARK    2  A    between atoms: C3_3  and  N1_4 
REMARK    3  A    between atoms: C4_5  and  O1_6 
REMARK    4  A    between atoms: C6_9  and  N2_10 
REMARK    5  A    between atoms: N3_13  and  C9_14 
REMARK    6  A    between atoms: C9_14  and  O2_15 
REMARK    7  A    between atoms: C9_14  and  C10_17 
REMARK    8  A    between atoms: C10_17  and  C12_19 
REMARK    9  A    between atoms: C12_19  and  C13_20 
REMARK   10  A    between atoms: C21_28  and  O3_29 
ROOT
HETATM    1  N2  UNL     1       2.438   0.185  -0.835  1.00  0.00    -0.374 N 
HETATM    2  C7  UNL     1       1.714  -0.191  -2.023  1.00  0.00     0.143 C 
HETATM    3  C8  UNL     1       0.219  -0.253  -1.685  1.00  0.00     0.145 C 
HETATM    4  N3  UNL     1      -0.219   0.917  -1.004  1.00  0.00    -0.358 N 
HETATM    5  C19 UNL     1       0.828   1.957  -0.837  1.00  0.00     0.145 C 
HETATM    6  C20 UNL     1       1.937   1.284  -0.041  1.00  0.00     0.143 C 
ENDROOT
BRANCH   1   7
HETATM    7  C6  UNL     1       3.632  -0.537  -0.477  1.00  0.00     0.086 A 
HETATM    8  C5  UNL     1       4.219  -1.562  -1.188  1.00  0.00     0.089 A 
HETATM    9  C4  UNL     1       5.325  -1.941  -0.482  1.00  0.00     0.146 A 
HETATM   10  N1  UNL     1       5.469  -1.215   0.631  1.00  0.00    -0.307 N 
HETATM   11  C21 UNL     1       4.426  -0.349   0.636  1.00  0.00     0.171 A 
BRANCH   9  12
HETATM   12  O1  UNL     1       6.192  -2.951  -0.867  1.00  0.00    -0.346 OA
ATOM     13  H1  UNL     1       6.090  -3.467  -1.658  1.00  0.00     0.219 HD
ENDBRANCH   9  12
BRANCH  10  14
HETATM   14  C3  UNL     1       6.466  -1.263   1.659  1.00  0.00     0.133 C 
BRANCH  14  15
HETATM   15  C2  UNL     1       7.653  -0.394   1.428  1.00  0.00     0.016 C 
HETATM   16  C1  UNL     1       7.313   1.075   1.309  1.00  0.00     0.006 C 
ENDBRANCH  14  15
ENDBRANCH  10  14
BRANCH  11  17
HETATM   17  O3  UNL     1       4.160   0.621   1.625  1.00  0.00    -0.344 OA
ATOM     18  H3  UNL     1       3.429   1.228   1.629  1.00  0.00     0.219 HD
ENDBRANCH  11  17
ENDBRANCH   1   7
BRANCH   4  19
HETATM   19  C9  UNL     1      -1.468   1.169  -0.509  1.00  0.00     0.143 C 
BRANCH  19  20
HETATM   20  O2  UNL     1      -1.612   2.320   0.089  1.00  0.00    -0.346 OA
ATOM     21  H2  UNL     1      -2.480   2.495   0.433  1.00  0.00     0.219 HD
ENDBRANCH  19  20
BRANCH  19  22
HETATM   22  C10 UNL     1      -2.671   0.381  -0.529  1.00  0.00    -0.015 C 
HETATM   23  C11 UNL     1      -2.897  -0.939  -1.120  1.00  0.00     0.052 C 
BRANCH  22  24
HETATM   24  C12 UNL     1      -3.770   0.918   0.068  1.00  0.00    -0.011 C 
BRANCH  24  25
HETATM   25  C13 UNL     1      -5.040   0.232   0.120  1.00  0.00     0.009 C 
HETATM   26  C14 UNL     1      -5.462   0.177   1.597  1.00  0.00     0.008 C 
HETATM   27  C15 UNL     1      -6.754  -0.578   1.754  1.00  0.00     0.001 C 
HETATM   28  C16 UNL     1      -7.843  -0.113   0.844  1.00  0.00     0.000 C 
HETATM   29  C17 UNL     1      -7.365   0.100  -0.584  1.00  0.00     0.001 C 
HETATM   30  C18 UNL     1      -6.152   1.009  -0.573  1.00  0.00     0.008 C 
ENDBRANCH  24  25
ENDBRANCH  22  24
ENDBRANCH  19  22
ENDBRANCH   4  19
TORSDOF 10
