REMARK  7 active torsions:
REMARK  status: ('A' for Active; 'I' for Inactive)
REMARK    1  A    between atoms: N1_1  and  C1_5 
REMARK    2  A    between atoms: C1_5  and  C2_6 
REMARK    3  A    between atoms: C2_6  and  N2_7 
REMARK    4  A    between atoms: N2_7  and  N3_8 
REMARK    5  A    between atoms: N2_7  and  C3_11 
REMARK    6  A    between atoms: C3_11  and  C4_12 
REMARK    7  A    between atoms: C11_20  and  N4_21 
ROOT
HETATM    1  C4  UNL     1       0.099   0.020   1.229  1.00  0.00     0.178 C 
HETATM    2  O1  UNL     1       0.833   1.183   1.547  1.00  0.00    -0.342 OA
HETATM    3  C5  UNL     1       2.073   1.164   0.948  1.00  0.00     0.077 A 
HETATM    4  C6  UNL     1       2.996   2.186   0.744  1.00  0.00     0.037 A 
HETATM    5  C7  UNL     1       4.188   1.930   0.112  1.00  0.00     0.003 A 
HETATM    6  C8  UNL     1       4.457   0.647  -0.317  1.00  0.00     0.001 A 
HETATM    7  C9  UNL     1       3.529  -0.367  -0.109  1.00  0.00     0.012 A 
HETATM    8  C10 UNL     1       2.335  -0.117   0.522  1.00  0.00     0.008 A 
HETATM    9  C11 UNL     1       1.184  -0.965   0.878  1.00  0.00     0.249 C 
ENDROOT
BRANCH   1  10
HETATM   10  C3  UNL     1      -0.772   0.333   0.031  1.00  0.00     0.148 C 
BRANCH  10  11
HETATM   11  N2  UNL     1      -1.560  -0.828  -0.344  1.00  0.00    -0.234 NA
BRANCH  11  12
HETATM   12  C2  UNL     1      -2.379  -0.550  -1.479  1.00  0.00     0.140 C 
BRANCH  12  13
HETATM   13  C1  UNL     1      -3.489   0.420  -1.257  1.00  0.00     0.245 C 
BRANCH  13  14
HETATM   14  N1  UNL     1      -4.431   0.012  -0.259  1.00  0.00    -0.078 N 
ATOM     15  H13 UNL     1      -4.802  -0.913  -0.475  1.00  0.00     0.274 HD
ATOM     16  H12 UNL     1      -3.955  -0.194   0.619  1.00  0.00     0.274 HD
ATOM     17  H11 UNL     1      -5.190   0.676  -0.107  1.00  0.00     0.274 HD
ENDBRANCH  13  14
ENDBRANCH  12  13
ENDBRANCH  11  12
BRANCH  11  18
HETATM   18  N3  UNL     1      -2.370  -1.200   0.723  1.00  0.00    -0.363 NA
ATOM     19  H32 UNL     1      -2.923  -2.015   0.460  1.00  0.00     0.171 HD
ATOM     20  H31 UNL     1      -1.785  -1.399   1.534  1.00  0.00     0.171 HD
ENDBRANCH  11  18
ENDBRANCH  10  11
ENDBRANCH   1  10
BRANCH   9  21
HETATM   21  N4  UNL     1       0.807  -1.854  -0.208  1.00  0.00    -0.068 N 
ATOM     22  H43 UNL     1      -0.069  -2.334  -0.000  1.00  0.00     0.275 HD
ATOM     23  H42 UNL     1       0.515  -1.324  -1.029  1.00  0.00     0.275 HD
ATOM     24  H41 UNL     1       1.541  -2.521  -0.446  1.00  0.00     0.275 HD
ENDBRANCH   9  21
TORSDOF 7
