REMARK  6 active torsions:
REMARK  status: ('A' for Active; 'I' for Inactive)
REMARK    1  A    between atoms: N1_1  and  C1_5 
REMARK    2  A    between atoms: C1_5  and  C2_6 
REMARK    3  A    between atoms: C2_6  and  C3_7 
REMARK    4  A    between atoms: C3_7  and  C4_8 
REMARK    5  A    between atoms: C4_8  and  C5_9 
REMARK    6  A    between atoms: C6_12  and  C7_13 
ROOT
HETATM    1  C5  UNL     1       0.122  -0.989   0.434  1.00  0.00     0.097 A 
HETATM    2  N2  UNL     1      -0.876  -0.096   0.305  1.00  0.00    -0.327 N 
ATOM      3  H2  UNL     1      -0.765   0.915   0.388  1.00  0.00     0.169 HD
HETATM    4  C6  UNL     1      -2.039  -0.719   0.052  1.00  0.00     0.165 A 
HETATM    5  N5  UNL     1      -1.753  -2.033   0.024  1.00  0.00    -0.281 N 
ATOM      6  H5  UNL     1      -2.424  -2.782  -0.146  1.00  0.00     0.188 HD
HETATM    7  N6  UNL     1      -0.456  -2.198   0.253  1.00  0.00    -0.287 N 
ATOM      8  H6  UNL     1       0.028  -3.095   0.287  1.00  0.00     0.188 HD
ENDROOT
BRANCH   1   9
HETATM    9  C4  UNL     1       1.564  -0.766   0.714  1.00  0.00     0.078 C 
BRANCH   9  10
HETATM   10  C3  UNL     1       2.333  -0.603  -0.557  1.00  0.00     0.009 C 
BRANCH  10  11
HETATM   11  C2  UNL     1       3.795  -0.377  -0.271  1.00  0.00     0.027 C 
BRANCH  11  12
HETATM   12  C1  UNL     1       4.048   0.850   0.556  1.00  0.00     0.229 C 
BRANCH  12  13
HETATM   13  N1  UNL     1       5.486   0.950   0.757  1.00  0.00    -0.079 N 
ATOM     14  H13 UNL     1       5.891   0.106   1.162  1.00  0.00     0.274 HD
ATOM     15  H12 UNL     1       6.012   0.943  -0.117  1.00  0.00     0.274 HD
ATOM     16  H11 UNL     1       5.658   1.784   1.319  1.00  0.00     0.274 HD
ENDBRANCH  12  13
ENDBRANCH  11  12
ENDBRANCH  10  11
ENDBRANCH   9  10
ENDBRANCH   1   9
BRANCH   4  17
HETATM   17  C7  UNL     1      -3.365  -0.092  -0.155  1.00  0.00     0.143 C 
HETATM   18  N3  UNL     1      -4.444  -0.724  -0.393  1.00  0.00    -0.372 N 
HETATM   19  C8  UNL     1      -5.563   0.168  -0.544  1.00  0.00     0.141 C 
ATOM     20  H3  UNL     1      -4.508  -1.739  -0.468  1.00  0.00     0.161 HD
HETATM   21  C9  UNL     1      -5.040   1.460   0.103  1.00  0.00     0.141 C 
HETATM   22  N4  UNL     1      -3.623   1.288  -0.123  1.00  0.00    -0.372 N 
ATOM     23  H4  UNL     1      -2.936   2.033  -0.238  1.00  0.00     0.161 HD
ENDBRANCH   4  17
TORSDOF 6
