REMARK  7 active torsions:
REMARK  status: ('A' for Active; 'I' for Inactive)
REMARK    1  A    between atoms: C2_2  and  C4_4 
REMARK    2  A    between atoms: C4_4  and  C5_5 
REMARK    3  A    between atoms: C5_5  and  C6_6 
REMARK    4  A    between atoms: C6_6  and  C7_7 
REMARK    5  A    between atoms: C7_7  and  C8_8 
REMARK    6  A    between atoms: C8_8  and  O1_9 
REMARK    7  A    between atoms: C21_25  and  O4_26 
ROOT
HETATM    1  C7  UNL     1      -1.321   1.756   0.458  1.00  0.00    -0.015 C 
HETATM    2  C9  UNL     1      -0.709   2.853  -0.405  1.00  0.00     0.012 C 
HETATM    3  C10 UNL     1       0.398   2.168  -1.218  1.00  0.00     0.006 C 
HETATM    4  C11 UNL     1       0.358   0.762  -0.816  1.00  0.00    -0.005 C 
HETATM    5  C12 UNL     1      -0.251   0.690   0.567  1.00  0.00     0.001 C 
HETATM    6  C13 UNL     1       0.756   1.077   1.612  1.00  0.00     0.007 C 
HETATM    7  C14 UNL     1       2.021   0.268   1.542  1.00  0.00     0.014 C 
HETATM    8  C15 UNL     1       2.632   0.224   0.176  1.00  0.00    -0.012 C 
HETATM    9  C16 UNL     1       3.429   1.481  -0.044  1.00  0.00     0.021 C 
HETATM   10  C17 UNL     1       3.598  -0.899   0.144  1.00  0.00    -0.013 C 
HETATM   11  C18 UNL     1       4.093  -1.375   1.270  1.00  0.00    -0.008 C 
HETATM   12  C19 UNL     1       5.066  -2.493   1.384  1.00  0.00     0.138 C 
HETATM   13  C20 UNL     1       5.119  -3.250   0.138  1.00  0.00     0.265 C 
HETATM   14  O2  UNL     1       5.931  -4.213   0.038  1.00  0.00    -0.265 OA
HETATM   15  O3  UNL     1       4.265  -2.874  -0.887  1.00  0.00    -0.279 OA
HETATM   16  C21 UNL     1       4.023  -1.487  -1.139  1.00  0.00     0.196 C 
HETATM   17  C22 UNL     1       3.034  -1.382  -2.257  1.00  0.00     0.074 C 
HETATM   18  C23 UNL     1       2.196  -0.148  -2.251  1.00  0.00     0.011 C 
HETATM   19  C24 UNL     1       1.595  -0.042  -0.862  1.00  0.00     0.003 C 
ENDROOT
BRANCH   1  20
HETATM   20  C6  UNL     1      -2.556   1.280  -0.252  1.00  0.00     0.012 C 
BRANCH  20  21
HETATM   21  C5  UNL     1      -3.301   0.193   0.444  1.00  0.00     0.001 C 
BRANCH  21  22
HETATM   22  C4  UNL     1      -4.508  -0.148  -0.426  1.00  0.00     0.004 C 
BRANCH  22  23
HETATM   23  C2  UNL     1      -5.322  -1.253   0.220  1.00  0.00    -0.023 C 
HETATM   24  C1  UNL     1      -4.504  -2.507   0.400  1.00  0.00     0.009 C 
HETATM   25  C3  UNL     1      -6.553  -1.507  -0.611  1.00  0.00     0.009 C 
ENDBRANCH  22  23
ENDBRANCH  21  22
ENDBRANCH  20  21
ENDBRANCH   1  20
BRANCH   1  26
HETATM   26  C8  UNL     1      -1.685   2.301   1.834  1.00  0.00     0.173 C 
BRANCH  26  27
HETATM   27  O1  UNL     1      -2.560   3.358   1.739  1.00  0.00    -0.400 OA
ATOM     28  H1  UNL     1      -2.787   3.698   2.597  1.00  0.00     0.209 HD
ENDBRANCH  26  27
ENDBRANCH   1  26
BRANCH  16  29
HETATM   29  O4  UNL     1       5.212  -0.910  -1.610  1.00  0.00    -0.361 OA
ATOM     30  H4  UNL     1       5.486  -1.289  -2.437  1.00  0.00     0.213 HD
ENDBRANCH  16  29
TORSDOF 7
