REMARK  3 active torsions:
REMARK  status: ('A' for Active; 'I' for Inactive)
REMARK    1  A    between atoms: N1_2  and  C2_3 
REMARK    2  A    between atoms: N1_2  and  C7_9 
REMARK    3  A    between atoms: C12_16  and  O4_17 
ROOT
HETATM    1  C7  UNL     1      -1.333  -0.602  -0.367  1.00  0.00     0.008 C 
HETATM    2  C8  UNL     1      -1.738  -0.010  -1.655  1.00  0.00     0.079 C 
HETATM    3  C9  UNL     1      -2.040   1.459  -1.631  1.00  0.00     0.181 C 
HETATM    4  O2  UNL     1      -2.356   2.005  -0.385  1.00  0.00    -0.348 OA
HETATM    5  C10 UNL     1      -2.363   1.344   0.814  1.00  0.00     0.107 A 
HETATM    6  C11 UNL     1      -2.776   1.660   2.064  1.00  0.00     0.182 A 
HETATM    7  O3  UNL     1      -2.535   0.619   2.844  1.00  0.00    -0.297 OA
HETATM    8  C12 UNL     1      -1.989  -0.352   2.159  1.00  0.00     0.197 A 
HETATM    9  C13 UNL     1      -1.855   0.063   0.847  1.00  0.00     0.075 A 
ENDROOT
BRANCH   1  10
HETATM   10  N1  UNL     1      -0.010  -1.094  -0.217  1.00  0.00    -0.285 NA
HETATM   11  C1  UNL     1       0.141  -2.248  -1.112  1.00  0.00     0.117 C 
BRANCH  10  12
HETATM   12  C2  UNL     1       1.092  -0.218  -0.345  1.00  0.00     0.066 C 
HETATM   13  C3  UNL     1       2.358  -0.994   0.075  1.00  0.00     0.046 C 
HETATM   14  C4  UNL     1       3.540  -0.249  -0.499  1.00  0.00     0.169 C 
HETATM   15  O1  UNL     1       3.460   1.071  -0.196  1.00  0.00    -0.391 OA
HETATM   16  C5  UNL     1       2.565   1.468   0.753  1.00  0.00     0.169 C 
HETATM   17  C6  UNL     1       1.142   1.026   0.457  1.00  0.00     0.046 C 
ENDBRANCH  10  12
ENDBRANCH   1  10
BRANCH   8  18
HETATM   18  O4  UNL     1      -1.615  -1.590   2.696  1.00  0.00    -0.340 OA
ATOM     19  H4  UNL     1      -1.218  -2.295   2.198  1.00  0.00     0.220 HD
ENDBRANCH   8  18
TORSDOF 3
