REMARK  2 active torsions:
REMARK  status: ('A' for Active; 'I' for Inactive)
REMARK    1  A    between atoms: C2_2  and  N1_4 
REMARK    2  A    between atoms: C5_10  and  C6_11 
ROOT
HETATM    1  C6  UNL     1      -0.056   0.299   0.917  1.00  0.00     0.079 C 
HETATM    2  C7  UNL     1       0.297   1.713   0.806  1.00  0.00     0.034 C 
HETATM    3  C8  UNL     1      -1.074   2.345   0.491  1.00  0.00     0.125 C 
HETATM    4  N4  UNL     1      -1.878   1.261  -0.020  1.00  0.00    -0.365 N 
HETATM    5  C9  UNL     1      -3.268   1.158  -0.255  1.00  0.00     0.073 C 
HETATM    6  N5  UNL     1      -4.005   2.243  -0.288  1.00  0.00    -0.389 N 
ATOM      7  H51 UNL     1      -5.008   2.169  -0.458  1.00  0.00     0.157 HD
ATOM      8  H52 UNL     1      -3.516   3.126  -0.138  1.00  0.00     0.157 HD
HETATM    9  C10 UNL     1      -3.976  -0.120  -0.472  1.00  0.00     0.076 C 
HETATM   10  C11 UNL     1      -2.992  -1.114  -1.047  1.00  0.00     0.009 C 
HETATM   11  C12 UNL     1      -1.780  -1.131  -0.144  1.00  0.00     0.026 C 
HETATM   12  C13 UNL     1      -0.993   0.148  -0.299  1.00  0.00     0.097 C 
ENDROOT
BRANCH   1  13
HETATM   13  C5  UNL     1       0.930  -0.717   1.051  1.00  0.00     0.105 A 
HETATM   14  N1  UNL     1       2.063  -0.993   0.409  1.00  0.00    -0.275 N 
HETATM   15  N2  UNL     1       2.628  -2.083   0.933  1.00  0.00    -0.292 N 
HETATM   16  C4  UNL     1       1.864  -2.537   1.934  1.00  0.00     0.199 A 
ATOM     17  H2  UNL     1       3.503  -2.503   0.620  1.00  0.00     0.188 HD
HETATM   18  N3  UNL     1       0.832  -1.701   2.001  1.00  0.00    -0.339 N 
ATOM     19  H3  UNL     1       0.067  -1.781   2.671  1.00  0.00     0.168 HD
BRANCH  14  20
HETATM   20  C2  UNL     1       2.594  -0.228  -0.678  1.00  0.00     0.101 C 
HETATM   21  C1  UNL     1       3.261  -1.250  -1.626  1.00  0.00     0.034 C 
HETATM   22  C3  UNL     1       3.752   0.632  -0.189  1.00  0.00     0.034 C 
ENDBRANCH  14  20
ENDBRANCH   1  13
TORSDOF 2
