REMARK  4 active torsions:
REMARK  status: ('A' for Active; 'I' for Inactive)
REMARK    1  A    between atoms: C2_2  and  C3_3 
REMARK    2  A    between atoms: C3_3  and  C4_4 
REMARK    3  A    between atoms: C4_4  and  O1_5 
REMARK    4  A    between atoms: C5_9  and  N2_10 
ROOT
HETATM    1  C3  UNL     1      -2.106   0.055  -0.073  1.00  0.00     0.087 A 
HETATM    2  N1  UNL     1      -0.741   0.248  -0.476  1.00  0.00    -0.359 N 
ATOM      3  H1  UNL     1      -0.436   0.725  -1.325  1.00  0.00     0.162 HD
HETATM    4  C5  UNL     1       0.038  -0.279   0.408  1.00  0.00     0.118 A 
HETATM    5  C11 UNL     1      -0.748  -0.876   1.490  1.00  0.00     0.064 A 
HETATM    6  C12 UNL     1      -2.068  -0.679   1.209  1.00  0.00     0.034 A 
HETATM    7  S1  UNL     1      -1.842  -1.554   2.729  1.00  0.00    -0.086 SA
ENDROOT
BRANCH   4   8
HETATM    8  N2  UNL     1       1.439  -0.266   0.320  1.00  0.00    -0.366 N 
HETATM    9  C6  UNL     1       2.180   0.822   0.880  1.00  0.00     0.124 C 
HETATM   10  C7  UNL     1       3.288   1.318  -0.003  1.00  0.00     0.020 C 
HETATM   11  C8  UNL     1       4.101   0.151  -0.480  1.00  0.00     0.003 C 
HETATM   12  C9  UNL     1       3.269  -0.879  -1.203  1.00  0.00     0.020 C 
HETATM   13  C10 UNL     1       2.122  -1.342  -0.330  1.00  0.00     0.124 C 
ENDBRANCH   4   8
BRANCH   1  14
HETATM   14  C2  UNL     1      -2.907  -0.765  -1.058  1.00  0.00     0.034 C 
HETATM   15  C1  UNL     1      -4.309  -0.912  -0.506  1.00  0.00     0.008 C 
ENDBRANCH   1  14
BRANCH   1  16
HETATM   16  C4  UNL     1      -2.715   1.433   0.129  1.00  0.00     0.200 C 
BRANCH  16  17
HETATM   17  O1  UNL     1      -2.671   2.179  -1.044  1.00  0.00    -0.398 OA
ATOM     18  H1  UNL     1      -3.052   3.040  -0.918  1.00  0.00     0.209 HD
ENDBRANCH  16  17
ENDBRANCH   1  16
TORSDOF 4
