REMARK  9 active torsions:
REMARK  status: ('A' for Active; 'I' for Inactive)
REMARK    1  A    between atoms: C2_2  and  C4_4 
REMARK    2  A    between atoms: C4_4  and  C5_5 
REMARK    3  A    between atoms: C5_5  and  N1_6 
REMARK       I    between atoms: N1_6  and  C6_8 
REMARK    4  A    between atoms: N3_11  and  C7_13 
REMARK    5  A    between atoms: C7_13  and  C10_16 
REMARK       I    between atoms: N4_20  and  C14_21 
REMARK    6  A    between atoms: C14_21  and  C15_23 
REMARK    7  A    between atoms: C15_23  and  N5_24 
REMARK    8  A    between atoms: C15_23  and  C21_32 
REMARK       I    between atoms: N5_24  and  C16_26 
REMARK    9  A    between atoms: C16_26  and  C17_28 
ROOT
HETATM    1  C10 UNL     1       1.086  -0.476   0.313  1.00  0.00     0.019 C 
HETATM    2  C11 UNL     1       1.544  -0.257   1.703  1.00  0.00     0.057 C 
HETATM    3  C12 UNL     1       0.653  -1.206   2.484  1.00  0.00     0.026 C 
HETATM    4  C13 UNL     1      -0.209  -1.893   1.404  1.00  0.00     0.132 C 
HETATM    5  N4  UNL     1      -0.283  -0.740   0.449  1.00  0.00    -0.321 N 
HETATM    6  C14 UNL     1      -1.546  -0.296   0.074  1.00  0.00     0.247 C 
HETATM    7  O2  UNL     1      -1.642   0.761  -0.585  1.00  0.00    -0.271 OA
ENDROOT
BRANCH   1   8
HETATM    8  C7  UNL     1       1.662   0.312  -0.795  1.00  0.00     0.061 C 
HETATM    9  C8  UNL     1       1.260   1.797  -0.659  1.00  0.00     0.044 C 
HETATM   10  C9  UNL     1       0.936  -0.155  -2.050  1.00  0.00     0.044 C 
BRANCH   8  11
HETATM   11  N3  UNL     1       2.971   0.226  -1.124  1.00  0.00    -0.381 N 
HETATM   12  C4  UNL     1       4.234   0.481  -0.683  1.00  0.00     0.004 C 
ATOM     13  H3  UNL     1       3.037  -0.186  -2.055  1.00  0.00     0.160 HD
BRANCH  12  14
HETATM   14  C2  UNL     1       4.739   1.830  -0.344  1.00  0.00     0.024 C 
HETATM   15  C1  UNL     1       6.222   2.078  -0.670  1.00  0.00     0.016 C 
HETATM   16  C3  UNL     1       4.632   2.178   1.128  1.00  0.00     0.016 C 
ENDBRANCH  12  14
BRANCH  12  17
HETATM   17  C5  UNL     1       4.932  -0.686   0.013  1.00  0.00     0.176 C 
BRANCH  17  18
HETATM   18  N1  UNL     1       6.314  -0.878  -0.261  1.00  0.00    -0.340 N 
HETATM   19  C6  UNL     1       6.936  -1.203  -1.478  1.00  0.00     0.328 C 
HETATM   20  N2  UNL     1       8.336  -1.351  -1.554  1.00  0.00    -0.040 NA
HETATM   21  O1  UNL     1       6.291  -1.374  -2.535  1.00  0.00    -0.251 OA
ATOM     22  H1  UNL     1       6.940  -0.764   0.536  1.00  0.00     0.164 HD
ENDBRANCH  17  18
ENDBRANCH  12  17
ENDBRANCH   8  11
ENDBRANCH   1   8
BRANCH   6  23
HETATM   23  C15 UNL     1      -2.844  -0.924   0.356  1.00  0.00     0.184 C 
BRANCH  23  24
HETATM   24  N5  UNL     1      -3.895   0.111   0.160  1.00  0.00    -0.346 N 
HETATM   25  C16 UNL     1      -4.696   0.574   1.210  1.00  0.00     0.226 C 
HETATM   26  O3  UNL     1      -4.514   0.090   2.358  1.00  0.00    -0.273 OA
ATOM     27  H5  UNL     1      -4.037   0.497  -0.773  1.00  0.00     0.163 HD
BRANCH  25  28
HETATM   28  C17 UNL     1      -5.746   1.602   1.045  1.00  0.00     0.030 C 
HETATM   29  C18 UNL     1      -6.832   1.176   0.075  1.00  0.00     0.024 C 
HETATM   30  C19 UNL     1      -6.389   2.000   2.333  1.00  0.00     0.024 C 
HETATM   31  C20 UNL     1      -5.143   2.879   0.447  1.00  0.00     0.024 C 
ENDBRANCH  25  28
ENDBRANCH  23  24
BRANCH  23  32
HETATM   32  C21 UNL     1      -3.292  -2.030  -0.518  1.00  0.00    -0.022 C 
HETATM   33  C22 UNL     1      -4.660  -2.479   0.038  1.00  0.00     0.017 C 
HETATM   34  C23 UNL     1      -2.494  -3.249  -0.668  1.00  0.00     0.017 C 
HETATM   35  C24 UNL     1      -3.677  -1.459  -1.899  1.00  0.00     0.017 C 
ENDBRANCH  23  32
ENDBRANCH   6  23
TORSDOF 9
