REMARK  10 active torsions:
REMARK  status: ('A' for Active; 'I' for Inactive)
REMARK    1  A    between atoms: C10_12  and  C11_13 
REMARK    2  A    between atoms: C11_13  and  C12_14 
REMARK    3  A    between atoms: C13_17  and  O1_18 
REMARK    4  A    between atoms: C15_21  and  C16_22 
REMARK    5  A    between atoms: C17_23  and  C18_24 
REMARK    6  A    between atoms: C19_25  and  C20_26 
REMARK    7  A    between atoms: C20_26  and  S1_27 
REMARK    8  A    between atoms: S1_27  and  N3_30 
REMARK    9  A    between atoms: N3_30  and  C21_32 
REMARK   10  A    between atoms: C21_32  and  C22_33 
ROOT
HETATM    1  C12 UNL     1      -0.991  -0.837   1.801  1.00  0.00     0.046 A 
HETATM    2  N2  UNL     1      -1.443  -1.444   2.908  1.00  0.00    -0.336 N 
ATOM      3  H2  UNL     1      -2.214  -1.098   3.479  1.00  0.00     0.168 HD
HETATM    4  C13 UNL     1      -0.761  -2.551   3.167  1.00  0.00     0.141 A 
HETATM    5  C14 UNL     1       0.197  -2.677   2.170  1.00  0.00     0.069 A 
HETATM    6  C15 UNL     1       0.066  -1.629   1.324  1.00  0.00    -0.005 A 
ENDROOT
BRANCH   6   7
HETATM    7  C16 UNL     1       0.805  -1.303   0.139  1.00  0.00     0.014 C 
HETATM    8  C17 UNL     1       1.800  -1.850  -0.470  1.00  0.00     0.001 C 
BRANCH   8   9
HETATM    9  C18 UNL     1       2.587  -3.024  -0.207  1.00  0.00    -0.003 C 
HETATM   10  C19 UNL     1       3.592  -3.438  -0.962  1.00  0.00    -0.010 C 
BRANCH  10  11
HETATM   11  C20 UNL     1       4.116  -2.834  -2.182  1.00  0.00     0.190 C 
BRANCH  11  12
HETATM   12  S1  UNL     1       5.846  -2.419  -1.925  1.00  0.00     0.233 S 
HETATM   13  O2  UNL     1       6.509  -3.727  -1.512  1.00  0.00    -0.205 OA
HETATM   14  O3  UNL     1       6.494  -2.010  -3.207  1.00  0.00    -0.205 OA
BRANCH  12  15
HETATM   15  N3  UNL     1       6.023  -1.322  -0.670  1.00  0.00    -0.298 N 
ATOM     16  H3  UNL     1       6.552  -1.557   0.170  1.00  0.00     0.177 HD
BRANCH  15  17
HETATM   17  C21 UNL     1       5.411  -0.063  -0.823  1.00  0.00     0.076 C 
BRANCH  17  18
HETATM   18  C22 UNL     1       5.574   0.899   0.293  1.00  0.00     0.016 C 
HETATM   19  C23 UNL     1       5.043   0.458   1.608  1.00  0.00     0.015 C 
HETATM   20  C24 UNL     1       4.791   2.162  -0.096  1.00  0.00     0.015 C 
ENDBRANCH  17  18
ENDBRANCH  15  17
ENDBRANCH  12  15
ENDBRANCH  11  12
ENDBRANCH  10  11
ENDBRANCH   8   9
ENDBRANCH   6   7
BRANCH   1  21
HETATM   21  C11 UNL     1      -1.489   0.412   1.258  1.00  0.00     0.060 C 
BRANCH  21  22
HETATM   22  C10 UNL     1      -2.603   0.569   0.589  1.00  0.00     0.040 A 
HETATM   23  C2  UNL     1      -3.538  -0.374   0.250  1.00  0.00    -0.033 A 
HETATM   24  C1  UNL     1      -3.613  -1.829   0.498  1.00  0.00     0.050 C 
HETATM   25  C3  UNL     1      -4.550   0.283  -0.454  1.00  0.00     0.038 A 
HETATM   26  C4  UNL     1      -4.224   1.612  -0.536  1.00  0.00     0.035 A 
HETATM   27  C5  UNL     1      -4.963   2.549  -1.142  1.00  0.00    -0.053 C 
HETATM   28  N1  UNL     1      -3.059   1.762   0.092  1.00  0.00    -0.356 N 
HETATM   29  C6  UNL     1      -6.252   2.335  -1.826  1.00  0.00     0.036 C 
HETATM   30  C9  UNL     1      -4.651   3.998  -1.256  1.00  0.00     0.036 C 
HETATM   31  C7  UNL     1      -7.013   3.618  -1.613  1.00  0.00     0.005 C 
HETATM   32  C8  UNL     1      -5.990   4.693  -1.346  1.00  0.00     0.005 C 
ATOM     33  H1  UNL     1      -2.569   2.651   0.190  1.00  0.00     0.166 HD
ENDBRANCH  21  22
ENDBRANCH   1  21
BRANCH   4  34
HETATM   34  O1  UNL     1      -0.945  -3.431   4.221  1.00  0.00    -0.346 OA
ATOM     35  H1  UNL     1      -0.456  -4.224   4.407  1.00  0.00     0.219 HD
ENDBRANCH   4  34
TORSDOF 10
