REMARK  9 active torsions:
REMARK  status: ('A' for Active; 'I' for Inactive)
REMARK    1  A    between atoms: C2_2  and  C3_3 
REMARK    2  A    between atoms: C3_3  and  C5_5 
REMARK    3  A    between atoms: C6_8  and  O1_9 
REMARK    4  A    between atoms: C7_11  and  C8_12 
REMARK    5  A    between atoms: C8_12  and  C9_13 
REMARK    6  A    between atoms: C13_20  and  C14_21 
REMARK    7  A    between atoms: C14_21  and  C15_22 
REMARK    8  A    between atoms: C19_29  and  C20_30 
REMARK    9  A    between atoms: C20_30  and  C21_31 
ROOT
HETATM    1  C5  UNL     1      -0.656  -2.386  -0.201  1.00  0.00     0.179 C 
HETATM    2  N1  UNL     1      -1.937  -1.979   0.280  1.00  0.00    -0.359 N 
ATOM      3  H1  UNL     1      -2.710  -2.521  -0.106  1.00  0.00     0.162 HD
HETATM    4  C6  UNL     1      -2.341  -0.988   1.172  1.00  0.00     0.135 C 
HETATM    5  C7  UNL     1      -2.271   0.489   1.059  1.00  0.00     0.159 C 
HETATM    6  N2  UNL     1      -1.819   0.957  -0.236  1.00  0.00    -0.347 N 
ATOM      7  H2  UNL     1      -2.270   0.543  -1.052  1.00  0.00     0.163 HD
HETATM    8  C12 UNL     1      -0.828   1.918  -0.489  1.00  0.00     0.249 C 
HETATM    9  O2  UNL     1      -0.993   2.607  -1.542  1.00  0.00    -0.271 OA
HETATM   10  C13 UNL     1       0.365   2.220   0.307  1.00  0.00     0.277 C 
HETATM   11  N3  UNL     1       1.516   1.614  -0.335  1.00  0.00    -0.060 N 
ATOM     12  H31 UNL     1       2.356   2.182  -0.222  1.00  0.00     0.278 HD
ATOM     13  H32 UNL     1       1.445   1.648  -1.352  1.00  0.00     0.278 HD
HETATM   14  C18 UNL     1       1.715   0.237   0.155  1.00  0.00     0.262 C 
HETATM   15  C19 UNL     1       2.104  -0.708  -0.950  1.00  0.00     0.133 C 
HETATM   16  N4  UNL     1       0.991  -1.132  -1.776  1.00  0.00    -0.350 N 
ATOM     17  H4  UNL     1       1.112  -0.950  -2.772  1.00  0.00     0.163 HD
HETATM   18  C25 UNL     1      -0.205  -1.739  -1.448  1.00  0.00     0.241 C 
HETATM   19  O3  UNL     1      -1.113  -1.763  -2.371  1.00  0.00    -0.271 OA
ENDROOT
BRANCH  15  20
HETATM   20  C20 UNL     1       2.985  -1.801  -0.541  1.00  0.00    -0.000 C 
BRANCH  20  21
HETATM   21  C21 UNL     1       4.326  -1.616  -0.012  1.00  0.00    -0.000 C 
HETATM   22  C22 UNL     1       5.215  -0.687   0.016  1.00  0.00    -0.088 C 
HETATM   23  C23 UNL     1       6.536  -0.995   0.744  1.00  0.00     0.043 C 
HETATM   24  C24 UNL     1       5.162   0.632  -0.612  1.00  0.00     0.043 C 
ENDBRANCH  20  21
ENDBRANCH  15  20
BRANCH  10  25
HETATM   25  C14 UNL     1       0.533   3.637   0.709  1.00  0.00     0.046 C 
BRANCH  25  26
HETATM   26  C15 UNL     1       0.628   4.684  -0.313  1.00  0.00    -0.020 C 
HETATM   27  C16 UNL     1       0.787   6.026   0.443  1.00  0.00     0.009 C 
HETATM   28  C17 UNL     1       1.900   4.564  -1.119  1.00  0.00     0.009 C 
ENDBRANCH  25  26
ENDBRANCH  10  25
BRANCH   1  29
HETATM   29  C3  UNL     1      -0.586  -3.891  -0.509  1.00  0.00     0.013 C 
HETATM   30  C4  UNL     1      -1.270  -4.296  -1.761  1.00  0.00     0.012 C 
BRANCH  29  31
HETATM   31  C2  UNL     1      -0.847  -4.761   0.665  1.00  0.00     0.002 C 
HETATM   32  C1  UNL     1      -2.260  -4.901   1.102  1.00  0.00     0.005 C 
ENDBRANCH  29  31
ENDBRANCH   1  29
BRANCH   4  33
HETATM   33  O1  UNL     1      -2.875  -1.346   2.307  1.00  0.00    -0.348 OA
ATOM     34  H1  UNL     1      -3.150  -0.670   2.915  1.00  0.00     0.219 HD
ENDBRANCH   4  33
BRANCH   5  35
HETATM   35  C8  UNL     1      -3.490   1.217   1.517  1.00  0.00     0.037 C 
BRANCH  35  36
HETATM   36  C9  UNL     1      -4.771   0.989   0.855  1.00  0.00    -0.020 C 
HETATM   37  C10 UNL     1      -5.361  -0.369   0.841  1.00  0.00     0.009 C 
HETATM   38  C11 UNL     1      -4.851   1.526  -0.565  1.00  0.00     0.009 C 
ENDBRANCH  35  36
ENDBRANCH   5  35
TORSDOF 9
