REMARK  9 active torsions:
REMARK  status: ('A' for Active; 'I' for Inactive)
REMARK    1  A    between atoms: C2_2  and  C4_4 
REMARK    2  A    between atoms: C4_4  and  N1_5 
REMARK    3  A    between atoms: C4_4  and  C19_32 
REMARK       I    between atoms: N1_5  and  C5_7 
REMARK    4  A    between atoms: C5_7  and  C6_9 
REMARK    5  A    between atoms: C6_9  and  C7_10 
REMARK    6  A    between atoms: C6_9  and  N4_23 
REMARK    7  A    between atoms: C7_10  and  C8_11 
REMARK       I    between atoms: N4_23  and  C15_25 
REMARK    8  A    between atoms: C15_25  and  C16_27 
REMARK    9  A    between atoms: C16_27  and  O3_30 
ROOT
HETATM    1  C6  UNL     1       0.623  -0.066   0.372  1.00  0.00     0.182 C 
ENDROOT
BRANCH   1   2
HETATM    2  C5  UNL     1      -0.853  -0.351   0.134  1.00  0.00     0.245 C 
HETATM    3  N1  UNL     1      -1.812   0.469   0.676  1.00  0.00    -0.328 N 
ATOM      4  H1  UNL     1      -1.420   1.244   1.210  1.00  0.00     0.168 HD
HETATM    5  O1  UNL     1      -1.078  -1.335  -0.553  1.00  0.00    -0.271 OA
BRANCH   3   6
HETATM    6  C4  UNL     1      -3.260   0.471   0.653  1.00  0.00     0.021 C 
BRANCH   6   7
HETATM    7  C2  UNL     1      -3.784   1.612  -0.141  1.00  0.00    -0.064 C 
HETATM    8  C1  UNL     1      -3.412   1.685  -1.565  1.00  0.00     0.045 C 
HETATM    9  C3  UNL     1      -5.220   1.982   0.038  1.00  0.00     0.045 C 
ENDBRANCH   6   7
BRANCH   6  10
HETATM   10  C19 UNL     1      -3.946  -0.833   0.567  1.00  0.00    -0.009 C 
HETATM   11  C20 UNL     1      -3.215  -1.776   1.510  1.00  0.00     0.021 C 
HETATM   12  C21 UNL     1      -4.099  -1.511  -0.730  1.00  0.00     0.021 C 
HETATM   13  C22 UNL     1      -5.353  -0.725   1.213  1.00  0.00     0.021 C 
ENDBRANCH   6  10
ENDBRANCH   3   6
ENDBRANCH   1   2
BRANCH   1  14
HETATM   14  C7  UNL     1       0.934   1.256  -0.206  1.00  0.00     0.092 C 
BRANCH  14  15
HETATM   15  C8  UNL     1       2.289   1.761  -0.082  1.00  0.00     0.014 A 
HETATM   16  C9  UNL     1       2.761   2.949  -0.657  1.00  0.00     0.040 A 
HETATM   17  C10 UNL     1       4.062   3.119  -0.322  1.00  0.00     0.011 A 
HETATM   18  C11 UNL     1       4.955   4.140  -0.651  1.00  0.00     0.035 A 
HETATM   19  C14 UNL     1       4.421   2.058   0.455  1.00  0.00     0.115 A 
HETATM   20  C12 UNL     1       6.237   4.071  -0.175  1.00  0.00     0.027 A 
HETATM   21 BR1  UNL     1       7.450   5.459  -0.623  1.00  0.00    -0.050 Br
HETATM   22  C13 UNL     1       6.591   2.984   0.616  1.00  0.00     0.108 A 
HETATM   23  N2  UNL     1       5.687   2.014   0.910  1.00  0.00    -0.350 N 
ATOM     24  H2  UNL     1       5.976   1.229   1.493  1.00  0.00     0.166 HD
HETATM   25  N3  UNL     1       3.326   1.264   0.576  1.00  0.00    -0.345 N 
ATOM     26  H3  UNL     1       3.305   0.394   1.107  1.00  0.00     0.167 HD
ENDBRANCH  14  15
ENDBRANCH   1  14
BRANCH   1  27
HETATM   27  N4  UNL     1       1.399  -1.122  -0.293  1.00  0.00    -0.345 N 
HETATM   28  C15 UNL     1       1.975  -2.211   0.406  1.00  0.00     0.252 C 
HETATM   29  O2  UNL     1       1.792  -2.244   1.663  1.00  0.00    -0.270 OA
ATOM     30  H4  UNL     1       1.529  -1.068  -1.303  1.00  0.00     0.163 HD
BRANCH  28  31
HETATM   31  C16 UNL     1       2.750  -3.272  -0.235  1.00  0.00     0.131 C 
HETATM   32  C17 UNL     1       4.174  -3.353   0.277  1.00  0.00     0.056 C 
HETATM   33  C18 UNL     1       2.098  -4.595  -0.013  1.00  0.00     0.056 C 
BRANCH  31  34
HETATM   34  O3  UNL     1       2.825  -3.046  -1.614  1.00  0.00    -0.381 OA
ATOM     35  H3  UNL     1       3.329  -3.735  -2.031  1.00  0.00     0.211 HD
ENDBRANCH  31  34
ENDBRANCH  28  31
ENDBRANCH   1  27
TORSDOF 9
