REMARK  7 active torsions:
REMARK  status: ('A' for Active; 'I' for Inactive)
REMARK       I    between atoms: N1_2  and  C2_4 
REMARK    1  A    between atoms: C2_4  and  C3_6 
REMARK       I    between atoms: C3_6  and  N2_8 
REMARK    2  A    between atoms: N2_8  and  C4_10 
REMARK    3  A    between atoms: C7_13  and  C8_14 
REMARK       I    between atoms: C8_14  and  N3_16 
REMARK    4  A    between atoms: N3_16  and  C9_18 
REMARK    5  A    between atoms: C15_25  and  C16_26 
REMARK       I    between atoms: C16_26  and  N4_28 
REMARK    6  A    between atoms: N4_28  and  C17_30 
REMARK    7  A    between atoms: C21_34  and  N5_35 
REMARK       I    between atoms: N5_35  and  C22_37 
ROOT
HETATM    1  C4  UNL     1      -3.455   1.853   0.203  1.00  0.00     0.036 A 
HETATM    2  C5  UNL     1      -3.904   0.573   0.013  1.00  0.00     0.030 A 
HETATM    3  C6  UNL     1      -3.017  -0.450  -0.284  1.00  0.00     0.020 A 
HETATM    4  C7  UNL     1      -1.635  -0.214  -0.401  1.00  0.00     0.048 A 
HETATM    5  C15 UNL     1      -1.165   1.043  -0.216  1.00  0.00     0.050 A 
HETATM    6  C25 UNL     1      -2.102   2.050   0.083  1.00  0.00     0.047 A 
ENDROOT
BRANCH   5   7
HETATM    7  C16 UNL     1       0.238   1.407  -0.266  1.00  0.00     0.257 C 
HETATM    8  O4  UNL     1       0.483   2.580  -0.730  1.00  0.00    -0.267 OA
HETATM    9  N4  UNL     1       1.289   0.596   0.147  1.00  0.00    -0.323 N 
ATOM     10  H4  UNL     1       1.057  -0.325   0.519  1.00  0.00     0.169 HD
BRANCH   9  11
HETATM   11  C17 UNL     1       2.670   0.958   0.089  1.00  0.00     0.037 A 
HETATM   12  C18 UNL     1       3.148   2.229   0.140  1.00  0.00     0.029 A 
HETATM   13  C19 UNL     1       4.518   2.510   0.035  1.00  0.00     0.004 A 
HETATM   14  C20 UNL     1       5.387   1.425  -0.125  1.00  0.00     0.029 A 
HETATM   15  C21 UNL     1       4.960   0.134  -0.181  1.00  0.00     0.036 A 
HETATM   16  C24 UNL     1       3.569  -0.088  -0.070  1.00  0.00     0.059 A 
BRANCH  15  17
HETATM   17  N5  UNL     1       5.826  -0.955  -0.325  1.00  0.00    -0.327 N 
HETATM   18  C22 UNL     1       7.222  -0.963  -0.176  1.00  0.00     0.218 C 
HETATM   19  C23 UNL     1       7.961  -2.269  -0.389  1.00  0.00     0.117 C 
HETATM   20  O5  UNL     1       7.921   0.031   0.121  1.00  0.00    -0.274 OA
ATOM     21  H5  UNL     1       5.393  -1.847  -0.566  1.00  0.00     0.169 HD
ENDBRANCH  15  17
ENDBRANCH   9  11
ENDBRANCH   5   7
BRANCH   4  22
HETATM   22  C8  UNL     1      -0.792  -1.374  -0.772  1.00  0.00     0.257 C 
HETATM   23  O3  UNL     1      -0.128  -1.269  -1.790  1.00  0.00    -0.267 OA
HETATM   24  N3  UNL     1      -0.813  -2.500   0.052  1.00  0.00    -0.323 N 
ATOM     25  H3  UNL     1      -1.415  -2.465   0.874  1.00  0.00     0.169 HD
BRANCH  24  26
HETATM   26  C9  UNL     1      -0.073  -3.681  -0.155  1.00  0.00     0.035 A 
HETATM   27  C10 UNL     1      -0.350  -4.772   0.694  1.00  0.00     0.032 A 
HETATM   28  C11 UNL     1       0.322  -5.956   0.580  1.00  0.00     0.044 A 
HETATM   29  C12 UNL     1       1.297  -6.163  -0.354  1.00  0.00     0.116 A 
HETATM   30  F1  UNL     1       1.943  -7.345  -0.443  1.00  0.00    -0.206 F 
HETATM   31  C13 UNL     1       1.585  -5.116  -1.193  1.00  0.00     0.044 A 
HETATM   32  C14 UNL     1       0.900  -3.900  -1.081  1.00  0.00     0.032 A 
ENDBRANCH  24  26
ENDBRANCH   4  22
BRANCH   1  33
HETATM   33  N2  UNL     1      -4.293   2.964   0.488  1.00  0.00    -0.319 N 
HETATM   34  C3  UNL     1      -5.676   3.029   0.361  1.00  0.00     0.313 C 
HETATM   35  O2  UNL     1      -6.429   2.090  -0.043  1.00  0.00    -0.262 OA
ATOM     36  H2  UNL     1      -3.828   3.808   0.823  1.00  0.00     0.169 HD
BRANCH  34  37
HETATM   37  C2  UNL     1      -6.346   4.301   0.726  1.00  0.00     0.309 C 
HETATM   38  N1  UNL     1      -7.756   4.390   0.589  1.00  0.00    -0.357 N 
HETATM   39  C1  UNL     1      -8.468   5.605   0.929  1.00  0.00     0.149 C 
ATOM     40  H1  UNL     1      -8.277   3.584   0.245  1.00  0.00     0.162 HD
HETATM   41  O1  UNL     1      -5.660   5.261   1.143  1.00  0.00    -0.262 OA
ENDBRANCH  34  37
ENDBRANCH   1  33
TORSDOF 7
