REMARK  3 active torsions:
REMARK  status: ('A' for Active; 'I' for Inactive)
REMARK       I    between atoms: N1_2  and  C2_4 
REMARK    1  A    between atoms: C2_4  and  C3_6 
REMARK    2  A    between atoms: C5_9  and  C6_10 
REMARK    3  A    between atoms: C12_16  and  O2_17 
ROOT
HETATM    1  C3  UNL     1      -2.273  -0.204   0.058  1.00  0.00     0.106 A 
HETATM    2  S1  UNL     1      -1.869   1.424  -0.373  1.00  0.00    -0.093 SA
HETATM    3  C4  UNL     1      -0.150   1.228  -0.362  1.00  0.00     0.061 A 
HETATM    4  C5  UNL     1       0.025  -0.065  -0.035  1.00  0.00    -0.013 A 
HETATM    5  C12 UNL     1      -1.081  -0.818   0.190  1.00  0.00     0.095 A 
ENDROOT
BRANCH   4   6
HETATM    6  C6  UNL     1       1.439  -0.582   0.121  1.00  0.00     0.022 C 
HETATM    7  C7  UNL     1       2.167  -0.076  -1.136  1.00  0.00     0.009 C 
HETATM    8  C8  UNL     1       3.620  -0.486  -0.937  1.00  0.00     0.001 C 
HETATM    9  C9  UNL     1       4.189   0.643  -0.093  1.00  0.00     0.000 C 
HETATM   10  C10 UNL     1       3.187   1.076   0.977  1.00  0.00     0.001 C 
HETATM   11  C11 UNL     1       2.139   0.056   1.320  1.00  0.00     0.009 C 
ENDBRANCH   4   6
BRANCH   5  12
HETATM   12  O2  UNL     1      -0.990  -2.180   0.548  1.00  0.00    -0.359 OA
ATOM     13  H2  UNL     1      -0.150  -2.613   0.641  1.00  0.00     0.217 HD
ENDBRANCH   5  12
BRANCH   1  14
HETATM   14  C2  UNL     1      -3.667  -0.671   0.093  1.00  0.00     0.261 C 
HETATM   15  N1  UNL     1      -4.721   0.261  -0.104  1.00  0.00    -0.361 N 
HETATM   16  C1  UNL     1      -6.124   0.031  -0.161  1.00  0.00     0.149 C 
ATOM     17  H1  UNL     1      -4.431   1.232  -0.221  1.00  0.00     0.162 HD
HETATM   18  O1  UNL     1      -3.958  -1.857   0.274  1.00  0.00    -0.267 OA
ENDBRANCH   1  14
TORSDOF 3
