REMARK  4 active torsions:
REMARK  status: ('A' for Active; 'I' for Inactive)
REMARK    1  A    between atoms: C2_2  and  N1_4 
REMARK    2  A    between atoms: N1_4  and  C4_6 
REMARK    3  A    between atoms: C4_6  and  N2_8 
REMARK       I    between atoms: N2_8  and  C5_10 
REMARK       I    between atoms: C5_10  and  N3_12 
REMARK    4  A    between atoms: N3_12  and  C6_14 
ROOT
HETATM    1  N2  UNL     1       2.124  -0.856   0.273  1.00  0.00    -0.286 N 
ATOM      2  H2  UNL     1       2.350   0.125   0.107  1.00  0.00     0.173 HD
HETATM    3  C5  UNL     1       0.768  -1.252   0.136  1.00  0.00     0.323 C 
HETATM    4  O1  UNL     1       0.484  -2.448   0.336  1.00  0.00    -0.247 OA
HETATM    5  N3  UNL     1      -0.216  -0.278  -0.224  1.00  0.00    -0.329 N 
ATOM      6  H3  UNL     1       0.087   0.684  -0.374  1.00  0.00     0.165 HD
ENDROOT
BRANCH   1   7
HETATM    7  C4  UNL     1       3.184  -1.725   0.623  1.00  0.00     0.175 C 
HETATM    8  S1  UNL     1       2.813  -3.314   0.895  1.00  0.00    -0.041 SA
BRANCH   7   9
HETATM    9  N1  UNL     1       4.532  -1.294   0.736  1.00  0.00    -0.363 N 
ATOM     10  H1  UNL     1       5.250  -1.968   1.002  1.00  0.00     0.162 HD
BRANCH   9  11
HETATM   11  C2  UNL     1       4.906   0.064   0.485  1.00  0.00     0.075 C 
HETATM   12  C1  UNL     1       4.719   0.409  -0.979  1.00  0.00     0.032 C 
HETATM   13  C3  UNL     1       6.371   0.266   0.790  1.00  0.00     0.032 C 
ENDBRANCH   9  11
ENDBRANCH   7   9
ENDBRANCH   1   7
BRANCH   5  14
HETATM   14  C6  UNL     1      -1.603  -0.586  -0.384  1.00  0.00     0.149 C 
HETATM   15  C7  UNL     1      -2.500   0.205   0.530  1.00  0.00     0.045 C 
HETATM   16  C8  UNL     1      -3.902   0.351   0.006  1.00  0.00    -0.044 C 
HETATM   17  C9  UNL     1      -4.505  -0.947  -0.438  1.00  0.00     0.015 C 
HETATM   18  C10 UNL     1      -4.754   0.828   1.192  1.00  0.00     0.015 C 
HETATM   19  C11 UNL     1      -4.027   1.418  -1.046  1.00  0.00     0.019 C 
HETATM   20  C12 UNL     1      -2.873   1.487  -1.985  1.00  0.00     0.077 C 
HETATM   21  S2  UNL     1      -2.055  -0.144  -2.094  1.00  0.00    -0.144 SA
ENDBRANCH   5  14
TORSDOF 4
