REMARK  7 active torsions:
REMARK  status: ('A' for Active; 'I' for Inactive)
REMARK    1  A    between atoms: C2_2  and  C5_5 
REMARK    2  A    between atoms: C5_5  and  C6_6 
REMARK    3  A    between atoms: C6_6  and  N1_7 
REMARK    4  A    between atoms: C9_10  and  N2_11 
REMARK    5  A    between atoms: N2_11  and  C10_13 
REMARK    6  A    between atoms: C10_13  and  N3_15 
REMARK    7  A    between atoms: N3_15  and  N4_17 
ROOT
HETATM    1  N1  UNL     1       0.193  -0.478   0.030  1.00  0.00     0.117 N 
HETATM    2  C7  UNL     1       0.357  -0.842  -1.332  1.00  0.00     0.283 C 
HETATM    3  C8  UNL     1       1.716  -1.314  -1.704  1.00  0.00     0.106 C 
HETATM    4  C9  UNL     1       2.687  -1.129  -0.623  1.00  0.00     0.082 C 
HETATM    5  N5  UNL     1       2.330  -1.142   0.600  1.00  0.00    -0.345 N 
ATOM      6  H5  UNL     1       3.018  -1.012   1.342  1.00  0.00     0.163 HD
HETATM    7  C11 UNL     1       0.931  -1.344   0.919  1.00  0.00     0.226 C 
HETATM    8  C12 UNL     1       0.600  -2.789   0.803  1.00  0.00     0.073 C 
HETATM    9  C13 UNL     1       0.743  -0.924   2.348  1.00  0.00     0.073 C 
ENDROOT
BRANCH   4  10
HETATM   10  N2  UNL     1       4.061  -0.932  -0.911  1.00  0.00    -0.322 N 
ATOM     11  H2  UNL     1       4.589  -1.701  -1.324  1.00  0.00     0.169 HD
BRANCH  10  12
HETATM   12  C10 UNL     1       4.730   0.286  -0.650  1.00  0.00     0.191 C 
HETATM   13  S1  UNL     1       6.329   0.452  -1.001  1.00  0.00    -0.039 SA
BRANCH  12  14
HETATM   14  N3  UNL     1       4.059   1.393  -0.080  1.00  0.00    -0.283 N 
ATOM     15  H3  UNL     1       3.068   1.311   0.148  1.00  0.00     0.188 HD
BRANCH  14  16
HETATM   16  N4  UNL     1       4.727   2.606   0.180  1.00  0.00    -0.343 N 
ATOM     17  H42 UNL     1       5.718   2.671  -0.054  1.00  0.00     0.176 HD
ATOM     18  H41 UNL     1       4.243   3.404   0.591  1.00  0.00     0.176 HD
ENDBRANCH  14  16
ENDBRANCH  12  14
ENDBRANCH  10  12
ENDBRANCH   4  10
BRANCH   1  19
HETATM   19  C6  UNL     1      -1.196  -0.349   0.412  1.00  0.00     0.276 C 
BRANCH  19  20
HETATM   20  C5  UNL     1      -1.780   0.825  -0.285  1.00  0.00     0.039 C 
BRANCH  20  21
HETATM   21  C2  UNL     1      -3.226   1.080   0.026  1.00  0.00    -0.050 C 
HETATM   22  C1  UNL     1      -3.644   2.317  -0.776  1.00  0.00     0.014 C 
HETATM   23  C3  UNL     1      -4.146  -0.033  -0.312  1.00  0.00     0.014 C 
HETATM   24  C4  UNL     1      -3.436   1.448   1.487  1.00  0.00     0.014 C 
ENDBRANCH  20  21
ENDBRANCH  19  20
ENDBRANCH   1  19
TORSDOF 7
