REMARK  4 active torsions:
REMARK  status: ('A' for Active; 'I' for Inactive)
REMARK    1  A    between atoms: C4_4  and  O1_5 
REMARK    2  A    between atoms: C5_7  and  C7_9 
REMARK    3  A    between atoms: C7_9  and  O2_10 
REMARK    4  A    between atoms: C11_15  and  O3_16 
ROOT
HETATM    1  C1  UNL     1      -0.433   3.078   1.551  1.00  0.00     0.015 C 
HETATM    2  C2  UNL     1      -0.690   2.051   0.779  1.00  0.00    -0.082 C 
HETATM    3  C3  UNL     1      -1.593   2.212  -0.392  1.00  0.00     0.066 C 
HETATM    4  C4  UNL     1      -2.643   1.163  -0.089  1.00  0.00     0.133 C 
HETATM    5  C5  UNL     1      -2.004  -0.196  -0.395  1.00  0.00     0.011 C 
HETATM    6  C6  UNL     1      -1.981  -0.298  -1.911  1.00  0.00     0.021 C 
HETATM    7  C8  UNL     1      -0.706  -0.412   0.282  1.00  0.00    -0.022 C 
HETATM    8  C9  UNL     1      -0.889  -1.587   1.264  1.00  0.00     0.017 C 
HETATM    9  C10 UNL     1       0.233  -0.998  -0.784  1.00  0.00     0.043 C 
HETATM   10  C11 UNL     1       1.444  -1.658  -0.247  1.00  0.00     0.127 C 
HETATM   11  C12 UNL     1       2.595  -0.739   0.019  1.00  0.00    -0.018 C 
HETATM   12  C13 UNL     1       3.896  -1.512   0.042  1.00  0.00     0.018 C 
HETATM   13  C14 UNL     1       2.713   0.430  -0.889  1.00  0.00     0.012 C 
HETATM   14  C15 UNL     1       1.905   1.558  -0.230  1.00  0.00     0.006 C 
HETATM   15  C16 UNL     1       1.327   0.951   1.031  1.00  0.00    -0.005 C 
HETATM   16  C17 UNL     1       2.315  -0.083   1.355  1.00  0.00     0.017 C 
HETATM   17  C18 UNL     1      -0.105   0.699   1.047  1.00  0.00     0.027 C 
ENDROOT
BRANCH   5  18
HETATM   18  C7  UNL     1      -3.141  -1.144  -0.014  1.00  0.00     0.176 C 
BRANCH  18  19
HETATM   19  O2  UNL     1      -2.877  -2.466  -0.195  1.00  0.00    -0.400 OA
ATOM     20  H2  UNL     1      -3.584  -3.055   0.042  1.00  0.00     0.209 HD
ENDBRANCH  18  19
ENDBRANCH   5  18
BRANCH   4  21
HETATM   21  O1  UNL     1      -3.770   1.345  -0.833  1.00  0.00    -0.394 OA
ATOM     22  H1  UNL     1      -4.428   0.687  -0.643  1.00  0.00     0.210 HD
ENDBRANCH   4  21
BRANCH  10  23
HETATM   23  O3  UNL     1       1.888  -2.574  -1.231  1.00  0.00    -0.395 OA
ATOM     24  H3  UNL     1       2.665  -2.998  -0.886  1.00  0.00     0.210 HD
ENDBRANCH  10  23
TORSDOF 4
