REMARK  4 active torsions:
REMARK  status: ('A' for Active; 'I' for Inactive)
REMARK    1  A    between atoms: C8_8  and  C9_9 
REMARK    2  A    between atoms: C9_9  and  O1_10 
REMARK    3  A    between atoms: C15_17  and  O2_18 
REMARK    4  A    between atoms: C15_17  and  C16_20 
ROOT
HETATM    1  C1  UNL     1      -4.242   0.429  -0.372  1.00  0.00     0.019 C 
HETATM    2  C2  UNL     1      -2.902  -0.161   0.086  1.00  0.00    -0.002 C 
HETATM    3  C3  UNL     1      -3.022  -0.291   1.604  1.00  0.00     0.019 C 
HETATM    4  C4  UNL     1      -2.863  -1.553  -0.457  1.00  0.00     0.013 C 
HETATM    5  C5  UNL     1      -1.698  -1.796  -1.388  1.00  0.00     0.005 C 
HETATM    6  C6  UNL     1      -0.463  -1.444  -0.542  1.00  0.00     0.037 C 
HETATM    7  C7  UNL     1      -0.476   0.027  -0.425  1.00  0.00    -0.035 C 
HETATM    8  C8  UNL     1       0.648   0.692  -0.405  1.00  0.00     0.017 C 
HETATM    9  C15 UNL     1      -1.788   0.719  -0.332  1.00  0.00     0.176 C 
ENDROOT
BRANCH   8  10
HETATM   10  C9  UNL     1       2.012   0.108  -0.491  1.00  0.00     0.076 C 
HETATM   11  C10 UNL     1       3.087   1.187  -0.354  1.00  0.00     0.042 C 
HETATM   12  C11 UNL     1       4.414   0.483  -0.641  1.00  0.00     0.003 C 
HETATM   13  C12 UNL     1       4.714  -0.344   0.607  1.00  0.00     0.000 C 
HETATM   14  C13 UNL     1       3.480  -0.549   1.433  1.00  0.00     0.003 C 
HETATM   15  C14 UNL     1       2.264  -0.898   0.610  1.00  0.00     0.042 C 
BRANCH  10  16
HETATM   16  O1  UNL     1       2.231  -0.443  -1.770  1.00  0.00    -0.386 OA
ATOM     17  H1  UNL     1       3.103  -0.816  -1.825  1.00  0.00     0.211 HD
ENDBRANCH  10  16
ENDBRANCH   8  10
BRANCH   9  18
HETATM   18  O2  UNL     1      -2.082   1.165  -1.641  1.00  0.00    -0.374 OA
ATOM     19  H2  UNL     1      -1.367   1.730  -1.909  1.00  0.00     0.211 HD
ENDBRANCH   9  18
BRANCH   9  20
HETATM   20  C16 UNL     1      -1.750   1.923   0.526  1.00  0.00     0.214 C 
HETATM   21  O3  UNL     1      -1.500   1.911   1.757  1.00  0.00    -0.645 OA
HETATM   22  O4  UNL     1      -1.999   3.199   0.002  1.00  0.00    -0.645 OA
ENDBRANCH   9  20
TORSDOF 4
