REMARK  5 active torsions:
REMARK  status: ('A' for Active; 'I' for Inactive)
REMARK    1  A    between atoms: C2_2  and  C7_9 
REMARK    2  A    between atoms: C3_3  and  C4_4 
REMARK    3  A    between atoms: C5_5  and  C6_6 
REMARK    4  A    between atoms: C10_12  and  O3_13 
REMARK    5  A    between atoms: C14_18  and  O4_19 
ROOT
HETATM    1  C7  UNL     1       0.247  -0.240  -0.755  1.00  0.00     0.025 C 
HETATM    2  C8  UNL     1      -0.460  -1.385  -1.513  1.00  0.00     0.013 C 
HETATM    3  C9  UNL     1      -1.914  -0.926  -1.320  1.00  0.00     0.040 C 
HETATM    4  C10 UNL     1      -1.892  -0.727   0.187  1.00  0.00     0.069 C 
HETATM    5  C11 UNL     1      -3.151  -0.235   0.748  1.00  0.00     0.019 C 
HETATM    6  C12 UNL     1      -4.305  -0.786  -0.101  1.00  0.00     0.013 C 
HETATM    7  C13 UNL     1      -3.333   1.228   0.854  1.00  0.00     0.039 C 
HETATM    8  C14 UNL     1      -2.072   1.980   1.212  1.00  0.00     0.119 C 
HETATM    9  C15 UNL     1      -0.993   1.545   0.286  1.00  0.00     0.044 C 
HETATM   10  C16 UNL     1      -0.655   0.070   0.404  1.00  0.00    -0.003 C 
HETATM   11  C17 UNL     1      -0.092  -0.258   1.754  1.00  0.00     0.019 C 
ENDROOT
BRANCH   1  12
HETATM   12  C2  UNL     1       1.621  -0.582  -0.454  1.00  0.00    -0.079 C 
HETATM   13  C1  UNL     1       1.956  -1.781   0.333  1.00  0.00     0.044 C 
HETATM   14  C3  UNL     1       2.613   0.173  -0.903  1.00  0.00     0.003 C 
BRANCH  14  15
HETATM   15  C4  UNL     1       4.017  -0.106  -0.669  1.00  0.00     0.007 C 
HETATM   16  C5  UNL     1       4.941   0.697  -1.153  1.00  0.00     0.084 C 
BRANCH  16  17
HETATM   17  C6  UNL     1       6.369   0.453  -0.941  1.00  0.00     0.198 C 
HETATM   18  O1  UNL     1       6.717  -0.558  -0.273  1.00  0.00    -0.645 OA
HETATM   19  O2  UNL     1       7.348   1.271  -1.433  1.00  0.00    -0.645 OA
ENDBRANCH  16  17
ENDBRANCH  14  15
ENDBRANCH   1  12
BRANCH   4  20
HETATM   20  O3  UNL     1      -1.664  -2.018   0.722  1.00  0.00    -0.389 OA
ATOM     21  H3  UNL     1      -1.650  -1.894   1.664  1.00  0.00     0.210 HD
ENDBRANCH   4  20
BRANCH   8  22
HETATM   22  O4  UNL     1      -2.354   3.335   0.907  1.00  0.00    -0.396 OA
ATOM     23  H4  UNL     1      -1.561   3.808   1.132  1.00  0.00     0.210 HD
ENDBRANCH   8  22
TORSDOF 5
