REMARK  3 active torsions:
REMARK  status: ('A' for Active; 'I' for Inactive)
REMARK    1  A    between atoms: C2_2  and  C7_14 
REMARK    2  A    between atoms: C3_3  and  C4_4 
REMARK    3  A    between atoms: C4_4  and  C5_5 
REMARK       I    between atoms: C5_5  and  N1_7 
REMARK       I    between atoms: N1_7  and  C6_9 
ROOT
HETATM    1  C1  UNL     1       0.801  -2.191   1.447  1.00  0.00     0.043 C 
HETATM    2  C2  UNL     1       0.651  -0.719   1.225  1.00  0.00    -0.083 C 
HETATM    3  C3  UNL     1       1.766  -0.017   1.101  1.00  0.00    -0.015 C 
ENDROOT
BRANCH   2   4
HETATM    4  C7  UNL     1      -0.719  -0.183   1.163  1.00  0.00     0.017 C 
HETATM    5  C8  UNL     1      -0.752   1.288   0.839  1.00  0.00     0.046 C 
HETATM    6  C9  UNL     1      -2.112   1.774   0.463  1.00  0.00     0.059 C 
HETATM    7  C10 UNL     1      -2.504   3.060   1.119  1.00  0.00     0.046 C 
HETATM    8  C11 UNL     1      -3.152   0.698   0.811  1.00  0.00     0.049 C 
HETATM    9  O2  UNL     1      -2.186   1.875  -0.920  1.00  0.00    -0.375 OA
HETATM   10  C12 UNL     1      -2.776  -0.304  -0.281  1.00  0.00    -0.015 C 
HETATM   11  C13 UNL     1      -3.837  -1.312  -0.531  1.00  0.00     0.018 C 
HETATM   12  C14 UNL     1      -1.418  -0.893  -0.000  1.00  0.00     0.021 C 
HETATM   13  C15 UNL     1      -2.601   0.676  -1.438  1.00  0.00     0.126 C 
HETATM   14  C16 UNL     1      -3.985   0.905  -2.050  1.00  0.00     0.040 C 
ENDBRANCH   2   4
BRANCH   3  15
HETATM   15  C4  UNL     1       3.112  -0.614   1.171  1.00  0.00     0.130 C 
BRANCH  15  16
HETATM   16  C5  UNL     1       3.894  -0.400  -0.088  1.00  0.00     0.227 C 
HETATM   17  O1  UNL     1       3.417   0.222  -1.062  1.00  0.00    -0.273 OA
HETATM   18  N1  UNL     1       5.192  -0.912  -0.166  1.00  0.00    -0.301 N 
HETATM   19  C6  UNL     1       5.975  -0.739  -1.332  1.00  0.00     0.188 C 
ATOM     20  H1  UNL     1       5.581  -1.418   0.630  1.00  0.00     0.171 HD
HETATM   21  N2  UNL     1       7.160  -1.205  -1.406  1.00  0.00    -0.373 N 
HETATM   22  N3  UNL     1       5.444  -0.038  -2.438  1.00  0.00    -0.064 NA
ATOM     23  H22 UNL     1       7.543  -1.711  -0.608  1.00  0.00     0.158 HD
ATOM     24  H21 UNL     1       7.724  -1.080  -2.246  1.00  0.00     0.158 HD
ENDBRANCH  15  16
ENDBRANCH   3  15
TORSDOF 3
