REMARK  6 active torsions:
REMARK  status: ('A' for Active; 'I' for Inactive)
REMARK    1  A    between atoms: O1_2  and  C2_3 
REMARK    2  A    between atoms: C2_3  and  C3_4 
REMARK    3  A    between atoms: C13_15  and  O3_16 
REMARK    4  A    between atoms: O3_16  and  C14_17 
REMARK    5  A    between atoms: C20_24  and  C21_25 
REMARK    6  A    between atoms: C21_25  and  O5_26 
ROOT
HETATM    1  C2  UNL     1      -4.085   0.587   0.541  1.00  0.00     0.157 C 
HETATM    2  C4  UNL     1      -2.808   1.406   0.389  1.00  0.00     0.050 C 
HETATM    3  C5  UNL     1      -2.106   1.257  -0.895  1.00  0.00     0.013 C 
HETATM    4  C6  UNL     1      -1.198   0.102  -1.108  1.00  0.00    -0.033 C 
HETATM    5  C7  UNL     1      -1.551  -0.420  -2.523  1.00  0.00     0.016 C 
HETATM    6  C8  UNL     1       0.214   0.650  -1.284  1.00  0.00    -0.001 C 
HETATM    7  C9  UNL     1       0.662   1.601  -0.247  1.00  0.00     0.007 C 
HETATM    8  C10 UNL     1       2.111   1.547   0.128  1.00  0.00     0.012 C 
HETATM    9  C11 UNL     1       3.043   1.184  -0.971  1.00  0.00    -0.013 C 
HETATM   10  C12 UNL     1       3.446   2.492  -1.631  1.00  0.00     0.018 C 
HETATM   11  C13 UNL     1       4.261   0.459  -0.371  1.00  0.00     0.140 C 
HETATM   12  C16 UNL     1       4.590  -0.689  -1.218  1.00  0.00     0.034 C 
HETATM   13  C17 UNL     1       3.625  -0.636  -2.416  1.00  0.00     0.008 C 
HETATM   14  C18 UNL     1       2.487   0.218  -1.990  1.00  0.00     0.001 C 
HETATM   15  C19 UNL     1       1.217  -0.437  -1.627  1.00  0.00     0.001 C 
HETATM   16  C20 UNL     1       1.203  -1.507  -0.614  1.00  0.00     0.014 C 
HETATM   17  C22 UNL     1       0.132  -1.384   0.422  1.00  0.00     0.015 C 
HETATM   18  C23 UNL     1      -1.239  -1.018  -0.171  1.00  0.00     0.035 C 
HETATM   19  C24 UNL     1      -2.159  -0.985   1.008  1.00  0.00     0.137 A 
HETATM   20  O6  UNL     1      -1.967  -2.356   1.641  1.00  0.00    -0.365 OA
HETATM   21  C25 UNL     1      -1.991  -1.158   2.337  1.00  0.00     0.167 A 
HETATM   22  C26 UNL     1      -3.361  -1.037   3.026  1.00  0.00     0.118 C 
HETATM   23  C27 UNL     1      -4.285  -1.465   1.914  1.00  0.00     0.288 C 
HETATM   24  F1  UNL     1      -4.288  -2.864   1.821  1.00  0.00    -0.202 F 
HETATM   25  F2  UNL     1      -5.585  -1.126   2.082  1.00  0.00    -0.202 F 
HETATM   26  C28 UNL     1      -3.614  -0.857   0.694  1.00  0.00     0.239 C 
HETATM   27  F3  UNL     1      -3.863  -1.576  -0.456  1.00  0.00    -0.229 F 
ENDROOT
BRANCH   1  28
HETATM   28  O1  UNL     1      -4.733   1.039   1.634  1.00  0.00    -0.374 OA
HETATM   29  C1  UNL     1      -5.192   2.286   1.765  1.00  0.00     0.203 C 
ENDBRANCH   1  28
BRANCH   1  30
HETATM   30  C3  UNL     1      -4.932   0.618  -0.649  1.00  0.00     0.273 C 
HETATM   31  O2  UNL     1      -6.086   0.978  -0.568  1.00  0.00    -0.303 OA
ENDBRANCH   1  30
BRANCH  16  32
HETATM   32  C21 UNL     1       1.036  -2.918  -1.204  1.00  0.00     0.169 C 
BRANCH  32  33
HETATM   33  O5  UNL     1       1.033  -3.867  -0.186  1.00  0.00    -0.400 OA
ATOM     34  H5  UNL     1       0.930  -4.738  -0.550  1.00  0.00     0.209 HD
ENDBRANCH  32  33
ENDBRANCH  16  32
BRANCH  11  35
HETATM   35  O3  UNL     1       4.149   0.292   0.998  1.00  0.00    -0.316 OA
BRANCH  35  36
HETATM   36  C14 UNL     1       4.893   0.885   1.977  1.00  0.00     0.255 C 
HETATM   37  C15 UNL     1       4.740   0.677   3.427  1.00  0.00     0.126 C 
HETATM   38  O4  UNL     1       5.759   1.659   1.503  1.00  0.00    -0.266 OA
ENDBRANCH  35  36
ENDBRANCH  11  35
TORSDOF 6
