REMARK  5 active torsions:
REMARK  status: ('A' for Active; 'I' for Inactive)
REMARK       I    between atoms: N1_2  and  C2_4 
REMARK    1  A    between atoms: C2_4  and  O2_6 
REMARK    2  A    between atoms: O2_6  and  C3_7 
REMARK    3  A    between atoms: C3_7  and  C4_8 
REMARK    4  A    between atoms: C9_16  and  C10_17 
REMARK    5  A    between atoms: C11_18  and  C12_19 
ROOT
HETATM    1  C4  UNL     1      -1.339  -0.438  -0.532  1.00  0.00     0.094 C 
HETATM    2  C5  UNL     1      -1.403  -0.252  -2.029  1.00  0.00     0.049 C 
HETATM    3  O3  UNL     1      -1.188  -1.895  -0.486  1.00  0.00    -0.304 OA
HETATM    4  C6  UNL     1      -0.326  -2.730   0.139  1.00  0.00     0.296 C 
HETATM    5  O4  UNL     1      -0.656  -3.724   0.820  1.00  0.00    -0.259 OA
HETATM    6  C7  UNL     1       1.136  -2.502   0.046  1.00  0.00     0.068 A 
HETATM    7  C8  UNL     1       1.806  -3.493   0.573  1.00  0.00     0.160 A 
HETATM    8  O5  UNL     1       3.191  -3.564   0.629  1.00  0.00    -0.322 OA
HETATM    9  C9  UNL     1       3.835  -2.450   0.055  1.00  0.00     0.075 A 
HETATM   10  C13 UNL     1       3.198  -1.444  -0.477  1.00  0.00     0.046 A 
HETATM   11  C14 UNL     1       1.754  -1.319  -0.550  1.00  0.00    -0.027 A 
HETATM   12  C15 UNL     1       1.153  -0.024  -0.248  1.00  0.00     0.101 C 
HETATM   13  C16 UNL     1      -0.266   0.199   0.189  1.00  0.00     0.047 C 
HETATM   14  C17 UNL     1      -0.267   1.608   0.671  1.00  0.00    -0.006 C 
HETATM   15  C18 UNL     1      -0.921   1.551   2.061  1.00  0.00     0.018 C 
HETATM   16  C19 UNL     1      -0.825   2.794   0.076  1.00  0.00     0.026 C 
HETATM   17  C20 UNL     1      -0.477   3.199  -1.325  1.00  0.00     0.024 C 
HETATM   18  C21 UNL     1      -2.299   3.121   0.177  1.00  0.00     0.024 C 
HETATM   19  C22 UNL     1      -0.297   3.946   0.942  1.00  0.00     0.157 C 
HETATM   20  O7  UNL     1      -0.645   5.091   0.572  1.00  0.00    -0.292 OA
HETATM   21  C23 UNL     1       0.526   3.807   2.086  1.00  0.00     0.048 C 
HETATM   22  C24 UNL     1       1.342   2.753   2.131  1.00  0.00    -0.007 C 
HETATM   23  C25 UNL     1       1.202   1.922   0.910  1.00  0.00     0.049 C 
HETATM   24  C26 UNL     1       2.032   2.658  -0.053  1.00  0.00     0.027 C 
HETATM   25  C27 UNL     1       1.833   0.551   0.990  1.00  0.00     0.263 C 
HETATM   26  F1  UNL     1       1.467  -0.179   2.093  1.00  0.00    -0.204 F 
HETATM   27  F2  UNL     1       3.178   0.725   0.893  1.00  0.00    -0.204 F 
ENDROOT
BRANCH   1  28
HETATM   28  C3  UNL     1      -2.717  -0.512   0.081  1.00  0.00     0.219 C 
BRANCH  28  29
HETATM   29  O2  UNL     1      -3.559  -1.332  -0.778  1.00  0.00    -0.301 OA
BRANCH  29  30
HETATM   30  C2  UNL     1      -4.874  -1.562  -0.445  1.00  0.00     0.360 C 
HETATM   31  N1  UNL     1      -5.759  -2.343  -1.219  1.00  0.00    -0.341 N 
HETATM   32  C1  UNL     1      -7.122  -2.546  -0.819  1.00  0.00     0.151 C 
ATOM     33  H1  UNL     1      -5.423  -2.772  -2.081  1.00  0.00     0.164 HD
HETATM   34  O1  UNL     1      -5.301  -1.039   0.615  1.00  0.00    -0.239 OA
ENDBRANCH  29  30
ENDBRANCH  28  29
ENDBRANCH   1  28
BRANCH   9  35
HETATM   35  C10 UNL     1       5.332  -2.449   0.070  1.00  0.00     0.040 C 
HETATM   36  C11 UNL     1       5.982  -3.448   0.597  1.00  0.00     0.044 C 
BRANCH  36  37
HETATM   37  C12 UNL     1       7.437  -3.429   0.602  1.00  0.00     0.258 C 
HETATM   38  O6  UNL     1       8.084  -2.464   0.106  1.00  0.00    -0.302 OA
ENDBRANCH  36  37
ENDBRANCH   9  35
TORSDOF 5
