REMARK  7 active torsions:
REMARK  status: ('A' for Active; 'I' for Inactive)
REMARK    1  A    between atoms: O1_2  and  C2_3 
REMARK       I    between atoms: N1_9  and  C8_10 
REMARK    2  A    between atoms: C8_10  and  O3_12 
REMARK    3  A    between atoms: O3_12  and  C9_13 
REMARK    4  A    between atoms: C22_28  and  C23_29 
REMARK    5  A    between atoms: C23_29  and  C24_30 
REMARK    6  A    between atoms: C24_30  and  C25_31 
REMARK    7  A    between atoms: C27_36  and  O6_37 
ROOT
HETATM    1  C2  UNL     1      -4.853   1.453   0.431  1.00  0.00     0.149 C 
HETATM    2  C3  UNL     1      -4.564   0.723   1.694  1.00  0.00     0.034 C 
HETATM    3  C4  UNL     1      -3.263   1.108   2.348  1.00  0.00     0.003 C 
HETATM    4  C5  UNL     1      -2.459  -0.132   2.749  1.00  0.00     0.002 C 
HETATM    5  C6  UNL     1      -1.333  -0.388   1.779  1.00  0.00     0.020 C 
HETATM    6  C7  UNL     1      -1.710  -1.358   0.688  1.00  0.00     0.128 C 
HETATM    7  N1  UNL     1      -1.561  -0.804  -0.643  1.00  0.00    -0.323 N 
HETATM    8  C8  UNL     1      -0.296  -0.265  -1.011  1.00  0.00     0.363 C 
HETATM    9  O2  UNL     1      -0.061   0.238  -2.138  1.00  0.00    -0.238 OA
HETATM   10  C22 UNL     1      -2.608  -0.760  -1.641  1.00  0.00     0.092 C 
HETATM   11  C26 UNL     1      -3.944  -0.350  -1.078  1.00  0.00     0.059 C 
HETATM   12  C27 UNL     1      -4.037   1.099  -0.759  1.00  0.00     0.149 C 
ENDROOT
BRANCH   8  13
HETATM   13  O3  UNL     1       0.798  -0.243  -0.159  1.00  0.00    -0.298 OA
BRANCH  13  14
HETATM   14  C9  UNL     1       2.047   0.270  -0.471  1.00  0.00     0.134 C 
HETATM   15  C10 UNL     1       2.509   1.384   0.426  1.00  0.00     0.033 C 
HETATM   16  C11 UNL     1       3.842   1.904  -0.087  1.00  0.00     0.008 C 
HETATM   17  C12 UNL     1       4.756   0.785  -0.517  1.00  0.00    -0.006 C 
HETATM   18  C13 UNL     1       6.199   1.141  -0.341  1.00  0.00     0.042 C 
HETATM   19  C20 UNL     1       4.329  -0.447   0.206  1.00  0.00    -0.001 C 
HETATM   20  C14 UNL     1       6.559   1.264   1.110  1.00  0.00    -0.039 A 
HETATM   21  C15 UNL     1       6.837   1.793   2.344  1.00  0.00     0.025 A 
HETATM   22  C16 UNL     1       6.881   0.436   2.165  1.00  0.00     0.137 A 
HETATM   23  O4  UNL     1       7.909  -0.450   2.288  1.00  0.00    -0.352 OA
HETATM   24  C17 UNL     1       6.458  -0.759   2.565  1.00  0.00     0.235 A 
HETATM   25  C18 UNL     1       5.999  -1.704   1.490  1.00  0.00     0.159 C 
HETATM   26  O5  UNL     1       6.247  -2.849   1.830  1.00  0.00    -0.295 OA
HETATM   27  C19 UNL     1       5.338  -1.559   0.163  1.00  0.00     0.086 C 
HETATM   28  C21 UNL     1       3.023  -0.886  -0.471  1.00  0.00     0.038 C 
ENDBRANCH  13  14
ENDBRANCH   8  13
BRANCH  10  29
HETATM   29  C23 UNL     1      -2.614  -2.093  -2.318  1.00  0.00     0.034 C 
BRANCH  29  30
HETATM   30  C24 UNL     1      -3.624  -2.273  -3.396  1.00  0.00     0.119 C 
BRANCH  30  31
HETATM   31  C25 UNL     1      -3.447  -3.694  -3.955  1.00  0.00     0.388 C 
HETATM   32  F1  UNL     1      -4.359  -3.929  -4.965  1.00  0.00    -0.171 F 
HETATM   33  F2  UNL     1      -2.180  -3.840  -4.507  1.00  0.00    -0.171 F 
HETATM   34  F3  UNL     1      -3.558  -4.629  -2.957  1.00  0.00    -0.171 F 
ENDBRANCH  30  31
ENDBRANCH  29  30
ENDBRANCH  10  29
BRANCH  12  35
HETATM   35  O6  UNL     1      -2.786   1.746  -0.789  1.00  0.00    -0.393 OA
ATOM     36  H6  UNL     1      -2.264   1.520  -1.550  1.00  0.00     0.210 HD
ENDBRANCH  12  35
BRANCH   1  37
HETATM   37  O1  UNL     1      -4.701   2.817   0.673  1.00  0.00    -0.388 OA
HETATM   38  C1  UNL     1      -5.903   3.511   0.543  1.00  0.00     0.202 C 
ENDBRANCH   1  37
TORSDOF 7
