REMARK  8 active torsions:
REMARK  status: ('A' for Active; 'I' for Inactive)
REMARK    1  A    between atoms: N1_1  and  C1_4 
REMARK    2  A    between atoms: C2_9  and  C3_10 
REMARK       I    between atoms: C3_10  and  N4_12 
REMARK    3  A    between atoms: N4_12  and  N5_14 
REMARK    4  A    between atoms: C4_16  and  C5_17 
REMARK    5  A    between atoms: C5_17  and  C6_19 
REMARK       I    between atoms: C6_19  and  N6_21 
REMARK    6  A    between atoms: N6_21  and  C7_23 
REMARK    7  A    between atoms: C11_27  and  N7_28 
REMARK    8  A    between atoms: C12_31  and  N8_32 
ROOT
HETATM    1  N5  UNL     1      -1.548   0.274   0.426  1.00  0.00    -0.305 N 
ATOM      2  H5  UNL     1      -0.873   0.255  -0.339  1.00  0.00     0.186 HD
HETATM    3  C4  UNL     1      -1.144   0.777   1.525  1.00  0.00     0.167 C 
ENDROOT
BRANCH   1   4
HETATM    4  N4  UNL     1      -2.799  -0.249   0.154  1.00  0.00    -0.265 N 
HETATM    5  C3  UNL     1      -3.112  -1.558   0.570  1.00  0.00     0.291 C 
HETATM    6  O1  UNL     1      -2.276  -2.258   1.186  1.00  0.00    -0.264 OA
ATOM      7  H4  UNL     1      -3.491   0.310  -0.345  1.00  0.00     0.190 HD
BRANCH   5   8
HETATM    8  C2  UNL     1      -4.438  -2.103   0.276  1.00  0.00     0.160 A 
HETATM    9  N3  UNL     1      -5.356  -1.361  -0.395  1.00  0.00    -0.278 N 
HETATM   10  N2  UNL     1      -6.556  -1.834  -0.673  1.00  0.00    -0.132 N 
ATOM     11  H3  UNL     1      -5.112  -0.416  -0.691  1.00  0.00     0.188 HD
HETATM   12  C1  UNL     1      -6.917  -3.084  -0.297  1.00  0.00     0.691 A 
ATOM     13  H2  UNL     1      -7.222  -1.250  -1.179  1.00  0.00     0.205 HD
HETATM   14  N10 UNL     1      -6.056  -3.872   0.371  1.00  0.00    -0.175 N 
HETATM   15  C13 UNL     1      -4.827  -3.374   0.649  1.00  0.00     0.165 A 
ATOM     16  H10 UNL     1      -6.320  -4.814   0.659  1.00  0.00     0.185 HD
HETATM   17  N9  UNL     1      -3.888  -4.169   1.353  1.00  0.00    -0.079 NA
BRANCH  12  18
HETATM   18  N1  UNL     1      -8.112  -3.529  -0.586  1.00  0.00    -0.233 N 
ATOM     19  H12 UNL     1      -8.765  -2.931  -1.093  1.00  0.00     0.174 HD
ATOM     20  H11 UNL     1      -8.384  -4.470  -0.303  1.00  0.00     0.174 HD
ENDBRANCH  12  18
ENDBRANCH   5   8
ENDBRANCH   1   4
BRANCH   3  21
HETATM   21  C5  UNL     1       0.198   1.281   1.647  1.00  0.00     0.256 C 
HETATM   22  O2  UNL     1       0.578   1.778   2.745  1.00  0.00    -0.281 OA
BRANCH  21  23
HETATM   23  C6  UNL     1       1.100   1.213   0.509  1.00  0.00     0.297 C 
HETATM   24  O3  UNL     1       0.675   0.718  -0.543  1.00  0.00    -0.264 OA
HETATM   25  N6  UNL     1       2.405   1.702   0.633  1.00  0.00    -0.318 N 
ATOM     26  H6  UNL     1       2.642   2.088   1.547  1.00  0.00     0.169 HD
BRANCH  25  27
HETATM   27  C7  UNL     1       3.431   1.738  -0.316  1.00  0.00     0.070 A 
HETATM   28  C8  UNL     1       3.329   1.266  -1.588  1.00  0.00     0.032 A 
HETATM   29  C9  UNL     1       4.422   1.346  -2.466  1.00  0.00     0.005 A 
HETATM   30  C10 UNL     1       5.620   1.889  -2.100  1.00  0.00     0.039 A 
HETATM   31  C11 UNL     1       5.710   2.370  -0.787  1.00  0.00     0.138 A 
HETATM   32  C12 UNL     1       4.653   2.300   0.081  1.00  0.00     0.162 A 
BRANCH  31  33
HETATM   33  N7  UNL     1       6.963   2.943  -0.389  1.00  0.00    -0.113 N 
HETATM   34  O4  UNL     1       7.714   3.482  -1.253  1.00  0.00    -0.532 OA
HETATM   35  O5  UNL     1       7.301   2.883   0.936  1.00  0.00    -0.532 OA
ENDBRANCH  31  33
BRANCH  32  36
HETATM   36  N8  UNL     1       4.820   2.827   1.388  1.00  0.00    -0.111 N 
HETATM   37  O6  UNL     1       4.952   2.120   2.402  1.00  0.00    -0.532 OA
HETATM   38  O7  UNL     1       4.830   4.194   1.534  1.00  0.00    -0.532 OA
ENDBRANCH  32  36
ENDBRANCH  25  27
ENDBRANCH  21  23
ENDBRANCH   3  21
TORSDOF 8
