REMARK  7 active torsions:
REMARK  status: ('A' for Active; 'I' for Inactive)
REMARK    1  A    between atoms: N1_3  and  C3_5 
REMARK    2  A    between atoms: N3_9  and  N4_11 
REMARK       I    between atoms: N4_11  and  C5_13 
REMARK    3  A    between atoms: C5_13  and  C6_15 
REMARK    4  A    between atoms: C7_24  and  N10_25 
REMARK    5  A    between atoms: N10_25  and  C8_27 
REMARK    6  A    between atoms: C9_30  and  N12_31 
REMARK    7  A    between atoms: N12_31  and  C10_33 
ROOT
HETATM    1  C3  UNL     1      -2.729  -0.631   1.702  1.00  0.00     0.711 A 
HETATM    2  N2  UNL     1      -3.582   0.098   0.977  1.00  0.00    -0.020 N 
ATOM      3  H2  UNL     1      -4.533  -0.254   0.867  1.00  0.00     0.203 HD
HETATM    4  C4  UNL     1      -3.274   1.259   0.384  1.00  0.00     0.726 A 
HETATM    5  N3  UNL     1      -4.049   1.957  -0.294  1.00  0.00    -0.128 N 
ATOM      6  H3  UNL     1      -3.569   2.791  -0.632  1.00  0.00     0.205 HD
HETATM    7  N9  UNL     1      -1.964   1.663   0.586  1.00  0.00    -0.019 N 
ATOM      8  H9  UNL     1      -1.652   2.539   0.167  1.00  0.00     0.203 HD
HETATM    9  C7  UNL     1      -1.094   0.953   1.306  1.00  0.00     0.726 A 
HETATM   10  N15 UNL     1      -1.463  -0.211   1.878  1.00  0.00    -0.021 N 
ATOM     11  H15 UNL     1      -0.801  -0.758   2.429  1.00  0.00     0.203 HD
ENDROOT
BRANCH   9  12
HETATM   12  N10 UNL     1       0.262   1.393   1.502  1.00  0.00    -0.021 N 
ATOM     13  H10 UNL     1       0.471   2.063   2.242  1.00  0.00     0.203 HD
BRANCH  12  14
HETATM   14  C8  UNL     1       1.232   0.946   0.744  1.00  0.00     0.698 A 
HETATM   15  N11 UNL     1       2.487   1.341   0.911  1.00  0.00    -0.176 N 
HETATM   16  C9  UNL     1       3.526   0.896   0.136  1.00  0.00     0.119 A 
ATOM     17  H11 UNL     1       2.689   2.010   1.654  1.00  0.00     0.186 HD
HETATM   18  C14 UNL     1       3.176  -0.002  -0.841  1.00  0.00     0.073 A 
HETATM   19  C15 UNL     1       1.871  -0.410  -1.011  1.00  0.00     0.026 A 
HETATM   20  C16 UNL     1       1.494  -1.392  -2.080  1.00  0.00     0.069 C 
HETATM   21  N14 UNL     1       0.904   0.068  -0.216  1.00  0.00    -0.195 N 
ATOM     22  H14 UNL     1      -0.064  -0.230  -0.338  1.00  0.00     0.184 HD
BRANCH  16  23
HETATM   23  N12 UNL     1       4.833   1.375   0.385  1.00  0.00    -0.369 N 
ATOM     24  H12 UNL     1       4.895   2.050   1.147  1.00  0.00     0.161 HD
BRANCH  23  25
HETATM   25  C10 UNL     1       6.060   1.086  -0.231  1.00  0.00     0.110 C 
HETATM   26  C11 UNL     1       6.558  -0.324  -0.173  1.00  0.00     0.054 C 
HETATM   27  C12 UNL     1       7.480  -0.411  -1.369  1.00  0.00     0.234 C 
HETATM   28  N13 UNL     1       7.577   0.945  -1.916  1.00  0.00    -0.073 N 
HETATM   29  C13 UNL     1       6.198   1.432  -1.692  1.00  0.00     0.257 C 
ATOM     30 2H13 UNL     1       8.318   1.526  -1.523  1.00  0.00     0.277 HD
ATOM     31 1H13 UNL     1       7.916   1.009  -2.876  1.00  0.00     0.277 HD
ENDBRANCH  23  25
ENDBRANCH  16  23
ENDBRANCH  12  14
ENDBRANCH   9  12
BRANCH   1  32
HETATM   32  N1  UNL     1      -3.085  -1.861   2.319  1.00  0.00    -0.205 N 
HETATM   33  C2  UNL     1      -3.419  -2.901   1.648  1.00  0.00     0.074 C 
HETATM   34  C1  UNL     1      -3.777  -4.149   2.375  1.00  0.00     0.055 C 
ATOM     35  H1  UNL     1      -3.074  -1.919   3.337  1.00  0.00     0.183 HD
ENDBRANCH   1  32
BRANCH   5  36
HETATM   36  N4  UNL     1      -5.305   1.949  -0.711  1.00  0.00    -0.249 N 
HETATM   37  C5  UNL     1      -6.372   1.082  -0.424  1.00  0.00     0.306 C 
HETATM   38  O1  UNL     1      -6.349   0.083   0.332  1.00  0.00    -0.262 OA
ATOM     39  H4  UNL     1      -5.539   2.705  -1.354  1.00  0.00     0.191 HD
BRANCH  37  40
HETATM   40  C6  UNL     1      -7.674   1.344  -1.064  1.00  0.00     0.202 A 
HETATM   41  N5  UNL     1      -7.995   2.335  -1.917  1.00  0.00    -0.266 N 
HETATM   42  N6  UNL     1      -9.271   2.176  -2.229  1.00  0.00    -0.007 NA
ATOM     43  H5  UNL     1      -7.373   3.068  -2.258  1.00  0.00     0.185 HD
HETATM   44  N7  UNL     1      -9.776   1.123  -1.609  1.00  0.00    -0.007 NA
HETATM   45  N8  UNL     1      -8.771   0.613  -0.886  1.00  0.00    -0.266 N 
ATOM     46  H8  UNL     1      -8.837  -0.211  -0.289  1.00  0.00     0.185 HD
ENDBRANCH  37  40
ENDBRANCH   5  36
TORSDOF 7
