REMARK  9 active torsions:
REMARK  status: ('A' for Active; 'I' for Inactive)
REMARK    1  A    between atoms: C3_3  and  S1_4 
REMARK    2  A    between atoms: S1_4  and  C4_5 
REMARK    3  A    between atoms: C5_10  and  C6_11 
REMARK    4  A    between atoms: C7_12  and  C8_13 
REMARK    5  A    between atoms: C8_13  and  N3_14 
REMARK    6  A    between atoms: N3_14  and  N4_15 
REMARK    7  A    between atoms: N4_15  and  C9_17 
REMARK    8  A    between atoms: C10_20  and  N6_21 
REMARK    9  A    between atoms: C14_29  and  N9_30 
ROOT
HETATM    1  C1  UNL     1       9.724   3.939  -0.627  1.00  0.00     0.013 C 
HETATM    2  C2  UNL     1       9.232   2.844  -0.524  1.00  0.00    -0.107 C 
HETATM    3  C3  UNL     1       8.603   1.510  -0.408  1.00  0.00     0.175 C 
ENDROOT
BRANCH   3   4
HETATM    4  S1  UNL     1       6.824   1.757  -0.308  1.00  0.00    -0.073 SA
BRANCH   4   5
HETATM    5  C4  UNL     1       5.977   0.176  -0.189  1.00  0.00     0.204 A 
HETATM    6  N1  UNL     1       6.582  -1.027  -0.181  1.00  0.00    -0.272 N 
HETATM    7  N2  UNL     1       5.627  -1.934  -0.079  1.00  0.00    -0.276 N 
ATOM      8  H1  UNL     1       7.585  -1.204  -0.242  1.00  0.00     0.189 HD
HETATM    9  C5  UNL     1       4.417  -1.328  -0.023  1.00  0.00     0.181 A 
ATOM     10  H2  UNL     1       5.779  -2.942  -0.047  1.00  0.00     0.189 HD
HETATM   11  O2  UNL     1       4.701  -0.052  -0.095  1.00  0.00    -0.267 OA
BRANCH   9  12
HETATM   12  C6  UNL     1       3.146  -2.021   0.092  1.00  0.00     0.092 A 
HETATM   13  C7  UNL     1       1.887  -1.470   0.141  1.00  0.00     0.097 A 
HETATM   14  N11 UNL     1       0.996  -2.491   0.263  1.00  0.00    -0.296 N 
HETATM   15  N12 UNL     1       1.631  -3.652   0.291  1.00  0.00    -0.284 N 
ATOM     16  H11 UNL     1      -0.016  -2.378   0.324  1.00  0.00     0.187 HD
HETATM   17  C15 UNL     1       2.956  -3.384   0.187  1.00  0.00     0.130 A 
ATOM     18  H12 UNL     1       1.204  -4.575   0.375  1.00  0.00     0.188 HD
HETATM   19  N13 UNL     1       3.916  -4.244   0.173  1.00  0.00    -0.384 N 
ATOM     20 2H13 UNL     1       4.913  -4.042   0.095  1.00  0.00     0.157 HD
ATOM     21 1H13 UNL     1       3.776  -5.252   0.243  1.00  0.00     0.157 HD
BRANCH  13  22
HETATM   22  C8  UNL     1       1.563  -0.042   0.065  1.00  0.00     0.241 C 
BRANCH  22  23
HETATM   23  N3  UNL     1       0.458   0.458   0.118  1.00  0.00    -0.322 NA
BRANCH  23  24
HETATM   24  N4  UNL     1      -0.800   0.574   0.211  1.00  0.00    -0.064 N 
ATOM     25  H4  UNL     1      -0.984   1.263   0.940  1.00  0.00     0.221 HD
BRANCH  24  26
HETATM   26  C9  UNL     1      -1.909   0.193  -0.222  1.00  0.00     0.736 A 
HETATM   27  N5  UNL     1      -3.041   0.701   0.292  1.00  0.00    -0.019 N 
HETATM   28  C10 UNL     1      -4.272   0.326  -0.132  1.00  0.00     0.710 A 
ATOM     29  H5  UNL     1      -2.971   1.399   1.033  1.00  0.00     0.203 HD
HETATM   30  N8  UNL     1      -4.343  -0.583  -1.095  1.00  0.00    -0.021 N 
HETATM   31  C14 UNL     1      -3.238  -1.126  -1.647  1.00  0.00     0.705 A 
ATOM     32  H8  UNL     1      -5.260  -0.880  -1.428  1.00  0.00     0.203 HD
HETATM   33  N10 UNL     1      -2.020  -0.720  -1.192  1.00  0.00    -0.019 N 
ATOM     34  H10 UNL     1      -1.175  -1.121  -1.600  1.00  0.00     0.203 HD
BRANCH  28  35
HETATM   35  N6  UNL     1      -5.383   0.952   0.484  1.00  0.00    -0.199 N 
HETATM   36  C11 UNL     1      -6.257   1.759  -0.340  1.00  0.00     0.171 C 
HETATM   37  C12 UNL     1      -7.078   2.684   0.542  1.00  0.00     0.216 C 
HETATM   38  O1  UNL     1      -6.302   2.931   1.676  1.00  0.00    -0.283 OA
HETATM   39  N7  UNL     1      -6.406   1.825   2.468  1.00  0.00    -0.081 NA
HETATM   40  C13 UNL     1      -5.583   0.771   1.902  1.00  0.00     0.284 C 
ENDBRANCH  28  35
BRANCH  31  41
HETATM   41  N9  UNL     1      -3.369  -1.991  -2.570  1.00  0.00    -0.234 N 
ATOM     42  H92 UNL     1      -4.281  -2.295  -2.911  1.00  0.00     0.174 HD
ATOM     43  H91 UNL     1      -2.534  -2.401  -2.987  1.00  0.00     0.174 HD
ENDBRANCH  31  41
ENDBRANCH  24  26
ENDBRANCH  23  24
ENDBRANCH  22  23
ENDBRANCH  13  22
ENDBRANCH   9  12
ENDBRANCH   4   5
ENDBRANCH   3   4
TORSDOF 9
