REMARK  9 active torsions:
REMARK  status: ('A' for Active; 'I' for Inactive)
REMARK    1  A    between atoms: C3_6  and  N3_7 
REMARK    2  A    between atoms: C6_14  and  N5_15 
REMARK    3  A    between atoms: N5_15  and  C7_17 
REMARK    4  A    between atoms: C13_26  and  N7_27 
REMARK    5  A    between atoms: N7_27  and  C14_29 
REMARK    6  A    between atoms: C14_29  and  C15_30 
REMARK    7  A    between atoms: C15_30  and  O2_31 
REMARK    8  A    between atoms: C15_30  and  C16_33 
REMARK    9  A    between atoms: C16_33  and  O3_34 
ROOT
HETATM    1  N1  UNL     1      -2.858   5.840  -1.741  1.00  0.00    -0.188 NA
HETATM    2  C1  UNL     1      -2.005   5.173  -1.348  1.00  0.00     0.137 C 
HETATM    3  C2  UNL     1      -0.909   4.349  -0.847  1.00  0.00     0.190 A 
HETATM    4  N2  UNL     1       0.107   4.929  -0.184  1.00  0.00    -0.318 N 
ATOM      5  H2  UNL     1       0.102   5.938  -0.037  1.00  0.00     0.169 HD
HETATM    6  C3  UNL     1       1.127   4.195   0.286  1.00  0.00     0.132 A 
HETATM    7  C4  UNL     1       1.151   2.828   0.098  1.00  0.00     0.124 A 
HETATM    8  C5  UNL     1       0.109   2.247  -0.578  1.00  0.00     0.097 A 
HETATM    9  N4  UNL     1      -0.896   3.024  -1.035  1.00  0.00    -0.330 N 
ATOM     10  H4  UNL     1      -1.669   2.588  -1.539  1.00  0.00     0.168 HD
HETATM   11  C6  UNL     1       0.399   0.870  -0.638  1.00  0.00     0.103 A 
HETATM   12  C13 UNL     1       1.589   0.688  -0.009  1.00  0.00     0.147 A 
HETATM   13  N8  UNL     1       2.053   1.903   0.449  1.00  0.00    -0.226 N 
HETATM   14  C17 UNL     1       3.234   2.172   1.153  1.00  0.00     0.191 C 
HETATM   15  N9  UNL     1       4.213   2.376   1.735  1.00  0.00    -0.171 NA
ENDROOT
BRANCH   6  16
HETATM   16  N3  UNL     1       2.114   4.759   0.930  1.00  0.00    -0.383 N 
ATOM     17  H32 UNL     1       2.096   5.769   1.069  1.00  0.00     0.157 HD
ATOM     18  H31 UNL     1       2.889   4.201   1.287  1.00  0.00     0.157 HD
ENDBRANCH   6  16
BRANCH  11  19
HETATM   19  N5  UNL     1      -0.486  -0.004  -1.275  1.00  0.00    -0.378 N 
ATOM     20  H5  UNL     1      -0.232  -0.179  -2.247  1.00  0.00     0.160 HD
BRANCH  19  21
HETATM   21  C7  UNL     1      -1.627  -0.687  -0.893  1.00  0.00     0.116 C 
HETATM   22  C8  UNL     1      -1.548  -1.927  -0.035  1.00  0.00     0.048 C 
HETATM   23  C9  UNL     1      -3.058  -2.282  -0.142  1.00  0.00     0.129 C 
HETATM   24  N6  UNL     1      -3.593  -1.048   0.393  1.00  0.00    -0.336 N 
HETATM   25  C10 UNL     1      -4.559  -0.450   1.226  1.00  0.00     0.230 C 
HETATM   26  C12 UNL     1      -2.728   0.030  -0.173  1.00  0.00     0.172 C 
HETATM   27  O1  UNL     1      -5.791  -0.702   1.187  1.00  0.00    -0.273 OA
HETATM   28  C11 UNL     1      -3.959   0.526   2.171  1.00  0.00     0.179 C 
HETATM   29  S1  UNL     1      -2.246   0.655   1.487  1.00  0.00    -0.132 SA
ENDBRANCH  19  21
ENDBRANCH  11  19
BRANCH  12  30
HETATM   30  N7  UNL     1       2.402  -0.460   0.145  1.00  0.00    -0.371 N 
ATOM     31  H7  UNL     1       3.240  -0.331   0.711  1.00  0.00     0.161 HD
BRANCH  30  32
HETATM   32  C14 UNL     1       2.214  -1.769  -0.379  1.00  0.00     0.155 C 
BRANCH  32  33
HETATM   33  C15 UNL     1       3.433  -2.658  -0.192  1.00  0.00     0.159 C 
BRANCH  33  34
HETATM   34  O2  UNL     1       3.743  -2.799   1.167  1.00  0.00    -0.392 OA
ATOM     35  H2  UNL     1       4.505  -3.355   1.284  1.00  0.00     0.210 HD
ENDBRANCH  33  34
BRANCH  33  36
HETATM   36  C16 UNL     1       3.101  -4.044  -0.714  1.00  0.00     0.197 C 
BRANCH  36  37
HETATM   37  O3  UNL     1       4.223  -4.856  -0.527  1.00  0.00    -0.398 OA
ATOM     38  H3  UNL     1       4.015  -5.724  -0.854  1.00  0.00     0.209 HD
ENDBRANCH  36  37
ENDBRANCH  33  36
ENDBRANCH  32  33
ENDBRANCH  30  32
ENDBRANCH  12  30
TORSDOF 9
