REMARK  6 active torsions:
REMARK  status: ('A' for Active; 'I' for Inactive)
REMARK    1  A    between atoms: C4_12  and  C5_13 
REMARK    2  A    between atoms: C5_13  and  O2_14 
REMARK    3  A    between atoms: C5_13  and  N5_16 
REMARK    4  A    between atoms: N5_16  and  N6_18 
REMARK    5  A    between atoms: N6_18  and  C6_20 
REMARK    6  A    between atoms: C7_21  and  O3_22 
ROOT
HETATM    1  N1  UNL     1      -4.336   3.314   0.393  1.00  0.00    -0.172 NA
HETATM    2  C1  UNL     1      -4.365   2.212   0.046  1.00  0.00     0.183 C 
HETATM    3  N2  UNL     1      -4.422   0.948  -0.376  1.00  0.00    -0.277 N 
ATOM      4  H2  UNL     1      -5.335   0.752  -0.786  1.00  0.00     0.179 HD
HETATM    5  C2  UNL     1      -3.698  -0.070  -0.422  1.00  0.00     0.145 A 
HETATM    6  N3  UNL     1      -4.169  -1.329  -1.002  1.00  0.00    -0.292 N 
ATOM      7  H3  UNL     1      -5.084  -1.522  -1.409  1.00  0.00     0.172 HD
HETATM    8  C3  UNL     1      -3.082  -2.215  -0.874  1.00  0.00     0.326 A 
HETATM    9  O1  UNL     1      -3.146  -3.417  -1.281  1.00  0.00    -0.247 OA
HETATM   10  N4  UNL     1      -2.045  -1.522  -0.261  1.00  0.00    -0.305 N 
ATOM     11  H4  UNL     1      -1.139  -1.943  -0.054  1.00  0.00     0.170 HD
HETATM   12  C4  UNL     1      -2.334  -0.295   0.022  1.00  0.00     0.108 A 
ENDROOT
BRANCH  12  13
HETATM   13  C5  UNL     1      -1.416   0.662   0.719  1.00  0.00     0.287 C 
BRANCH  13  14
HETATM   14  O2  UNL     1      -1.359   0.323   2.101  1.00  0.00    -0.370 OA
ATOM     15  H2  UNL     1      -0.777   0.930   2.543  1.00  0.00     0.212 HD
ENDBRANCH  13  14
BRANCH  13  16
HETATM   16  N5  UNL     1      -0.152   0.835   0.115  1.00  0.00    -0.301 N 
ATOM     17  H5  UNL     1       0.130   1.752  -0.232  1.00  0.00     0.183 HD
BRANCH  16  18
HETATM   18  N6  UNL     1       0.686  -0.225  -0.002  1.00  0.00    -0.294 N 
ATOM     19  H6  UNL     1       0.311  -1.173   0.031  1.00  0.00     0.187 HD
BRANCH  18  20
HETATM   20  C6  UNL     1       2.106  -0.020  -0.173  1.00  0.00     0.167 A 
HETATM   21  C7  UNL     1       2.905  -0.409   0.870  1.00  0.00     0.178 A 
HETATM   22  N7  UNL     1       4.240  -0.251   0.752  1.00  0.00    -0.287 N 
HETATM   23  C8  UNL     1       4.771   0.275  -0.360  1.00  0.00     0.329 A 
ATOM     24  H7  UNL     1       4.851  -0.535   1.518  1.00  0.00     0.172 HD
HETATM   25  O4  UNL     1       6.015   0.395  -0.410  1.00  0.00    -0.247 OA
HETATM   26  N8  UNL     1       3.975   0.660  -1.391  1.00  0.00    -0.273 N 
HETATM   27  C9  UNL     1       2.632   0.520  -1.318  1.00  0.00     0.281 A 
ATOM     28  H8  UNL     1       4.395   1.059  -2.230  1.00  0.00     0.173 HD
HETATM   29  O5  UNL     1       1.850   0.867  -2.256  1.00  0.00    -0.265 OA
BRANCH  21  30
HETATM   30  O3  UNL     1       2.349  -0.956   2.024  1.00  0.00    -0.344 OA
ATOM     31  H3  UNL     1       2.903  -1.226   2.747  1.00  0.00     0.219 HD
ENDBRANCH  21  30
ENDBRANCH  18  20
ENDBRANCH  16  18
ENDBRANCH  13  16
ENDBRANCH  12  13
TORSDOF 6
