REMARK  8 active torsions:
REMARK  status: ('A' for Active; 'I' for Inactive)
REMARK    1  A    between atoms: C3_3  and  N1_4 
REMARK    2  A    between atoms: N2_7  and  C5_8 
REMARK    3  A    between atoms: C5_8  and  C6_9 
REMARK    4  A    between atoms: C6_9  and  C7_10 
REMARK    5  A    between atoms: C7_10  and  O2_11 
REMARK    6  A    between atoms: N3_13  and  N4_15 
REMARK    7  A    between atoms: N4_15  and  N5_17 
REMARK    8  A    between atoms: C10_25  and  N7_26 
ROOT
HETATM    1  C1  UNL     1       2.443   3.668   1.341  1.00  0.00     0.014 C 
HETATM    2  C2  UNL     1       2.307   3.055   0.314  1.00  0.00    -0.097 C 
HETATM    3  C3  UNL     1       2.146   2.295  -0.924  1.00  0.00     0.228 C 
ENDROOT
BRANCH   3   4
HETATM    4  N1  UNL     1       1.380   1.093  -0.754  1.00  0.00    -0.271 N 
HETATM    5  C4  UNL     1       0.060   0.959  -0.872  1.00  0.00     0.332 A 
HETATM    6  O1  UNL     1      -0.790   1.838  -1.155  1.00  0.00    -0.246 OA
HETATM    7  N2  UNL     1      -0.305  -0.339  -0.636  1.00  0.00    -0.286 N 
HETATM    8  C8  UNL     1       0.832  -0.985  -0.373  1.00  0.00     0.153 A 
HETATM    9  C9  UNL     1       1.174  -2.290  -0.073  1.00  0.00     0.290 A 
HETATM   10  C11 UNL     1       1.917  -0.106  -0.439  1.00  0.00     0.161 A 
HETATM   11  O3  UNL     1       0.291  -3.179   0.010  1.00  0.00    -0.265 OA
HETATM   12  N6  UNL     1       2.454  -2.666   0.139  1.00  0.00    -0.154 N 
HETATM   13  C10 UNL     1       3.468  -1.754   0.061  1.00  0.00     0.680 A 
ATOM     14  H6  UNL     1       2.665  -3.639   0.359  1.00  0.00     0.187 HD
HETATM   15  N8  UNL     1       3.190  -0.474  -0.229  1.00  0.00    -0.174 N 
ATOM     16  H8  UNL     1       3.941   0.214  -0.289  1.00  0.00     0.186 HD
BRANCH   7  17
HETATM   17  C5  UNL     1      -1.636  -0.888  -0.695  1.00  0.00     0.190 C 
BRANCH  17  18
HETATM   18  C6  UNL     1      -2.427  -0.707   0.517  1.00  0.00     0.046 C 
HETATM   19  N3  UNL     1      -3.600  -0.149   0.516  1.00  0.00    -0.291 N 
ATOM     20  H3  UNL     1      -4.086  -0.062   1.409  1.00  0.00     0.188 HD
BRANCH  18  21
HETATM   21  C7  UNL     1      -1.935  -1.154   1.834  1.00  0.00     0.219 C 
BRANCH  21  22
HETATM   22  O2  UNL     1      -2.818  -0.880   2.874  1.00  0.00    -0.395 OA
ATOM     23  H2  UNL     1      -2.501  -1.168   3.722  1.00  0.00     0.209 HD
ENDBRANCH  21  22
ENDBRANCH  18  21
BRANCH  19  24
HETATM   24  N4  UNL     1      -4.232   0.333  -0.608  1.00  0.00    -0.249 N 
ATOM     25  H4  UNL     1      -4.637  -0.319  -1.280  1.00  0.00     0.207 HD
BRANCH  24  26
HETATM   26  N5  UNL     1      -4.323   1.710  -0.835  1.00  0.00    -0.331 N 
ATOM     27  H52 UNL     1      -3.913   2.348  -0.153  1.00  0.00     0.178 HD
ATOM     28  H51 UNL     1      -4.791   2.067  -1.668  1.00  0.00     0.178 HD
ENDBRANCH  24  26
ENDBRANCH  19  24
ENDBRANCH  17  18
ENDBRANCH   7  17
BRANCH  13  29
HETATM   29  N7  UNL     1       4.672  -2.109   0.261  1.00  0.00    -0.234 N 
ATOM     30  H72 UNL     1       4.883  -3.082   0.481  1.00  0.00     0.174 HD
ATOM     31  H71 UNL     1       5.429  -1.428   0.203  1.00  0.00     0.174 HD
ENDBRANCH  13  29
ENDBRANCH   3   4
TORSDOF 8
