REMARK  6 active torsions:
REMARK  status: ('A' for Active; 'I' for Inactive)
REMARK    1  A    between atoms: N1_1  and  C1_4 
REMARK    2  A    between atoms: C3_9  and  C4_10 
REMARK    3  A    between atoms: C4_10  and  N4_11 
REMARK    4  A    between atoms: C5_14  and  C6_15 
REMARK    5  A    between atoms: C6_15  and  C7_16 
REMARK    6  A    between atoms: N7_19  and  N8_20 
ROOT
HETATM    1  C1  UNL     1       4.188  -1.195   0.091  1.00  0.00     0.678 A 
HETATM    2  N2  UNL     1       4.385   0.109   0.370  1.00  0.00    -0.178 N 
ATOM      3  H2  UNL     1       5.328   0.449   0.559  1.00  0.00     0.185 HD
HETATM    4  C2  UNL     1       3.357   0.957   0.401  1.00  0.00     0.147 A 
HETATM    5  N3  UNL     1       3.598   2.314   0.696  1.00  0.00    -0.081 NA
HETATM    6  C3  UNL     1       2.055   0.471   0.135  1.00  0.00     0.067 A 
HETATM    7  C9  UNL     1       1.854  -0.854  -0.150  1.00  0.00     0.129 A 
HETATM    8  N9  UNL     1       0.706  -1.353  -0.396  1.00  0.00    -0.384 N 
ATOM      9  H91 UNL     1       0.556  -2.339  -0.608  1.00  0.00     0.157 HD
ATOM     10  H92 UNL     1      -0.114  -0.746  -0.386  1.00  0.00     0.157 HD
HETATM   11  N10 UNL     1       2.955  -1.669  -0.163  1.00  0.00    -0.176 N 
ATOM     12  H10 UNL     1       2.837  -2.661  -0.371  1.00  0.00     0.186 HD
ENDROOT
BRANCH   6  13
HETATM   13  C4  UNL     1       1.003   1.475   0.194  1.00  0.00     0.140 C 
BRANCH  13  14
HETATM   14  N4  UNL     1      -0.332   1.140  -0.086  1.00  0.00    -0.213 N 
HETATM   15  N5  UNL     1      -1.255   0.759   0.781  1.00  0.00    -0.277 N 
HETATM   16  C5  UNL     1      -2.444   0.547   0.199  1.00  0.00     0.131 A 
ATOM     17  H5  UNL     1      -1.082   0.640   1.779  1.00  0.00     0.189 HD
HETATM   18  N7  UNL     1      -2.227   0.818  -1.120  1.00  0.00    -0.196 N 
HETATM   19  C8  UNL     1      -0.940   1.181  -1.304  1.00  0.00     0.367 A 
HETATM   20  O2  UNL     1      -0.434   1.492  -2.413  1.00  0.00    -0.243 OA
BRANCH  16  21
HETATM   21  C6  UNL     1      -3.735   0.116   0.790  1.00  0.00     0.179 C 
BRANCH  21  22
HETATM   22  C7  UNL     1      -3.876  -1.348   0.795  1.00  0.00     0.238 C 
HETATM   23  N6  UNL     1      -5.039  -1.961   1.317  1.00  0.00    -0.062 NA
HETATM   24  O1  UNL     1      -2.962  -2.079   0.334  1.00  0.00    -0.276 OA
ENDBRANCH  21  22
ENDBRANCH  16  21
BRANCH  18  25
HETATM   25  N8  UNL     1      -3.206   0.726  -2.109  1.00  0.00    -0.333 N 
ATOM     26  H82 UNL     1      -4.179   0.452  -1.970  1.00  0.00     0.177 HD
ATOM     27  H81 UNL     1      -3.044   0.929  -3.095  1.00  0.00     0.177 HD
ENDBRANCH  18  25
ENDBRANCH  13  14
ENDBRANCH   6  13
BRANCH   1  28
HETATM   28  N1  UNL     1       5.212  -1.993   0.070  1.00  0.00    -0.234 N 
ATOM     29  H12 UNL     1       6.147  -1.634   0.263  1.00  0.00     0.174 HD
ATOM     30  H11 UNL     1       5.063  -2.980  -0.141  1.00  0.00     0.174 HD
ENDBRANCH   1  28
TORSDOF 6
