REMARK  8 active torsions:
REMARK  status: ('A' for Active; 'I' for Inactive)
REMARK    1  A    between atoms: C2_7  and  N4_8 
REMARK    2  A    between atoms: N4_8  and  C3_10 
REMARK    3  A    between atoms: C6_19  and  S1_20 
REMARK    4  A    between atoms: S1_20  and  C7_21 
REMARK    5  A    between atoms: C7_21  and  C8_22 
REMARK    6  A    between atoms: C8_22  and  O2_23 
REMARK    7  A    between atoms: C8_22  and  C9_25 
REMARK    8  A    between atoms: C9_25  and  O3_26 
ROOT
HETATM    1  N1  UNL     1       1.520  -2.762   0.900  1.00  0.00    -0.080 NA
HETATM    2  C1  UNL     1       0.514  -1.901   0.328  1.00  0.00     0.151 A 
HETATM    3  N2  UNL     1      -0.702  -1.820   0.897  1.00  0.00    -0.285 N 
ATOM      4  H2  UNL     1      -0.873  -2.382   1.731  1.00  0.00     0.188 HD
HETATM    5  N3  UNL     1      -1.690  -1.065   0.453  1.00  0.00    -0.281 N 
ATOM      6  H3  UNL     1      -2.592  -1.046   0.930  1.00  0.00     0.188 HD
HETATM    7  C2  UNL     1      -1.472  -0.323  -0.645  1.00  0.00     0.175 A 
HETATM    8  C5  UNL     1      -0.228  -0.359  -1.290  1.00  0.00     0.237 A 
HETATM    9  O1  UNL     1      -0.064   0.353  -2.324  1.00  0.00    -0.283 OA
HETATM   10  C6  UNL     1       0.773  -1.154  -0.799  1.00  0.00     0.097 A 
ENDROOT
BRANCH   7  11
HETATM   11  N4  UNL     1      -2.410   0.426  -1.109  1.00  0.00    -0.309 N 
ATOM     12  H4  UNL     1      -2.215   0.978  -1.944  1.00  0.00     0.170 HD
BRANCH  11  13
HETATM   13  C3  UNL     1      -3.692   0.528  -0.529  1.00  0.00     0.194 A 
HETATM   14  N5  UNL     1      -4.174   1.548   0.075  1.00  0.00    -0.346 N 
HETATM   15  C4  UNL     1      -5.496   1.314   0.538  1.00  0.00     0.259 A 
ATOM     16  H5  UNL     1      -3.669   2.424   0.208  1.00  0.00     0.163 HD
HETATM   17  N6  UNL     1      -5.788  -0.050   0.211  1.00  0.00    -0.119 NA
HETATM   18  N7  UNL     1      -4.685  -0.481  -0.507  1.00  0.00    -0.274 N 
ATOM     19  H7  UNL     1      -4.600  -1.393  -0.955  1.00  0.00     0.185 HD
ENDBRANCH  11  13
ENDBRANCH   7  11
BRANCH  10  20
HETATM   20  S1  UNL     1       2.328  -1.237  -1.614  1.00  0.00    -0.120 SA
BRANCH  20  21
HETATM   21  C7  UNL     1       3.603  -0.171  -1.016  1.00  0.00     0.113 C 
BRANCH  21  22
HETATM   22  C8  UNL     1       3.394   1.302  -1.152  1.00  0.00     0.151 C 
BRANCH  22  23
HETATM   23  O2  UNL     1       2.278   1.761  -0.463  1.00  0.00    -0.393 OA
ATOM     24  H2  UNL     1       2.145   2.698  -0.549  1.00  0.00     0.210 HD
ENDBRANCH  22  23
BRANCH  22  25
HETATM   25  C9  UNL     1       4.598   1.979  -0.482  1.00  0.00     0.196 C 
BRANCH  25  26
HETATM   26  O3  UNL     1       4.578   1.570   0.863  1.00  0.00    -0.398 OA
ATOM     27  H3  UNL     1       5.323   1.989   1.278  1.00  0.00     0.209 HD
ENDBRANCH  25  26
ENDBRANCH  22  25
ENDBRANCH  21  22
ENDBRANCH  20  21
ENDBRANCH  10  20
TORSDOF 8
