REMARK  6 active torsions:
REMARK  status: ('A' for Active; 'I' for Inactive)
REMARK    1  A    between atoms: C1_4  and  C2_6 
REMARK    2  A    between atoms: C2_6  and  C3_7 
REMARK    3  A    between atoms: C3_7  and  C4_8 
REMARK    4  A    between atoms: C4_8  and  O1_9 
REMARK    5  A    between atoms: O1_9  and  C5_10 
REMARK    6  A    between atoms: C8_15  and  C9_16 
ROOT
HETATM    1  C5  UNL     1       1.696  -0.460   0.090  1.00  0.00     0.100 A 
HETATM    2  C6  UNL     1       2.394  -1.615  -0.176  1.00  0.00     0.125 A 
HETATM    3  N3  UNL     1       3.696  -1.238  -0.251  1.00  0.00    -0.372 N 
ATOM      4  H3  UNL     1       4.476  -1.868  -0.438  1.00  0.00     0.164 HD
HETATM    5  C7  UNL     1       3.808   0.089  -0.042  1.00  0.00     0.107 A 
HETATM    6  C8  UNL     1       2.534   0.625   0.182  1.00  0.00     0.079 A 
ENDROOT
BRANCH   1   7
HETATM    7  O1  UNL     1       0.325  -0.401   0.244  1.00  0.00    -0.349 OA
BRANCH   7   8
HETATM    8  C4  UNL     1      -0.493  -1.547   0.140  1.00  0.00     0.176 C 
BRANCH   8   9
HETATM    9  C3  UNL     1      -1.947  -1.206   0.350  1.00  0.00     0.034 C 
BRANCH   9  10
HETATM   10  C2  UNL     1      -2.332  -0.203  -0.722  1.00  0.00     0.074 C 
BRANCH  10  11
HETATM   11  C1  UNL     1      -3.747   0.213  -0.622  1.00  0.00     0.086 C 
HETATM   12  N1  UNL     1      -4.551   0.005  -1.601  1.00  0.00    -0.391 N 
ATOM     13  H12 UNL     1      -5.527   0.292  -1.532  1.00  0.00     0.157 HD
ATOM     14  H11 UNL     1      -4.233  -0.446  -2.459  1.00  0.00     0.157 HD
HETATM   15  N2  UNL     1      -4.188   0.839   0.568  1.00  0.00    -0.088 NA
ENDBRANCH  10  11
ENDBRANCH   9  10
ENDBRANCH   8   9
ENDBRANCH   7   8
ENDBRANCH   1   7
BRANCH   6  16
HETATM   16  C9  UNL     1       2.196   2.022   0.449  1.00  0.00     0.269 C 
HETATM   17  N4  UNL     1       3.168   3.027   0.514  1.00  0.00    -0.057 NA
HETATM   18  O2  UNL     1       0.983   2.295   0.623  1.00  0.00    -0.271 OA
ENDBRANCH   6  16
TORSDOF 6
