REMARK  6 active torsions:
REMARK  status: ('A' for Active; 'I' for Inactive)
REMARK    1  A    between atoms: C2_2  and  C3_3 
REMARK    2  A    between atoms: C3_3  and  C4_4 
REMARK    3  A    between atoms: C4_4  and  N1_5 
REMARK    4  A    between atoms: C4_4  and  C11_18 
REMARK    5  A    between atoms: N1_5  and  C5_7 
REMARK    6  A    between atoms: C5_7  and  C6_8 
ROOT
HETATM    1  C6  UNL     1      -2.118  -0.208   0.073  1.00  0.00     0.022 A 
HETATM    2  C7  UNL     1      -2.296  -0.775  -1.157  1.00  0.00     0.018 A 
HETATM    3  C8  UNL     1      -3.550  -1.257  -1.553  1.00  0.00     0.018 A 
HETATM    4  C9  UNL     1      -4.578  -1.132  -0.651  1.00  0.00     0.089 A 
HETATM    5  N2  UNL     1      -4.389  -0.580   0.542  1.00  0.00    -0.352 N 
ATOM      6  H2  UNL     1      -5.179  -0.508   1.183  1.00  0.00     0.166 HD
HETATM    7  C10 UNL     1      -3.185  -0.111   0.935  1.00  0.00     0.110 A 
HETATM    8  N3  UNL     1      -3.069   0.411   2.135  1.00  0.00    -0.385 N 
ATOM      9  H31 UNL     1      -3.860   0.483   2.774  1.00  0.00     0.157 HD
ATOM     10  H32 UNL     1      -2.160   0.765   2.432  1.00  0.00     0.157 HD
ENDROOT
BRANCH   1  11
HETATM   11  C5  UNL     1      -0.805   0.371   0.490  1.00  0.00     0.099 C 
BRANCH  11  12
HETATM   12  N1  UNL     1       0.255   0.220  -0.407  1.00  0.00    -0.385 N 
ATOM     13  H1  UNL     1       0.150  -0.402  -1.209  1.00  0.00     0.159 HD
BRANCH  12  14
HETATM   14  C4  UNL     1       1.453   0.906  -0.223  1.00  0.00     0.173 C 
BRANCH  14  15
HETATM   15  C3  UNL     1       2.596   0.425  -1.099  1.00  0.00     0.060 C 
BRANCH  15  16
HETATM   16  C2  UNL     1       2.955  -0.985  -0.873  1.00  0.00    -0.034 C 
HETATM   17  C1  UNL     1       4.200  -1.254  -0.492  1.00  0.00     0.007 C 
ENDBRANCH  15  16
ENDBRANCH  14  15
BRANCH  14  18
HETATM   18  C11 UNL     1       2.001   1.007   1.147  1.00  0.00     0.254 C 
HETATM   19  N4  UNL     1       2.983   1.992   1.494  1.00  0.00    -0.060 NA
HETATM   20  O1  UNL     1       1.601   0.223   2.028  1.00  0.00    -0.275 OA
ENDBRANCH  14  18
ENDBRANCH  12  14
ENDBRANCH  11  12
ENDBRANCH   1  11
TORSDOF 6
