REMARK  6 active torsions:
REMARK  status: ('A' for Active; 'I' for Inactive)
REMARK       I    between atoms: C1_2  and  N2_4 
REMARK    1  A    between atoms: N2_4  and  C2_6 
REMARK    2  A    between atoms: C6_10  and  N3_11 
REMARK    3  A    between atoms: N3_11  and  N4_13 
REMARK    4  A    between atoms: N4_13  and  C7_14 
REMARK    5  A    between atoms: C7_14  and  C8_15 
REMARK    6  A    between atoms: C8_15  and  C9_16 
ROOT
HETATM    1  C2  UNL     1      -2.508  -0.092  -0.633  1.00  0.00     0.110 A 
HETATM    2  C3  UNL     1      -2.733   0.966   0.216  1.00  0.00     0.049 A 
HETATM    3  C4  UNL     1      -1.699   1.707   0.737  1.00  0.00     0.007 A 
HETATM    4  C5  UNL     1      -0.424   1.341   0.368  1.00  0.00     0.050 A 
HETATM    5  C6  UNL     1      -0.182   0.274  -0.491  1.00  0.00     0.118 A 
HETATM    6  N5  UNL     1      -1.245  -0.402  -0.957  1.00  0.00    -0.328 N 
ATOM      7  H5  UNL     1      -1.083  -1.188  -1.587  1.00  0.00     0.169 HD
ENDROOT
BRANCH   5   8
HETATM    8  N3  UNL     1       1.104  -0.106  -0.920  1.00  0.00    -0.289 N 
ATOM      9  H3  UNL     1       1.394   0.038  -1.887  1.00  0.00     0.184 HD
BRANCH   8  10
HETATM   10  N4  UNL     1       1.973  -0.683   0.004  1.00  0.00    -0.140 NA
BRANCH  10  11
HETATM   11  C7  UNL     1       3.282  -0.059  -0.053  1.00  0.00     0.142 C 
BRANCH  11  12
HETATM   12  C8  UNL     1       4.196  -0.702   0.950  1.00  0.00     0.087 C 
BRANCH  12  13
HETATM   13  C9  UNL     1       5.544  -0.033   0.855  1.00  0.00     0.232 C 
HETATM   14  O2  UNL     1       5.735   1.028   1.462  1.00  0.00    -0.307 OA
ENDBRANCH  12  13
ENDBRANCH  11  12
ENDBRANCH  10  11
ENDBRANCH   8  10
ENDBRANCH   5   8
BRANCH   1  15
HETATM   15  N2  UNL     1      -3.484  -0.785  -1.129  1.00  0.00    -0.297 N 
HETATM   16  C1  UNL     1      -4.845  -0.507  -0.838  1.00  0.00     0.334 C 
HETATM   17  N1  UNL     1      -5.681  -1.318  -0.047  1.00  0.00    -0.040 NA
HETATM   18  O1  UNL     1      -5.360   0.549  -1.321  1.00  0.00    -0.251 OA
ATOM     19  H2  UNL     1      -3.265  -1.561  -1.754  1.00  0.00     0.171 HD
ENDBRANCH   1  15
TORSDOF 6
