REMARK  7 active torsions:
REMARK  status: ('A' for Active; 'I' for Inactive)
REMARK    1  A    between atoms: C2_2  and  C3_4 
REMARK    2  A    between atoms: C3_4  and  N2_5 
REMARK    3  A    between atoms: N2_5  and  C4_7 
REMARK    4  A    between atoms: C4_7  and  C5_8 
REMARK    5  A    between atoms: C5_8  and  O1_9 
REMARK    6  A    between atoms: O1_9  and  C6_10 
REMARK    7  A    between atoms: C10_14  and  N3_15 
ROOT
HETATM    1  C6  UNL     1       2.178  -0.250  -0.236  1.00  0.00     0.143 A 
HETATM    2  C7  UNL     1       2.127   1.088  -0.549  1.00  0.00     0.056 A 
HETATM    3  C8  UNL     1       3.047   2.004  -0.025  1.00  0.00     0.008 A 
HETATM    4  C9  UNL     1       4.029   1.547   0.825  1.00  0.00     0.048 A 
HETATM    5  C10 UNL     1       4.070   0.191   1.133  1.00  0.00     0.100 A 
HETATM    6  N4  UNL     1       3.171  -0.655   0.612  1.00  0.00    -0.324 N 
ATOM      7  H4  UNL     1       3.230  -1.643   0.858  1.00  0.00     0.169 HD
ENDROOT
BRANCH   1   8
HETATM    8  O1  UNL     1       1.324  -1.201  -0.695  1.00  0.00    -0.334 OA
BRANCH   8   9
HETATM    9  C5  UNL     1       0.231  -1.156  -1.512  1.00  0.00     0.196 C 
BRANCH   9  10
HETATM   10  C4  UNL     1      -0.896  -0.330  -0.878  1.00  0.00     0.141 C 
BRANCH  10  11
HETATM   11  N2  UNL     1      -1.302  -0.899   0.365  1.00  0.00    -0.414 N 
ATOM     12  H2  UNL     1      -0.925  -1.784   0.706  1.00  0.00     0.153 HD
BRANCH  11  13
HETATM   13  C3  UNL     1      -2.271  -0.150   1.103  1.00  0.00     0.167 C 
BRANCH  13  14
HETATM   14  C2  UNL     1      -3.617  -0.069   0.504  1.00  0.00     0.032 C 
HETATM   15  C1  UNL     1      -4.653  -0.562   1.157  1.00  0.00     0.036 C 
HETATM   16  N1  UNL     1      -3.887   0.538  -0.751  1.00  0.00    -0.106 NA
ENDBRANCH  13  14
ENDBRANCH  11  13
ENDBRANCH  10  11
ENDBRANCH   9  10
ENDBRANCH   8   9
ENDBRANCH   1   8
BRANCH   5  17
HETATM   17  N3  UNL     1       5.009  -0.190   1.937  1.00  0.00    -0.385 N 
ATOM     18  H32 UNL     1       5.693   0.454   2.334  1.00  0.00     0.157 HD
ATOM     19  H31 UNL     1       5.039  -1.184   2.163  1.00  0.00     0.157 HD
ENDBRANCH   5  17
TORSDOF 7
