REMARK  5 active torsions:
REMARK  status: ('A' for Active; 'I' for Inactive)
REMARK       I    between atoms: C2_2  and  N1_4 
REMARK    1  A    between atoms: N1_4  and  C3_6 
REMARK    2  A    between atoms: C8_11  and  N2_12 
REMARK    3  A    between atoms: N2_12  and  C9_14 
REMARK    4  A    between atoms: C9_14  and  C10_15 
REMARK    5  A    between atoms: C10_15  and  N3_16 
ROOT
HETATM    1  C3  UNL     1      -2.019   0.402   0.158  1.00  0.00     0.061 A 
HETATM    2  C4  UNL     1      -3.068   1.259   0.465  1.00  0.00     0.032 A 
HETATM    3  C5  UNL     1      -2.842   2.621   0.631  1.00  0.00     0.002 A 
HETATM    4  C6  UNL     1      -1.583   3.133   0.494  1.00  0.00     0.002 A 
HETATM    5  C7  UNL     1      -0.551   2.277   0.190  1.00  0.00     0.031 A 
HETATM    6  C8  UNL     1      -0.716   0.920   0.014  1.00  0.00     0.055 A 
ENDROOT
BRANCH   6   7
HETATM    7  N2  UNL     1       0.394   0.119  -0.294  1.00  0.00    -0.387 N 
ATOM      8  H2  UNL     1       0.299  -0.888  -0.428  1.00  0.00     0.159 HD
BRANCH   7   9
HETATM    9  C9  UNL     1       1.695   0.781  -0.416  1.00  0.00     0.139 C 
BRANCH   9  10
HETATM   10  C10 UNL     1       2.782  -0.211  -0.750  1.00  0.00     0.139 C 
BRANCH  10  11
HETATM   11  N3  UNL     1       4.022   0.531  -0.849  1.00  0.00    -0.386 N 
HETATM   12  C11 UNL     1       5.139   0.083  -0.388  1.00  0.00     0.185 C 
HETATM   13  N4  UNL     1       5.141  -1.190   0.241  1.00  0.00    -0.097 NA
ATOM     14  H3  UNL     1       4.011   1.445  -1.302  1.00  0.00     0.159 HD
ENDBRANCH  10  11
ENDBRANCH   9  10
ENDBRANCH   7   9
ENDBRANCH   6   7
BRANCH   1  15
HETATM   15  N1  UNL     1      -2.219  -0.979  -0.015  1.00  0.00    -0.326 N 
HETATM   16  C2  UNL     1      -3.396  -1.703   0.077  1.00  0.00     0.218 C 
HETATM   17  C1  UNL     1      -3.408  -3.205  -0.146  1.00  0.00     0.117 C 
HETATM   18  O1  UNL     1      -4.503  -1.236   0.335  1.00  0.00    -0.274 OA
ATOM     19  H1  UNL     1      -1.384  -1.521  -0.238  1.00  0.00     0.169 HD
ENDBRANCH   1  15
TORSDOF 5
