REMARK  6 active torsions:
REMARK  status: ('A' for Active; 'I' for Inactive)
REMARK    1  A    between atoms: C2_2  and  C3_3 
REMARK    2  A    between atoms: C3_3  and  C4_4 
REMARK    3  A    between atoms: C4_4  and  N1_5 
REMARK    4  A    between atoms: C5_7  and  C6_9 
REMARK    5  A    between atoms: C6_9  and  N3_10 
REMARK    6  A    between atoms: N3_10  and  C7_12 
ROOT
HETATM    1  N3  UNL     1       1.338   1.308   0.635  1.00  0.00    -0.369 N 
ATOM      2  H3  UNL     1       1.134   2.292   0.459  1.00  0.00     0.161 HD
ENDROOT
BRANCH   1   3
HETATM    3  C6  UNL     1       0.327   0.497   1.235  1.00  0.00     0.194 C 
BRANCH   3   4
HETATM    4  C5  UNL     1      -0.487  -0.134   0.180  1.00  0.00     0.106 C 
HETATM    5  N1  UNL     1      -1.761   0.013   0.234  1.00  0.00    -0.380 N 
ATOM      6  H1  UNL     1      -2.191   0.551   0.986  1.00  0.00     0.160 HD
HETATM    7  N2  UNL     1       0.096  -0.872  -0.855  1.00  0.00    -0.086 NA
BRANCH   5   8
HETATM    8  C4  UNL     1      -2.573  -0.599  -0.792  1.00  0.00     0.124 C 
BRANCH   8   9
HETATM    9  C3  UNL     1      -3.838  -1.194  -0.199  1.00  0.00     0.046 C 
BRANCH   9  10
HETATM   10  C2  UNL     1      -4.623  -0.105   0.461  1.00  0.00    -0.035 C 
HETATM   11  C1  UNL     1      -5.841   0.146   0.036  1.00  0.00     0.007 C 
ENDBRANCH   9  10
ENDBRANCH   8   9
ENDBRANCH   5   8
ENDBRANCH   3   4
ENDBRANCH   1   3
BRANCH   1  12
HETATM   12  C7  UNL     1       2.603   0.807   0.276  1.00  0.00     0.104 A 
HETATM   13  C8  UNL     1       3.488   1.719  -0.311  1.00  0.00     0.103 A 
HETATM   14  C9  UNL     1       4.754   1.309  -0.659  1.00  0.00     0.176 A 
HETATM   15  O1  UNL     1       5.543   2.139  -1.186  1.00  0.00    -0.288 OA
HETATM   16  C10 UNL     1       5.093   0.007  -0.410  1.00  0.00     0.072 A 
HETATM   17  C11 UNL     1       4.224  -0.888   0.167  1.00  0.00     0.093 A 
HETATM   18  N4  UNL     1       2.992  -0.447   0.494  1.00  0.00    -0.352 N 
ATOM     19  H4  UNL     1       2.335  -1.098   0.924  1.00  0.00     0.166 HD
ENDBRANCH   1  12
TORSDOF 6
