REMARK  3 active torsions:
REMARK  status: ('A' for Active; 'I' for Inactive)
REMARK    1  A    between atoms: O1_2  and  N1_3 
REMARK    2  A    between atoms: C2_5  and  N2_6 
REMARK    3  A    between atoms: N2_6  and  C3_8 
ROOT
HETATM    1  C3  UNL     1       1.505  -1.185   0.420  1.00  0.00     0.157 A 
HETATM    2  N3  UNL     1       1.934   0.060   0.280  1.00  0.00    -0.321 N 
ATOM      3  H3  UNL     1       1.261   0.810   0.124  1.00  0.00     0.169 HD
HETATM    4  C4  UNL     1       3.217   0.340   0.340  1.00  0.00     0.151 A 
HETATM    5  S1  UNL     1       3.884   1.867   0.180  1.00  0.00    -0.052 SA
HETATM    6  S2  UNL     1       4.276  -0.972   0.604  1.00  0.00    -0.020 SA
HETATM    7  S3  UNL     1       2.715  -2.366   0.677  1.00  0.00    -0.014 SA
ENDROOT
BRANCH   1   8
HETATM    8  N2  UNL     1       0.232  -1.582   0.377  1.00  0.00    -0.331 N 
ATOM      9  H2  UNL     1       0.018  -2.572   0.498  1.00  0.00     0.168 HD
BRANCH   8  10
HETATM   10  C2  UNL     1      -0.818  -0.680   0.171  1.00  0.00     0.206 C 
HETATM   11  N1  UNL     1      -1.954  -0.939   0.755  1.00  0.00    -0.263 N 
ATOM     12  H1  UNL     1      -2.028  -1.778   1.330  1.00  0.00     0.195 HD
BRANCH  11  13
HETATM   13  O1  UNL     1      -3.055  -0.130   0.628  1.00  0.00    -0.284 OA
HETATM   14  C1  UNL     1      -3.085   0.907  -0.299  1.00  0.00     0.237 C 
ENDBRANCH  11  13
ENDBRANCH   8  10
ENDBRANCH   1   8
TORSDOF 3
