REMARK  3 active torsions:
REMARK  status: ('A' for Active; 'I' for Inactive)
REMARK    1  A    between atoms: C3_3  and  N1_4 
REMARK    2  A    between atoms: N1_4  and  O1_6 
REMARK    3  A    between atoms: O1_6  and  N2_7 
ROOT
HETATM    1  C1  UNL     1       0.642  -2.621   0.492  1.00  0.00     0.023 C 
HETATM    2  C2  UNL     1       0.442  -1.410   0.439  1.00  0.00    -0.021 C 
HETATM    3  C3  UNL     1       1.030  -0.385  -0.391  1.00  0.00     0.044 C 
HETATM    4  C4  UNL     1       0.383   0.986  -0.500  1.00  0.00     0.089 C 
HETATM    5  C5  UNL     1      -1.073   0.958  -0.222  1.00  0.00     0.024 C 
HETATM    6  C6  UNL     1      -1.877   1.037  -1.523  1.00  0.00     0.038 C 
HETATM    7  C7  UNL     1      -1.408   2.218   0.587  1.00  0.00     0.038 C 
HETATM    8  N3  UNL     1      -1.554  -0.163   0.502  1.00  0.00    -0.405 N 
ATOM      9  H3  UNL     1      -2.505  -0.515   0.392  1.00  0.00     0.154 HD
HETATM   10  C8  UNL     1      -0.623  -0.763   1.391  1.00  0.00     0.107 C 
HETATM   11  C9  UNL     1      -1.204  -1.813   2.263  1.00  0.00     0.037 C 
ENDROOT
BRANCH   3  12
HETATM   12  N1  UNL     1       2.098  -0.616  -1.029  1.00  0.00    -0.240 N 
ATOM     13  H1  UNL     1       2.532  -1.535  -0.945  1.00  0.00     0.196 HD
BRANCH  12  14
HETATM   14  O1  UNL     1       2.691   0.323  -1.827  1.00  0.00    -0.093 OA
BRANCH  14  15
HETATM   15  N2  UNL     1       4.040   0.614  -1.730  1.00  0.00     0.028 N 
HETATM   16  O2  UNL     1       4.504   1.612  -1.165  1.00  0.00    -0.509 OA
HETATM   17  O3  UNL     1       4.881  -0.284  -2.305  1.00  0.00    -0.509 OA
ENDBRANCH  14  15
ENDBRANCH  12  14
ENDBRANCH   3  12
TORSDOF 3
