REMARK  5 active torsions:
REMARK  status: ('A' for Active; 'I' for Inactive)
REMARK    1  A    between atoms: C2_2  and  O1_4 
REMARK    2  A    between atoms: O1_4  and  C4_5 
REMARK    3  A    between atoms: C4_5  and  O3_7 
REMARK    4  A    between atoms: O3_7  and  N1_8 
REMARK    5  A    between atoms: C8_13  and  N2_14 
ROOT
HETATM    1  N1  UNL     1      -0.429  -1.449   1.224  1.00  0.00    -0.264 N 
ATOM      2  H1  UNL     1      -0.541  -2.372   1.644  1.00  0.00     0.194 HD
HETATM    3  C5  UNL     1      -1.303  -0.966   0.405  1.00  0.00     0.011 C 
HETATM    4  C6  UNL     1      -1.192   0.347  -0.223  1.00  0.00     0.056 C 
HETATM    5  C7  UNL     1      -2.465   1.020  -0.549  1.00  0.00     0.038 C 
HETATM    6  C8  UNL     1      -3.699   0.221  -0.480  1.00  0.00     0.184 C 
HETATM    7  C9  UNL     1      -3.697  -0.937   0.445  1.00  0.00     0.038 C 
HETATM    8  C10 UNL     1      -2.484  -1.808   0.095  1.00  0.00     0.056 C 
ENDROOT
BRANCH   1   9
HETATM    9  O3  UNL     1       0.661  -0.656   1.501  1.00  0.00    -0.175 OA
BRANCH   9  10
HETATM   10  C4  UNL     1       1.733  -0.720   0.618  1.00  0.00     0.429 C 
HETATM   11  O2  UNL     1       1.742  -1.460  -0.401  1.00  0.00    -0.227 OA
BRANCH  10  12
HETATM   12  O1  UNL     1       2.847   0.059   0.857  1.00  0.00    -0.292 OA
BRANCH  12  13
HETATM   13  C2  UNL     1       3.945   0.025  -0.005  1.00  0.00     0.126 C 
HETATM   14  C1  UNL     1       4.101   1.427  -0.592  1.00  0.00     0.040 C 
HETATM   15  C3  UNL     1       5.225  -0.390   0.700  1.00  0.00     0.040 C 
ENDBRANCH  12  13
ENDBRANCH  10  12
ENDBRANCH   9  10
ENDBRANCH   1   9
BRANCH   6  16
HETATM   16  N2  UNL     1      -4.804   1.111  -0.094  1.00  0.00    -0.075 N 
ATOM     17  H23 UNL     1      -4.616   1.619   0.771  1.00  0.00     0.274 HD
ATOM     18  H22 UNL     1      -4.893   1.918  -0.712  1.00  0.00     0.274 HD
ATOM     19  H21 UNL     1      -5.659   0.557  -0.046  1.00  0.00     0.274 HD
ENDBRANCH   6  16
TORSDOF 5
