REMARK  4 active torsions:
REMARK  status: ('A' for Active; 'I' for Inactive)
REMARK    1  A    between atoms: C2_2  and  C4_4 
REMARK    2  A    between atoms: C4_4  and  S1_5 
REMARK    3  A    between atoms: S1_5  and  C5_6 
REMARK    4  A    between atoms: C6_9  and  O1_11 
ROOT
HETATM    1  C5  UNL     1       0.364  -1.169  -0.161  1.00  0.00     0.106 C 
HETATM    2  N1  UNL     1       1.164  -0.263   0.089  1.00  0.00    -0.347 N 
ATOM      3  H1  UNL     1       1.018   0.640  -0.363  1.00  0.00     0.163 HD
HETATM    4  C6  UNL     1       2.234  -0.390   0.932  1.00  0.00     0.137 C 
HETATM    5  C7  UNL     1       3.594  -0.412   0.250  1.00  0.00     0.071 C 
HETATM    6  C8  UNL     1       2.080  -1.576   1.868  1.00  0.00     0.141 C 
HETATM    7  S2  UNL     1       0.986  -2.599   0.796  1.00  0.00    -0.101 SA
ENDROOT
BRANCH   1   8
HETATM    8  S1  UNL     1      -1.071  -1.316  -1.172  1.00  0.00    -0.105 SA
BRANCH   8   9
HETATM    9  C4  UNL     1      -1.686   0.130  -1.962  1.00  0.00     0.085 C 
BRANCH   9  10
HETATM   10  C2  UNL     1      -2.349   1.160  -1.121  1.00  0.00    -0.013 C 
HETATM   11  C1  UNL     1      -1.500   1.769  -0.043  1.00  0.00     0.010 C 
HETATM   12  C3  UNL     1      -3.623   0.640  -0.470  1.00  0.00     0.010 C 
ENDBRANCH   9  10
ENDBRANCH   8   9
ENDBRANCH   1   8
BRANCH   4  13
HETATM   13  O1  UNL     1       2.268   0.745   1.782  1.00  0.00    -0.370 OA
ATOM     14  H1  UNL     1       3.011   0.657   2.367  1.00  0.00     0.212 HD
ENDBRANCH   4  13
TORSDOF 4
