REMARK  2 active torsions:
REMARK  status: ('A' for Active; 'I' for Inactive)
REMARK    1  A    between atoms: C2_2  and  C3_3 
REMARK    2  A    between atoms: C4_4  and  C5_5 
ROOT
HETATM    1  C3  UNL     1      -0.772  -0.010  -0.095  1.00  0.00    -0.039 C 
HETATM    2  C4  UNL     1       0.661   0.168   0.046  1.00  0.00     0.043 C 
HETATM    3  C7  UNL     1       1.065   1.411   0.383  1.00  0.00     0.065 C 
HETATM    4  C8  UNL     1       2.513   1.687   0.579  1.00  0.00     0.077 C 
HETATM    5  O2  UNL     1       0.167   2.497   0.537  1.00  0.00    -0.300 OA
HETATM    6  C9  UNL     1      -1.166   2.271   0.316  1.00  0.00     0.139 C 
HETATM    7  N1  UNL     1      -2.080   2.891   0.893  1.00  0.00    -0.382 N 
ATOM      8  H11 UNL     1      -3.072   2.723   0.728  1.00  0.00     0.158 HD
ATOM      9  H12 UNL     1      -1.859   3.615   1.576  1.00  0.00     0.158 HD
HETATM   10  C10 UNL     1      -1.498   1.182  -0.711  1.00  0.00     0.197 C 
HETATM   11  C11 UNL     1      -0.954   1.518  -1.996  1.00  0.00     0.076 C 
HETATM   12  N2  UNL     1      -0.533   1.787  -3.040  1.00  0.00    -0.196 NA
ENDROOT
BRANCH   1  13
HETATM   13  C2  UNL     1      -1.462  -1.282  -0.259  1.00  0.00     0.032 C 
HETATM   14  C1  UNL     1      -1.289  -2.180   0.945  1.00  0.00     0.010 C 
ENDBRANCH   1  13
BRANCH   2  15
HETATM   15  C5  UNL     1       1.719  -0.804  -0.192  1.00  0.00     0.158 C 
HETATM   16  C6  UNL     1       1.585  -2.210  -0.627  1.00  0.00     0.097 C 
HETATM   17  O1  UNL     1       2.970  -0.504  -0.042  1.00  0.00    -0.293 OA
ENDBRANCH   2  15
TORSDOF 2
