REMARK  5 active torsions:
REMARK  status: ('A' for Active; 'I' for Inactive)
REMARK    1  A    between atoms: C2_2  and  C4_4 
REMARK    2  A    between atoms: C5_7  and  C6_8 
REMARK    3  A    between atoms: C6_8  and  N2_9 
REMARK       I    between atoms: N2_9  and  C7_10 
REMARK    4  A    between atoms: N2_9  and  C12_18 
REMARK       I    between atoms: C7_10  and  N3_12 
REMARK    5  A    between atoms: N3_12  and  C8_14 
ROOT
HETATM    1  N2  UNL     1      -0.631  -1.479   0.131  1.00  0.00    -0.319 N 
HETATM    2  C7  UNL     1      -1.798  -0.648   0.028  1.00  0.00     0.320 C 
HETATM    3  O1  UNL     1      -2.753  -1.059  -0.675  1.00  0.00    -0.247 OA
HETATM    4  N3  UNL     1      -1.934   0.607   0.673  1.00  0.00    -0.335 N 
ATOM      5  H3  UNL     1      -1.170   0.960   1.249  1.00  0.00     0.165 HD
ENDROOT
BRANCH   1   6
HETATM    6  C6  UNL     1       0.434  -1.003   0.941  1.00  0.00     0.206 C 
BRANCH   6   7
HETATM    7  C5  UNL     1       1.418  -0.144   0.262  1.00  0.00     0.122 A 
HETATM    8  N1  UNL     1       2.498   0.346   0.898  1.00  0.00    -0.325 N 
HETATM    9  C4  UNL     1       3.208   1.090   0.035  1.00  0.00     0.151 A 
ATOM     10  H1  UNL     1       2.738   0.179   1.875  1.00  0.00     0.169 HD
HETATM   11  O2  UNL     1       2.575   1.051  -1.096  1.00  0.00    -0.222 OA
HETATM   12  N4  UNL     1       1.495   0.317  -0.993  1.00  0.00    -0.245 N 
ATOM     13  H4  UNL     1       0.827   0.129  -1.741  1.00  0.00     0.196 HD
BRANCH   9  14
HETATM   14  C2  UNL     1       4.460   1.795   0.356  1.00  0.00     0.055 C 
HETATM   15  C1  UNL     1       4.285   3.296   0.167  1.00  0.00     0.018 C 
HETATM   16  C3  UNL     1       5.612   1.331  -0.518  1.00  0.00     0.018 C 
ENDBRANCH   9  14
ENDBRANCH   6   7
ENDBRANCH   1   6
BRANCH   1  17
HETATM   17  C12 UNL     1      -0.556  -2.734  -0.552  1.00  0.00     0.026 C 
HETATM   18  C13 UNL     1      -0.705  -2.592  -2.071  1.00  0.00     0.037 C 
HETATM   19  C14 UNL     1       0.750  -3.425  -0.222  1.00  0.00     0.037 C 
HETATM   20  C15 UNL     1      -1.676  -3.682  -0.128  1.00  0.00     0.037 C 
ENDBRANCH   1  17
BRANCH   4  21
HETATM   21  C8  UNL     1      -3.147   1.403   0.528  1.00  0.00     0.023 C 
HETATM   22  C9  UNL     1      -4.297   0.573   1.059  1.00  0.00     0.037 C 
HETATM   23  C10 UNL     1      -3.370   1.805  -0.910  1.00  0.00     0.037 C 
HETATM   24  C11 UNL     1      -3.000   2.664   1.338  1.00  0.00     0.037 C 
ENDBRANCH   4  21
TORSDOF 5
