REMARK  3 active torsions:
REMARK  status: ('A' for Active; 'I' for Inactive)
REMARK    1  A    between atoms: S1_2  and  O4_5 
REMARK    2  A    between atoms: O4_5  and  C1_6 
REMARK    3  A    between atoms: C5_10  and  C6_11 
ROOT
HETATM    1  C1  UNL     1       3.144  -0.117   0.112  1.00  0.00     0.258 C 
HETATM    2  C2  UNL     1       2.538  -1.248  -0.705  1.00  0.00     0.056 C 
HETATM    3  C3  UNL     1       1.511  -1.942   0.133  1.00  0.00     0.007 C 
HETATM    4  C4  UNL     1       0.113  -1.432  -0.112  1.00  0.00     0.031 C 
HETATM    5  C5  UNL     1       0.136   0.073  -0.382  1.00  0.00     0.127 C 
HETATM    6  N1  UNL     1       0.896   0.665   0.661  1.00  0.00    -0.330 N 
ATOM      7  H1  UNL     1       0.378   1.227   1.336  1.00  0.00     0.180 HD
HETATM    8  N2  UNL     1       2.109   0.576   0.842  1.00  0.00    -0.310 N 
ATOM      9  H2  UNL     1       2.446   1.086   1.659  1.00  0.00     0.182 HD
ENDROOT
BRANCH   5  10
HETATM   10  C6  UNL     1      -1.286   0.556  -0.364  1.00  0.00    -0.060 C 
HETATM   11  C7  UNL     1      -1.613   1.483   0.534  1.00  0.00    -0.022 C 
HETATM   12  C8  UNL     1      -2.918   2.147   0.792  1.00  0.00     0.027 C 
HETATM   13  C9  UNL     1      -4.052   1.485   0.041  1.00  0.00     0.004 C 
HETATM   14  C10 UNL     1      -4.135   0.014   0.267  1.00  0.00     0.001 C 
HETATM   15  C11 UNL     1      -3.296  -0.808  -0.654  1.00  0.00     0.004 C 
HETATM   16  C12 UNL     1      -2.218  -0.045  -1.356  1.00  0.00     0.036 C 
ENDBRANCH   5  10
BRANCH   1  17
HETATM   17  O4  UNL     1       4.028  -0.635   1.024  1.00  0.00    -0.230 OA
BRANCH  17  18
HETATM   18  S1  UNL     1       5.578  -0.084   0.875  1.00  0.00     0.253 S 
HETATM   19  O1  UNL     1       6.384  -0.829  -0.148  1.00  0.00    -0.572 OA
HETATM   20  O2  UNL     1       6.278  -0.310   2.209  1.00  0.00    -0.572 OA
HETATM   21  O3  UNL     1       5.692   1.543   0.538  1.00  0.00    -0.572 OA
ENDBRANCH  17  18
ENDBRANCH   1  17
TORSDOF 3
