REMARK  3 active torsions:
REMARK  status: ('A' for Active; 'I' for Inactive)
REMARK    1  A    between atoms: C2_2  and  C3_3 
REMARK    2  A    between atoms: C3_3  and  N1_4 
REMARK       I    between atoms: N1_4  and  C4_6 
REMARK    3  A    between atoms: C4_6  and  C5_8 
ROOT
HETATM    1  C5  UNL     1      -0.719   0.261  -0.527  1.00  0.00     0.045 C 
HETATM    2  C6  UNL     1      -0.928   1.321   0.553  1.00  0.00     0.024 C 
HETATM    3  C7  UNL     1      -2.139   0.796   1.267  1.00  0.00    -0.013 C 
HETATM    4  C8  UNL     1      -3.258   0.688   0.263  1.00  0.00     0.010 C 
HETATM    5  C9  UNL     1      -2.705  -0.335  -0.716  1.00  0.00    -0.008 C 
HETATM    6  C10 UNL     1      -1.744   0.391  -1.665  1.00  0.00     0.024 C 
HETATM    7  C11 UNL     1      -1.485  -0.936  -0.072  1.00  0.00     0.008 C 
HETATM    8  C12 UNL     1      -1.756  -0.686   1.411  1.00  0.00     0.011 C 
ENDROOT
BRANCH   1   9
HETATM    9  C4  UNL     1       0.646   0.073  -0.986  1.00  0.00     0.227 C 
HETATM   10  N1  UNL     1       1.666  -0.318  -0.090  1.00  0.00    -0.357 N 
ATOM     11  H1  UNL     1       1.435  -0.469   0.892  1.00  0.00     0.162 HD
HETATM   12  O1  UNL     1       0.917   0.263  -2.199  1.00  0.00    -0.273 OA
BRANCH  10  13
HETATM   13  C3  UNL     1       3.040  -0.510  -0.536  1.00  0.00     0.149 C 
BRANCH  13  14
HETATM   14  C2  UNL     1       3.881  -0.912   0.598  1.00  0.00    -0.018 C 
HETATM   15  C1  UNL     1       4.913  -0.162   0.954  1.00  0.00     0.008 C 
ENDBRANCH  13  14
ENDBRANCH  10  13
ENDBRANCH   1   9
TORSDOF 3
