REMARK  4 active torsions:
REMARK  status: ('A' for Active; 'I' for Inactive)
REMARK    1  A    between atoms: C2_2  and  C3_3 
REMARK    2  A    between atoms: C4_4  and  C5_5 
REMARK    3  A    between atoms: C10_11  and  C11_12 
REMARK    4  A    between atoms: N1_13  and  N2_15 
ROOT
HETATM    1  C1  UNL     1      -2.383   1.165   0.031  1.00  0.00     0.048 C 
HETATM    2  C2  UNL     1      -2.030  -0.254   0.078  1.00  0.00    -0.061 C 
HETATM    3  C10 UNL     1      -2.894  -1.218   0.265  1.00  0.00     0.025 C 
ENDROOT
BRANCH   2   4
HETATM    4  C3  UNL     1      -0.624  -0.631  -0.093  1.00  0.00     0.005 C 
HETATM    5  C4  UNL     1       0.339   0.219  -0.284  1.00  0.00     0.005 C 
BRANCH   5   6
HETATM    6  C5  UNL     1       1.731  -0.345  -0.441  1.00  0.00     0.144 C 
HETATM    7  C6  UNL     1       2.556   0.561  -1.324  1.00  0.00     0.036 C 
HETATM    8  C7  UNL     1       3.974   0.004  -1.318  1.00  0.00     0.005 C 
HETATM    9  C8  UNL     1       4.495   0.180   0.095  1.00  0.00     0.026 C 
HETATM   10  C9  UNL     1       3.361   0.253   1.094  1.00  0.00     0.168 C 
HETATM   11  O1  UNL     1       2.312  -0.577   0.781  1.00  0.00    -0.382 OA
ENDBRANCH   5   6
ENDBRANCH   2   4
BRANCH   3  12
HETATM   12  C11 UNL     1      -4.302  -1.183   0.461  1.00  0.00     0.107 C 
HETATM   13  N1  UNL     1      -5.138  -0.240   0.517  1.00  0.00    -0.318 N 
ATOM     14  H1  UNL     1      -4.821   0.724   0.409  1.00  0.00     0.185 HD
BRANCH  13  15
HETATM   15  N2  UNL     1      -6.520  -0.509   0.729  1.00  0.00    -0.345 N 
ATOM     16  H22 UNL     1      -6.820  -1.478   0.835  1.00  0.00     0.176 HD
ATOM     17  H21 UNL     1      -7.196   0.253   0.774  1.00  0.00     0.176 HD
ENDBRANCH  13  15
ENDBRANCH   3  12
TORSDOF 4
