REMARK  3 active torsions:
REMARK  status: ('A' for Active; 'I' for Inactive)
REMARK    1  A    between atoms: C2_2  and  C3_3 
REMARK    2  A    between atoms: C4_4  and  C5_5 
REMARK    3  A    between atoms: C6_6  and  C7_7 
ROOT
HETATM    1  C7  UNL     1      -0.390  -0.097   0.689  1.00  0.00     0.029 C 
HETATM    2  C8  UNL     1      -1.322   0.878   1.381  1.00  0.00     0.119 C 
HETATM    3  N1  UNL     1      -2.329   0.047   1.926  1.00  0.00    -0.228 NA
HETATM    4  C9  UNL     1      -2.393  -1.189   1.120  1.00  0.00     0.167 A 
HETATM    5  C10 UNL     1      -1.439  -0.968  -0.019  1.00  0.00     0.029 C 
HETATM    6  C11 UNL     1      -2.000  -0.167  -1.139  1.00  0.00     0.009 C 
HETATM    7  C12 UNL     1      -3.510  -0.146  -1.158  1.00  0.00     0.016 C 
HETATM    8  C13 UNL     1      -4.068   0.266   0.188  1.00  0.00     0.110 C 
HETATM    9  N2  UNL     1      -3.449  -0.365   1.286  1.00  0.00    -0.228 NA
ENDROOT
BRANCH   1  10
HETATM   10  C6  UNL     1       0.566   0.519  -0.221  1.00  0.00    -0.020 C 
HETATM   11  C5  UNL     1       1.868   0.238  -0.076  1.00  0.00    -0.004 C 
BRANCH  11  12
HETATM   12  C4  UNL     1       2.864   0.829  -0.961  1.00  0.00    -0.000 C 
HETATM   13  C3  UNL     1       4.127   0.550  -0.814  1.00  0.00    -0.001 C 
BRANCH  13  14
HETATM   14  C2  UNL     1       4.641  -0.339   0.203  1.00  0.00    -0.010 C 
HETATM   15  C1  UNL     1       5.959  -0.571   0.284  1.00  0.00     0.011 C 
ENDBRANCH  13  14
ENDBRANCH  11  12
ENDBRANCH   1  10
TORSDOF 3
