REMARK  3 active torsions:
REMARK  status: ('A' for Active; 'I' for Inactive)
REMARK    1  A    between atoms: C1_2  and  C2_4 
REMARK    2  A    between atoms: C3_5  and  C4_6 
REMARK    3  A    between atoms: C5_7  and  C6_8 
ROOT
HETATM    1  C6  UNL     1      -0.078  -0.008   0.180  1.00  0.00     0.017 C 
HETATM    2  C7  UNL     1      -1.252   0.857   0.698  1.00  0.00    -0.002 C 
HETATM    3  C8  UNL     1      -1.664   1.797  -0.419  1.00  0.00     0.010 C 
HETATM    4  C9  UNL     1      -2.495   0.871  -1.285  1.00  0.00    -0.013 C 
HETATM    5  C10 UNL     1      -1.618  -0.248  -1.756  1.00  0.00     0.010 C 
HETATM    6  C11 UNL     1      -1.158  -0.870  -0.445  1.00  0.00    -0.002 C 
HETATM    7  C12 UNL     1      -2.099  -0.367   0.592  1.00  0.00    -0.005 C 
HETATM    8  C13 UNL     1      -3.305   0.157  -0.190  1.00  0.00     0.010 C 
ENDROOT
BRANCH   1   9
HETATM    9  C5  UNL     1       0.672  -0.634   1.266  1.00  0.00    -0.021 C 
HETATM   10  C4  UNL     1       1.948  -0.830   1.237  1.00  0.00    -0.003 C 
BRANCH  10  11
HETATM   11  C3  UNL     1       2.782  -0.456   0.132  1.00  0.00     0.007 C 
HETATM   12  C2  UNL     1       4.103  -0.674   0.142  1.00  0.00     0.084 C 
BRANCH  12  13
HETATM   13  C1  UNL     1       4.917  -0.291  -0.976  1.00  0.00     0.198 C 
HETATM   14  O1  UNL     1       6.156  -0.503  -0.952  1.00  0.00    -0.645 OA
HETATM   15  O2  UNL     1       4.409   0.318  -2.115  1.00  0.00    -0.645 OA
ENDBRANCH  12  13
ENDBRANCH  10  11
ENDBRANCH   1   9
TORSDOF 3
