REMARK  11 active torsions:
REMARK  status: ('A' for Active; 'I' for Inactive)
REMARK    1  A    between atoms: C2_2  and  C3_3 
REMARK    2  A    between atoms: C3_3  and  N1_4 
REMARK    3  A    between atoms: C3_3  and  C13_17 
REMARK       I    between atoms: N1_4  and  C4_6 
REMARK    4  A    between atoms: C4_6  and  C5_8 
REMARK    5  A    between atoms: N2_10  and  C7_11 
REMARK    6  A    between atoms: C7_11  and  C8_12 
REMARK    7  A    between atoms: C8_12  and  C9_13 
REMARK       I    between atoms: C13_17  and  N3_19 
REMARK    8  A    between atoms: N3_19  and  C14_21 
REMARK    9  A    between atoms: C14_21  and  C15_22 
REMARK   10  A    between atoms: C15_22  and  N4_23 
REMARK   11  A    between atoms: N4_23  and  N5_24 
ROOT
HETATM    1  C3  UNL     1      -2.606  -1.288  -0.741  1.00  0.00     0.176 C 
ENDROOT
BRANCH   1   2
HETATM    2  C2  UNL     1      -2.671  -2.730  -1.166  1.00  0.00     0.030 C 
HETATM    3  C1  UNL     1      -4.048  -3.249  -1.435  1.00  0.00     0.007 C 
ENDBRANCH   1   2
BRANCH   1   4
HETATM    4  N1  UNL     1      -1.181  -0.931  -0.532  1.00  0.00    -0.346 N 
HETATM    5  C4  UNL     1      -0.578   0.061  -1.336  1.00  0.00     0.253 C 
HETATM    6  O1  UNL     1      -1.258   0.628  -2.218  1.00  0.00    -0.271 OA
ATOM      7  H1  UNL     1      -0.638  -1.402   0.192  1.00  0.00     0.163 HD
BRANCH   5   8
HETATM    8  C5  UNL     1       0.824   0.416  -1.135  1.00  0.00     0.342 A 
HETATM    9  C6  UNL     1       1.565   0.711  -2.442  1.00  0.00     0.319 A 
HETATM   10  N2  UNL     1       1.299   1.739  -1.487  1.00  0.00     0.106 N 
BRANCH  10  11
HETATM   11  C7  UNL     1       2.345   2.279  -0.656  1.00  0.00     0.277 C 
BRANCH  11  12
HETATM   12  C8  UNL     1       3.626   1.498  -0.855  1.00  0.00     0.057 C 
BRANCH  12  13
HETATM   13  C9  UNL     1       4.716   2.035  -0.008  1.00  0.00    -0.023 C 
HETATM   14  C10 UNL     1       5.299   1.269   0.883  1.00  0.00    -0.091 C 
HETATM   15  C11 UNL     1       4.876  -0.134   1.052  1.00  0.00     0.042 C 
HETATM   16  C12 UNL     1       6.386   1.808   1.726  1.00  0.00     0.042 C 
ENDBRANCH  12  13
ENDBRANCH  11  12
ENDBRANCH  10  11
ENDBRANCH   5   8
ENDBRANCH   1   4
BRANCH   1  17
HETATM   17  C13 UNL     1      -3.307  -0.988   0.514  1.00  0.00     0.240 C 
HETATM   18  O2  UNL     1      -2.639  -0.631   1.547  1.00  0.00    -0.271 OA
HETATM   19  N3  UNL     1      -4.707  -1.055   0.696  1.00  0.00    -0.353 N 
ATOM     20  H3  UNL     1      -5.297  -1.326  -0.091  1.00  0.00     0.162 HD
BRANCH  19  21
HETATM   21  C14 UNL     1      -5.331  -0.747   1.978  1.00  0.00     0.184 C 
BRANCH  21  22
HETATM   22  C15 UNL     1      -5.042   0.634   2.401  1.00  0.00     0.200 C 
BRANCH  22  23
HETATM   23  N4  UNL     1      -5.609   1.622   1.889  1.00  0.00    -0.348 NA
BRANCH  23  24
HETATM   24  N5  UNL     1      -5.949   2.563   1.146  1.00  0.00    -0.281 N 
ATOM     25  H52 UNL     1      -5.219   2.364   0.462  1.00  0.00     0.191 HD
ATOM     26  H51 UNL     1      -6.412   3.370   0.728  1.00  0.00     0.191 HD
ENDBRANCH  23  24
ENDBRANCH  22  23
ENDBRANCH  21  22
ENDBRANCH  19  21
ENDBRANCH   1  17
TORSDOF 11
