REMARK  3 active torsions:
REMARK  status: ('A' for Active; 'I' for Inactive)
REMARK       I    between atoms: C1_4  and  N3_6 
REMARK    1  A    between atoms: N3_6  and  C2_8 
REMARK    2  A    between atoms: C2_8  and  N4_9 
REMARK       I    between atoms: N4_9  and  C3_11 
REMARK    3  A    between atoms: C3_11  and  C4_13 
ROOT
HETATM    1  N4  UNL     1       0.291   1.039  -0.116  1.00  0.00    -0.339 N 
ATOM      2  H4  UNL     1       0.890   1.687   0.395  1.00  0.00     0.164 HD
HETATM    3  C3  UNL     1       0.792  -0.210  -0.560  1.00  0.00     0.276 C 
HETATM    4  O1  UNL     1       0.074  -1.017  -1.188  1.00  0.00    -0.265 OA
ENDROOT
BRANCH   1   5
HETATM    5  C2  UNL     1      -1.084   1.378  -0.401  1.00  0.00     0.249 C 
BRANCH   5   6
HETATM    6  N3  UNL     1      -1.936   0.393   0.208  1.00  0.00    -0.349 N 
HETATM    7  C1  UNL     1      -3.337   0.514   0.065  1.00  0.00     0.183 C 
HETATM    8  N1  UNL     1      -3.870   1.673   0.261  1.00  0.00    -0.374 N 
HETATM    9  N2  UNL     1      -4.177  -0.573  -0.280  1.00  0.00    -0.064 NA
ATOM     10  H12 UNL     1      -4.881   1.760   0.158  1.00  0.00     0.158 HD
ATOM     11  H11 UNL     1      -3.265   2.456   0.509  1.00  0.00     0.158 HD
ATOM     12  H3  UNL     1      -1.535  -0.382   0.736  1.00  0.00     0.163 HD
ENDBRANCH   5   6
ENDBRANCH   1   5
BRANCH   3  13
HETATM   13  C4  UNL     1       2.187  -0.543  -0.265  1.00  0.00     0.142 A 
HETATM   14  C5  UNL     1       2.829  -1.732  -0.634  1.00  0.00     0.045 A 
HETATM   15  C6  UNL     1       4.108  -1.588  -0.144  1.00  0.00     0.027 A 
HETATM   16  C7  UNL     1       4.215  -0.368   0.485  1.00  0.00     0.143 A 
HETATM   17  O2  UNL     1       3.049   0.202   0.380  1.00  0.00    -0.317 OA
ENDBRANCH   3  13
TORSDOF 3
