REMARK  4 active torsions:
REMARK  status: ('A' for Active; 'I' for Inactive)
REMARK    1  A    between atoms: C1_2  and  C2_4 
REMARK    2  A    between atoms: C5_7  and  C6_8 
REMARK    3  A    between atoms: C6_8  and  N2_9 
REMARK    4  A    between atoms: N2_9  and  C7_12 
ROOT
HETATM    1  C2  UNL     1      -2.681  -0.598  -0.459  1.00  0.00     0.098 A 
HETATM    2  C3  UNL     1      -1.932  -1.231  -1.459  1.00  0.00     0.037 A 
HETATM    3  C4  UNL     1      -0.629  -1.179  -1.001  1.00  0.00     0.029 A 
HETATM    4  C5  UNL     1      -0.564  -0.556   0.204  1.00  0.00     0.035 A 
HETATM    5  N3  UNL     1      -1.808  -0.211   0.519  1.00  0.00    -0.354 N 
ATOM      6  H3  UNL     1      -2.075   0.276   1.374  1.00  0.00     0.166 HD
ENDROOT
BRANCH   4   7
HETATM    7  C6  UNL     1       0.654  -0.311   1.030  1.00  0.00     0.289 C 
BRANCH   7   8
HETATM    8  N2  UNL     1       1.513   0.654   0.385  1.00  0.00    -0.066 N 
ATOM      9  H22 UNL     1       1.743   0.351  -0.561  1.00  0.00     0.278 HD
ATOM     10  H21 UNL     1       0.996   1.507   0.173  1.00  0.00     0.278 HD
BRANCH   8  11
HETATM   11  C7  UNL     1       2.703   0.959   1.117  1.00  0.00     0.186 A 
HETATM   12  C8  UNL     1       3.845   1.498   0.217  1.00  0.00     0.035 A 
HETATM   13  C9  UNL     1       3.947   0.197   0.992  1.00  0.00     0.035 A 
ENDBRANCH   8  11
ENDBRANCH   7   8
ENDBRANCH   4   7
BRANCH   1  14
HETATM   14  C1  UNL     1      -4.120  -0.393  -0.451  1.00  0.00     0.281 C 
HETATM   15  N1  UNL     1      -4.723   0.268   0.635  1.00  0.00    -0.056 NA
HETATM   16  O1  UNL     1      -4.779  -0.826  -1.439  1.00  0.00    -0.269 OA
ENDBRANCH   1  14
TORSDOF 4
