REMARK  4 active torsions:
REMARK  status: ('A' for Active; 'I' for Inactive)
REMARK    1  A    between atoms: C1_2  and  C2_4 
REMARK    2  A    between atoms: C2_4  and  N2_5 
REMARK    3  A    between atoms: N2_5  and  N3_7 
REMARK       I    between atoms: N3_7  and  C3_9 
REMARK    4  A    between atoms: C3_9  and  C4_11 
ROOT
HETATM    1  N3  UNL     1       0.517  -0.063   1.010  1.00  0.00    -0.266 N 
ATOM      2  H3  UNL     1       0.006  -0.052   1.893  1.00  0.00     0.190 HD
HETATM    3  C3  UNL     1      -0.248  -0.153  -0.165  1.00  0.00     0.270 C 
HETATM    4  O2  UNL     1       0.257  -0.178  -1.331  1.00  0.00    -0.266 OA
ENDROOT
BRANCH   1   5
HETATM    5  N2  UNL     1       1.878   0.011   1.084  1.00  0.00    -0.304 N 
ATOM      6  H2  UNL     1       2.350  -0.163   1.971  1.00  0.00     0.186 HD
BRANCH   5   7
HETATM    7  C2  UNL     1       2.630   0.327  -0.062  1.00  0.00     0.177 C 
BRANCH   7   8
HETATM    8  C1  UNL     1       4.082   0.366   0.302  1.00  0.00     0.271 C 
HETATM    9  N1  UNL     1       5.083   0.667  -0.659  1.00  0.00    -0.057 NA
HETATM   10  O1  UNL     1       4.397   0.125   1.485  1.00  0.00    -0.270 OA
ENDBRANCH   7   8
ENDBRANCH   5   7
ENDBRANCH   1   5
BRANCH   3  11
HETATM   11  C4  UNL     1      -1.710  -0.226  -0.135  1.00  0.00     0.033 A 
HETATM   12  C5  UNL     1      -2.444  -0.766  -1.192  1.00  0.00     0.017 A 
HETATM   13  C6  UNL     1      -3.819  -0.837  -1.174  1.00  0.00     0.001 A 
HETATM   14  C7  UNL     1      -4.513  -0.360  -0.078  1.00  0.00     0.000 A 
HETATM   15  C8  UNL     1      -3.813   0.183   0.987  1.00  0.00     0.001 A 
HETATM   16  C9  UNL     1      -2.414   0.240   0.940  1.00  0.00     0.017 A 
ENDBRANCH   3  11
TORSDOF 4
