REMARK  6 active torsions:
REMARK  status: ('A' for Active; 'I' for Inactive)
REMARK    1  A    between atoms: N1_1  and  C1_4 
REMARK    2  A    between atoms: C2_5  and  C3_6 
REMARK       I    between atoms: C3_6  and  N2_8 
REMARK    3  A    between atoms: N2_8  and  C4_10 
REMARK    4  A    between atoms: C4_10  and  C5_11 
REMARK    5  A    between atoms: C10_16  and  N3_17 
REMARK    6  A    between atoms: N3_17  and  C11_19 
ROOT
HETATM    1  C5  UNL     1      -0.778  -0.273   0.098  1.00  0.00    -0.014 A 
HETATM    2  C6  UNL     1      -0.303   0.218   1.282  1.00  0.00     0.011 A 
HETATM    3  C7  UNL     1      -1.199   0.634   2.264  1.00  0.00     0.001 A 
HETATM    4  C8  UNL     1      -2.549   0.557   2.061  1.00  0.00     0.002 A 
HETATM    5  C9  UNL     1      -2.997   0.047   0.833  1.00  0.00     0.030 A 
HETATM    6  C10 UNL     1      -2.160  -0.373  -0.160  1.00  0.00     0.042 A 
ENDROOT
BRANCH   1   7
HETATM    7  C4  UNL     1       0.131  -0.756  -0.955  1.00  0.00     0.164 C 
BRANCH   7   8
HETATM    8  N2  UNL     1       1.514  -0.560  -0.648  1.00  0.00    -0.346 N 
HETATM    9  C3  UNL     1       2.120   0.724  -0.589  1.00  0.00     0.298 C 
HETATM   10  O1  UNL     1       1.405   1.731  -0.823  1.00  0.00    -0.258 OA
ATOM     11  H2  UNL     1       2.092  -1.380  -0.463  1.00  0.00     0.163 HD
BRANCH   9  12
HETATM   12  C2  UNL     1       3.514   0.827  -0.266  1.00  0.00     0.017 C 
HETATM   13  C1  UNL     1       4.704   0.897   0.001  1.00  0.00     0.013 C 
BRANCH  13  14
HETATM   14  N1  UNL     1       6.072   0.988   0.285  1.00  0.00    -0.359 N 
ATOM     15  H12 UNL     1       5.443   1.237  -0.478  1.00  0.00     0.166 HD
ATOM     16  H11 UNL     1       7.066   1.046   0.508  1.00  0.00     0.166 HD
ENDBRANCH  13  14
ENDBRANCH   9  12
ENDBRANCH   7   8
ENDBRANCH   1   7
BRANCH   6  17
HETATM   17  N3  UNL     1      -2.558  -0.893  -1.406  1.00  0.00    -0.334 N 
ATOM     18  H3  UNL     1      -1.822  -1.173  -2.054  1.00  0.00     0.168 HD
BRANCH  17  19
HETATM   19  C11 UNL     1      -3.886  -1.057  -1.829  1.00  0.00     0.353 C 
HETATM   20  O2  UNL     1      -4.933  -0.792  -1.227  1.00  0.00    -0.283 OA
ENDBRANCH  17  19
ENDBRANCH   6  17
TORSDOF 6
