REMARK  3 active torsions:
REMARK  status: ('A' for Active; 'I' for Inactive)
REMARK    1  A    between atoms: C2_2  and  N1_3 
REMARK       I    between atoms: N1_3  and  C3_5 
REMARK       I    between atoms: C3_5  and  N3_9 
REMARK    2  A    between atoms: N3_9  and  C4_11 
REMARK    3  A    between atoms: C7_14  and  C8_15 
ROOT
HETATM    1  N1  UNL     1      -3.140  -0.547   0.600  1.00  0.00    -0.227 N 
ATOM      2  H1  UNL     1      -3.816  -1.034   1.189  1.00  0.00     0.177 HD
HETATM    3  C3  UNL     1      -2.056  -1.243   0.010  1.00  0.00     0.672 C 
HETATM    4  N2  UNL     1      -2.096  -1.677  -1.194  1.00  0.00    -0.235 N 
ATOM      5  H21 UNL     1      -1.316  -2.178  -1.619  1.00  0.00     0.174 HD
ATOM      6  H22 UNL     1      -2.933  -1.515  -1.753  1.00  0.00     0.174 HD
HETATM    7  N3  UNL     1      -0.900  -1.467   0.782  1.00  0.00    -0.193 N 
ATOM      8  H3  UNL     1      -0.943  -2.086   1.592  1.00  0.00     0.184 HD
ENDROOT
BRANCH   7   9
HETATM    9  C4  UNL     1       0.325  -0.837   0.441  1.00  0.00     0.049 A 
HETATM   10  C5  UNL     1       1.441  -1.117   1.238  1.00  0.00     0.031 A 
HETATM   11  C6  UNL     1       2.633  -0.530   0.936  1.00  0.00     0.019 A 
HETATM   12  C7  UNL     1       2.787   0.336  -0.132  1.00  0.00     0.029 A 
HETATM   13  C9  UNL     1       1.673   0.593  -0.898  1.00  0.00     0.019 A 
HETATM   14  C10 UNL     1       0.436   0.018  -0.628  1.00  0.00     0.031 A 
BRANCH  12  15
HETATM   15  C8  UNL     1       4.066   0.951  -0.440  1.00  0.00     0.264 C 
HETATM   16  N4  UNL     1       5.225   0.673   0.309  1.00  0.00    -0.057 NA
HETATM   17  O1  UNL     1       4.118   1.750  -1.405  1.00  0.00    -0.271 OA
ENDBRANCH  12  15
ENDBRANCH   7   9
BRANCH   1  18
HETATM   18  C2  UNL     1      -3.264   0.874   0.345  1.00  0.00     0.133 C 
HETATM   19  C1  UNL     1      -3.622   1.042  -1.119  1.00  0.00     0.027 C 
ENDBRANCH   1  18
TORSDOF 3
