REMARK  3 active torsions:
REMARK  status: ('A' for Active; 'I' for Inactive)
REMARK    1  A    between atoms: C2_2  and  C3_3 
REMARK    2  A    between atoms: C4_6  and  C5_7 
REMARK    3  A    between atoms: C9_13  and  N3_14 
REMARK       I    between atoms: N3_14  and  C10_16 
ROOT
HETATM    1  C3  UNL     1       0.039  -1.258   0.300  1.00  0.00     0.059 A 
HETATM    2  N1  UNL     1       1.399  -1.118   0.252  1.00  0.00    -0.350 N 
ATOM      3  H1  UNL     1       1.998  -1.935   0.373  1.00  0.00     0.166 HD
HETATM    4  C4  UNL     1       1.952   0.097   0.045  1.00  0.00     0.104 A 
HETATM    5  C6  UNL     1       1.169   1.207  -0.121  1.00  0.00    -0.028 A 
HETATM    6  C7  UNL     1       1.763   2.534  -0.348  1.00  0.00     0.050 C 
HETATM    7  C8  UNL     1      -0.194   1.038  -0.067  1.00  0.00     0.041 A 
HETATM    8  C9  UNL     1      -0.793  -0.189   0.144  1.00  0.00     0.062 A 
ENDROOT
BRANCH   8   9
HETATM    9  N3  UNL     1      -2.192  -0.325   0.254  1.00  0.00    -0.329 N 
HETATM   10  C10 UNL     1      -3.062   0.807  -0.001  1.00  0.00     0.186 C 
HETATM   11  N4  UNL     1      -3.170   1.740   0.880  1.00  0.00    -0.373 N 
HETATM   12  N5  UNL     1      -3.784   0.878  -1.213  1.00  0.00    -0.064 NA
ATOM     13  H42 UNL     1      -2.649   1.689   1.755  1.00  0.00     0.158 HD
ATOM     14  H41 UNL     1      -3.782   2.536   0.701  1.00  0.00     0.158 HD
ATOM     15  H3  UNL     1      -2.595  -1.225   0.515  1.00  0.00     0.168 HD
ENDBRANCH   8   9
BRANCH   1  16
HETATM   16  C2  UNL     1      -0.383  -2.631   0.530  1.00  0.00     0.021 C 
HETATM   17  C1  UNL     1      -1.288  -3.186  -0.219  1.00  0.00     0.013 C 
ENDBRANCH   1  16
BRANCH   4  18
HETATM   18  C5  UNL     1       3.411   0.150   0.009  1.00  0.00     0.281 C 
HETATM   19  N2  UNL     1       4.190  -1.021   0.184  1.00  0.00    -0.056 NA
HETATM   20  O1  UNL     1       3.988   1.233  -0.178  1.00  0.00    -0.269 OA
ENDBRANCH   4  18
TORSDOF 3
