REMARK  6 active torsions:
REMARK  status: ('A' for Active; 'I' for Inactive)
REMARK    1  A    between atoms: C2_2  and  C4_4 
REMARK    2  A    between atoms: C4_4  and  N1_5 
REMARK    3  A    between atoms: C4_4  and  C5_9 
REMARK    4  A    between atoms: N1_5  and  N2_6 
REMARK    5  A    between atoms: C6_12  and  C7_13 
REMARK    6  A    between atoms: N4_14  and  N5_16 
ROOT
HETATM    1  C5  UNL     1       0.035   0.234   0.154  1.00  0.00     0.073 A 
HETATM    2  N3  UNL     1       1.069  -0.453   0.506  1.00  0.00    -0.351 N 
ATOM      3  H3  UNL     1       0.948  -1.242   1.142  1.00  0.00     0.166 HD
HETATM    4  C6  UNL     1       2.272  -0.164   0.068  1.00  0.00     0.056 A 
HETATM    5  C8  UNL     1       2.377   0.901  -0.779  1.00  0.00     0.082 A 
HETATM    6  S1  UNL     1       0.712   1.405  -0.877  1.00  0.00    -0.085 SA
ENDROOT
BRANCH   1   7
HETATM    7  C4  UNL     1      -1.416   0.156   0.472  1.00  0.00     0.159 C 
BRANCH   7   8
HETATM    8  C2  UNL     1      -2.153  -0.368  -0.743  1.00  0.00     0.005 C 
HETATM    9  C1  UNL     1      -1.637  -1.734  -1.150  1.00  0.00     0.011 C 
HETATM   10  C3  UNL     1      -3.626  -0.448  -0.404  1.00  0.00     0.011 C 
ENDBRANCH   7   8
BRANCH   7  11
HETATM   11  N1  UNL     1      -1.981   1.453   0.774  1.00  0.00    -0.136 NA
BRANCH  11  12
HETATM   12  N2  UNL     1      -1.400   2.057   1.869  1.00  0.00    -0.348 N 
ATOM     13  H22 UNL     1      -0.648   1.620   2.402  1.00  0.00     0.172 HD
ATOM     14  H21 UNL     1      -1.798   2.972   2.082  1.00  0.00     0.172 HD
ENDBRANCH  11  12
ENDBRANCH   7  11
ENDBRANCH   1   7
BRANCH   4  15
HETATM   15  C7  UNL     1       3.432  -0.972   0.492  1.00  0.00     0.136 C 
HETATM   16  N4  UNL     1       4.638  -0.797   0.142  1.00  0.00    -0.316 N 
ATOM     17  H4  UNL     1       5.302  -1.461   0.541  1.00  0.00     0.185 HD
BRANCH  16  18
HETATM   18  N5  UNL     1       5.193   0.147  -0.691  1.00  0.00    -0.345 N 
ATOM     19  H52 UNL     1       4.513   0.801  -1.079  1.00  0.00     0.176 HD
ATOM     20  H51 UNL     1       6.163   0.288  -0.973  1.00  0.00     0.176 HD
ENDBRANCH  16  18
ENDBRANCH   4  15
TORSDOF 6
