REMARK  5 active torsions:
REMARK  status: ('A' for Active; 'I' for Inactive)
REMARK    1  A    between atoms: C2_2  and  C3_3 
REMARK    2  A    between atoms: C3_3  and  N1_4 
REMARK       I    between atoms: N1_4  and  C4_6 
REMARK       I    between atoms: C4_6  and  N2_8 
REMARK    3  A    between atoms: N2_8  and  C5_10 
REMARK    4  A    between atoms: C5_10  and  N3_11 
REMARK    5  A    between atoms: N3_11  and  C6_13 
ROOT
HETATM    1  C5  UNL     1      -0.831  -1.582  -0.044  1.00  0.00     0.249 C 
ENDROOT
BRANCH   1   2
HETATM    2  N2  UNL     1       0.390  -2.028   0.585  1.00  0.00    -0.327 N 
HETATM    3  C4  UNL     1       1.596  -1.323   0.255  1.00  0.00     0.317 C 
HETATM    4  N1  UNL     1       2.797  -1.748   0.862  1.00  0.00    -0.340 N 
HETATM    5  O1  UNL     1       1.583  -0.354  -0.550  1.00  0.00    -0.247 OA
ATOM      6  H1  UNL     1       2.794  -2.534   1.512  1.00  0.00     0.164 HD
ATOM      7  H2  UNL     1       0.395  -2.812   1.237  1.00  0.00     0.165 HD
BRANCH   4   8
HETATM    8  C3  UNL     1       4.025  -1.064   0.557  1.00  0.00     0.150 C 
BRANCH   8   9
HETATM    9  C2  UNL     1       3.978   0.373   0.921  1.00  0.00    -0.018 C 
HETATM   10  C1  UNL     1       4.150   1.283  -0.009  1.00  0.00     0.008 C 
ENDBRANCH   8   9
ENDBRANCH   4   8
ENDBRANCH   1   2
BRANCH   1  11
HETATM   11  N3  UNL     1      -1.078  -0.225   0.307  1.00  0.00    -0.360 N 
ATOM     12  H3  UNL     1      -0.416   0.252   0.919  1.00  0.00     0.162 HD
BRANCH  11  13
HETATM   13  C6  UNL     1      -2.219   0.496  -0.166  1.00  0.00     0.105 A 
HETATM   14  C7  UNL     1      -2.420   1.805   0.198  1.00  0.00     0.103 A 
HETATM   15  C8  UNL     1      -3.515   2.547  -0.237  1.00  0.00     0.176 A 
HETATM   16  O2  UNL     1      -3.685   3.751   0.108  1.00  0.00    -0.288 OA
HETATM   17  C9  UNL     1      -4.408   1.883  -1.072  1.00  0.00     0.072 A 
HETATM   18  C10 UNL     1      -4.187   0.565  -1.426  1.00  0.00     0.093 A 
HETATM   19  N4  UNL     1      -3.104  -0.091  -0.967  1.00  0.00    -0.352 N 
ATOM     20  H4  UNL     1      -2.959  -1.063  -1.241  1.00  0.00     0.166 HD
ENDBRANCH  11  13
ENDBRANCH   1  11
TORSDOF 5
