REMARK  6 active torsions:
REMARK  status: ('A' for Active; 'I' for Inactive)
REMARK    1  A    between atoms: N3_4  and  C2_6 
REMARK    2  A    between atoms: C2_6  and  C3_7 
REMARK    3  A    between atoms: C5_9  and  O1_10 
REMARK    4  A    between atoms: O1_10  and  C6_11 
REMARK    5  A    between atoms: C6_11  and  C7_12 
REMARK    6  A    between atoms: C9_16  and  O2_17 
ROOT
HETATM    1  O1  UNL     1       0.460  -0.733   0.527  1.00  0.00    -0.381 OA
ENDROOT
BRANCH   1   2
HETATM    2  C5  UNL     1       0.255   0.364  -0.273  1.00  0.00     0.128 A 
HETATM    3  C3  UNL     1      -1.240   0.770  -0.507  1.00  0.00     0.035 A 
HETATM    4  C4  UNL     1      -0.487   0.104  -1.571  1.00  0.00     0.041 A 
BRANCH   3   5
HETATM    5  C2  UNL     1      -2.203   0.053   0.380  1.00  0.00     0.129 C 
BRANCH   5   6
HETATM    6  N3  UNL     1      -3.287  -0.566  -0.316  1.00  0.00    -0.366 N 
HETATM    7  C1  UNL     1      -4.481  -0.061  -0.330  1.00  0.00     0.196 C 
HETATM    8  N1  UNL     1      -5.566  -0.640  -1.001  1.00  0.00    -0.067 NA
HETATM    9  N2  UNL     1      -4.696   1.152   0.378  1.00  0.00    -0.067 NA
ATOM     10  H3  UNL     1      -3.115  -1.436  -0.820  1.00  0.00     0.161 HD
ENDBRANCH   5   6
ENDBRANCH   3   5
ENDBRANCH   1   2
BRANCH   1  11
HETATM   11  C6  UNL     1       1.525  -0.669   1.381  1.00  0.00     0.208 C 
BRANCH  11  12
HETATM   12  C7  UNL     1       2.832  -0.511   0.716  1.00  0.00    -0.015 A 
HETATM   13  C8  UNL     1       3.094  -0.730  -0.610  1.00  0.00     0.099 A 
HETATM   14  N4  UNL     1       4.410  -0.479  -0.864  1.00  0.00    -0.346 N 
HETATM   15  C9  UNL     1       4.963  -0.106   0.297  1.00  0.00     0.140 A 
ATOM     16  H4  UNL     1       4.882  -0.560  -1.765  1.00  0.00     0.167 HD
HETATM   17  C10 UNL     1       4.008  -0.117   1.292  1.00  0.00     0.066 A 
BRANCH  15  18
HETATM   18  O2  UNL     1       6.317   0.243   0.463  1.00  0.00    -0.346 OA
ATOM     19  H2  UNL     1       6.709   0.508   1.287  1.00  0.00     0.219 HD
ENDBRANCH  15  18
ENDBRANCH  11  12
ENDBRANCH   1  11
TORSDOF 6
