REMARK  7 active torsions:
REMARK  status: ('A' for Active; 'I' for Inactive)
REMARK    1  A    between atoms: C4_4  and  C5_5 
REMARK    2  A    between atoms: C5_5  and  N1_6 
REMARK    3  A    between atoms: N1_6  and  C6_8 
REMARK    4  A    between atoms: C6_8  and  C7_9 
REMARK    5  A    between atoms: C7_9  and  S1_10 
REMARK    6  A    between atoms: S1_10  and  C8_11 
REMARK    7  A    between atoms: C10_13  and  N2_14 
ROOT
HETATM    1  C1  UNL     1       5.091   0.969   0.842  1.00  0.00     0.102 C 
HETATM    2  C2  UNL     1       4.495  -0.085   0.663  1.00  0.00    -0.160 C 
HETATM    3  C3  UNL     1       3.791  -1.320   0.481  1.00  0.00     0.051 C 
HETATM    4  C4  UNL     1       2.818  -1.458  -0.398  1.00  0.00     0.025 C 
ENDROOT
BRANCH   4   5
HETATM    5  C5  UNL     1       2.427  -0.327  -1.225  1.00  0.00     0.088 C 
BRANCH   5   6
HETATM    6  N1  UNL     1       1.110   0.149  -1.198  1.00  0.00    -0.378 N 
ATOM      7  H1  UNL     1       0.523   0.030  -2.024  1.00  0.00     0.164 HD
BRANCH   6   8
HETATM    8  C6  UNL     1       0.577   0.781  -0.073  1.00  0.00     0.071 C 
BRANCH   8   9
HETATM    9  C7  UNL     1       0.268  -0.043   1.127  1.00  0.00     0.125 C 
BRANCH   9  10
HETATM   10  S1  UNL     1      -0.990  -1.322   0.718  1.00  0.00    -0.106 SA
BRANCH  10  11
HETATM   11  C8  UNL     1      -2.542  -0.494   0.293  1.00  0.00     0.088 A 
HETATM   12  C9  UNL     1      -2.899  -0.111  -0.997  1.00  0.00     0.087 A 
HETATM   13  C10 UNL     1      -4.134   0.485  -0.878  1.00  0.00     0.116 A 
HETATM   14  N3  UNL     1      -4.510   0.467   0.410  1.00  0.00    -0.285 N 
HETATM   15  N4  UNL     1      -3.539  -0.124   1.086  1.00  0.00    -0.293 N 
ATOM     16  H3  UNL     1      -5.379   0.838   0.794  1.00  0.00     0.188 HD
ATOM     17  H4  UNL     1      -3.555  -0.277   2.094  1.00  0.00     0.187 HD
BRANCH  13  18
HETATM   18  N2  UNL     1      -4.816   0.977  -1.841  1.00  0.00    -0.384 N 
ATOM     19  H22 UNL     1      -4.530   0.991  -2.820  1.00  0.00     0.157 HD
ATOM     20  H21 UNL     1      -5.731   1.419  -1.753  1.00  0.00     0.157 HD
ENDBRANCH  13  18
ENDBRANCH  10  11
ENDBRANCH   9  10
ENDBRANCH   8   9
ENDBRANCH   6   8
ENDBRANCH   5   6
ENDBRANCH   4   5
TORSDOF 7
