REMARK  5 active torsions:
REMARK  status: ('A' for Active; 'I' for Inactive)
REMARK       I    between atoms: C1_4  and  N3_6 
REMARK    1  A    between atoms: N3_6  and  C2_8 
REMARK    2  A    between atoms: C2_8  and  C3_9 
REMARK    3  A    between atoms: C3_9  and  N4_10 
REMARK    4  A    between atoms: N4_10  and  C4_13 
REMARK    5  A    between atoms: C4_13  and  C5_14 
ROOT
HETATM    1  N4  UNL     1       0.251  -0.235   1.283  1.00  0.00    -0.073 N 
ATOM      2  H41 UNL     1      -0.219   0.471   1.850  1.00  0.00     0.277 HD
ATOM      3  H42 UNL     1       0.683  -0.787   2.025  1.00  0.00     0.277 HD
ENDROOT
BRANCH   1   4
HETATM    4  C3  UNL     1       1.243   0.361   0.454  1.00  0.00     0.251 C 
BRANCH   4   5
HETATM    5  C2  UNL     1       2.195  -0.745  -0.005  1.00  0.00     0.150 C 
BRANCH   5   6
HETATM    6  N3  UNL     1       3.251  -0.297  -0.850  1.00  0.00    -0.363 N 
HETATM    7  C1  UNL     1       4.328   0.516  -0.411  1.00  0.00     0.181 C 
HETATM    8  N1  UNL     1       4.239   1.497   0.382  1.00  0.00    -0.374 N 
HETATM    9  N2  UNL     1       5.662   0.221  -0.909  1.00  0.00    -0.064 NA
ATOM     10  H12 UNL     1       5.013   2.081   0.698  1.00  0.00     0.158 HD
ATOM     11  H11 UNL     1       3.303   1.704   0.731  1.00  0.00     0.158 HD
ATOM     12  H3  UNL     1       3.232  -0.578  -1.830  1.00  0.00     0.162 HD
ENDBRANCH   5   6
ENDBRANCH   4   5
ENDBRANCH   1   4
BRANCH   1  13
HETATM   13  C4  UNL     1      -0.694  -1.013   0.560  1.00  0.00     0.239 C 
BRANCH  13  14
HETATM   14  C5  UNL     1      -1.642  -0.108  -0.211  1.00  0.00     0.035 C 
HETATM   15  C6  UNL     1      -2.378   0.803   0.775  1.00  0.00     0.010 C 
HETATM   16  C7  UNL     1      -3.724   1.117   0.190  1.00  0.00     0.027 C 
HETATM   17  C8  UNL     1      -4.503  -0.141   0.001  1.00  0.00     0.167 C 
HETATM   18  O1  UNL     1      -3.767  -1.217  -0.401  1.00  0.00    -0.391 OA
HETATM   19  C9  UNL     1      -2.601  -0.877  -1.075  1.00  0.00     0.173 C 
ENDBRANCH  13  14
ENDBRANCH   1  13
TORSDOF 5
