REMARK  7 active torsions:
REMARK  status: ('A' for Active; 'I' for Inactive)
REMARK       I    between atoms: C1_4  and  N3_6 
REMARK    1  A    between atoms: N3_6  and  C2_8 
REMARK    2  A    between atoms: C2_8  and  C3_9 
REMARK    3  A    between atoms: C3_9  and  N4_10 
REMARK    4  A    between atoms: N4_10  and  C4_12 
REMARK    5  A    between atoms: C4_12  and  C5_13 
REMARK    6  A    between atoms: C8_16  and  O1_17 
REMARK    7  A    between atoms: O1_17  and  O2_18 
ROOT
HETATM    1  N4  UNL     1      -0.081  -0.528   1.187  1.00  0.00    -0.377 N 
ATOM      2  H4  UNL     1      -0.774  -0.052   1.765  1.00  0.00     0.164 HD
ENDROOT
BRANCH   1   3
HETATM    3  C3  UNL     1       1.099  -0.966   1.783  1.00  0.00     0.080 C 
BRANCH   3   4
HETATM    4  C2  UNL     1       2.342  -0.291   1.352  1.00  0.00     0.166 C 
BRANCH   4   5
HETATM    5  N3  UNL     1       2.710  -0.503  -0.029  1.00  0.00    -0.360 N 
HETATM    6  C1  UNL     1       3.838   0.210  -0.576  1.00  0.00     0.182 C 
HETATM    7  N1  UNL     1       4.070   0.055  -1.828  1.00  0.00    -0.374 N 
HETATM    8  N2  UNL     1       4.638   1.035   0.241  1.00  0.00    -0.064 NA
ATOM      9  H12 UNL     1       4.868   0.559  -2.215  1.00  0.00     0.158 HD
ATOM     10  H11 UNL     1       3.491  -0.542  -2.419  1.00  0.00     0.158 HD
ATOM     11  H3  UNL     1       2.178  -1.150  -0.611  1.00  0.00     0.162 HD
ENDBRANCH   4   5
ENDBRANCH   3   4
ENDBRANCH   1   3
BRANCH   1  12
HETATM   12  C4  UNL     1      -0.355  -0.715  -0.178  1.00  0.00     0.098 C 
BRANCH  12  13
HETATM   13  C5  UNL     1      -1.773  -0.227  -0.445  1.00  0.00    -0.021 A 
HETATM   14  C6  UNL     1      -2.091   0.338  -1.661  1.00  0.00     0.015 A 
HETATM   15  C7  UNL     1      -3.394   0.765  -1.870  1.00  0.00     0.041 A 
HETATM   16  C8  UNL     1      -4.374   0.639  -0.896  1.00  0.00     0.106 A 
HETATM   17  C9  UNL     1      -4.048   0.072   0.320  1.00  0.00     0.041 A 
HETATM   18  C10 UNL     1      -2.740  -0.356   0.530  1.00  0.00     0.015 A 
BRANCH  16  19
HETATM   19  O1  UNL     1      -5.681   1.055  -1.074  1.00  0.00    -0.200 OA
BRANCH  19  20
HETATM   20  O2  UNL     1      -5.996   2.321  -0.728  1.00  0.00    -0.245 OA
ATOM     21  H2  UNL     1      -6.894   2.607  -0.850  1.00  0.00     0.254 HD
ENDBRANCH  19  20
ENDBRANCH  16  19
ENDBRANCH  12  13
ENDBRANCH   1  12
TORSDOF 7
