REMARK  4 active torsions:
REMARK  status: ('A' for Active; 'I' for Inactive)
REMARK    1  A    between atoms: C3_4  and  C4_5 
REMARK    2  A    between atoms: N2_6  and  C5_8 
REMARK    3  A    between atoms: C5_8  and  N3_9 
REMARK    4  A    between atoms: N3_9  and  C6_11 
ROOT
HETATM    1  N1  UNL     1      -4.064   1.801  -0.883  1.00  0.00    -0.083 NA
HETATM    2  C1  UNL     1      -2.937   0.973  -0.599  1.00  0.00     0.118 A 
HETATM    3  C2  UNL     1      -1.618   1.344  -0.675  1.00  0.00     0.061 A 
HETATM    4  C3  UNL     1      -0.886   0.233  -0.317  1.00  0.00     0.023 A 
HETATM    5  C7  UNL     1      -1.790  -0.791  -0.030  1.00  0.00     0.129 A 
HETATM    6  N4  UNL     1      -1.380  -2.096   0.378  1.00  0.00    -0.082 NA
HETATM    7  N5  UNL     1      -3.011  -0.302  -0.213  1.00  0.00    -0.333 N 
ATOM      8  H5  UNL     1      -3.877  -0.824  -0.078  1.00  0.00     0.168 HD
ENDROOT
BRANCH   4   9
HETATM    9  C4  UNL     1       0.567   0.158  -0.253  1.00  0.00     0.099 C 
HETATM   10  N2  UNL     1       1.182  -0.935   0.096  1.00  0.00    -0.382 N 
ATOM     11  H2  UNL     1       0.639  -1.765   0.333  1.00  0.00     0.160 HD
BRANCH  10  12
HETATM   12  C5  UNL     1       2.628  -0.986   0.152  1.00  0.00     0.245 C 
BRANCH  12  13
HETATM   13  N3  UNL     1       3.181   0.189   0.797  1.00  0.00    -0.352 N 
ATOM     14  H3  UNL     1       2.561   0.921   1.144  1.00  0.00     0.163 HD
BRANCH  13  15
HETATM   15  C6  UNL     1       4.583   0.319   0.944  1.00  0.00     0.349 C 
HETATM   16  O1  UNL     1       5.398  -0.545   0.540  1.00  0.00    -0.284 OA
ENDBRANCH  13  15
ENDBRANCH  12  13
ENDBRANCH  10  12
ENDBRANCH   4   9
TORSDOF 4
