REMARK  5 active torsions:
REMARK  status: ('A' for Active; 'I' for Inactive)
REMARK    1  A    between atoms: C2_2  and  C3_3 
REMARK    2  A    between atoms: C3_3  and  N1_4 
REMARK    3  A    between atoms: N1_4  and  C4_7 
REMARK    4  A    between atoms: C6_9  and  N2_10 
REMARK    5  A    between atoms: C8_15  and  C9_16 
ROOT
HETATM    1  C4  UNL     1      -0.057  -0.411   0.752  1.00  0.00     0.201 C 
HETATM    2  C5  UNL     1      -0.430  -1.705   0.034  1.00  0.00     0.066 C 
HETATM    3  C6  UNL     1      -1.357  -1.273  -1.122  1.00  0.00     0.186 C 
HETATM    4  C7  UNL     1      -1.278   0.264  -1.100  1.00  0.00     0.048 C 
HETATM    5  C8  UNL     1      -1.239   0.444   0.409  1.00  0.00     0.107 C 
ENDROOT
BRANCH   1   6
HETATM    6  N1  UNL     1       1.193   0.091   0.298  1.00  0.00    -0.067 N 
ATOM      7  H12 UNL     1       1.344   1.041   0.637  1.00  0.00     0.277 HD
ATOM      8  H11 UNL     1       1.166   0.271  -0.706  1.00  0.00     0.277 HD
BRANCH   6   9
HETATM    9  C3  UNL     1       2.293  -0.739   0.628  1.00  0.00     0.259 C 
BRANCH   9  10
HETATM   10  C2  UNL     1       3.605  -0.292   0.122  1.00  0.00    -0.010 C 
HETATM   11  C1  UNL     1       3.752   0.804  -0.596  1.00  0.00     0.008 C 
ENDBRANCH   9  10
ENDBRANCH   6   9
ENDBRANCH   1   6
BRANCH   5  12
HETATM   12  C9  UNL     1      -1.236   1.804   0.882  1.00  0.00     0.237 C 
HETATM   13  N3  UNL     1      -2.252   2.699   0.476  1.00  0.00    -0.062 NA
HETATM   14  O1  UNL     1      -0.346   2.223   1.655  1.00  0.00    -0.276 OA
ENDBRANCH   5  12
BRANCH   3  15
HETATM   15  N2  UNL     1      -2.734  -1.645  -0.817  1.00  0.00    -0.075 N 
ATOM     16  H23 UNL     1      -2.825  -2.638  -0.604  1.00  0.00     0.274 HD
ATOM     17  H22 UNL     1      -3.042  -1.272   0.081  1.00  0.00     0.274 HD
ATOM     18  H21 UNL     1      -3.347  -1.360  -1.581  1.00  0.00     0.274 HD
ENDBRANCH   3  15
TORSDOF 5
