REMARK  5 active torsions:
REMARK  status: ('A' for Active; 'I' for Inactive)
REMARK    1  A    between atoms: C2_2  and  O2_4 
REMARK    2  A    between atoms: O2_4  and  N1_5 
REMARK    3  A    between atoms: N1_5  and  C3_7 
REMARK    4  A    between atoms: C3_7  and  C4_11 
REMARK    5  A    between atoms: C7_14  and  C8_15 
ROOT
HETATM    1  C4  UNL     1      -0.157  -0.329  -0.139  1.00  0.00     0.009 A 
HETATM    2  C5  UNL     1      -0.645   0.970  -0.199  1.00  0.00     0.016 A 
HETATM    3  C6  UNL     1      -1.993   1.288  -0.123  1.00  0.00     0.016 A 
HETATM    4  C7  UNL     1      -2.899   0.267   0.018  1.00  0.00     0.004 A 
HETATM    5  C9  UNL     1      -2.432  -1.060   0.081  1.00  0.00     0.016 A 
HETATM    6  C10 UNL     1      -1.088  -1.331   0.002  1.00  0.00     0.016 A 
ENDROOT
BRANCH   1   7
HETATM    7  C3  UNL     1       1.273  -0.539  -0.228  1.00  0.00     0.129 C 
HETATM    8  N2  UNL     1       1.742  -1.718  -0.176  1.00  0.00    -0.383 N 
ATOM      9  H22 UNL     1       2.749  -1.866  -0.239  1.00  0.00     0.157 HD
ATOM     10  H21 UNL     1       1.100  -2.503  -0.071  1.00  0.00     0.157 HD
BRANCH   7  11
HETATM   11  N1  UNL     1       2.166   0.553  -0.374  1.00  0.00    -0.241 N 
ATOM     12  H1  UNL     1       1.913   1.333  -0.981  1.00  0.00     0.196 HD
BRANCH  11  13
HETATM   13  O2  UNL     1       3.372   0.573   0.294  1.00  0.00    -0.198 OA
BRANCH  13  14
HETATM   14  C2  UNL     1       4.535   0.052  -0.234  1.00  0.00     0.277 C 
HETATM   15  C1  UNL     1       5.796   0.105   0.535  1.00  0.00     0.128 C 
HETATM   16  O1  UNL     1       4.526  -0.468  -1.367  1.00  0.00    -0.264 OA
ENDBRANCH  13  14
ENDBRANCH  11  13
ENDBRANCH   7  11
ENDBRANCH   1   7
BRANCH   4  17
HETATM   17  C8  UNL     1      -4.303   0.552   0.100  1.00  0.00     0.120 C 
HETATM   18  N3  UNL     1      -4.778   1.723   0.048  1.00  0.00    -0.387 N 
ATOM     19  H32 UNL     1      -4.126   2.500  -0.056  1.00  0.00     0.157 HD
ATOM     20  H31 UNL     1      -5.776   1.926   0.106  1.00  0.00     0.157 HD
HETATM   21  N4  UNL     1      -5.209  -0.527   0.245  1.00  0.00    -0.082 NA
ENDBRANCH   4  17
TORSDOF 5
