REMARK  2 active torsions:
REMARK  status: ('A' for Active; 'I' for Inactive)
REMARK       I    between atoms: C2_2  and  N1_4 
REMARK    1  A    between atoms: N1_4  and  C3_6 
REMARK    2  A    between atoms: C6_11  and  N3_12 
ROOT
HETATM    1  C3  UNL     1      -0.011  -0.232   0.203  1.00  0.00     0.127 A 
HETATM    2  C4  UNL     1      -1.002   0.307  -0.636  1.00  0.00     0.055 A 
HETATM    3  C5  UNL     1      -0.671   1.404  -1.556  1.00  0.00     0.071 C 
HETATM    4  N2  UNL     1      -2.231  -0.188  -0.582  1.00  0.00    -0.194 N 
ATOM      5  H2  UNL     1      -2.932   0.219  -1.201  1.00  0.00     0.184 HD
HETATM    6  C6  UNL     1      -2.619  -1.180   0.223  1.00  0.00     0.679 A 
HETATM    7  N4  UNL     1      -1.692  -1.711   1.032  1.00  0.00    -0.154 N 
ATOM      8  H4  UNL     1      -1.951  -2.472   1.660  1.00  0.00     0.187 HD
HETATM    9  C7  UNL     1      -0.399  -1.248   1.029  1.00  0.00     0.288 A 
HETATM   10  O2  UNL     1       0.361  -1.813   1.815  1.00  0.00    -0.265 OA
ENDROOT
BRANCH   1  11
HETATM   11  N1  UNL     1       1.268   0.300   0.131  1.00  0.00    -0.321 N 
HETATM   12  C2  UNL     1       2.469   0.040   0.777  1.00  0.00     0.218 C 
HETATM   13  C1  UNL     1       3.688   0.863   0.411  1.00  0.00     0.117 C 
HETATM   14  O1  UNL     1       2.684  -0.797   1.636  1.00  0.00    -0.274 OA
ATOM     15  H1  UNL     1       1.343   1.054  -0.552  1.00  0.00     0.169 HD
ENDBRANCH   1  11
BRANCH   6  16
HETATM   16  N3  UNL     1      -3.809  -1.637   0.254  1.00  0.00    -0.234 N 
ATOM     17  H32 UNL     1      -4.515  -1.233  -0.362  1.00  0.00     0.174 HD
ATOM     18  H31 UNL     1      -4.105  -2.395   0.869  1.00  0.00     0.174 HD
ENDBRANCH   6  16
TORSDOF 2
