REMARK  3 active torsions:
REMARK  status: ('A' for Active; 'I' for Inactive)
REMARK    1  A    between atoms: N1_1  and  C1_5 
REMARK    2  A    between atoms: C1_5  and  C2_6 
REMARK    3  A    between atoms: C4_8  and  C5_9 
ROOT
HETATM    1  C2  UNL     1       1.504  -0.369  -0.388  1.00  0.00    -0.031 A 
HETATM    2  C3  UNL     1       0.919   0.819  -0.037  1.00  0.00     0.027 A 
HETATM    3  C4  UNL     1      -0.431   0.948   0.228  1.00  0.00     0.059 A 
HETATM    4  C6  UNL     1      -1.207  -0.173   0.132  1.00  0.00     0.079 A 
HETATM    5  N3  UNL     1      -2.512  -0.439   0.307  1.00  0.00    -0.296 N 
ATOM      6  H3  UNL     1      -3.209   0.256   0.574  1.00  0.00     0.187 HD
HETATM    7  N4  UNL     1      -2.778  -1.719   0.088  1.00  0.00    -0.265 N 
ATOM      8  H4  UNL     1      -3.702  -2.145   0.164  1.00  0.00     0.190 HD
HETATM    9  C7  UNL     1      -1.654  -2.373  -0.248  1.00  0.00     0.272 A 
HETATM   10  O2  UNL     1      -1.546  -3.593  -0.521  1.00  0.00    -0.266 OA
HETATM   11  C8  UNL     1      -0.668  -1.409  -0.221  1.00  0.00     0.063 A 
HETATM   12  C9  UNL     1       0.685  -1.470  -0.473  1.00  0.00     0.028 A 
ENDROOT
BRANCH   1  13
HETATM   13  C1  UNL     1       2.946  -0.539  -0.679  1.00  0.00     0.268 C 
BRANCH  13  14
HETATM   14  N1  UNL     1       3.681   0.700  -0.548  1.00  0.00    -0.075 N 
ATOM     15  H13 UNL     1       3.272   1.434  -1.126  1.00  0.00     0.274 HD
ATOM     16  H12 UNL     1       3.537   1.118   0.371  1.00  0.00     0.274 HD
ATOM     17  H11 UNL     1       4.674   0.583  -0.748  1.00  0.00     0.274 HD
ENDBRANCH  13  14
ENDBRANCH   1  13
BRANCH   3  18
HETATM   18  C5  UNL     1      -0.977   2.222   0.591  1.00  0.00     0.267 C 
HETATM   19  N2  UNL     1      -2.319   2.431   0.871  1.00  0.00    -0.057 NA
HETATM   20  O1  UNL     1      -0.199   3.236   0.665  1.00  0.00    -0.271 OA
ENDBRANCH   3  18
TORSDOF 3
