REMARK  4 active torsions:
REMARK  status: ('A' for Active; 'I' for Inactive)
REMARK    1  A    between atoms: C2_2  and  N1_4 
REMARK    2  A    between atoms: C2_2  and  C4_8 
REMARK    3  A    between atoms: C4_8  and  C5_9 
REMARK    4  A    between atoms: C8_12  and  C9_13 
ROOT
HETATM    1  C5  UNL     1       0.178  -0.543  -0.545  1.00  0.00     0.189 C 
HETATM    2  C6  UNL     1       1.012  -0.664  -1.826  1.00  0.00     0.035 C 
HETATM    3  C7  UNL     1       2.381  -0.789  -1.227  1.00  0.00     0.044 C 
HETATM    4  C8  UNL     1       2.220  -0.426   0.297  1.00  0.00     0.274 C 
HETATM    5  N3  UNL     1       1.032   0.415   0.140  1.00  0.00    -0.058 N 
ATOM      6  H31 UNL     1       0.655   0.832   0.991  1.00  0.00     0.278 HD
ATOM      7  H32 UNL     1       1.170   1.313  -0.323  1.00  0.00     0.278 HD
ENDROOT
BRANCH   1   8
HETATM    8  C4  UNL     1      -1.178  -0.102  -0.934  1.00  0.00     0.070 C 
BRANCH   8   9
HETATM    9  C2  UNL     1      -2.192  -0.023   0.182  1.00  0.00     0.118 C 
HETATM   10  C1  UNL     1      -3.519   0.295  -0.530  1.00  0.00     0.045 C 
HETATM   11  C3  UNL     1      -1.967   1.129   1.124  1.00  0.00     0.045 C 
BRANCH   9  12
HETATM   12  N1  UNL     1      -2.231  -1.229   0.920  1.00  0.00    -0.071 N 
ATOM     13  H13 UNL     1      -3.006  -1.224   1.583  1.00  0.00     0.275 HD
ATOM     14  H12 UNL     1      -2.521  -2.007   0.328  1.00  0.00     0.275 HD
ATOM     15  H11 UNL     1      -1.352  -1.440   1.392  1.00  0.00     0.275 HD
ENDBRANCH   9  12
ENDBRANCH   8   9
ENDBRANCH   1   8
BRANCH   4  16
HETATM   16  C9  UNL     1       3.461   0.314   0.588  1.00  0.00     0.262 C 
HETATM   17  N2  UNL     1       3.737   0.792   1.931  1.00  0.00    -0.060 NA
HETATM   18  O1  UNL     1       4.296   0.554  -0.261  1.00  0.00    -0.275 OA
ENDBRANCH   4  16
TORSDOF 4
