REMARK  4 active torsions:
REMARK  status: ('A' for Active; 'I' for Inactive)
REMARK    1  A    between atoms: C2_2  and  C3_6 
REMARK    2  A    between atoms: C4_7  and  C5_8 
REMARK       I    between atoms: C5_8  and  N2_10 
REMARK    3  A    between atoms: N2_10  and  N3_12 
REMARK    4  A    between atoms: N3_12  and  C6_14 
ROOT
HETATM    1  C5  UNL     1      -0.447  -1.274   0.314  1.00  0.00     0.259 C 
HETATM    2  O1  UNL     1      -0.774  -2.482   0.404  1.00  0.00    -0.267 OA
HETATM    3  N2  UNL     1      -1.451  -0.278   0.426  1.00  0.00    -0.265 N 
ATOM      4  H2  UNL     1      -1.199   0.708   0.354  1.00  0.00     0.190 HD
ENDROOT
BRANCH   1   5
HETATM    5  C4  UNL     1       0.935  -0.927   0.099  1.00  0.00     0.077 C 
HETATM    6  C3  UNL     1       1.408   0.284  -0.013  1.00  0.00     0.029 C 
BRANCH   6   7
HETATM    7  C2  UNL     1       2.809   0.547  -0.227  1.00  0.00    -0.002 C 
HETATM    8  C1  UNL     1       3.788  -0.575  -0.331  1.00  0.00     0.067 C 
HETATM    9  N1  UNL     1       3.281   1.743  -0.338  1.00  0.00    -0.403 N 
ATOM     10  H12 UNL     1       4.272   1.929  -0.489  1.00  0.00     0.156 HD
ATOM     11  H11 UNL     1       2.612   2.510  -0.267  1.00  0.00     0.156 HD
ENDBRANCH   6   7
ENDBRANCH   1   5
BRANCH   3  12
HETATM   12  N3  UNL     1      -2.801  -0.646   0.637  1.00  0.00    -0.276 N 
ATOM     13  H3  UNL     1      -3.016  -1.526   1.106  1.00  0.00     0.189 HD
BRANCH  12  14
HETATM   14  C6  UNL     1      -3.842   0.180   0.211  1.00  0.00     0.199 C 
HETATM   15  N4  UNL     1      -3.556   1.401  -0.439  1.00  0.00    -0.068 NA
HETATM   16  S1  UNL     1      -5.388  -0.244   0.454  1.00  0.00    -0.043 SA
ENDBRANCH  12  14
ENDBRANCH   3  12
TORSDOF 4
