REMARK  2 active torsions:
REMARK  status: ('A' for Active; 'I' for Inactive)
REMARK       I    between atoms: C1_4  and  N3_6 
REMARK    1  A    between atoms: N3_6  and  C2_8 
REMARK    2  A    between atoms: C7_13  and  C8_14 
ROOT
HETATM    1  C2  UNL     1       0.379  -0.648  -0.420  1.00  0.00     0.096 C 
HETATM    2  C3  UNL     1      -0.186  -1.978   0.028  1.00  0.00     0.026 C 
HETATM    3  C4  UNL     1      -1.695  -1.959  -0.182  1.00  0.00     0.002 C 
HETATM    4  C5  UNL     1      -2.343  -0.829   0.561  1.00  0.00     0.001 C 
HETATM    5  C6  UNL     1      -1.308   0.068   1.231  1.00  0.00     0.015 C 
HETATM    6  C7  UNL     1      -0.260   0.525   0.241  1.00  0.00     0.097 C 
ENDROOT
BRANCH   1   7
HETATM    7  N3  UNL     1       1.815  -0.653  -0.321  1.00  0.00    -0.359 N 
HETATM    8  C1  UNL     1       2.663   0.405  -0.649  1.00  0.00     0.182 C 
HETATM    9  N1  UNL     1       2.601   0.950  -1.797  1.00  0.00    -0.374 N 
HETATM   10  N2  UNL     1       3.594   0.867   0.303  1.00  0.00    -0.064 NA
ATOM     11  H12 UNL     1       3.221   1.724  -2.037  1.00  0.00     0.158 HD
ATOM     12  H11 UNL     1       1.927   0.616  -2.486  1.00  0.00     0.158 HD
ATOM     13  H3  UNL     1       2.253  -1.509   0.020  1.00  0.00     0.162 HD
ENDBRANCH   1   7
BRANCH   6  14
HETATM   14  C8  UNL     1      -0.937   1.405  -0.747  1.00  0.00     0.237 C 
HETATM   15  N4  UNL     1      -1.583   2.563  -0.249  1.00  0.00    -0.062 NA
HETATM   16  O1  UNL     1      -0.939   1.138  -1.973  1.00  0.00    -0.276 OA
ENDBRANCH   6  14
TORSDOF 2
