REMARK  2 active torsions:
REMARK  status: ('A' for Active; 'I' for Inactive)
REMARK    1  A    between atoms: C2_2  and  C3_3 
REMARK       I    between atoms: C3_3  and  N1_5 
REMARK    2  A    between atoms: N1_5  and  N2_7 
REMARK       I    between atoms: N2_7  and  C4_9 
ROOT
HETATM    1  C3  UNL     1       0.093   0.121   0.870  1.00  0.00     0.270 C 
HETATM    2  O1  UNL     1       0.137   0.329   2.114  1.00  0.00    -0.268 OA
HETATM    3  N1  UNL     1       1.265   0.367   0.121  1.00  0.00    -0.265 N 
ATOM      4  H1  UNL     1       1.249   0.201  -0.885  1.00  0.00     0.190 HD
ENDROOT
BRANCH   3   5
HETATM    5  N2  UNL     1       2.429   0.823   0.700  1.00  0.00    -0.271 N 
HETATM    6  C4  UNL     1       3.694   0.225   0.453  1.00  0.00     0.200 C 
HETATM    7  N3  UNL     1       4.232  -0.476   1.415  1.00  0.00    -0.372 N 
HETATM    8  N4  UNL     1       4.358   0.376  -0.796  1.00  0.00    -0.062 NA
ATOM      9  H32 UNL     1       3.756  -0.584   2.311  1.00  0.00     0.158 HD
ATOM     10  H31 UNL     1       5.140  -0.905   1.238  1.00  0.00     0.158 HD
ATOM     11  H2  UNL     1       2.381   1.622   1.332  1.00  0.00     0.189 HD
ENDBRANCH   3   5
BRANCH   1  12
HETATM   12  C2  UNL     1      -1.177  -0.363   0.303  1.00  0.00     0.139 C 
HETATM   13  C1  UNL     1      -1.050  -1.715  -0.377  1.00  0.00     0.056 C 
HETATM   14  C5  UNL     1      -1.674   0.693  -0.658  1.00  0.00     0.050 C 
HETATM   15  C6  UNL     1      -3.053   0.996  -0.098  1.00  0.00     0.030 C 
HETATM   16  C7  UNL     1      -3.325  -0.310   0.641  1.00  0.00     0.169 C 
HETATM   17  O2  UNL     1      -2.109  -0.497   1.302  1.00  0.00    -0.371 OA
ENDBRANCH   1  12
TORSDOF 2
