REMARK  12 active torsions:
REMARK  status: ('A' for Active; 'I' for Inactive)
REMARK    1  A    between atoms: C5_8  and  N3_9 
REMARK    2  A    between atoms: N3_9  and  C6_11 
REMARK    3  A    between atoms: C6_11  and  C7_12 
REMARK    4  A    between atoms: C7_12  and  C8_13 
REMARK    5  A    between atoms: C8_13  and  C9_14 
REMARK    6  A    between atoms: C9_14  and  C10_15 
REMARK    7  A    between atoms: C10_15  and  C11_16 
REMARK    8  A    between atoms: C10_15  and  C12_19 
REMARK    9  A    between atoms: C11_16  and  O1_17 
REMARK   10  A    between atoms: C13_20  and  C14_21 
REMARK   11  A    between atoms: C14_21  and  C15_22 
REMARK   12  A    between atoms: C15_22  and  C16_23 
ROOT
HETATM    1  C8  UNL     1       1.206  -1.510   1.453  1.00  0.00     0.006 C 
ENDROOT
BRANCH   1   2
HETATM    2  C7  UNL     1       2.545  -1.922   0.849  1.00  0.00     0.020 C 
BRANCH   2   3
HETATM    3  C6  UNL     1       2.743  -1.175  -0.421  1.00  0.00     0.121 C 
BRANCH   3   4
HETATM    4  N3  UNL     1       3.983  -1.472  -1.090  1.00  0.00    -0.370 N 
ATOM      5  H3  UNL     1       4.040  -2.264  -1.730  1.00  0.00     0.161 HD
BRANCH   4   6
HETATM    6  C5  UNL     1       5.045  -0.720  -0.876  1.00  0.00     0.145 A 
HETATM    7  N2  UNL     1       6.256  -0.855  -1.408  1.00  0.00    -0.336 N 
HETATM    8  C4  UNL     1       7.187  -0.002  -1.070  1.00  0.00     0.051 A 
ATOM      9  H2  UNL     1       6.454  -1.609  -2.066  1.00  0.00     0.168 HD
HETATM   10  C3  UNL     1       8.518   0.018  -1.523  1.00  0.00     0.033 A 
HETATM   11  C22 UNL     1       6.864   0.986  -0.185  1.00  0.00     0.037 A 
HETATM   12  C2  UNL     1       9.420   0.950  -1.112  1.00  0.00     0.029 A 
HETATM   13  C1  UNL     1       9.084   1.935  -0.225  1.00  0.00     0.047 A 
HETATM   14  N1  UNL     1      10.053   2.881   0.172  1.00  0.00    -0.102 NA
HETATM   15  C23 UNL     1       7.788   1.952   0.244  1.00  0.00     0.048 A 
HETATM   16  S1  UNL     1       5.217   0.647   0.131  1.00  0.00    -0.052 SA
ENDBRANCH   4   6
ENDBRANCH   3   4
ENDBRANCH   2   3
ENDBRANCH   1   2
BRANCH   1  17
HETATM   17  C9  UNL     1       0.045  -1.810   0.542  1.00  0.00     0.036 C 
BRANCH  17  18
HETATM   18  C10 UNL     1      -1.252  -1.395   1.240  1.00  0.00    -0.057 C 
BRANCH  18  19
HETATM   19  C11 UNL     1      -1.273   0.029   1.558  1.00  0.00     0.198 C 
BRANCH  19  20
HETATM   20  O1  UNL     1      -1.130   0.835   0.464  1.00  0.00    -0.397 OA
ATOM     21  H1  UNL     1      -1.144   1.762   0.671  1.00  0.00     0.209 HD
ENDBRANCH  19  20
ENDBRANCH  18  19
BRANCH  18  22
HETATM   22  C12 UNL     1      -2.424  -2.136   0.762  1.00  0.00     0.001 C 
HETATM   23  C13 UNL     1      -2.854  -2.120  -0.620  1.00  0.00    -0.026 C 
BRANCH  23  24
HETATM   24  C14 UNL     1      -3.472  -1.040  -1.375  1.00  0.00     0.027 C 
BRANCH  24  25
HETATM   25  C15 UNL     1      -4.827  -0.586  -1.056  1.00  0.00     0.008 C 
BRANCH  25  26
HETATM   26  C16 UNL     1      -5.290   0.051   0.150  1.00  0.00    -0.014 C 
HETATM   27  C17 UNL     1      -4.788   1.382   0.558  1.00  0.00     0.004 C 
HETATM   28  C18 UNL     1      -5.024   2.402  -0.565  1.00  0.00     0.000 C 
HETATM   29  C19 UNL     1      -6.517   2.631  -0.607  1.00  0.00     0.000 C 
HETATM   30  C20 UNL     1      -7.175   1.308  -0.920  1.00  0.00     0.000 C 
HETATM   31  C21 UNL     1      -6.834   0.216   0.055  1.00  0.00     0.004 C 
ENDBRANCH  25  26
ENDBRANCH  24  25
ENDBRANCH  23  24
ENDBRANCH  18  22
ENDBRANCH  17  18
ENDBRANCH   1  17
TORSDOF 12
