REMARK  13 active torsions:
REMARK  status: ('A' for Active; 'I' for Inactive)
REMARK    1  A    between atoms: C4_5  and  N2_6 
REMARK       I    between atoms: N2_6  and  C5_8 
REMARK    2  A    between atoms: C5_8  and  C6_10 
REMARK    3  A    between atoms: C6_10  and  C7_11 
REMARK    4  A    between atoms: C7_11  and  C8_12 
REMARK    5  A    between atoms: C8_12  and  C9_13 
REMARK    6  A    between atoms: C9_13  and  N3_14 
REMARK       I    between atoms: N3_14  and  C10_16 
REMARK    7  A    between atoms: C10_16  and  C11_18 
REMARK    8  A    between atoms: N5_27  and  C16_28 
REMARK       I    between atoms: N6_31  and  C19_32 
REMARK    9  A    between atoms: C19_32  and  O4_34 
REMARK   10  A    between atoms: O4_34  and  C20_35 
REMARK   11  A    between atoms: C20_35  and  C21_36 
REMARK   12  A    between atoms: C21_36  and  C22_37 
REMARK   13  A    between atoms: C22_37  and  C23_38 
ROOT
HETATM    1  N1  UNL     1      -1.165   3.983   4.040  1.00  0.00    -0.190 NA
HETATM    2  C1  UNL     1      -1.017   3.270   3.136  1.00  0.00     0.119 C 
HETATM    3  C2  UNL     1      -0.852   2.399   2.019  1.00  0.00     0.132 A 
HETATM    4  C3  UNL     1       0.350   1.788   1.699  1.00  0.00     0.092 A 
HETATM    5  C4  UNL     1       0.092   1.040   0.568  1.00  0.00     0.128 A 
HETATM    6  N5  UNL     1      -1.213   1.191   0.218  1.00  0.00    -0.271 N 
HETATM    7  N7  UNL     1      -1.732   2.001   1.101  1.00  0.00    -0.286 N 
ATOM      8  H7  UNL     1      -2.708   2.298   1.089  1.00  0.00     0.188 HD
ENDROOT
BRANCH   5   9
HETATM    9  N2  UNL     1       0.932   0.309  -0.071  1.00  0.00    -0.312 N 
HETATM   10  C5  UNL     1       2.302   0.159   0.306  1.00  0.00     0.223 C 
HETATM   11  O1  UNL     1       2.933   1.188   0.590  1.00  0.00    -0.273 OA
ATOM     12  H2  UNL     1       0.602  -0.194  -0.895  1.00  0.00     0.170 HD
BRANCH  10  13
HETATM   13  C6  UNL     1       2.950  -1.172   0.358  1.00  0.00     0.103 C 
BRANCH  13  14
HETATM   14  C7  UNL     1       4.428  -0.910   0.814  1.00  0.00     0.011 C 
BRANCH  14  15
HETATM   15  C8  UNL     1       5.156  -2.174   0.894  1.00  0.00     0.020 C 
BRANCH  15  16
HETATM   16  C9  UNL     1       6.547  -2.186   1.353  1.00  0.00     0.123 C 
BRANCH  16  17
HETATM   17  N3  UNL     1       7.538  -1.446   0.651  1.00  0.00    -0.357 N 
HETATM   18  C10 UNL     1       7.720  -0.063   0.599  1.00  0.00     0.255 C 
HETATM   19  O2  UNL     1       6.954   0.681   1.298  1.00  0.00    -0.268 OA
ATOM     20  H3  UNL     1       8.205  -2.000   0.114  1.00  0.00     0.162 HD
BRANCH  18  21
HETATM   21  C11 UNL     1       8.726   0.617  -0.190  1.00  0.00     0.078 A 
HETATM   22  C12 UNL     1       9.269   0.133  -1.322  1.00  0.00     0.066 A 
HETATM   23 CL1  UNL     1       8.737  -1.341  -2.107  1.00  0.00    -0.082 Cl
HETATM   24  C13 UNL     1      10.281   0.877  -1.942  1.00  0.00     0.112 A 
HETATM   25  N4  UNL     1      10.721   2.039  -1.459  1.00  0.00    -0.372 N 
HETATM   26  C14 UNL     1      10.199   2.555  -0.330  1.00  0.00     0.112 A 
ATOM     27  H4  UNL     1      11.460   2.542  -1.949  1.00  0.00     0.164 HD
HETATM   28  C15 UNL     1       9.220   1.846   0.282  1.00  0.00     0.066 A 
HETATM   29 CL2  UNL     1       8.516   2.477   1.746  1.00  0.00    -0.082 Cl
ENDBRANCH  18  21
ENDBRANCH  16  17
ENDBRANCH  15  16
ENDBRANCH  14  15
ENDBRANCH  13  14
ENDBRANCH  10  13
ENDBRANCH   5   9
BRANCH   6  30
HETATM   30  C16 UNL     1      -1.853   0.546  -0.933  1.00  0.00     0.113 C 
HETATM   31  C17 UNL     1      -3.095   1.241  -1.352  1.00  0.00     0.047 C 
HETATM   32  C18 UNL     1      -4.374   0.569  -0.941  1.00  0.00     0.130 C 
HETATM   33  N6  UNL     1      -4.337  -0.855  -1.085  1.00  0.00    -0.328 N 
HETATM   34  C19 UNL     1      -5.434  -1.695  -0.784  1.00  0.00     0.362 C 
HETATM   35  C24 UNL     1      -3.105  -1.448  -1.563  1.00  0.00     0.130 C 
HETATM   36  O3  UNL     1      -5.416  -2.926  -0.903  1.00  0.00    -0.238 OA
HETATM   37  C25 UNL     1      -2.005  -0.935  -0.671  1.00  0.00     0.047 C 
BRANCH  34  38
HETATM   38  O4  UNL     1      -6.624  -1.114  -0.322  1.00  0.00    -0.304 OA
BRANCH  38  39
HETATM   39  C20 UNL     1      -7.756  -1.939  -0.007  1.00  0.00     0.181 C 
BRANCH  39  40
HETATM   40  C21 UNL     1      -8.840  -0.953   0.455  1.00  0.00     0.037 C 
BRANCH  40  41
HETATM   41  C22 UNL     1      -9.156   0.019  -0.645  1.00  0.00     0.115 C 
BRANCH  41  42
HETATM   42  C23 UNL     1     -10.199   0.951  -0.173  1.00  0.00     0.172 C 
HETATM   43  O5  UNL     1     -10.659   0.839   0.984  1.00  0.00    -0.648 OA
HETATM   44  O6  UNL     1     -10.687   1.959  -0.987  1.00  0.00    -0.648 OA
ENDBRANCH  41  42
ENDBRANCH  40  41
ENDBRANCH  39  40
ENDBRANCH  38  39
ENDBRANCH  34  38
ENDBRANCH   6  30
TORSDOF 13
