REMARK  14 active torsions:
REMARK  status: ('A' for Active; 'I' for Inactive)
REMARK    1  A    between atoms: C2_2  and  N1_3 
REMARK    2  A    between atoms: C5_8  and  N3_9 
REMARK    3  A    between atoms: N3_9  and  C6_11 
REMARK    4  A    between atoms: C6_11  and  C7_12 
REMARK    5  A    between atoms: C11_17  and  O1_18 
REMARK    6  A    between atoms: C14_24  and  N5_25 
REMARK    7  A    between atoms: N5_25  and  C15_27 
REMARK    8  A    between atoms: C15_27  and  C16_28 
REMARK    9  A    between atoms: C16_28  and  C17_29 
REMARK   10  A    between atoms: C17_29  and  N6_30 
REMARK   11  A    between atoms: N7_33  and  C20_34 
REMARK   12  A    between atoms: C20_34  and  C21_35 
REMARK   13  A    between atoms: C21_35  and  C22_36 
REMARK   14  A    between atoms: C22_36  and  N8_37 
ROOT
HETATM    1  N1  UNL     1       2.821   3.572  -1.220  1.00  0.00    -0.327 N 
HETATM    2  C3  UNL     1       4.134   3.588  -1.477  1.00  0.00     0.185 A 
HETATM    3  N2  UNL     1       4.672   2.413  -1.122  1.00  0.00    -0.346 N 
ATOM      4  H2  UNL     1       5.658   2.168  -1.215  1.00  0.00     0.167 HD
HETATM    5  C4  UNL     1       3.718   1.606  -0.625  1.00  0.00     0.123 A 
HETATM    6  C5  UNL     1       3.662   0.318  -0.111  1.00  0.00     0.148 A 
HETATM    7  N4  UNL     1       2.506  -0.209   0.318  1.00  0.00    -0.175 N 
ATOM      8  H4  UNL     1       2.484  -1.158   0.692  1.00  0.00     0.186 HD
HETATM    9  C14 UNL     1       1.371   0.519   0.253  1.00  0.00     0.681 A 
HETATM   10  N9  UNL     1       1.426   1.764  -0.246  1.00  0.00    -0.174 N 
ATOM     11  H9  UNL     1       0.558   2.298  -0.289  1.00  0.00     0.186 HD
HETATM   12  C25 UNL     1       2.555   2.358  -0.696  1.00  0.00     0.155 A 
ENDROOT
BRANCH   9  13
HETATM   13  N5  UNL     1       0.256  -0.021   0.683  1.00  0.00    -0.226 N 
ATOM     14  H5  UNL     1       0.288  -0.972   1.051  1.00  0.00     0.177 HD
BRANCH  13  15
HETATM   15  C15 UNL     1      -1.011   0.662   0.661  1.00  0.00     0.140 C 
BRANCH  15  16
HETATM   16  C16 UNL     1      -1.912   0.161   1.804  1.00  0.00     0.050 C 
BRANCH  16  17
HETATM   17  C17 UNL     1      -3.196   0.983   1.640  1.00  0.00     0.274 C 
BRANCH  17  18
HETATM   18  N6  UNL     1      -3.717   0.645   0.320  1.00  0.00     0.091 N 
HETATM   19  C18 UNL     1      -4.892   1.441   0.006  1.00  0.00     0.302 C 
HETATM   20  C19 UNL     1      -6.070   1.064   0.843  1.00  0.00     0.302 C 
HETATM   21  N7  UNL     1      -6.440  -0.337   0.639  1.00  0.00     0.091 N 
HETATM   22  C23 UNL     1      -5.446  -1.007  -0.180  1.00  0.00     0.302 C 
HETATM   23  C24 UNL     1      -4.056  -0.768   0.389  1.00  0.00     0.302 C 
BRANCH  21  24
HETATM   24  C20 UNL     1      -7.710  -0.415  -0.064  1.00  0.00     0.274 C 
BRANCH  24  25
HETATM   25  C21 UNL     1      -8.117  -1.847  -0.176  1.00  0.00     0.057 C 
BRANCH  25  26
HETATM   26  C22 UNL     1      -9.464  -1.951  -0.912  1.00  0.00     0.231 C 
BRANCH  26  27
HETATM   27  N8  UNL     1      -9.839  -3.330  -0.999  1.00  0.00    -0.079 N 
ATOM     28  H83 UNL     1      -9.114  -3.904  -1.430  1.00  0.00     0.274 HD
ATOM     29  H82 UNL     1      -9.858  -3.787  -0.087  1.00  0.00     0.274 HD
ATOM     30  H81 UNL     1     -10.732  -3.399  -1.487  1.00  0.00     0.274 HD
ENDBRANCH  26  27
ENDBRANCH  25  26
ENDBRANCH  24  25
ENDBRANCH  21  24
ENDBRANCH  17  18
ENDBRANCH  16  17
ENDBRANCH  15  16
ENDBRANCH  13  15
ENDBRANCH   9  13
BRANCH   6  31
HETATM   31  N3  UNL     1       4.727  -0.405  -0.036  1.00  0.00    -0.370 N 
ATOM     32  H3  UNL     1       4.620  -1.343   0.351  1.00  0.00     0.161 HD
BRANCH  31  33
HETATM   33  C6  UNL     1       6.029  -0.025  -0.438  1.00  0.00     0.163 C 
BRANCH  33  34
HETATM   34  C7  UNL     1       7.091  -1.037  -0.312  1.00  0.00     0.001 A 
HETATM   35  C8  UNL     1       8.393  -0.663  -0.706  1.00  0.00     0.043 A 
HETATM   36 CL1  UNL     1       8.727   0.949  -1.314  1.00  0.00    -0.084 Cl
HETATM   37  C9  UNL     1       9.421  -1.566  -0.615  1.00  0.00     0.027 A 
HETATM   38  C10 UNL     1       9.240  -2.845  -0.149  1.00  0.00     0.040 A 
HETATM   39  C11 UNL     1       7.974  -3.235   0.244  1.00  0.00     0.086 A 
HETATM   40  C13 UNL     1       6.944  -2.309   0.146  1.00  0.00     0.053 A 
HETATM   41 BR1  UNL     1       5.230  -2.918   0.707  1.00  0.00    -0.047 Br
BRANCH  39  42
HETATM   42  O1  UNL     1       7.791  -4.518   0.712  1.00  0.00    -0.355 OA
HETATM   43  C12 UNL     1       8.882  -5.404   0.784  1.00  0.00     0.210 C 
ENDBRANCH  39  42
ENDBRANCH  33  34
ENDBRANCH  31  33
ENDBRANCH   6  31
BRANCH   1  44
HETATM   44  C2  UNL     1       1.819   4.581  -1.428  1.00  0.00     0.127 C 
HETATM   45  C1  UNL     1       1.598   5.511  -0.295  1.00  0.00     0.027 C 
ENDBRANCH   1  44
TORSDOF 14
