REMARK  14 active torsions:
REMARK  status: ('A' for Active; 'I' for Inactive)
REMARK    1  A    between atoms: C2_2  and  C3_3 
REMARK    2  A    between atoms: C3_3  and  N1_4 
REMARK    3  A    between atoms: C7_10  and  N3_11 
REMARK    4  A    between atoms: N4_14  and  C10_15 
REMARK    5  A    between atoms: C10_15  and  C11_16 
REMARK    6  A    between atoms: C11_16  and  N5_17 
REMARK    7  A    between atoms: C12_19  and  N6_20 
REMARK    8  A    between atoms: C12_19  and  C14_23 
REMARK    9  A    between atoms: C17_31  and  N8_32 
REMARK   10  A    between atoms: N8_32  and  C18_34 
REMARK   11  A    between atoms: C18_34  and  C19_35 
REMARK   12  A    between atoms: C19_35  and  C20_36 
REMARK   13  A    between atoms: C23_39  and  O1_40 
REMARK   14  A    between atoms: C25_42  and  O2_43 
ROOT
HETATM    1  N1  UNL     1      -2.004   5.316   0.024  1.00  0.00    -0.408 N 
HETATM    2  C4  UNL     1      -0.715   5.514   0.584  1.00  0.00     0.123 C 
HETATM    3  C5  UNL     1       0.302   4.732  -0.221  1.00  0.00     0.078 C 
HETATM    4  C6  UNL     1      -0.038   3.306  -0.018  1.00  0.00     0.040 A 
HETATM    5  N2  UNL     1       0.849   2.358   0.296  1.00  0.00    -0.195 N 
ATOM      6  H2  UNL     1       1.832   2.606   0.406  1.00  0.00     0.184 HD
HETATM    7  C7  UNL     1       0.458   1.064   0.471  1.00  0.00     0.682 A 
HETATM    8  N7  UNL     1      -0.846   0.770   0.317  1.00  0.00    -0.176 N 
ATOM      9  H7  UNL     1      -1.118  -0.204   0.452  1.00  0.00     0.186 HD
HETATM   10  C17 UNL     1      -1.810   1.624   0.007  1.00  0.00     0.130 A 
HETATM   11  C28 UNL     1      -1.358   2.958  -0.164  1.00  0.00     0.027 A 
HETATM   12  C29 UNL     1      -2.303   4.042  -0.520  1.00  0.00     0.161 C 
ENDROOT
BRANCH   7  13
HETATM   13  N3  UNL     1       1.416   0.087   0.806  1.00  0.00    -0.211 N 
HETATM   14  C8  UNL     1       2.796   0.447   0.984  1.00  0.00     0.185 C 
HETATM   15  C9  UNL     1       3.567  -0.572   1.767  1.00  0.00     0.079 C 
HETATM   16  N4  UNL     1       3.416  -1.903   1.331  1.00  0.00    -0.386 N 
HETATM   17  C15 UNL     1       2.323  -2.097   0.456  1.00  0.00     0.143 C 
HETATM   18  C16 UNL     1       1.110  -1.334   0.992  1.00  0.00     0.161 C 
BRANCH  16  19
HETATM   19  C10 UNL     1       4.611  -2.600   0.966  1.00  0.00     0.166 C 
BRANCH  19  20
HETATM   20  C11 UNL     1       5.266  -2.074  -0.299  1.00  0.00     0.082 C 
BRANCH  20  21
HETATM   21  N5  UNL     1       6.436  -2.783  -0.636  1.00  0.00    -0.351 N 
HETATM   22  C12 UNL     1       7.657  -2.670  -0.473  1.00  0.00     0.185 C 
ATOM     23  H5  UNL     1       6.213  -3.628  -1.163  1.00  0.00     0.166 HD
BRANCH  22  24
HETATM   24  N6  UNL     1       8.536  -3.698  -1.024  1.00  0.00    -0.377 N 
HETATM   25  C13 UNL     1       9.307  -3.378  -2.182  1.00  0.00     0.147 C 
ATOM     26  H6  UNL     1       8.597  -4.620  -0.593  1.00  0.00     0.160 HD
ENDBRANCH  22  24
BRANCH  22  27
HETATM   27  C14 UNL     1       8.305  -1.558   0.244  1.00  0.00     0.448 C 
HETATM   28  F1  UNL     1       9.143  -0.889  -0.653  1.00  0.00    -0.163 F 
HETATM   29  F2  UNL     1       7.392  -0.713   0.780  1.00  0.00    -0.163 F 
HETATM   30  F3  UNL     1       9.118  -2.043   1.263  1.00  0.00    -0.163 F 
ENDBRANCH  22  27
ENDBRANCH  20  21
ENDBRANCH  19  20
ENDBRANCH  16  19
ENDBRANCH   7  13
BRANCH  10  31
HETATM   31  N8  UNL     1      -3.042   1.414  -0.157  1.00  0.00    -0.355 N 
ATOM     32  H8  UNL     1      -3.591   2.241  -0.392  1.00  0.00     0.166 HD
BRANCH  31  33
HETATM   33  C18 UNL     1      -3.769   0.235  -0.068  1.00  0.00     0.067 C 
BRANCH  33  34
HETATM   34  C19 UNL     1      -2.911  -0.983   0.139  1.00  0.00     0.083 C 
BRANCH  34  35
HETATM   35  C20 UNL     1      -3.858  -2.140   0.179  1.00  0.00    -0.051 A 
HETATM   36  C21 UNL     1      -4.369  -2.540   1.372  1.00  0.00     0.010 A 
HETATM   37  C22 UNL     1      -5.251  -3.610   1.386  1.00  0.00     0.040 A 
HETATM   38  C23 UNL     1      -5.601  -4.252   0.221  1.00  0.00     0.101 A 
HETATM   39  C25 UNL     1      -5.055  -3.806  -0.959  1.00  0.00     0.102 A 
HETATM   40  C27 UNL     1      -4.185  -2.755  -0.994  1.00  0.00     0.047 A 
BRANCH  38  41
HETATM   41  O1  UNL     1      -6.481  -5.310   0.290  1.00  0.00    -0.353 OA
HETATM   42  C24 UNL     1      -7.052  -5.795   1.469  1.00  0.00     0.210 C 
ENDBRANCH  38  41
BRANCH  39  43
HETATM   43  O2  UNL     1      -5.403  -4.451  -2.148  1.00  0.00    -0.353 OA
HETATM   44  C26 UNL     1      -4.856  -4.013  -3.385  1.00  0.00     0.210 C 
ENDBRANCH  39  43
ENDBRANCH  34  35
ENDBRANCH  33  34
ENDBRANCH  31  33
ENDBRANCH  10  31
BRANCH   1  45
HETATM   45  C3  UNL     1      -3.091   5.906   0.772  1.00  0.00     0.117 C 
BRANCH  45  46
HETATM   46  C2  UNL     1      -2.968   7.402   0.678  1.00  0.00     0.015 C 
HETATM   47  C1  UNL     1      -3.030   7.915  -0.720  1.00  0.00     0.006 C 
ENDBRANCH  45  46
ENDBRANCH   1  45
TORSDOF 14
