REMARK  13 active torsions:
REMARK  status: ('A' for Active; 'I' for Inactive)
REMARK    1  A    between atoms: O1_2  and  C2_3 
REMARK    2  A    between atoms: C2_3  and  C3_4 
REMARK    3  A    between atoms: C3_4  and  O2_5 
REMARK    4  A    between atoms: O2_5  and  C4_6 
REMARK    5  A    between atoms: C4_6  and  C5_7 
REMARK    6  A    between atoms: C5_7  and  N1_8 
REMARK    7  A    between atoms: C6_11  and  N3_12 
REMARK       I    between atoms: N3_12  and  C7_14 
REMARK    8  A    between atoms: C7_14  and  C8_16 
REMARK    9  A    between atoms: C10_18  and  C11_19 
REMARK   10  A    between atoms: C13_24  and  C14_25 
REMARK   11  A    between atoms: C14_25  and  N4_26 
REMARK       I    between atoms: N4_26  and  C15_28 
REMARK   12  A    between atoms: C15_28  and  C16_30 
REMARK   13  A    between atoms: C20_37  and  N6_38 
ROOT
HETATM    1  N1  UNL     1      -2.506  -0.374   0.585  1.00  0.00    -0.292 N 
HETATM    2  N2  UNL     1      -2.790   0.769   1.179  1.00  0.00    -0.282 N 
ATOM      3  H2  UNL     1      -3.614   0.927   1.760  1.00  0.00     0.189 HD
HETATM    4  C6  UNL     1      -1.831   1.723   0.914  1.00  0.00     0.133 A 
HETATM    5  C13 UNL     1      -0.938   1.073   0.128  1.00  0.00     0.029 A 
HETATM    6  C25 UNL     1      -1.375  -0.210  -0.074  1.00  0.00     0.036 A 
HETATM    7  C26 UNL     1      -0.784  -1.212  -1.043  1.00  0.00     0.070 C 
ENDROOT
BRANCH   5   8
HETATM    8  C14 UNL     1       0.311   1.665  -0.511  1.00  0.00     0.167 C 
BRANCH   8   9
HETATM    9  N4  UNL     1       1.381   0.762  -0.095  1.00  0.00    -0.352 N 
HETATM   10  C15 UNL     1       2.471   0.249  -0.691  1.00  0.00     0.254 C 
HETATM   11  O4  UNL     1       2.712   0.478  -1.926  1.00  0.00    -0.268 OA
ATOM     12  H4  UNL     1       1.277   0.449   0.870  1.00  0.00     0.163 HD
BRANCH  10  13
HETATM   13  C16 UNL     1       3.492  -0.614  -0.025  1.00  0.00     0.062 A 
HETATM   14  C17 UNL     1       3.313  -1.322   1.125  1.00  0.00     0.025 A 
HETATM   15  C18 UNL     1       2.023  -1.453   1.828  1.00  0.00     0.069 C 
HETATM   16  N5  UNL     1       4.328  -2.035   1.716  1.00  0.00    -0.325 N 
HETATM   17  C19 UNL     1       5.524  -2.069   1.183  1.00  0.00     0.272 A 
ATOM     18  H5  UNL     1       4.148  -2.544   2.581  1.00  0.00     0.169 HD
HETATM   19  O5  UNL     1       6.480  -2.711   1.685  1.00  0.00    -0.266 OA
HETATM   20  C20 UNL     1       5.826  -1.387  -0.005  1.00  0.00     0.105 A 
HETATM   21  C23 UNL     1       4.788  -0.679  -0.557  1.00  0.00    -0.012 A 
HETATM   22  C24 UNL     1       5.163   0.187  -1.723  1.00  0.00     0.052 C 
BRANCH  20  23
HETATM   23  N6  UNL     1       7.100  -1.545  -0.546  1.00  0.00    -0.385 N 
HETATM   24  C21 UNL     1       8.275  -0.748  -0.538  1.00  0.00     0.149 C 
HETATM   25  C22 UNL     1       7.306  -2.917  -1.156  1.00  0.00     0.149 C 
ENDBRANCH  20  23
ENDBRANCH  10  13
ENDBRANCH   8   9
ENDBRANCH   5   8
BRANCH   4  26
HETATM   26  N3  UNL     1      -1.934   2.863   1.400  1.00  0.00    -0.307 N 
HETATM   27  C7  UNL     1      -1.371   4.077   1.483  1.00  0.00     0.264 C 
HETATM   28  O3  UNL     1      -0.290   4.379   1.963  1.00  0.00    -0.267 OA
ATOM     29  H3  UNL     1      -2.787   2.882   1.958  1.00  0.00     0.170 HD
BRANCH  27  30
HETATM   30  C8  UNL     1      -2.170   5.236   0.904  1.00  0.00     0.075 A 
HETATM   31  C9  UNL     1      -1.886   6.536   0.864  1.00  0.00     0.036 A 
HETATM   32  C10 UNL     1      -2.795   7.378   0.261  1.00  0.00     0.000 A 
HETATM   33  C12 UNL     1      -3.917   6.766  -0.253  1.00  0.00     0.084 A 
HETATM   34 CL1  UNL     1      -5.335   7.522  -1.046  1.00  0.00    -0.076 Cl
HETATM   35  S1  UNL     1      -3.676   5.133   0.112  1.00  0.00    -0.072 SA
BRANCH  32  36
HETATM   36  C11 UNL     1      -2.524   8.861   0.113  1.00  0.00     0.263 C 
HETATM   37  F1  UNL     1      -1.476   9.140  -0.727  1.00  0.00    -0.251 F 
ENDBRANCH  32  36
ENDBRANCH  27  30
ENDBRANCH   4  26
BRANCH   1  38
HETATM   38  C5  UNL     1      -3.317  -1.572   0.641  1.00  0.00     0.175 C 
BRANCH  38  39
HETATM   39  C4  UNL     1      -4.637  -1.500  -0.121  1.00  0.00     0.189 C 
BRANCH  39  40
HETATM   40  O2  UNL     1      -5.267  -2.703   0.076  1.00  0.00    -0.387 OA
BRANCH  40  41
HETATM   41  C3  UNL     1      -4.846  -3.808  -0.580  1.00  0.00     0.193 C 
BRANCH  41  42
HETATM   42  C2  UNL     1      -5.289  -5.007   0.270  1.00  0.00     0.193 C 
BRANCH  42  43
HETATM   43  O1  UNL     1      -6.605  -5.069   0.494  1.00  0.00    -0.394 OA
HETATM   44  C1  UNL     1      -7.460  -5.225  -0.550  1.00  0.00     0.201 C 
ENDBRANCH  42  43
ENDBRANCH  41  42
ENDBRANCH  40  41
ENDBRANCH  39  40
ENDBRANCH  38  39
ENDBRANCH   1  38
TORSDOF 13
