REMARK  4 active torsions:
REMARK  status: ('A' for Active; 'I' for Inactive)
REMARK    1  A    between atoms: C2_5  and  O1_6 
REMARK    2  A    between atoms: O1_6  and  C3_7 
REMARK    3  A    between atoms: C6_13  and  N3_14 
REMARK    4  A    between atoms: N5_21  and  N6_22 
ROOT
HETATM    1  C3  UNL     1       1.304  -0.674  -0.061  1.00  0.00     0.165 A 
HETATM    2  C4  UNL     1       2.264  -1.658   0.182  1.00  0.00     0.131 A 
HETATM    3  C5  UNL     1       3.584  -1.316   0.279  1.00  0.00     0.263 A 
HETATM    4  O2  UNL     1       4.436  -2.223   0.499  1.00  0.00    -0.268 OA
HETATM    5  N2  UNL     1       3.998  -0.051   0.147  1.00  0.00    -0.156 N 
ATOM      6  H2  UNL     1       4.986   0.194   0.221  1.00  0.00     0.187 HD
HETATM    7  C6  UNL     1       3.056   0.892  -0.088  1.00  0.00     0.680 A 
HETATM    8  N4  UNL     1       1.753   0.575  -0.187  1.00  0.00    -0.171 N 
ATOM      9  H4  UNL     1       1.080   1.321  -0.366  1.00  0.00     0.186 HD
ENDROOT
BRANCH   1  10
HETATM   10  O1  UNL     1      -0.029  -1.030  -0.157  1.00  0.00    -0.296 OA
BRANCH  10  11
HETATM   11  C2  UNL     1      -1.079  -0.183  -0.391  1.00  0.00     0.339 C 
HETATM   12  C1  UNL     1      -2.090  -0.173   0.726  1.00  0.00     0.150 C 
HETATM   13  N1  UNL     1      -1.912  -0.488   1.960  1.00  0.00    -0.384 N 
HETATM   14  N5  UNL     1      -3.285   0.266   0.091  1.00  0.00    -0.259 N 
ATOM     15  H12 UNL     1      -1.055  -0.803   2.415  1.00  0.00     0.157 HD
ATOM     16  H11 UNL     1      -2.596  -0.481   2.716  1.00  0.00     0.157 HD
HETATM   17  C7  UNL     1      -3.112  -0.026  -1.312  1.00  0.00     0.321 C 
HETATM   18  O3  UNL     1      -1.853  -0.505  -1.499  1.00  0.00    -0.333 OA
BRANCH  14  19
HETATM   19  N6  UNL     1      -4.373   0.855   0.741  1.00  0.00    -0.340 N 
ATOM     20  H62 UNL     1      -4.495   1.061   1.732  1.00  0.00     0.177 HD
ATOM     21  H61 UNL     1      -5.230   1.170   0.286  1.00  0.00     0.177 HD
ENDBRANCH  14  19
ENDBRANCH  10  11
ENDBRANCH   1  10
BRANCH   7  22
HETATM   22  N3  UNL     1       3.446   2.140  -0.220  1.00  0.00    -0.234 N 
ATOM     23  H32 UNL     1       4.434   2.380  -0.145  1.00  0.00     0.174 HD
ATOM     24  H31 UNL     1       2.736   2.851  -0.397  1.00  0.00     0.174 HD
ENDBRANCH   7  22
TORSDOF 4
