REMARK  5 active torsions:
REMARK  status: ('A' for Active; 'I' for Inactive)
REMARK    1  A    between atoms: N1_1  and  N2_4 
REMARK    2  A    between atoms: C1_6  and  N3_7 
REMARK    3  A    between atoms: C1_6  and  C2_12 
REMARK    4  A    between atoms: N3_7  and  N4_9 
REMARK    5  A    between atoms: C5_21  and  N7_22 
ROOT
HETATM    1  C2  UNL     1       0.133  -0.145  -0.070  1.00  0.00     0.122 A 
HETATM    2  N5  UNL     1       0.479  -1.458  -0.173  1.00  0.00    -0.303 N 
ATOM      3  H5  UNL     1      -0.259  -2.163  -0.176  1.00  0.00     0.171 HD
HETATM    4  C3  UNL     1       1.755  -1.857  -0.270  1.00  0.00     0.327 A 
HETATM    5  O1  UNL     1       2.035  -3.109  -0.365  1.00  0.00    -0.247 OA
HETATM    6  N6  UNL     1       2.716  -0.919  -0.262  1.00  0.00    -0.273 N 
ATOM      7  H6  UNL     1       3.688  -1.219  -0.336  1.00  0.00     0.173 HD
HETATM    8  C4  UNL     1       2.459   0.387  -0.162  1.00  0.00     0.284 A 
HETATM    9  O2  UNL     1       3.334   1.275  -0.153  1.00  0.00    -0.265 OA
HETATM   10  C5  UNL     1       1.111   0.793  -0.061  1.00  0.00     0.201 A 
ENDROOT
BRANCH   1  11
HETATM   11  C1  UNL     1      -1.263   0.188  -0.030  1.00  0.00     0.164 C 
HETATM   12  N2  UNL     1      -2.151  -0.356  -0.814  1.00  0.00    -0.289 N 
ATOM     13  H2  UNL     1      -3.123  -0.072  -0.693  1.00  0.00     0.188 HD
BRANCH  12  14
HETATM   14  N1  UNL     1      -1.877  -1.280  -1.788  1.00  0.00    -0.344 N 
ATOM     15  H12 UNL     1      -0.900  -1.552  -1.894  1.00  0.00     0.176 HD
ATOM     16  H11 UNL     1      -2.572  -1.706  -2.401  1.00  0.00     0.176 HD
ENDBRANCH  12  14
BRANCH  11  17
HETATM   17  N3  UNL     1      -1.876   1.124   0.878  1.00  0.00    -0.289 N 
ATOM     18  H3  UNL     1      -1.981   2.096   0.587  1.00  0.00     0.188 HD
BRANCH  17  19
HETATM   19  N4  UNL     1      -2.323   0.754   2.119  1.00  0.00    -0.344 N 
ATOM     20  H42 UNL     1      -2.210  -0.222   2.394  1.00  0.00     0.176 HD
ATOM     21  H41 UNL     1      -2.757   1.417   2.762  1.00  0.00     0.176 HD
ENDBRANCH  17  19
ENDBRANCH  11  17
ENDBRANCH   1  11
BRANCH  10  22
HETATM   22  N7  UNL     1       0.811   2.170   0.035  1.00  0.00    -0.107 N 
HETATM   23  O3  UNL     1       0.687   2.656   1.181  1.00  0.00    -0.531 OA
HETATM   24  O4  UNL     1       0.694   3.047  -1.007  1.00  0.00    -0.531 OA
ENDBRANCH  10  22
TORSDOF 5
