REMARK  5 active torsions:
REMARK  status: ('A' for Active; 'I' for Inactive)
REMARK    1  A    between atoms: N1_2  and  C3_4 
REMARK    2  A    between atoms: C4_7  and  N3_8 
REMARK    3  A    between atoms: C6_13  and  O1_14 
REMARK    4  A    between atoms: O1_14  and  C7_15 
REMARK    5  A    between atoms: C7_15  and  C8_16 
ROOT
HETATM    1  C3  UNL     1       2.749  -0.142  -0.429  1.00  0.00     0.683 A 
HETATM    2  N2  UNL     1       3.302  -1.339  -0.182  1.00  0.00    -0.175 N 
ATOM      3  H2  UNL     1       4.313  -1.397  -0.064  1.00  0.00     0.186 HD
HETATM    4  C4  UNL     1       2.580  -2.457  -0.085  1.00  0.00     0.141 A 
HETATM    5  C5  UNL     1       1.186  -2.421  -0.240  1.00  0.00     0.129 A 
HETATM    6 CL1  UNL     1       0.316  -3.965  -0.190  1.00  0.00    -0.076 Cl
HETATM    7  C6  UNL     1       0.604  -1.220  -0.487  1.00  0.00     0.184 A 
HETATM    8  N4  UNL     1       1.424  -0.115  -0.574  1.00  0.00    -0.169 N 
ATOM      9  H4  UNL     1       0.986   0.787  -0.763  1.00  0.00     0.186 HD
ENDROOT
BRANCH   7  10
HETATM   10  O1  UNL     1      -0.736  -1.022  -0.650  1.00  0.00    -0.322 OA
BRANCH  10  11
HETATM   11  C7  UNL     1      -1.703  -0.584   0.236  1.00  0.00     0.082 C 
HETATM   12  C9  UNL     1      -1.389   0.858   0.589  1.00  0.00     0.040 C 
HETATM   13  C10 UNL     1      -2.474   1.539   1.365  1.00  0.00     0.003 C 
HETATM   14  C11 UNL     1      -3.844   1.342   0.791  1.00  0.00     0.000 C 
HETATM   15  C12 UNL     1      -4.074  -0.016   0.206  1.00  0.00     0.003 C 
HETATM   16  C13 UNL     1      -2.997  -0.527  -0.675  1.00  0.00     0.040 C 
BRANCH  11  17
HETATM   17  C8  UNL     1      -2.059  -1.300   1.457  1.00  0.00     0.153 C 
HETATM   18 CL2  UNL     1      -2.790  -2.901   1.288  1.00  0.00    -0.127 Cl
ENDBRANCH  11  17
ENDBRANCH  10  11
ENDBRANCH   7  10
BRANCH   4  19
HETATM   19  N3  UNL     1       3.100  -3.605   0.151  1.00  0.00    -0.384 N 
ATOM     20  H32 UNL     1       4.113  -3.631   0.264  1.00  0.00     0.157 HD
ATOM     21  H31 UNL     1       2.548  -4.460   0.225  1.00  0.00     0.157 HD
ENDBRANCH   4  19
BRANCH   1  22
HETATM   22  N1  UNL     1       3.536   1.051  -0.534  1.00  0.00    -0.226 N 
HETATM   23  C1  UNL     1       2.948   2.325  -0.794  1.00  0.00     0.168 C 
HETATM   24  C2  UNL     1       4.974   0.957  -0.369  1.00  0.00     0.168 C 
ENDBRANCH   1  22
TORSDOF 5
