REMARK  6 active torsions:
REMARK  status: ('A' for Active; 'I' for Inactive)
REMARK    1  A    between atoms: C4_4  and  C5_5 
REMARK    2  A    between atoms: N3_13  and  C9_14 
REMARK    3  A    between atoms: C12_17  and  N4_18 
REMARK    4  A    between atoms: N4_18  and  C13_20 
REMARK    5  A    between atoms: C13_20  and  C14_21 
REMARK    6  A    between atoms: C14_21  and  C15_22 
ROOT
HETATM    1  C5  UNL     1      -0.974  -1.169  -0.703  1.00  0.00     0.108 A 
HETATM    2  N1  UNL     1      -1.157   0.080  -0.209  1.00  0.00    -0.326 N 
ATOM      3  H1  UNL     1      -2.079   0.515  -0.224  1.00  0.00     0.169 HD
HETATM    4  C6  UNL     1      -0.097   0.735   0.302  1.00  0.00     0.141 A 
HETATM    5  C7  UNL     1       1.152   0.141   0.320  1.00  0.00     0.122 A 
HETATM    6  N2  UNL     1       1.964   1.039   0.876  1.00  0.00    -0.346 N 
ATOM      7  H2  UNL     1       2.961   0.889   1.028  1.00  0.00     0.167 HD
HETATM    8  C8  UNL     1       1.319   2.155   1.209  1.00  0.00     0.185 A 
HETATM    9  N3  UNL     1       0.041   1.968   0.852  1.00  0.00    -0.323 N 
HETATM   10  C12 UNL     1       1.333  -1.150  -0.193  1.00  0.00     0.137 A 
HETATM   11  N5  UNL     1       0.234  -1.750  -0.689  1.00  0.00    -0.327 N 
ATOM     12  H5  UNL     1       0.325  -2.691  -1.072  1.00  0.00     0.169 HD
ENDROOT
BRANCH  10  13
HETATM   13  N4  UNL     1       2.470  -1.700  -0.185  1.00  0.00    -0.354 N 
ATOM     14  H4  UNL     1       2.471  -2.638  -0.585  1.00  0.00     0.166 HD
BRANCH  13  15
HETATM   15  C13 UNL     1       3.735  -1.281   0.263  1.00  0.00     0.071 C 
BRANCH  15  16
HETATM   16  C14 UNL     1       4.536  -0.587  -0.832  1.00  0.00     0.162 C 
BRANCH  16  17
HETATM   17  C15 UNL     1       5.884  -0.159  -0.259  1.00  0.00     0.392 C 
HETATM   18  F1  UNL     1       5.617   0.711   0.795  1.00  0.00    -0.171 F 
HETATM   19  F2  UNL     1       6.619  -1.225   0.169  1.00  0.00    -0.171 F 
HETATM   20  F3  UNL     1       6.508   0.593  -1.238  1.00  0.00    -0.171 F 
ENDBRANCH  16  17
ENDBRANCH  15  16
ENDBRANCH  13  15
ENDBRANCH  10  13
BRANCH   1  21
HETATM   21  C4  UNL     1      -2.071  -1.928  -1.269  1.00  0.00     0.050 C 
HETATM   22  C2  UNL     1      -3.269  -2.053  -0.787  1.00  0.00    -0.084 C 
HETATM   23  C1  UNL     1      -3.722  -1.417   0.464  1.00  0.00     0.043 C 
HETATM   24  C3  UNL     1      -4.285  -2.894  -1.534  1.00  0.00     0.043 C 
ENDBRANCH   1  21
BRANCH   9  25
HETATM   25  C9  UNL     1      -1.037   2.923   1.008  1.00  0.00     0.084 C 
HETATM   26  C10 UNL     1      -1.598   3.178  -0.381  1.00  0.00     0.032 C 
HETATM   27  C11 UNL     1      -2.155   2.408   1.860  1.00  0.00     0.032 C 
ENDBRANCH   9  25
TORSDOF 6
