REMARK  5 active torsions:
REMARK  status: ('A' for Active; 'I' for Inactive)
REMARK       I    between atoms: N2_7  and  C4_9 
REMARK       I    between atoms: C4_9  and  N4_13 
REMARK    1  A    between atoms: N4_13  and  C5_15 
REMARK    2  A    between atoms: C8_18  and  C9_19 
REMARK    3  A    between atoms: C9_19  and  O3_21 
REMARK    4  A    between atoms: O3_21  and  C10_22 
REMARK    5  A    between atoms: C10_22  and  C11_23 
ROOT
HETATM    1  C1  UNL     1       2.444  -2.647   0.019  1.00  0.00     0.071 C 
HETATM    2  C2  UNL     1       0.969  -2.500   0.117  1.00  0.00     0.049 A 
HETATM    3  N1  UNL     1       0.013  -3.408  -0.181  1.00  0.00    -0.263 N 
ATOM      4  H1  UNL     1       0.183  -4.352  -0.527  1.00  0.00     0.194 HD
HETATM    5  O1  UNL     1      -1.155  -2.888   0.043  1.00  0.00    -0.218 OA
HETATM    6  C3  UNL     1      -1.087  -1.673   0.480  1.00  0.00     0.203 A 
HETATM    7  N2  UNL     1      -1.970  -0.801   0.823  1.00  0.00    -0.165 N 
ATOM      8  H2  UNL     1      -1.684   0.123   1.148  1.00  0.00     0.186 HD
HETATM    9  C4  UNL     1      -3.345  -1.139   0.744  1.00  0.00     0.704 C 
HETATM   10  N3  UNL     1      -3.821  -2.155   1.434  1.00  0.00    -0.054 N 
ATOM     11  H3  UNL     1      -4.813  -2.381   1.361  1.00  0.00     0.218 HD
HETATM   12  F1  UNL     1      -3.040  -2.901   2.230  1.00  0.00    -0.086 F 
HETATM   13  N4  UNL     1      -4.317  -0.462  -0.028  1.00  0.00    -0.220 N 
ATOM     14  H4  UNL     1      -5.263  -0.336   0.332  1.00  0.00     0.178 HD
HETATM   15  C8  UNL     1       0.278  -1.387   0.540  1.00  0.00     0.117 A 
ENDROOT
BRANCH  15  16
HETATM   16  C9  UNL     1       0.892  -0.114   0.980  1.00  0.00     0.299 C 
HETATM   17  O2  UNL     1       1.185   0.057   2.188  1.00  0.00    -0.259 OA
BRANCH  16  18
HETATM   18  O3  UNL     1       1.157   0.892   0.122  1.00  0.00    -0.317 OA
BRANCH  18  19
HETATM   19  C10 UNL     1       1.698   2.127   0.153  1.00  0.00     0.183 C 
BRANCH  19  20
HETATM   20  C11 UNL     1       3.154   2.213   0.399  1.00  0.00     0.002 C 
HETATM   21  C12 UNL     1       3.603   3.709   0.366  1.00  0.00     0.011 C 
HETATM   22  C13 UNL     1       3.709   1.696   1.679  1.00  0.00     0.011 C 
ENDBRANCH  19  20
ENDBRANCH  18  19
ENDBRANCH  16  18
ENDBRANCH  15  16
BRANCH  13  23
HETATM   23  C5  UNL     1      -3.962   0.047  -1.325  1.00  0.00     0.091 C 
HETATM   24  C6  UNL     1      -3.447  -1.121  -2.164  1.00  0.00     0.032 C 
HETATM   25  C7  UNL     1      -2.900   1.094  -1.169  1.00  0.00     0.032 C 
ENDBRANCH  13  23
TORSDOF 5
