REMARK  1 active torsions:
REMARK  status: ('A' for Active; 'I' for Inactive)
REMARK       I    between atoms: C1_2  and  N2_4 
REMARK    1  A    between atoms: N2_4  and  C2_6 
ROOT
HETATM    1  C2  UNL     1      -0.290  -0.567  -0.178  1.00  0.00     0.195 A 
HETATM    2  N3  UNL     1      -0.485   0.753  -0.008  1.00  0.00    -0.266 N 
ATOM      3  H3  UNL     1       0.214   1.481  -0.155  1.00  0.00     0.190 HD
HETATM    4  N4  UNL     1      -1.721   0.948   0.378  1.00  0.00    -0.238 N 
ATOM      5  H4  UNL     1      -2.122   1.865   0.576  1.00  0.00     0.208 HD
HETATM    6  N5  UNL     1      -2.387  -0.193   0.480  1.00  0.00    -0.249 N 
ATOM      7  H5  UNL     1      -3.360  -0.320   0.760  1.00  0.00     0.192 HD
HETATM    8  C3  UNL     1      -1.498  -1.154   0.133  1.00  0.00     0.306 A 
HETATM    9  O2  UNL     1      -1.728  -2.396   0.097  1.00  0.00    -0.262 OA
ENDROOT
BRANCH   1  10
HETATM   10  N2  UNL     1       0.788  -1.193  -0.553  1.00  0.00    -0.291 N 
HETATM   11  C1  UNL     1       1.963  -0.444  -0.840  1.00  0.00     0.334 C 
HETATM   12  N1  UNL     1       2.572   0.364   0.161  1.00  0.00    -0.040 NA
HETATM   13  O1  UNL     1       2.522  -0.451  -1.971  1.00  0.00    -0.251 OA
ATOM     14  H2  UNL     1       0.790  -2.209  -0.640  1.00  0.00     0.172 HD
ENDBRANCH   1  10
TORSDOF 1
