REMARK  3 active torsions:
REMARK  status: ('A' for Active; 'I' for Inactive)
REMARK    1  A    between atoms: C3_5  and  C4_6 
REMARK    2  A    between atoms: C4_6  and  N2_7 
REMARK    3  A    between atoms: N2_7  and  N3_9 
ROOT
HETATM    1  C1  UNL     1       1.494   1.213  -2.362  1.00  0.00     0.049 C 
HETATM    2  C2  UNL     1       1.160   0.300  -1.476  1.00  0.00     0.093 A 
HETATM    3  N1  UNL     1       0.320   0.531  -0.455  1.00  0.00    -0.337 N 
ATOM      4  H1  UNL     1      -0.138   1.422  -0.263  1.00  0.00     0.167 HD
HETATM    5  C3  UNL     1       0.172  -0.582   0.275  1.00  0.00     0.125 A 
HETATM    6  N4  UNL     1       0.947  -1.519  -0.319  1.00  0.00    -0.306 N 
ATOM      7  H4  UNL     1       1.047  -2.480   0.008  1.00  0.00     0.170 HD
HETATM    8  C5  UNL     1       1.566  -1.013  -1.395  1.00  0.00     0.273 A 
HETATM    9  O1  UNL     1       2.356  -1.537  -2.209  1.00  0.00    -0.266 OA
ENDROOT
BRANCH   5  10
HETATM   10  C4  UNL     1      -0.580  -0.687   1.338  1.00  0.00     0.155 C 
BRANCH  10  11
HETATM   11  N2  UNL     1      -1.319   0.428   1.800  1.00  0.00    -0.315 N 
ATOM     12  H2  UNL     1      -0.938   1.372   1.738  1.00  0.00     0.185 HD
BRANCH  11  13
HETATM   13  N3  UNL     1      -2.569   0.201   2.337  1.00  0.00    -0.345 N 
ATOM     14  H32 UNL     1      -2.936  -0.749   2.392  1.00  0.00     0.176 HD
ATOM     15  H31 UNL     1      -3.102   1.005   2.670  1.00  0.00     0.176 HD
ENDBRANCH  11  13
ENDBRANCH  10  11
ENDBRANCH   5  10
TORSDOF 3
