REMARK  2 active torsions:
REMARK  status: ('A' for Active; 'I' for Inactive)
REMARK    1  A    between atoms: C1_2  and  C2_4 
REMARK    2  A    between atoms: C2_4  and  N2_5 
ROOT
HETATM    1  C2  UNL     1      -0.221   0.054  -0.363  1.00  0.00     0.346 A 
HETATM    2  N3  UNL     1      -0.454  -0.914   0.717  1.00  0.00    -0.308 N 
ATOM      3  H3  UNL     1       0.031  -1.734   1.083  1.00  0.00     0.166 HD
HETATM    4  C3  UNL     1      -1.673  -0.197   1.037  1.00  0.00     0.295 A 
HETATM    5  O2  UNL     1      -2.578  -0.364   1.867  1.00  0.00    -0.264 OA
HETATM    6  C4  UNL     1      -1.411   0.780  -0.037  1.00  0.00     0.282 A 
HETATM    7  O3  UNL     1      -2.051   1.819  -0.415  1.00  0.00    -0.282 OA
ENDROOT
BRANCH   1   8
HETATM    8  C1  UNL     1       1.129   0.597  -0.363  1.00  0.00     0.296 C 
HETATM    9  N1  UNL     1       1.906   0.603   0.825  1.00  0.00    -0.058 NA
HETATM   10  O1  UNL     1       1.645   1.063  -1.427  1.00  0.00    -0.271 OA
ENDBRANCH   1   8
BRANCH   1  11
HETATM   11  N2  UNL     1      -0.395  -0.718  -1.634  1.00  0.00    -0.036 N 
ATOM     12  H23 UNL     1      -0.188  -0.166  -2.466  1.00  0.00     0.278 HD
ATOM     13  H22 UNL     1       0.321  -1.432  -1.767  1.00  0.00     0.278 HD
ATOM     14  H21 UNL     1      -1.341  -1.099  -1.634  1.00  0.00     0.278 HD
ENDBRANCH   1  11
TORSDOF 2
