REMARK  2 active torsions:
REMARK  status: ('A' for Active; 'I' for Inactive)
REMARK    1  A    between atoms: N1_1  and  N2_4 
REMARK       I    between atoms: N2_4  and  C1_6 
REMARK       I    between atoms: C1_6  and  N3_8 
REMARK    2  A    between atoms: N5_13  and  O2_15 
ROOT
HETATM    1  N2  UNL     1       1.419   1.366   0.043  1.00  0.00    -0.257 N 
ATOM      2  H2  UNL     1       0.681   2.005   0.340  1.00  0.00     0.191 HD
HETATM    3  C1  UNL     1       1.088   0.046  -0.289  1.00  0.00     0.356 C 
HETATM    4  O1  UNL     1       2.087  -0.687  -0.648  1.00  0.00    -0.244 OA
HETATM    5  N3  UNL     1      -0.148  -0.583  -0.287  1.00  0.00    -0.112 N 
HETATM    6  C2  UNL     1      -0.630  -1.933  -0.569  1.00  0.00     0.294 C 
HETATM    7  N4  UNL     1      -1.620  -1.604   0.421  1.00  0.00    -0.207 N 
ATOM      8  H4  UNL     1      -2.168  -2.106   1.119  1.00  0.00     0.179 HD
HETATM    9  C3  UNL     1      -1.483  -0.236  -0.026  1.00  0.00     0.706 C 
HETATM   10  N5  UNL     1      -2.291   0.765  -0.127  1.00  0.00    -0.098 N 
ATOM     11  H5  UNL     1      -3.255   0.644   0.184  1.00  0.00     0.213 HD
ENDROOT
BRANCH   1  12
HETATM   12  N1  UNL     1       2.722   1.823  -0.023  1.00  0.00    -0.341 N 
ATOM     13  H12 UNL     1       3.447   1.171  -0.322  1.00  0.00     0.177 HD
ATOM     14  H11 UNL     1       2.963   2.784   0.219  1.00  0.00     0.177 HD
ENDBRANCH   1  12
BRANCH  10  15
HETATM   15  O2  UNL     1      -1.921   1.974  -0.628  1.00  0.00    -0.276 OA
ATOM     16  H2  UNL     1      -2.516   2.711  -0.702  1.00  0.00     0.245 HD
ENDBRANCH  10  15
TORSDOF 2
