REMARK  3 active torsions:
REMARK  status: ('A' for Active; 'I' for Inactive)
REMARK       I    between atoms: C1_4  and  N3_6 
REMARK    1  A    between atoms: N3_6  and  N4_8 
REMARK       I    between atoms: N4_8  and  C2_10 
REMARK    2  A    between atoms: C2_10  and  C3_12 
REMARK    3  A    between atoms: N5_13  and  O2_15 
ROOT
HETATM    1  N4  UNL     1      -0.070   0.355  -0.077  1.00  0.00    -0.263 N 
ATOM      2  H4  UNL     1      -0.131   1.169  -0.688  1.00  0.00     0.190 HD
HETATM    3  C2  UNL     1      -1.232  -0.340   0.256  1.00  0.00     0.277 C 
HETATM    4  O1  UNL     1      -1.258  -1.347   0.987  1.00  0.00    -0.265 OA
ENDROOT
BRANCH   1   5
HETATM    5  N3  UNL     1       1.174  -0.043   0.410  1.00  0.00    -0.271 N 
HETATM    6  C1  UNL     1       2.372  -0.010  -0.332  1.00  0.00     0.200 C 
HETATM    7  N1  UNL     1       2.827  -1.046  -0.940  1.00  0.00    -0.372 N 
HETATM    8  N2  UNL     1       3.117   1.198  -0.427  1.00  0.00    -0.062 NA
ATOM      9  H12 UNL     1       3.694  -1.022  -1.477  1.00  0.00     0.158 HD
ATOM     10  H11 UNL     1       2.293  -1.912  -0.872  1.00  0.00     0.158 HD
ATOM     11  H3  UNL     1       1.221  -0.382   1.371  1.00  0.00     0.189 HD
ENDBRANCH   1   5
BRANCH   3  12
HETATM   12  C3  UNL     1      -2.546   0.109  -0.276  1.00  0.00     0.189 C 
HETATM   13  N5  UNL     1      -3.618  -0.517   0.029  1.00  0.00    -0.275 N 
ATOM     14  H5  UNL     1      -3.582  -1.333   0.640  1.00  0.00     0.193 HD
BRANCH  13  15
HETATM   15  O2  UNL     1      -4.811  -0.082  -0.472  1.00  0.00    -0.290 OA
ATOM     16  H2  UNL     1      -5.608  -0.547  -0.245  1.00  0.00     0.244 HD
ENDBRANCH  13  15
ENDBRANCH   3  12
TORSDOF 3
