REMARK  2 active torsions:
REMARK  status: ('A' for Active; 'I' for Inactive)
REMARK    1  A    between atoms: N2_4  and  N3_6 
REMARK       I    between atoms: N3_6  and  C1_8 
REMARK       I    between atoms: C1_8  and  N4_10 
REMARK       I    between atoms: N4_10  and  C2_12 
REMARK    2  A    between atoms: N6_14  and  N7_16 
ROOT
HETATM    1  N3  UNL     1      -2.408  -0.567   0.682  1.00  0.00    -0.237 N 
ATOM      2  H3  UNL     1      -2.412  -1.430   1.226  1.00  0.00     0.193 HD
HETATM    3  C1  UNL     1      -1.174  -0.050   0.207  1.00  0.00     0.342 C 
HETATM    4  O1  UNL     1      -1.224   1.027  -0.465  1.00  0.00    -0.245 OA
HETATM    5  N4  UNL     1       0.060  -0.672   0.449  1.00  0.00    -0.280 N 
ATOM      6  H4  UNL     1       0.084  -1.536   0.990  1.00  0.00     0.173 HD
HETATM    7  C2  UNL     1       1.273  -0.129  -0.040  1.00  0.00     0.210 C 
HETATM    8  N5  UNL     1       1.205   1.073  -0.789  1.00  0.00    -0.062 NA
HETATM    9  N6  UNL     1       2.418  -0.678   0.167  1.00  0.00    -0.280 N 
ATOM     10  H6  UNL     1       2.492  -1.543   0.703  1.00  0.00     0.189 HD
ENDROOT
BRANCH   1  11
HETATM   11  N2  UNL     1      -3.600   0.074   0.423  1.00  0.00    -0.245 N 
HETATM   12  N1  UNL     1      -4.171   0.768   1.307  1.00  0.00    -0.331 N 
ATOM     13  H12 UNL     1      -3.730   0.846   2.224  1.00  0.00     0.178 HD
ATOM     14  H11 UNL     1      -5.053   1.242   1.115  1.00  0.00     0.178 HD
ATOM     15  H2  UNL     1      -4.027  -0.014  -0.499  1.00  0.00     0.208 HD
ENDBRANCH   1  11
BRANCH   9  16
HETATM   16  N7  UNL     1       3.552  -0.066  -0.356  1.00  0.00    -0.343 N 
ATOM     17  H72 UNL     1       3.461   0.799  -0.890  1.00  0.00     0.176 HD
ATOM     18  H71 UNL     1       4.460  -0.501  -0.192  1.00  0.00     0.176 HD
ENDBRANCH   9  16
TORSDOF 2
