REMARK  2 active torsions:
REMARK  status: ('A' for Active; 'I' for Inactive)
REMARK       I    between atoms: C1_4  and  N3_6 
REMARK    1  A    between atoms: N3_6  and  N4_8 
REMARK    2  A    between atoms: N4_8  and  N5_9 
ROOT
HETATM    1  N4  UNL     1      -0.144  -0.976   0.110  1.00  0.00     0.004 NA
ENDROOT
BRANCH   1   2
HETATM    2  N3  UNL     1      -1.022   0.062   0.415  1.00  0.00    -0.256 N 
HETATM    3  C1  UNL     1      -2.335   0.051  -0.103  1.00  0.00     0.199 C 
HETATM    4  N1  UNL     1      -3.006   1.109  -0.405  1.00  0.00    -0.373 N 
HETATM    5  N2  UNL     1      -2.966  -1.198  -0.307  1.00  0.00    -0.063 NA
ATOM      6  H12 UNL     1      -3.955   1.101  -0.779  1.00  0.00     0.158 HD
ATOM      7  H11 UNL     1      -2.551   2.010  -0.258  1.00  0.00     0.158 HD
ATOM      8  H3  UNL     1      -0.716   0.830   1.013  1.00  0.00     0.187 HD
ENDBRANCH   1   2
BRANCH   1   9
HETATM    9  N5  UNL     1       1.139  -0.445  -0.131  1.00  0.00    -0.175 N 
HETATM   10  C2  UNL     1       1.543   0.837  -0.095  1.00  0.00     0.225 A 
HETATM   11  N6  UNL     1       2.852   0.939  -0.384  1.00  0.00    -0.345 N 
HETATM   12  C3  UNL     1       3.270  -0.319  -0.606  1.00  0.00     0.200 A 
ATOM     13  H6  UNL     1       3.410   1.792  -0.426  1.00  0.00     0.167 HD
HETATM   14  N7  UNL     1       2.217  -1.144  -0.448  1.00  0.00    -0.276 N 
ATOM     15  H7  UNL     1       2.246  -2.158  -0.557  1.00  0.00     0.189 HD
ENDBRANCH   1   9
TORSDOF 2
