REMARK  4 active torsions:
REMARK  status: ('A' for Active; 'I' for Inactive)
REMARK    1  A    between atoms: N1_2  and  N2_4 
REMARK    2  A    between atoms: N2_4  and  N3_5 
REMARK       I    between atoms: N3_5  and  C3_7 
REMARK       I    between atoms: C3_7  and  N4_9 
REMARK    3  A    between atoms: N4_9  and  O2_11 
REMARK    4  A    between atoms: O2_11  and  C4_12 
ROOT
HETATM    1  N3  UNL     1      -0.517  -0.762   0.677  1.00  0.00    -0.238 N 
ATOM      2  H3  UNL     1      -0.686  -1.226   1.570  1.00  0.00     0.188 HD
HETATM    3  C3  UNL     1       0.750  -0.264   0.219  1.00  0.00     0.357 C 
HETATM    4  O1  UNL     1       0.846   0.292  -0.901  1.00  0.00    -0.244 OA
HETATM    5  N4  UNL     1       1.902  -0.395   1.028  1.00  0.00    -0.205 N 
ATOM      6  H4  UNL     1       1.840  -0.844   1.942  1.00  0.00     0.200 HD
ENDROOT
BRANCH   1   7
HETATM    7  N2  UNL     1      -1.471  -0.508  -0.295  1.00  0.00    -0.045 NA
BRANCH   7   8
HETATM    8  N1  UNL     1      -2.503   0.311   0.142  1.00  0.00    -0.222 NA
HETATM    9  C1  UNL     1      -2.633   1.525  -0.613  1.00  0.00     0.133 C 
HETATM   10  C2  UNL     1      -3.738  -0.444   0.025  1.00  0.00     0.133 C 
ENDBRANCH   7   8
ENDBRANCH   1   7
BRANCH   5  11
HETATM   11  O2  UNL     1       3.096   0.084   0.577  1.00  0.00    -0.179 OA
BRANCH  11  12
HETATM   12  C4  UNL     1       4.043  -0.667  -0.090  1.00  0.00     0.394 C 
HETATM   13  N5  UNL     1       5.236  -0.033  -0.498  1.00  0.00    -0.031 NA
HETATM   14  O3  UNL     1       3.794  -1.879  -0.299  1.00  0.00    -0.240 OA
ENDBRANCH  11  12
ENDBRANCH   5  11
TORSDOF 4
