REMARK  2 active torsions:
REMARK  status: ('A' for Active; 'I' for Inactive)
REMARK    1  A    between atoms: N1_2  and  C2_4 
REMARK    2  A    between atoms: C4_10  and  N4_11 
REMARK       I    between atoms: N4_11  and  C5_13 
REMARK       I    between atoms: C5_13  and  N5_14 
REMARK       I    between atoms: C5_13  and  N6_18 
ROOT
HETATM    1  C2  UNL     1       2.221   0.507  -0.128  1.00  0.00     0.693 A 
HETATM    2  N2  UNL     1       1.973   1.807   0.146  1.00  0.00    -0.187 N 
ATOM      3  H2  UNL     1       2.763   2.451   0.196  1.00  0.00     0.185 HD
HETATM    4  C3  UNL     1       0.741   2.293   0.356  1.00  0.00     0.215 A 
HETATM    5  N3  UNL     1      -0.289   1.398   0.282  1.00  0.00    -0.187 N 
ATOM      6  H3  UNL     1      -1.241   1.729   0.437  1.00  0.00     0.185 HD
HETATM    7  C4  UNL     1      -0.092   0.101   0.013  1.00  0.00     0.696 A 
HETATM    8  N7  UNL     1       1.171  -0.310  -0.186  1.00  0.00    -0.022 N 
ATOM      9  H7  UNL     1       1.334  -1.296  -0.392  1.00  0.00     0.203 HD
ENDROOT
BRANCH   7  10
HETATM   10  N4  UNL     1      -1.104  -0.698  -0.045  1.00  0.00    -0.173 N 
HETATM   11  C5  UNL     1      -2.459  -0.246   0.170  1.00  0.00     0.494 C 
HETATM   12  N5  UNL     1      -3.344  -1.391   0.346  1.00  0.00    -0.032 N 
HETATM   13  N6  UNL     1      -2.983   0.520  -0.935  1.00  0.00    -0.032 N 
ATOM     14  H53 UNL     1      -3.279  -2.048  -0.432  1.00  0.00     0.278 HD
ATOM     15  H52 UNL     1      -3.025  -2.010   1.091  1.00  0.00     0.278 HD
ATOM     16  H51 UNL     1      -4.301  -1.072   0.498  1.00  0.00     0.278 HD
ATOM     17  H63 UNL     1      -2.369   1.304  -1.157  1.00  0.00     0.278 HD
ATOM     18  H62 UNL     1      -2.909  -0.003  -1.807  1.00  0.00     0.278 HD
ATOM     19  H61 UNL     1      -3.940   0.839  -0.783  1.00  0.00     0.278 HD
ATOM     20  H4  UNL     1      -0.941  -1.684  -0.250  1.00  0.00     0.181 HD
ENDBRANCH   7  10
BRANCH   1  21
HETATM   21  N1  UNL     1       3.437   0.166  -0.309  1.00  0.00    -0.230 N 
HETATM   22  C1  UNL     1       3.923  -1.137  -0.607  1.00  0.00     0.165 C 
ATOM     23  H1  UNL     1       4.134   0.906  -0.232  1.00  0.00     0.177 HD
ENDBRANCH   1  21
TORSDOF 2
