REMARK  1 active torsions:
REMARK  status: ('A' for Active; 'I' for Inactive)
REMARK       I    between atoms: C1_4  and  N2_5 
REMARK       I    between atoms: C1_4  and  N5_14 
REMARK       I    between atoms: N2_5  and  C2_7 
REMARK       I    between atoms: C2_7  and  N3_9 
REMARK    1  A    between atoms: N3_9  and  N4_11 
ROOT
HETATM    1  N1  UNL     1       0.037   1.243   2.361  1.00  0.00    -0.234 N 
ATOM      2  H11 UNL     1      -0.839   1.214   2.883  1.00  0.00     0.174 HD
ATOM      3  H12 UNL     1       0.879   1.702   2.707  1.00  0.00     0.174 HD
HETATM    4  C1  UNL     1       0.120   0.681   1.196  1.00  0.00     0.679 C 
HETATM    5  N2  UNL     1       1.322   0.721   0.479  1.00  0.00    -0.140 N 
ATOM      6  H2  UNL     1       2.104   1.206   0.919  1.00  0.00     0.189 HD
HETATM    7  C2  UNL     1       1.559   0.154  -0.798  1.00  0.00     0.352 C 
HETATM    8  O1  UNL     1       0.697  -0.473  -1.464  1.00  0.00    -0.245 OA
HETATM    9  N3  UNL     1       2.846   0.272  -1.419  1.00  0.00    -0.258 N 
ATOM     10  H3  UNL     1       3.586   0.771  -0.924  1.00  0.00     0.191 HD
HETATM   11  N5  UNL     1      -1.040   0.049   0.719  1.00  0.00    -0.195 N 
HETATM   12  C3  UNL     1      -2.063   0.562  -0.165  1.00  0.00     0.169 C 
HETATM   13  C4  UNL     1      -2.859  -0.690  -0.496  1.00  0.00     0.190 C 
HETATM   14  O2  UNL     1      -2.071  -1.754  -0.081  1.00  0.00    -0.370 OA
HETATM   15  C5  UNL     1      -1.458  -1.293   1.061  1.00  0.00     0.311 C 
ENDROOT
BRANCH   9  16
HETATM   16  N4  UNL     1       3.123  -0.265  -2.664  1.00  0.00    -0.341 N 
ATOM     17  H42 UNL     1       2.372  -0.760  -3.145  1.00  0.00     0.177 HD
ATOM     18  H41 UNL     1       4.039  -0.181  -3.106  1.00  0.00     0.177 HD
ENDBRANCH   9  16
TORSDOF 1
