REMARK  2 active torsions:
REMARK  status: ('A' for Active; 'I' for Inactive)
REMARK    1  A    between atoms: N2_3  and  S1_5 
REMARK    2  A    between atoms: S1_5  and  N3_8 
REMARK       I    between atoms: N3_8  and  C2_10 
ROOT
HETATM    1  N1  UNL     1       4.015   0.777   0.464  1.00  0.00    -0.171 NA
HETATM    2  C1  UNL     1       3.082   0.238   0.044  1.00  0.00     0.193 C 
HETATM    3  N2  UNL     1       1.981  -0.411  -0.472  1.00  0.00    -0.203 N 
ATOM      4  H2  UNL     1       1.890  -0.536  -1.480  1.00  0.00     0.192 HD
ENDROOT
BRANCH   3   5
HETATM    5  S1  UNL     1       0.763  -1.010   0.578  1.00  0.00     0.333 S 
HETATM    6  O1  UNL     1       1.324  -1.357   1.947  1.00  0.00    -0.181 OA
HETATM    7  O2  UNL     1       0.091  -2.230   0.016  1.00  0.00    -0.181 OA
BRANCH   5   8
HETATM    8  N3  UNL     1      -0.431   0.201   0.828  1.00  0.00    -0.240 N 
HETATM    9  C2  UNL     1      -1.526   0.231  -0.069  1.00  0.00     0.196 C 
HETATM   10  N4  UNL     1      -2.358  -0.755  -0.088  1.00  0.00    -0.373 N 
HETATM   11  N5  UNL     1      -1.701   1.332  -0.932  1.00  0.00    -0.063 NA
ATOM     12  H42 UNL     1      -2.231  -1.552   0.536  1.00  0.00     0.158 HD
ATOM     13  H41 UNL     1      -3.147  -0.733  -0.734  1.00  0.00     0.158 HD
ATOM     14  H3  UNL     1      -0.354   0.872   1.593  1.00  0.00     0.183 HD
ENDBRANCH   5   8
ENDBRANCH   3   5
TORSDOF 2
