REMARK  1 active torsions:
REMARK  status: ('A' for Active; 'I' for Inactive)
REMARK       I    between atoms: N1_2  and  C2_4 
REMARK       I    between atoms: C2_4  and  N2_6 
REMARK       I    between atoms: C3_8  and  N4_10 
REMARK    1  A    between atoms: N4_10  and  N5_12 
ROOT
HETATM    1  C1  UNL     1      -3.436  -0.257  -0.387  1.00  0.00     0.151 C 
HETATM    2  N1  UNL     1      -2.111   0.279  -0.556  1.00  0.00    -0.347 N 
ATOM      3  H1  UNL     1      -1.979   1.290  -0.584  1.00  0.00     0.163 HD
HETATM    4  C2  UNL     1      -0.982  -0.576  -0.684  1.00  0.00     0.322 C 
HETATM    5  O1  UNL     1      -1.159  -1.820  -0.649  1.00  0.00    -0.247 OA
HETATM    6  N2  UNL     1       0.314  -0.015  -0.849  1.00  0.00    -0.282 N 
ATOM      7  H2  UNL     1       0.529   0.498  -1.704  1.00  0.00     0.173 HD
HETATM    8  C3  UNL     1       1.219  -0.138   0.051  1.00  0.00     0.210 C 
HETATM    9  N3  UNL     1       0.893  -0.856   1.230  1.00  0.00    -0.062 NA
HETATM   10  N4  UNL     1       2.500   0.442  -0.161  1.00  0.00    -0.280 N 
ATOM     11  H4  UNL     1       2.597   1.193  -0.844  1.00  0.00     0.189 HD
ENDROOT
BRANCH  10  12
HETATM   12  N5  UNL     1       3.626   0.013   0.539  1.00  0.00    -0.343 N 
ATOM     13  H52 UNL     1       3.511  -0.739   1.219  1.00  0.00     0.176 HD
ATOM     14  H51 UNL     1       4.545   0.429   0.387  1.00  0.00     0.176 HD
ENDBRANCH  10  12
TORSDOF 1
