REMARK  4 active torsions:
REMARK  status: ('A' for Active; 'I' for Inactive)
REMARK    1  A    between atoms: N2_4  and  C1_6 
REMARK    2  A    between atoms: C1_6  and  N3_7 
REMARK    3  A    between atoms: C1_6  and  N4_11 
REMARK    4  A    between atoms: C1_6  and  C2_15 
ROOT
HETATM    1  C1  UNL     1      -0.439  -0.014  -0.133  1.00  0.00     0.449 C 
ENDROOT
BRANCH   1   2
HETATM    2  N2  UNL     1      -1.543   0.850  -0.389  1.00  0.00    -0.277 N 
HETATM    3  N1  UNL     1      -1.484   1.816  -1.177  1.00  0.00    -0.345 N 
ATOM      4  H12 UNL     1      -0.597   1.981  -1.652  1.00  0.00     0.176 HD
ATOM      5  H11 UNL     1      -2.274   2.434  -1.360  1.00  0.00     0.176 HD
ATOM      6  H2  UNL     1      -2.423   0.670   0.095  1.00  0.00     0.184 HD
ENDBRANCH   1   2
BRANCH   1   7
HETATM    7  N3  UNL     1      -0.274  -1.029  -1.148  1.00  0.00    -0.017 N 
ATOM      8  H33 UNL     1      -1.134  -1.563  -1.274  1.00  0.00     0.280 HD
ATOM      9  H32 UNL     1      -0.202  -0.610  -2.075  1.00  0.00     0.280 HD
ATOM     10  H31 UNL     1       0.516  -1.647  -0.965  1.00  0.00     0.280 HD
ENDBRANCH   1   7
BRANCH   1  11
HETATM   11  N4  UNL     1      -0.679  -0.711   1.127  1.00  0.00    -0.017 N 
ATOM     12  H43 UNL     1      -0.863  -0.071   1.900  1.00  0.00     0.280 HD
ATOM     13  H42 UNL     1      -1.572  -1.203   1.138  1.00  0.00     0.280 HD
ATOM     14  H41 UNL     1       0.111  -1.329   1.310  1.00  0.00     0.280 HD
ENDBRANCH   1  11
BRANCH   1  15
HETATM   15  C2  UNL     1       0.832   0.761   0.047  1.00  0.00     0.318 C 
HETATM   16  N5  UNL     1       2.050   0.088   0.312  1.00  0.00    -0.056 NA
HETATM   17  O1  UNL     1       0.756   2.012  -0.049  1.00  0.00    -0.270 OA
ENDBRANCH   1  15
TORSDOF 4
