REMARK  4 active torsions:
REMARK  status: ('A' for Active; 'I' for Inactive)
REMARK    1  A    between atoms: N1_2  and  N2_4 
REMARK       I    between atoms: C2_6  and  N4_8 
REMARK    2  A    between atoms: N4_8  and  S1_10 
REMARK    3  A    between atoms: S1_10  and  N5_11 
REMARK    4  A    between atoms: S1_10  and  N6_15 
ROOT
HETATM    1  N2  UNL     1      -1.850  -0.571  -0.980  1.00  0.00    -0.278 N 
ATOM      2  H2  UNL     1      -1.807  -1.486  -1.428  1.00  0.00     0.189 HD
HETATM    3  C2  UNL     1      -0.760  -0.020  -0.579  1.00  0.00     0.216 C 
HETATM    4  N3  UNL     1      -0.850   1.253   0.041  1.00  0.00    -0.061 NA
HETATM    5  N4  UNL     1       0.486  -0.699  -0.768  1.00  0.00    -0.257 N 
ATOM      6  H4  UNL     1       0.713  -1.200  -1.627  1.00  0.00     0.181 HD
ENDROOT
BRANCH   5   7
HETATM    7  S1  UNL     1       1.488  -0.614   0.459  1.00  0.00     0.194 S 
HETATM    8  O1  UNL     1       0.635  -0.600   1.700  1.00  0.00    -0.206 OA
BRANCH   7   9
HETATM    9  N5  UNL     1       2.458  -2.017   0.462  1.00  0.00    -0.328 N 
ATOM     10  H52 UNL     1       2.393  -2.775  -0.218  1.00  0.00     0.168 HD
ATOM     11  H51 UNL     1       3.102  -1.962   1.251  1.00  0.00     0.168 HD
ENDBRANCH   7   9
BRANCH   7  12
HETATM   12  N6  UNL     1       2.327   0.834   0.343  1.00  0.00    -0.324 N 
HETATM   13  C3  UNL     1       3.193   1.010  -0.746  1.00  0.00     0.159 C 
ATOM     14  H6  UNL     1       2.211   1.565   1.044  1.00  0.00     0.171 HD
ENDBRANCH   7  12
ENDBRANCH   5   7
BRANCH   1  15
HETATM   15  N1  UNL     1      -3.074   0.040  -0.822  1.00  0.00    -0.338 N 
HETATM   16  C1  UNL     1      -4.101  -0.704  -0.084  1.00  0.00     0.167 C 
ATOM     17  H1  UNL     1      -3.259   0.969  -1.201  1.00  0.00     0.179 HD
ENDBRANCH   1  15
TORSDOF 4
