REMARK  0 active torsions:
REMARK  status: ('A' for Active; 'I' for Inactive)
ROOT
HETATM    1  O1  UNL     1      -3.026  -1.477   0.608  1.00  0.00    -0.247 OA
HETATM    2  C1  UNL     1      -1.978  -0.785   0.374  1.00  0.00     0.328 A 
HETATM    3  N1  UNL     1      -2.080   0.547   0.220  1.00  0.00    -0.273 N 
ATOM      4  H1  UNL     1      -2.991   1.001   0.289  1.00  0.00     0.173 HD
HETATM    5  C2  UNL     1      -0.973   1.282  -0.027  1.00  0.00     0.280 A 
HETATM    6  O2  UNL     1      -1.028   2.533  -0.178  1.00  0.00    -0.265 OA
HETATM    7  C3  UNL     1       0.269   0.698  -0.126  1.00  0.00     0.149 A 
HETATM    8  N2  UNL     1       1.527   1.144  -0.357  1.00  0.00    -0.301 N 
ATOM      9  H2  UNL     1       1.782   2.119  -0.516  1.00  0.00     0.171 HD
HETATM   10  C4  UNL     1       2.390   0.112  -0.346  1.00  0.00     0.326 A 
HETATM   11  O3  UNL     1       3.643   0.180  -0.529  1.00  0.00    -0.247 OA
HETATM   12  N3  UNL     1       1.647  -0.983  -0.104  1.00  0.00    -0.292 N 
ATOM     13  H3  UNL     1       2.021  -1.929  -0.036  1.00  0.00     0.172 HD
HETATM   14  C5  UNL     1       0.352  -0.670   0.036  1.00  0.00     0.146 A 
HETATM   15  N4  UNL     1      -0.778  -1.388   0.284  1.00  0.00    -0.292 N 
ATOM     16  H4  UNL     1      -0.714  -2.399   0.403  1.00  0.00     0.172 HD
ENDROOT
TORSDOF 0
