REMARK  2 active torsions:
REMARK  status: ('A' for Active; 'I' for Inactive)
REMARK       I    between atoms: C1_2  and  N2_4 
REMARK    1  A    between atoms: N2_4  and  C2_6 
REMARK    2  A    between atoms: C4_10  and  C5_11 
ROOT
HETATM    1  C2  UNL     1      -0.681   0.483   0.258  1.00  0.00     0.686 A 
HETATM    2  N3  UNL     1      -0.409  -0.747  -0.196  1.00  0.00    -0.199 N 
ATOM      3  H3  UNL     1      -1.088  -1.466  -0.444  1.00  0.00     0.183 HD
HETATM    4  C3  UNL     1       0.915  -0.853  -0.262  1.00  0.00     0.141 A 
HETATM    5  C4  UNL     1       1.512   0.319   0.154  1.00  0.00     0.130 A 
HETATM    6  N5  UNL     1       0.471   1.140   0.475  1.00  0.00    -0.185 N 
ATOM      7  H5  UNL     1       0.553   2.095   0.823  1.00  0.00     0.184 HD
ENDROOT
BRANCH   1   8
HETATM    8  N2  UNL     1      -1.833   1.021   0.478  1.00  0.00    -0.143 N 
HETATM    9  C1  UNL     1      -3.060   0.378   0.267  1.00  0.00     0.346 C 
HETATM   10  N1  UNL     1      -4.159   0.977  -0.420  1.00  0.00    -0.039 NA
HETATM   11  O1  UNL     1      -3.225  -0.795   0.701  1.00  0.00    -0.250 OA
ATOM     12  H2  UNL     1      -1.852   1.979   0.829  1.00  0.00     0.188 HD
ENDBRANCH   1   8
BRANCH   5  13
HETATM   13  C5  UNL     1       2.934   0.611   0.233  1.00  0.00     0.283 C 
HETATM   14  N4  UNL     1       3.858  -0.384  -0.149  1.00  0.00    -0.056 NA
HETATM   15  O2  UNL     1       3.353   1.713   0.626  1.00  0.00    -0.269 OA
ENDBRANCH   5  13
TORSDOF 2
