REMARK  3 active torsions:
REMARK  status: ('A' for Active; 'I' for Inactive)
REMARK    1  A    between atoms: N1_1  and  N2_4 
REMARK       I    between atoms: N2_4  and  C1_5 
REMARK    2  A    between atoms: C1_5  and  C2_7 
REMARK       I    between atoms: C2_7  and  N3_9 
REMARK       I    between atoms: N3_9  and  C3_10 
REMARK       I    between atoms: C3_10  and  N5_12 
REMARK    3  A    between atoms: N5_12  and  N6_14 
ROOT
HETATM    1  C2  UNL     1       0.754   0.827   0.277  1.00  0.00     0.403 C 
HETATM    2  O2  UNL     1       1.344   1.861   0.787  1.00  0.00    -0.244 OA
HETATM    3  N3  UNL     1      -0.510   0.843  -0.086  1.00  0.00    -0.327 NA
HETATM    4  C3  UNL     1      -1.651   0.611  -0.349  1.00  0.00     0.285 C 
HETATM    5  N4  UNL     1      -2.481   1.673  -0.860  1.00  0.00    -0.048 NA
HETATM    6  N5  UNL     1      -2.344  -0.642  -0.221  1.00  0.00    -0.268 N 
ATOM      7  H5  UNL     1      -2.611  -1.139  -1.071  1.00  0.00     0.190 HD
ENDROOT
BRANCH   1   8
HETATM    8  C1  UNL     1       1.685  -0.383   0.148  1.00  0.00     0.417 C 
HETATM    9  N2  UNL     1       2.961  -0.322   0.516  1.00  0.00    -0.283 NA
HETATM   10  O1  UNL     1       1.004  -1.362  -0.352  1.00  0.00    -0.242 OA
BRANCH   9  11
HETATM   11  N1  UNL     1       4.269  -0.259   0.893  1.00  0.00    -0.276 N 
ATOM     12  H12 UNL     1       3.292  -0.288   0.603  1.00  0.00     0.191 HD
ATOM     13  H11 UNL     1       5.248  -0.212   1.175  1.00  0.00     0.191 HD
ENDBRANCH   9  11
ENDBRANCH   1   8
BRANCH   6  14
HETATM   14  N6  UNL     1      -2.665  -1.204   1.000  1.00  0.00    -0.342 N 
ATOM     15  H62 UNL     1      -2.390  -0.693   1.839  1.00  0.00     0.176 HD
ATOM     16  H61 UNL     1      -3.157  -2.093   1.091  1.00  0.00     0.176 HD
ENDBRANCH   6  14
TORSDOF 3
