REMARK  1 active torsions:
REMARK  status: ('A' for Active; 'I' for Inactive)
REMARK       I    between atoms: N1_1  and  C1_4 
REMARK       I    between atoms: C1_4  and  N3_6 
REMARK    1  A    between atoms: N3_6  and  C2_8 
ROOT
HETATM    1  C2  UNL     1       0.085  -0.413   0.282  1.00  0.00     0.192 A 
HETATM    2  N4  UNL     1       0.417   0.717  -0.360  1.00  0.00    -0.277 N 
ATOM      3  H4  UNL     1      -0.289   1.408  -0.614  1.00  0.00     0.189 HD
HETATM    4  N5  UNL     1       1.694   0.901  -0.651  1.00  0.00    -0.250 N 
ATOM      5  H5  UNL     1       1.960   1.757  -1.138  1.00  0.00     0.192 HD
HETATM    6  C3  UNL     1       2.656   0.024  -0.341  1.00  0.00     0.341 A 
HETATM    7  O1  UNL     1       3.878   0.204  -0.623  1.00  0.00    -0.245 OA
HETATM    8  N6  UNL     1       2.355  -1.125   0.305  1.00  0.00    -0.271 N 
ATOM      9  H6  UNL     1       3.076  -1.805   0.549  1.00  0.00     0.174 HD
HETATM   10  C4  UNL     1       1.058  -1.331   0.612  1.00  0.00     0.295 A 
HETATM   11  O2  UNL     1       0.781  -2.414   1.221  1.00  0.00    -0.264 OA
ENDROOT
BRANCH   1  12
HETATM   12  N3  UNL     1      -1.138  -0.651   0.595  1.00  0.00    -0.311 N 
HETATM   13  C1  UNL     1      -2.214   0.205   0.313  1.00  0.00     0.187 C 
HETATM   14  N1  UNL     1      -2.365   1.308   0.982  1.00  0.00    -0.373 N 
HETATM   15  N2  UNL     1      -3.185  -0.066  -0.695  1.00  0.00    -0.064 NA
ATOM     16  H12 UNL     1      -3.147   1.930   0.777  1.00  0.00     0.158 HD
ATOM     17  H11 UNL     1      -1.670   1.502   1.703  1.00  0.00     0.158 HD
ATOM     18  H3  UNL     1      -1.341  -1.523   1.083  1.00  0.00     0.170 HD
ENDBRANCH   1  12
TORSDOF 1
