REMARK  2 active torsions:
REMARK  status: ('A' for Active; 'I' for Inactive)
REMARK       I    between atoms: C1_2  and  N2_4 
REMARK    1  A    between atoms: N2_4  and  C2_5 
REMARK    2  A    between atoms: C2_5  and  N3_6 
ROOT
HETATM    1  C2  UNL     1       0.359  -0.015  -0.064  1.00  0.00     0.421 C 
HETATM    2  N4  UNL     1       0.748  -0.477  -1.404  1.00  0.00    -0.274 N 
ATOM      3  H4  UNL     1       0.343  -1.244  -1.941  1.00  0.00     0.170 HD
HETATM    4  C3  UNL     1       1.827   0.392  -1.791  1.00  0.00     0.327 C 
HETATM    5  O2  UNL     1       2.828   0.180  -2.507  1.00  0.00    -0.247 OA
HETATM    6  N5  UNL     1       1.505   1.646  -1.142  1.00  0.00    -0.273 N 
ATOM      7  H5  UNL     1       2.053   2.505  -1.193  1.00  0.00     0.173 HD
HETATM    8  C4  UNL     1       0.293   1.471  -0.423  1.00  0.00     0.319 C 
HETATM    9  O3  UNL     1      -0.627   2.255  -0.122  1.00  0.00    -0.265 OA
ENDROOT
BRANCH   1  10
HETATM   10  N2  UNL     1      -0.707  -0.515   0.511  1.00  0.00    -0.329 NA
HETATM   11  C1  UNL     1      -1.839  -1.045   1.121  1.00  0.00     0.405 C 
HETATM   12  N1  UNL     1      -2.986  -0.161   1.342  1.00  0.00    -0.025 NA
HETATM   13  O1  UNL     1      -2.024  -2.213   1.528  1.00  0.00    -0.234 OA
ENDBRANCH   1  10
BRANCH   1  14
HETATM   14  N3  UNL     1       1.617  -0.108   0.729  1.00  0.00    -0.012 N 
ATOM     15  H33 UNL     1       1.484   0.316   1.647  1.00  0.00     0.281 HD
ATOM     16  H32 UNL     1       1.788  -1.076   1.001  1.00  0.00     0.281 HD
ATOM     17  H31 UNL     1       2.447   0.281   0.281  1.00  0.00     0.281 HD
ENDBRANCH   1  14
TORSDOF 2
