REMARK  5 active torsions:
REMARK  status: ('A' for Active; 'I' for Inactive)
REMARK    1  A    between atoms: C2_2  and  S1_5 
REMARK    2  A    between atoms: S1_5  and  N1_8 
REMARK    3  A    between atoms: N1_8  and  C5_10 
REMARK    4  A    between atoms: C5_10  and  C6_11 
REMARK    5  A    between atoms: C6_11  and  N2_12 
REMARK       I    between atoms: N2_12  and  C7_14 
REMARK       I    between atoms: C7_14  and  N3_16 
ROOT
HETATM    1  C6  UNL     1       0.802  -0.834   0.316  1.00  0.00     0.051 C 
HETATM    2  C11 UNL     1       0.770  -1.827  -0.795  1.00  0.00     0.033 C 
HETATM    3  C12 UNL     1      -0.049  -2.960  -0.217  1.00  0.00     0.002 C 
HETATM    4  C13 UNL     1       0.571  -3.091   1.158  1.00  0.00     0.002 C 
HETATM    5  C14 UNL     1       0.932  -1.680   1.548  1.00  0.00     0.033 C 
ENDROOT
BRANCH   1   6
HETATM    6  C5  UNL     1      -0.544  -0.103   0.439  1.00  0.00     0.163 C 
BRANCH   6   7
HETATM    7  N1  UNL     1      -0.873   0.667  -0.682  1.00  0.00    -0.317 N 
ATOM      8  H1  UNL     1      -0.290   0.738  -1.516  1.00  0.00     0.172 HD
BRANCH   7   9
HETATM    9  S1  UNL     1      -2.356   1.468  -0.492  1.00  0.00     0.234 S 
HETATM   10  O1  UNL     1      -2.198   2.437   0.662  1.00  0.00    -0.205 OA
HETATM   11  O2  UNL     1      -2.506   2.376  -1.721  1.00  0.00    -0.205 OA
BRANCH   9  12
HETATM   12  C2  UNL     1      -3.790   0.515  -0.280  1.00  0.00     0.072 C 
HETATM   13  C1  UNL     1      -3.843  -0.350   0.926  1.00  0.00     0.033 C 
HETATM   14  C3  UNL     1      -4.087  -0.355  -1.488  1.00  0.00     0.033 C 
HETATM   15  C4  UNL     1      -4.973   1.492  -0.160  1.00  0.00     0.033 C 
ENDBRANCH   9  12
ENDBRANCH   7   9
ENDBRANCH   6   7
ENDBRANCH   1   6
BRANCH   1  16
HETATM   16  N2  UNL     1       1.813   0.158   0.140  1.00  0.00    -0.332 N 
HETATM   17  C7  UNL     1       3.205  -0.037   0.027  1.00  0.00     0.319 C 
HETATM   18  O3  UNL     1       3.664  -1.194   0.086  1.00  0.00    -0.247 OA
HETATM   19  N3  UNL     1       4.116   1.030  -0.152  1.00  0.00    -0.334 N 
HETATM   20  C8  UNL     1       5.546   1.204  -0.300  1.00  0.00     0.129 C 
HETATM   21  C10 UNL     1       3.984   2.472  -0.266  1.00  0.00     0.129 C 
HETATM   22  C9  UNL     1       5.418   2.658   0.164  1.00  0.00     0.040 C 
ATOM     23  H2  UNL     1       1.490   1.124   0.090  1.00  0.00     0.165 HD
ENDBRANCH   1  16
TORSDOF 5
