REMARK  5 active torsions:
REMARK  status: ('A' for Active; 'I' for Inactive)
REMARK       I    between atoms: C1_2  and  N1_3 
REMARK    1  A    between atoms: C1_2  and  C12_15 
REMARK    2  A    between atoms: N1_3  and  C2_4 
REMARK    3  A    between atoms: C2_4  and  C3_5 
REMARK    4  A    between atoms: C3_5  and  N2_6 
REMARK       I    between atoms: C12_15  and  N3_17 
REMARK    5  A    between atoms: N3_17  and  C13_19 
ROOT
HETATM    1  O1  UNL     1       0.926   0.456  -1.741  1.00  0.00    -0.246 OA
HETATM    2  C1  UNL     1       0.863  -0.233  -0.714  1.00  0.00     0.379 C 
HETATM    3  N1  UNL     1      -0.426  -0.558  -0.184  1.00  0.00    -0.405 NA
ENDROOT
BRANCH   2   4
HETATM    4  C12 UNL     1       2.101  -0.686  -0.077  1.00  0.00     0.324 C 
HETATM    5  O2  UNL     1       2.068  -1.602   0.796  1.00  0.00    -0.261 OA
HETATM    6  N3  UNL     1       3.293  -0.067  -0.474  1.00  0.00    -0.347 N 
ATOM      7  H3  UNL     1       3.265   0.694  -1.152  1.00  0.00     0.163 HD
BRANCH   6   8
HETATM    8  C13 UNL     1       4.573  -0.499   0.071  1.00  0.00     0.085 C 
HETATM    9  C14 UNL     1       4.951   0.400   1.272  1.00  0.00     0.025 C 
HETATM   10  C15 UNL     1       6.047  -0.380   1.983  1.00  0.00     0.002 C 
HETATM   11  C16 UNL     1       7.215  -0.579   1.070  1.00  0.00     0.000 C 
HETATM   12  C17 UNL     1       7.038  -0.128  -0.338  1.00  0.00     0.002 C 
HETATM   13  C18 UNL     1       5.679  -0.303  -0.915  1.00  0.00     0.025 C 
ENDBRANCH   6   8
ENDBRANCH   2   4
BRANCH   3  14
HETATM   14  C2  UNL     1      -1.612  -0.856   0.303  1.00  0.00     0.253 C 
BRANCH  14  15
HETATM   15  C3  UNL     1      -2.655   0.324   0.199  1.00  0.00     0.063 A 
HETATM   16  C9  UNL     1      -2.718   0.988  -1.131  1.00  0.00     0.034 A 
HETATM   17  C10 UNL     1      -2.025   2.238  -0.564  1.00  0.00     0.005 A 
HETATM   18  C11 UNL     1      -1.969   1.507   0.750  1.00  0.00     0.034 A 
BRANCH  15  19
HETATM   19  N2  UNL     1      -3.959  -0.074   0.678  1.00  0.00    -0.361 N 
HETATM   20  C4  UNL     1      -4.880   0.953   0.802  1.00  0.00     0.064 C 
HETATM   21  C5  UNL     1      -6.240   0.728   0.229  1.00  0.00     0.045 C 
HETATM   22  C6  UNL     1      -6.229  -0.390  -0.829  1.00  0.00     0.010 C 
HETATM   23  C7  UNL     1      -5.713  -1.586  -0.090  1.00  0.00     0.045 C 
HETATM   24  C8  UNL     1      -4.295  -1.400   0.344  1.00  0.00     0.064 C 
ENDBRANCH  15  19
ENDBRANCH  14  15
ENDBRANCH   3  14
TORSDOF 5
