REMARK  4 active torsions:
REMARK  status: ('A' for Active; 'I' for Inactive)
REMARK    1  A    between atoms: C1_2  and  C2_4 
REMARK    2  A    between atoms: C2_4  and  O2_5 
REMARK       I    between atoms: N2_12  and  C8_13 
REMARK    3  A    between atoms: C8_13  and  C9_15 
REMARK    4  A    between atoms: C9_15  and  C10_16 
ROOT
HETATM    1  C2  UNL     1      -4.853   0.565   0.329  1.00  0.00     0.136 C 
HETATM    2  C3  UNL     1      -4.353   0.089   1.678  1.00  0.00     0.048 C 
HETATM    3  C4  UNL     1      -3.205  -0.821   1.294  1.00  0.00     0.013 C 
HETATM    4  C5  UNL     1      -2.517  -0.063   0.151  1.00  0.00    -0.034 C 
HETATM    5  C6  UNL     1      -1.747   1.056   0.786  1.00  0.00     0.029 C 
HETATM    6  C7  UNL     1      -0.855   1.771  -0.209  1.00  0.00     0.126 C 
HETATM    7  N2  UNL     1       0.042   0.746  -0.746  1.00  0.00    -0.352 N 
HETATM    8  C8  UNL     1       1.457   0.894  -0.605  1.00  0.00     0.220 C 
HETATM    9  O3  UNL     1       1.916   1.895  -0.026  1.00  0.00    -0.273 OA
HETATM   10  C16 UNL     1      -0.562  -0.375  -1.398  1.00  0.00     0.126 C 
HETATM   11  C17 UNL     1      -1.702  -0.986  -0.677  1.00  0.00     0.029 C 
HETATM   12  C18 UNL     1      -3.704   0.423  -0.636  1.00  0.00     0.057 C 
ENDROOT
BRANCH   1  13
HETATM   13  C1  UNL     1      -6.033  -0.231  -0.104  1.00  0.00     0.265 C 
HETATM   14  N1  UNL     1      -5.960  -1.645  -0.226  1.00  0.00    -0.059 NA
HETATM   15  O1  UNL     1      -7.133   0.316  -0.378  1.00  0.00    -0.273 OA
ENDBRANCH   1  13
BRANCH   1  16
HETATM   16  O2  UNL     1      -5.196   1.917   0.364  1.00  0.00    -0.381 OA
ATOM     17  H2  UNL     1      -4.443   2.425   0.640  1.00  0.00     0.211 HD
ENDBRANCH   1  16
BRANCH   8  18
HETATM   18  C9  UNL     1       2.310  -0.162  -1.161  1.00  0.00     0.107 C 
BRANCH  18  19
HETATM   19  C10 UNL     1       3.750   0.162  -0.920  1.00  0.00    -0.006 C 
HETATM   20  C11 UNL     1       4.670  -0.900  -1.478  1.00  0.00     0.005 C 
HETATM   21  C12 UNL     1       6.106  -0.463  -1.342  1.00  0.00     0.000 C 
HETATM   22  C13 UNL     1       6.329   0.092   0.042  1.00  0.00     0.000 C 
HETATM   23  C14 UNL     1       5.223  -0.392   0.949  1.00  0.00     0.000 C 
HETATM   24  C15 UNL     1       3.966   0.374   0.544  1.00  0.00     0.005 C 
ENDBRANCH  18  19
ENDBRANCH   8  18
TORSDOF 4
