REMARK  4 active torsions:
REMARK  status: ('A' for Active; 'I' for Inactive)
REMARK       I    between atoms: C1_2  and  N1_3 
REMARK       I    between atoms: C1_2  and  N2_12 
REMARK    1  A    between atoms: N1_3  and  C2_5 
REMARK    2  A    between atoms: C2_5  and  C3_6 
REMARK    3  A    between atoms: C10_15  and  C11_16 
REMARK    4  A    between atoms: C11_16  and  N3_17 
ROOT
HETATM    1  O1  UNL     1      -2.265  -1.515  -0.225  1.00  0.00    -0.247 OA
HETATM    2  C1  UNL     1      -1.897  -0.370   0.150  1.00  0.00     0.318 C 
HETATM    3  N1  UNL     1      -2.733   0.375   0.988  1.00  0.00    -0.343 N 
ATOM      4  H1  UNL     1      -2.420   1.298   1.289  1.00  0.00     0.164 HD
HETATM    5  N2  UNL     1      -0.642   0.092  -0.308  1.00  0.00    -0.334 N 
HETATM    6  C8  UNL     1      -0.055   1.380   0.026  1.00  0.00     0.128 C 
HETATM    7  C9  UNL     1       1.459   1.205   0.213  1.00  0.00     0.030 C 
HETATM    8  C10 UNL     1       1.727  -0.242   0.637  1.00  0.00     0.027 C 
HETATM    9  C17 UNL     1       1.482  -1.136  -0.520  1.00  0.00     0.030 C 
HETATM   10  C18 UNL     1       0.180  -0.743  -1.195  1.00  0.00     0.128 C 
ENDROOT
BRANCH   3  11
HETATM   11  C2  UNL     1      -4.013  -0.097   1.447  1.00  0.00     0.129 C 
BRANCH  11  12
HETATM   12  C3  UNL     1      -4.959  -0.342   0.329  1.00  0.00     0.007 C 
HETATM   13  C4  UNL     1      -6.312  -0.843   0.812  1.00  0.00     0.032 C 
HETATM   14  C5  UNL     1      -7.124  -1.158  -0.428  1.00  0.00     0.168 C 
HETATM   15  O2  UNL     1      -7.386   0.038  -1.118  1.00  0.00    -0.391 OA
HETATM   16  C6  UNL     1      -6.185   0.560  -1.585  1.00  0.00     0.168 C 
HETATM   17  C7  UNL     1      -5.237   0.927  -0.462  1.00  0.00     0.032 C 
ENDBRANCH  11  12
ENDBRANCH   3  11
BRANCH   8  18
HETATM   18  C11 UNL     1       3.017  -0.380   1.359  1.00  0.00     0.068 C 
BRANCH  18  19
HETATM   19  N3  UNL     1       4.202  -0.015   0.708  1.00  0.00    -0.373 N 
HETATM   20  C12 UNL     1       4.706  -0.767  -0.359  1.00  0.00     0.063 C 
HETATM   21  C13 UNL     1       6.216  -0.959  -0.315  1.00  0.00     0.044 C 
HETATM   22  C14 UNL     1       6.863   0.391  -0.248  1.00  0.00     0.007 C 
HETATM   23  C15 UNL     1       6.375   1.097   0.974  1.00  0.00     0.021 C 
HETATM   24  C16 UNL     1       4.878   1.158   1.108  1.00  0.00     0.127 C 
ENDBRANCH  18  19
ENDBRANCH   8  18
TORSDOF 4
