REMARK  5 active torsions:
REMARK  status: ('A' for Active; 'I' for Inactive)
REMARK    1  A    between atoms: C2_2  and  C3_3 
REMARK    2  A    between atoms: C3_3  and  C4_4 
REMARK    3  A    between atoms: N5_18  and  C9_19 
REMARK    4  A    between atoms: C9_19  and  C10_20 
REMARK       I    between atoms: C10_20  and  N6_22 
REMARK    5  A    between atoms: N6_22  and  C11_24 
ROOT
HETATM    1  C4  UNL     1       3.566   0.420  -0.328  1.00  0.00     0.009 C 
HETATM    2  N1  UNL     1       2.488   0.654  -1.065  1.00  0.00    -0.313 N 
ATOM      3  H1  UNL     1       2.623   1.251  -1.881  1.00  0.00     0.170 HD
HETATM    4  C5  UNL     1       1.146   0.165  -0.850  1.00  0.00     0.348 C 
HETATM    5  O1  UNL     1       0.166   0.883  -1.090  1.00  0.00    -0.245 OA
HETATM    6  N2  UNL     1       0.838  -1.139  -0.366  1.00  0.00    -0.166 N 
HETATM    7  C6  UNL     1       1.714  -1.924   0.456  1.00  0.00     0.210 A 
HETATM    8  N3  UNL     1       2.841  -1.583   0.949  1.00  0.00    -0.355 N 
ATOM      9  H3  UNL     1       3.279  -2.321   1.500  1.00  0.00     0.163 HD
HETATM   10  C7  UNL     1       3.627  -0.374   0.892  1.00  0.00     0.175 C 
HETATM   11  N4  UNL     1       1.101  -3.182   0.704  1.00  0.00    -0.277 N 
ATOM     12  H4  UNL     1       1.486  -3.949   1.255  1.00  0.00     0.173 HD
HETATM   13  C8  UNL     1      -0.171  -3.163   0.024  1.00  0.00     0.344 A 
HETATM   14  O2  UNL     1      -1.011  -4.092   0.003  1.00  0.00    -0.245 OA
HETATM   15  N5  UNL     1      -0.299  -1.875  -0.630  1.00  0.00    -0.220 N 
ENDROOT
BRANCH  15  16
HETATM   16  C9  UNL     1      -1.409  -1.419  -1.426  1.00  0.00     0.257 C 
BRANCH  16  17
HETATM   17  C10 UNL     1      -2.409  -0.742  -0.549  1.00  0.00     0.238 C 
HETATM   18  O3  UNL     1      -2.239  -0.634   0.699  1.00  0.00    -0.272 OA
HETATM   19  N6  UNL     1      -3.598  -0.189  -1.094  1.00  0.00    -0.352 N 
ATOM     20  H6  UNL     1      -3.764  -0.260  -2.098  1.00  0.00     0.163 HD
BRANCH  19  21
HETATM   21  C11 UNL     1      -4.575   0.469  -0.266  1.00  0.00     0.022 C 
HETATM   22  C12 UNL     1      -4.008   1.649   0.441  1.00  0.00     0.037 C 
HETATM   23  C13 UNL     1      -5.742   0.887  -1.156  1.00  0.00     0.037 C 
HETATM   24  C14 UNL     1      -5.118  -0.510   0.763  1.00  0.00     0.037 C 
ENDBRANCH  19  21
ENDBRANCH  16  17
ENDBRANCH  15  16
BRANCH   1  25
HETATM   25  C3  UNL     1       4.794   1.071  -0.826  1.00  0.00     0.054 C 
BRANCH  25  26
HETATM   26  C2  UNL     1       5.425   2.122  -0.023  1.00  0.00     0.001 C 
HETATM   27  C1  UNL     1       5.935   1.674   1.312  1.00  0.00     0.005 C 
ENDBRANCH  25  26
ENDBRANCH   1  25
TORSDOF 5
