REMARK  5 active torsions:
REMARK  status: ('A' for Active; 'I' for Inactive)
REMARK    1  A    between atoms: N1_4  and  N2_6 
REMARK       I    between atoms: N2_6  and  C3_8 
REMARK    2  A    between atoms: C3_8  and  C4_10 
REMARK    3  A    between atoms: N3_14  and  C8_15 
REMARK    4  A    between atoms: C8_15  and  N4_17 
REMARK    5  A    between atoms: N4_17  and  C9_19 
ROOT
HETATM    1  C4  UNL     1       1.648   0.800   0.579  1.00  0.00     0.180 C 
HETATM    2  C5  UNL     1       2.398   2.046   0.208  1.00  0.00     0.037 C 
HETATM    3  C6  UNL     1       1.480   2.751  -0.805  1.00  0.00     0.022 C 
HETATM    4  C7  UNL     1       0.127   2.370  -0.310  1.00  0.00     0.126 C 
HETATM    5  N3  UNL     1       0.280   1.073   0.270  1.00  0.00    -0.345 N 
ENDROOT
BRANCH   1   6
HETATM    6  C3  UNL     1       2.208  -0.305  -0.253  1.00  0.00     0.259 C 
HETATM    7  N2  UNL     1       3.547  -0.724  -0.063  1.00  0.00    -0.268 N 
ATOM      8  H2  UNL     1       4.119  -0.263   0.645  1.00  0.00     0.190 HD
HETATM    9  O1  UNL     1       1.521  -0.880  -1.127  1.00  0.00    -0.269 OA
BRANCH   7  10
HETATM   10  N1  UNL     1       4.101  -1.754  -0.824  1.00  0.00    -0.295 N 
HETATM   11  C2  UNL     1       5.318  -2.145  -0.685  1.00  0.00     0.068 C 
HETATM   12  C1  UNL     1       6.158  -1.465   0.331  1.00  0.00     0.078 C 
HETATM   13 BR1  UNL     1       6.086  -3.546  -1.714  1.00  0.00    -0.035 Br
ATOM     14  H1  UNL     1       3.516  -2.216  -1.520  1.00  0.00     0.187 HD
ENDBRANCH   7  10
ENDBRANCH   1   6
BRANCH   5  15
HETATM   15  C8  UNL     1      -0.859   0.212   0.489  1.00  0.00     0.170 C 
HETATM   16  S1  UNL     1      -0.578  -1.237   1.170  1.00  0.00    -0.041 SA
BRANCH  15  17
HETATM   17  N4  UNL     1      -2.172   0.595   0.137  1.00  0.00    -0.362 N 
ATOM     18  H4  UNL     1      -2.308   1.514  -0.285  1.00  0.00     0.162 HD
BRANCH  17  19
HETATM   19  C9  UNL     1      -3.317  -0.229   0.338  1.00  0.00     0.083 C 
HETATM   20  C10 UNL     1      -4.604   0.468  -0.127  1.00  0.00     0.025 C 
HETATM   21  C11 UNL     1      -5.556  -0.675  -0.353  1.00  0.00     0.002 C 
HETATM   22  C12 UNL     1      -4.766  -1.941  -0.310  1.00  0.00     0.002 C 
HETATM   23  C13 UNL     1      -3.346  -1.437  -0.611  1.00  0.00     0.025 C 
ENDBRANCH  17  19
ENDBRANCH  15  17
ENDBRANCH   5  15
TORSDOF 5
