REMARK  4 active torsions:
REMARK  status: ('A' for Active; 'I' for Inactive)
REMARK    1  A    between atoms: C2_2  and  N1_3 
REMARK       I    between atoms: N1_3  and  C3_5 
REMARK    2  A    between atoms: C3_5  and  C4_7 
REMARK       I    between atoms: N2_13  and  C10_14 
REMARK       I    between atoms: C10_14  and  N3_16 
REMARK    3  A    between atoms: N3_16  and  S1_18 
REMARK    4  A    between atoms: S1_18  and  C11_21 
ROOT
HETATM    1  C4  UNL     1       2.003   0.195   1.140  1.00  0.00     0.061 A 
HETATM    2  C5  UNL     1       2.977  -0.425   2.083  1.00  0.00     0.027 A 
HETATM    3  C6  UNL     1       2.341  -1.145   0.848  1.00  0.00     0.006 A 
HETATM    4  C7  UNL     1       1.578  -2.323   1.194  1.00  0.00     0.007 C 
HETATM    5  C8  UNL     1       0.208  -2.509   0.608  1.00  0.00     0.020 C 
HETATM    6  C9  UNL     1      -0.720  -1.626   1.436  1.00  0.00     0.127 C 
HETATM    7  N2  UNL     1      -0.425  -0.269   1.097  1.00  0.00    -0.332 N 
HETATM    8  C10 UNL     1      -1.235   0.338   0.113  1.00  0.00     0.331 C 
HETATM    9  O2  UNL     1      -1.051   1.554  -0.230  1.00  0.00    -0.246 OA
HETATM   10  N3  UNL     1      -2.271  -0.387  -0.520  1.00  0.00    -0.233 N 
ATOM     11  H3  UNL     1      -2.448  -1.361  -0.275  1.00  0.00     0.183 HD
HETATM   12  C14 UNL     1       0.641   0.534   1.669  1.00  0.00     0.147 C 
ENDROOT
BRANCH  10  13
HETATM   13  S1  UNL     1      -3.243   0.416  -1.729  1.00  0.00     0.271 S 
HETATM   14  O3  UNL     1      -3.081  -0.283  -3.050  1.00  0.00    -0.202 OA
HETATM   15  O4  UNL     1      -2.797   1.841  -1.868  1.00  0.00    -0.202 OA
BRANCH  13  16
HETATM   16  C11 UNL     1      -4.947   0.375  -1.243  1.00  0.00     0.217 C 
HETATM   17  C12 UNL     1      -5.428  -1.037  -1.100  1.00  0.00     0.071 C 
HETATM   18  C13 UNL     1      -5.062   1.104   0.080  1.00  0.00     0.071 C 
HETATM   19  F1  UNL     1      -5.683   1.032  -2.210  1.00  0.00    -0.225 F 
ENDBRANCH  13  16
ENDBRANCH  10  13
BRANCH   1  20
HETATM   20  C3  UNL     1       2.614   1.308   0.364  1.00  0.00     0.228 C 
HETATM   21  N1  UNL     1       3.751   1.157  -0.457  1.00  0.00    -0.361 N 
ATOM     22  H1  UNL     1       4.184   0.236  -0.525  1.00  0.00     0.162 HD
HETATM   23  O1  UNL     1       2.128   2.489   0.401  1.00  0.00    -0.273 OA
BRANCH  21  24
HETATM   24  C2  UNL     1       4.334   2.255  -1.211  1.00  0.00     0.118 C 
HETATM   25  C1  UNL     1       5.540   1.779  -1.991  1.00  0.00     0.026 C 
ENDBRANCH  21  24
ENDBRANCH   1  20
TORSDOF 4
