REMARK  3 active torsions:
REMARK  status: ('A' for Active; 'I' for Inactive)
REMARK    1  A    between atoms: C6_7  and  N1_8 
REMARK    2  A    between atoms: C6_7  and  C12_18 
REMARK       I    between atoms: N1_8  and  C7_10 
REMARK       I    between atoms: C7_10  and  N2_12 
REMARK       I    between atoms: C12_18  and  N3_20 
REMARK    3  A    between atoms: N3_20  and  C13_22 
ROOT
HETATM    1  C1  UNL     1      -0.102  -4.659  -0.940  1.00  0.00     0.053 C 
HETATM    2  C2  UNL     1      -0.373  -3.381  -0.183  1.00  0.00     0.110 C 
HETATM    3  F1  UNL     1      -1.726  -3.187  -0.076  1.00  0.00    -0.242 F 
HETATM    4  C3  UNL     1       0.217  -3.313   1.231  1.00  0.00     0.029 C 
HETATM    5  C4  UNL     1       1.498  -2.950   0.547  1.00  0.00     0.019 C 
HETATM    6  C5  UNL     1       0.523  -2.234  -0.421  1.00  0.00     0.063 C 
HETATM    7  C6  UNL     1       0.029  -1.139   0.406  1.00  0.00     0.122 C 
HETATM    8  C18 UNL     1      -0.269  -1.983   1.699  1.00  0.00     0.049 C 
ENDROOT
BRANCH   7   9
HETATM    9  N1  UNL     1      -1.180  -0.498   0.010  1.00  0.00    -0.324 N 
HETATM   10  C7  UNL     1      -1.693   0.728   0.517  1.00  0.00     0.319 C 
HETATM   11  O1  UNL     1      -1.102   1.388   1.399  1.00  0.00    -0.247 OA
HETATM   12  N2  UNL     1      -2.915   1.265  -0.001  1.00  0.00    -0.330 N 
HETATM   13  C8  UNL     1      -3.255   2.667   0.328  1.00  0.00     0.153 C 
HETATM   14  C11 UNL     1      -3.890   0.562  -0.784  1.00  0.00     0.153 C 
HETATM   15  C9  UNL     1      -4.633   2.972  -0.194  1.00  0.00     0.187 C 
HETATM   16  O2  UNL     1      -5.562   2.033   0.198  1.00  0.00    -0.388 OA
HETATM   17  C10 UNL     1      -5.295   0.767  -0.253  1.00  0.00     0.187 C 
ATOM     18  H1  UNL     1      -1.733  -0.965  -0.709  1.00  0.00     0.165 HD
ENDBRANCH   7   9
BRANCH   7  19
HETATM   19  C12 UNL     1       1.106  -0.178   0.743  1.00  0.00     0.247 C 
HETATM   20  O3  UNL     1       1.456   0.054   1.927  1.00  0.00    -0.271 OA
HETATM   21  N3  UNL     1       1.755   0.511  -0.334  1.00  0.00    -0.354 N 
ATOM     22  H3  UNL     1       1.380   0.295  -1.258  1.00  0.00     0.162 HD
BRANCH  21  23
HETATM   23  C13 UNL     1       2.803   1.420  -0.340  1.00  0.00     0.084 C 
HETATM   24  C14 UNL     1       2.929   2.601   0.548  1.00  0.00     0.025 C 
HETATM   25  C15 UNL     1       4.381   3.048   0.176  1.00  0.00     0.002 C 
HETATM   26  C16 UNL     1       5.117   1.743  -0.140  1.00  0.00     0.002 C 
HETATM   27  C17 UNL     1       4.094   0.659   0.098  1.00  0.00     0.025 C 
ENDBRANCH  21  23
ENDBRANCH   7  19
TORSDOF 3
