REMARK  4 active torsions:
REMARK  status: ('A' for Active; 'I' for Inactive)
REMARK       I    between atoms: N1_2  and  C2_4 
REMARK       I    between atoms: C2_4  and  N2_6 
REMARK       I    between atoms: N2_6  and  C3_8 
REMARK       I    between atoms: C3_8  and  N3_10 
REMARK    1  A    between atoms: C6_13  and  C7_14 
REMARK    2  A    between atoms: C7_14  and  C8_15 
REMARK    3  A    between atoms: C8_15  and  N4_16 
REMARK    4  A    between atoms: N4_16  and  C10_18 
ROOT
HETATM    1  C1  UNL     1       8.713   0.793  -0.297  1.00  0.00     0.151 C 
HETATM    2  N1  UNL     1       7.309   0.374  -0.454  1.00  0.00    -0.347 N 
ATOM      3  H1  UNL     1       6.908   0.198  -1.375  1.00  0.00     0.163 HD
HETATM    4  C2  UNL     1       6.545   0.226   0.716  1.00  0.00     0.323 C 
HETATM    5  O1  UNL     1       7.109   0.459   1.836  1.00  0.00    -0.247 OA
HETATM    6  N2  UNL     1       5.200  -0.161   0.765  1.00  0.00    -0.261 N 
ATOM      7  H2  UNL     1       4.791  -0.226   1.697  1.00  0.00     0.175 HD
HETATM    8  C3  UNL     1       4.338  -0.472  -0.304  1.00  0.00     0.326 C 
HETATM    9  O2  UNL     1       4.778  -0.421  -1.480  1.00  0.00    -0.247 OA
HETATM   10  N3  UNL     1       2.985  -0.839  -0.036  1.00  0.00    -0.333 N 
HETATM   11  C4  UNL     1       2.483  -0.891   1.300  1.00  0.00     0.128 C 
HETATM   12  C5  UNL     1       0.979  -1.064   1.349  1.00  0.00     0.030 C 
HETATM   13  C6  UNL     1       0.291  -0.181   0.331  1.00  0.00    -0.032 A 
HETATM   14  C15 UNL     1       1.019   0.949  -0.230  1.00  0.00     0.017 A 
HETATM   15  C16 UNL     1       0.820  -0.342  -1.019  1.00  0.00     0.013 A 
HETATM   16  C17 UNL     1       2.070  -1.182  -1.119  1.00  0.00     0.133 C 
ENDROOT
BRANCH  13  17
HETATM   17  C7  UNL     1      -1.219  -0.075   0.593  1.00  0.00     0.040 C 
BRANCH  17  18
HETATM   18  C8  UNL     1      -1.869   0.806  -0.420  1.00  0.00     0.273 C 
BRANCH  18  19
HETATM   19  N4  UNL     1      -3.258   1.045  -0.319  1.00  0.00     0.089 N 
HETATM   20  C9  UNL     1      -3.605   1.973  -1.414  1.00  0.00     0.310 C 
BRANCH  19  21
HETATM   21  C10 UNL     1      -4.186  -0.016  -0.265  1.00  0.00     0.226 C 
HETATM   22  C11 UNL     1      -4.124  -0.879   0.944  1.00  0.00     0.062 C 
HETATM   23  C12 UNL     1      -5.543  -1.102   1.519  1.00  0.00     0.169 C 
HETATM   24  O3  UNL     1      -6.317  -1.540   0.452  1.00  0.00    -0.391 OA
HETATM   25  C13 UNL     1      -6.647  -0.465  -0.334  1.00  0.00     0.169 C 
HETATM   26  C14 UNL     1      -5.588   0.591  -0.438  1.00  0.00     0.062 C 
ENDBRANCH  19  21
ENDBRANCH  18  19
ENDBRANCH  17  18
ENDBRANCH  13  17
TORSDOF 4
