REMARK  9 active torsions:
REMARK  status: ('A' for Active; 'I' for Inactive)
REMARK       I    between atoms: C2_2  and  N1_4 
REMARK    1  A    between atoms: N1_4  and  C3_6 
REMARK    2  A    between atoms: N2_9  and  C6_10 
REMARK    3  A    between atoms: C6_10  and  O2_11 
REMARK    4  A    between atoms: C6_10  and  N3_13 
REMARK    5  A    between atoms: N4_18  and  C11_19 
REMARK    6  A    between atoms: C11_19  and  N5_20 
REMARK    7  A    between atoms: C11_19  and  S1_28 
REMARK    8  A    between atoms: N5_20  and  C12_22 
REMARK    9  A    between atoms: C12_22  and  C13_23 
ROOT
HETATM    1  N3  UNL     1       0.275  -0.893   0.040  1.00  0.00    -0.252 N 
HETATM    2  C7  UNL     1       0.649  -1.769  -1.066  1.00  0.00     0.162 C 
HETATM    3  C8  UNL     1      -0.261  -2.937  -1.184  1.00  0.00    -0.021 A 
HETATM    4  C9  UNL     1      -0.970  -3.342   0.041  1.00  0.00     0.033 C 
HETATM    5  C10 UNL     1      -1.729  -2.251   0.730  1.00  0.00     0.152 C 
HETATM    6  N4  UNL     1      -1.075  -0.939   0.438  1.00  0.00    -0.264 N 
HETATM    7  C18 UNL     1      -1.090  -2.998  -2.469  1.00  0.00     0.012 A 
HETATM    8  C19 UNL     1       0.032  -3.946  -2.287  1.00  0.00     0.012 A 
ENDROOT
BRANCH   1   9
HETATM    9  C6  UNL     1       1.188  -0.035   0.681  1.00  0.00     0.236 C 
BRANCH   9  10
HETATM   10  N2  UNL     1       2.509   0.270   0.361  1.00  0.00    -0.346 N 
HETATM   11  C5  UNL     1       3.221   1.193   1.289  1.00  0.00     0.128 C 
HETATM   12  C4  UNL     1       4.650   0.626   1.301  1.00  0.00     0.045 C 
HETATM   13  C3  UNL     1       5.280   1.214   0.044  1.00  0.00     0.087 C 
HETATM   14  C21 UNL     1       4.386   0.890  -1.109  1.00  0.00     0.045 C 
HETATM   15  C20 UNL     1       3.330  -0.146  -0.734  1.00  0.00     0.128 C 
BRANCH  13  16
HETATM   16  N1  UNL     1       6.634   0.780  -0.168  1.00  0.00    -0.357 N 
HETATM   17  C2  UNL     1       7.704   1.694  -0.153  1.00  0.00     0.213 C 
HETATM   18  C1  UNL     1       9.100   1.296  -0.364  1.00  0.00     0.117 C 
HETATM   19  O1  UNL     1       7.447   2.917   0.052  1.00  0.00    -0.274 OA
ATOM     20  H1  UNL     1       6.823  -0.209  -0.332  1.00  0.00     0.162 HD
ENDBRANCH  13  16
ENDBRANCH   9  10
BRANCH   9  21
HETATM   21  O2  UNL     1       0.741   0.579   1.744  1.00  0.00    -0.331 OA
ATOM     22  H2  UNL     1      -0.160   0.371   1.962  1.00  0.00     0.221 HD
ENDBRANCH   9  21
ENDBRANCH   1   9
BRANCH   6  23
HETATM   23  C11 UNL     1      -1.832   0.249   0.511  1.00  0.00     0.190 C 
BRANCH  23  24
HETATM   24  N5  UNL     1      -3.167   0.162   0.966  1.00  0.00    -0.367 N 
ATOM     25  H5  UNL     1      -3.545  -0.747   1.234  1.00  0.00     0.161 HD
BRANCH  24  26
HETATM   26  C12 UNL     1      -4.009   1.335   1.060  1.00  0.00     0.127 C 
BRANCH  26  27
HETATM   27  C13 UNL     1      -5.386   0.977   1.582  1.00  0.00     0.012 A 
HETATM   28  C14 UNL     1      -6.359   2.166   1.714  1.00  0.00     0.016 A 
HETATM   29  C15 UNL     1      -6.518   1.112   0.661  1.00  0.00    -0.042 A 
HETATM   30  C16 UNL     1      -7.759   0.247   0.819  1.00  0.00     0.015 C 
HETATM   31  C17 UNL     1      -6.238   1.497  -0.786  1.00  0.00     0.015 C 
ENDBRANCH  26  27
ENDBRANCH  24  26
ENDBRANCH  23  24
BRANCH  23  32
HETATM   32  S1  UNL     1      -1.264   1.675   0.030  1.00  0.00     0.119 SA
HETATM   33  F1  UNL     1      -2.130   3.146   0.093  1.00  0.00    -0.155 F 
ENDBRANCH  23  32
ENDBRANCH   6  23
TORSDOF 9
