REMARK  4 active torsions:
REMARK  status: ('A' for Active; 'I' for Inactive)
REMARK    1  A    between atoms: C1_2  and  C2_4 
REMARK    2  A    between atoms: C2_4  and  C3_5 
REMARK       I    between atoms: C3_5  and  N1_7 
REMARK       I    between atoms: N2_13  and  C9_14 
REMARK    3  A    between atoms: C9_14  and  C10_16 
REMARK    4  A    between atoms: C10_16  and  O5_17 
ROOT
HETATM    1  C2  UNL     1       2.685  -0.310   1.481  1.00  0.00     0.132 C 
HETATM    2  C7  UNL     1       1.585  -1.161   2.019  1.00  0.00     0.050 C 
HETATM    3  C8  UNL     1       0.309  -1.111   1.207  1.00  0.00     0.127 C 
HETATM    4  N2  UNL     1      -0.131   0.260   1.139  1.00  0.00    -0.349 N 
HETATM    5  C9  UNL     1      -1.313   0.736   0.534  1.00  0.00     0.255 C 
HETATM    6  O4  UNL     1      -1.504   2.000   0.607  1.00  0.00    -0.270 OA
HETATM    7  C19 UNL     1       0.801   1.219   1.778  1.00  0.00     0.127 C 
HETATM    8  C20 UNL     1       2.167   1.082   1.149  1.00  0.00     0.050 C 
ENDROOT
BRANCH   5   9
HETATM    9  C10 UNL     1      -2.291  -0.085  -0.142  1.00  0.00     0.146 C 
HETATM   10  C11 UNL     1      -3.689  -0.057   0.412  1.00  0.00     0.032 C 
HETATM   11  C12 UNL     1      -4.209   1.287  -0.046  1.00  0.00     0.013 C 
HETATM   12  C16 UNL     1      -4.518  -1.085  -0.343  1.00  0.00     0.029 C 
HETATM   13  C13 UNL     1      -3.798   1.262  -1.503  1.00  0.00    -0.005 C 
HETATM   14  C14 UNL     1      -4.891   0.447  -2.215  1.00  0.00     0.026 C 
HETATM   15  C18 UNL     1      -2.559   0.399  -1.580  1.00  0.00     0.036 C 
HETATM   16  C15 UNL     1      -4.417  -0.963  -1.825  1.00  0.00     0.019 C 
HETATM   17 BR1  UNL     1      -5.398  -2.328  -2.699  1.00  0.00    -0.086 Br
HETATM   18  C17 UNL     1      -2.980  -0.851  -2.332  1.00  0.00     0.029 C 
BRANCH   9  19
HETATM   19  O5  UNL     1      -1.867  -1.423  -0.185  1.00  0.00    -0.379 OA
ATOM     20  H5  UNL     1      -2.510  -1.963  -0.629  1.00  0.00     0.211 HD
ENDBRANCH   9  19
ENDBRANCH   5   9
BRANCH   1  21
HETATM   21  C1  UNL     1       3.760  -0.181   2.503  1.00  0.00     0.191 C 
HETATM   22  O1  UNL     1       3.595  -0.811   3.604  1.00  0.00    -0.647 OA
HETATM   23  O2  UNL     1       4.910   0.553   2.365  1.00  0.00    -0.647 OA
ENDBRANCH   1  21
BRANCH   1  24
HETATM   24  C3  UNL     1       3.263  -0.931   0.263  1.00  0.00     0.239 C 
HETATM   25  O3  UNL     1       2.882  -2.130  -0.028  1.00  0.00    -0.272 OA
HETATM   26  N1  UNL     1       4.195  -0.277  -0.570  1.00  0.00    -0.351 N 
HETATM   27  C4  UNL     1       4.864   0.991  -0.646  1.00  0.00     0.127 C 
HETATM   28  C6  UNL     1       4.908  -0.650  -1.781  1.00  0.00     0.127 C 
HETATM   29  C5  UNL     1       4.839   0.816  -2.173  1.00  0.00     0.040 C 
ENDBRANCH   1  24
TORSDOF 4
