REMARK  5 active torsions:
REMARK  status: ('A' for Active; 'I' for Inactive)
REMARK    1  A    between atoms: C3_3  and  C4_4 
REMARK    2  A    between atoms: C5_5  and  C6_6 
REMARK       I    between atoms: N1_8  and  C8_9 
REMARK       I    between atoms: C8_9  and  N2_11 
REMARK    3  A    between atoms: N2_11  and  C9_13 
REMARK    4  A    between atoms: C16_20  and  C17_21 
REMARK    5  A    between atoms: C22_28  and  S1_30 
ROOT
HETATM    1  C1  UNL     1       9.179   3.066  -0.388  1.00  0.00     0.113 C 
HETATM    2  C2  UNL     1       7.912   2.328  -0.278  1.00  0.00    -0.097 C 
HETATM    3  C3  UNL     1       6.878   1.710  -0.204  1.00  0.00    -0.015 C 
ENDROOT
BRANCH   3   4
HETATM    4  C4  UNL     1       5.673   0.973  -0.136  1.00  0.00    -0.015 C 
HETATM    5  C5  UNL     1       4.632   0.326  -0.097  1.00  0.00    -0.082 C 
BRANCH   5   6
HETATM    6  C6  UNL     1       3.380  -0.398  -0.052  1.00  0.00     0.137 C 
HETATM    7  C7  UNL     1       2.411   0.203  -1.096  1.00  0.00     0.149 C 
HETATM    8  N1  UNL     1       1.100  -0.359  -0.827  1.00  0.00    -0.333 N 
HETATM    9  C8  UNL     1       0.006   0.520  -0.614  1.00  0.00     0.318 C 
HETATM   10  C20 UNL     1       1.006  -1.783  -0.799  1.00  0.00     0.132 C 
HETATM   11  O1  UNL     1       0.213   1.773  -0.660  1.00  0.00    -0.247 OA
HETATM   12  N2  UNL     1      -1.324   0.110  -0.347  1.00  0.00    -0.338 N 
ATOM     13  H2  UNL     1      -1.545  -0.885  -0.299  1.00  0.00     0.164 HD
HETATM   14  C21 UNL     1       2.106  -2.448  -0.039  1.00  0.00     0.079 C 
HETATM   15  C22 UNL     1       3.491  -1.835  -0.349  1.00  0.00     0.196 C 
HETATM   16  F1  UNL     1       3.605  -2.014  -1.745  1.00  0.00    -0.227 F 
BRANCH  12  17
HETATM   17  C9  UNL     1      -2.374   1.088  -0.142  1.00  0.00     0.094 C 
HETATM   18  C10 UNL     1      -2.970   0.935   1.226  1.00  0.00     0.010 C 
HETATM   19  C11 UNL     1      -3.873   2.139   1.465  1.00  0.00     0.011 C 
HETATM   20  C19 UNL     1      -3.775  -0.335   1.343  1.00  0.00     0.025 C 
HETATM   21  C12 UNL     1      -4.956   2.153   0.423  1.00  0.00    -0.013 C 
HETATM   22  C13 UNL     1      -4.388   2.183  -0.958  1.00  0.00     0.011 C 
HETATM   23  C18 UNL     1      -5.784   0.888   0.568  1.00  0.00     0.023 C 
HETATM   24  C14 UNL     1      -3.459   0.982  -1.182  1.00  0.00     0.010 C 
HETATM   25  C15 UNL     1      -4.296  -0.251  -1.033  1.00  0.00     0.025 C 
HETATM   26  C16 UNL     1      -4.915  -0.322   0.351  1.00  0.00     0.040 C 
BRANCH  26  27
HETATM   27  C17 UNL     1      -5.719  -1.551   0.469  1.00  0.00     0.239 C 
HETATM   28  N3  UNL     1      -5.102  -2.817   0.304  1.00  0.00    -0.061 NA
HETATM   29  O2  UNL     1      -6.953  -1.477   0.716  1.00  0.00    -0.276 OA
ENDBRANCH  26  27
ENDBRANCH  12  17
BRANCH  15  30
HETATM   30  S1  UNL     1       4.754  -2.762   0.384  1.00  0.00     0.053 S 
HETATM   31  C23 UNL     1       6.396  -2.312   0.046  1.00  0.00     0.131 C 
HETATM   32  O3  UNL     1       4.496  -3.178   1.961  1.00  0.00    -0.255 OA
ENDBRANCH  15  30
ENDBRANCH   5   6
ENDBRANCH   3   4
TORSDOF 5
