REMARK  3 active torsions:
REMARK  status: ('A' for Active; 'I' for Inactive)
REMARK    1  A    between atoms: C5_5  and  C6_6 
REMARK       I    between atoms: C6_6  and  N1_8 
REMARK       I    between atoms: N2_11  and  C9_12 
REMARK    2  A    between atoms: C9_12  and  C10_14 
REMARK    3  A    between atoms: C19_24  and  C21_26 
REMARK       I    between atoms: C21_26  and  N3_28 
ROOT
HETATM    1  C10 UNL     1      -2.027  -1.231   0.253  1.00  0.00     0.061 C 
HETATM    2  C11 UNL     1      -1.471  -1.964  -0.929  1.00  0.00     0.025 C 
HETATM    3  C12 UNL     1      -2.478  -3.114  -1.110  1.00  0.00    -0.010 C 
HETATM    4  C13 UNL     1      -2.381  -3.643   0.306  1.00  0.00     0.011 C 
HETATM    5  C14 UNL     1      -2.757  -2.338   1.021  1.00  0.00     0.008 C 
HETATM    6  C15 UNL     1      -4.243  -2.310   0.913  1.00  0.00     0.049 C 
HETATM    7  C16 UNL     1      -4.573  -1.861  -0.503  1.00  0.00     0.105 C 
HETATM    8  F1  UNL     1      -5.944  -2.033  -0.691  1.00  0.00    -0.243 F 
HETATM    9  C17 UNL     1      -3.818  -2.638  -1.516  1.00  0.00     0.048 C 
HETATM   10  C18 UNL     1      -4.296  -0.391  -0.500  1.00  0.00     0.063 C 
HETATM   11  C19 UNL     1      -2.892  -0.066  -0.035  1.00  0.00     0.057 C 
HETATM   12  C20 UNL     1      -2.330   0.833  -1.114  1.00  0.00     0.027 C 
ENDROOT
BRANCH   1  13
HETATM   13  C9  UNL     1      -0.872  -0.882   1.117  1.00  0.00     0.231 C 
HETATM   14  N2  UNL     1       0.367  -0.335   0.798  1.00  0.00    -0.333 N 
HETATM   15  C8  UNL     1       1.415  -0.059   1.834  1.00  0.00     0.147 C 
HETATM   16  C23 UNL     1       0.987   0.083  -0.424  1.00  0.00     0.255 C 
HETATM   17  C7  UNL     1       2.601  -0.661   1.063  1.00  0.00     0.147 C 
HETATM   18  N1  UNL     1       2.440   0.027  -0.184  1.00  0.00    -0.334 N 
HETATM   19  C6  UNL     1       3.461   0.539  -0.999  1.00  0.00     0.226 C 
HETATM   20  O1  UNL     1       3.123   1.127  -2.081  1.00  0.00    -0.273 OA
HETATM   21  O2  UNL     1      -1.038  -1.125   2.379  1.00  0.00    -0.272 OA
BRANCH  19  22
HETATM   22  C5  UNL     1       4.873   0.404  -0.620  1.00  0.00     0.086 A 
HETATM   23  C2  UNL     1       5.863   1.461  -0.950  1.00  0.00    -0.035 A 
HETATM   24  C1  UNL     1       5.431   2.730  -1.638  1.00  0.00     0.015 C 
HETATM   25  C3  UNL     1       7.066   1.626  -0.045  1.00  0.00     0.015 C 
HETATM   26  C4  UNL     1       5.828   0.244  -1.784  1.00  0.00     0.024 A 
ENDBRANCH  19  22
ENDBRANCH   1  13
BRANCH  11  27
HETATM   27  C21 UNL     1      -3.044   0.862   1.149  1.00  0.00     0.233 C 
HETATM   28  O3  UNL     1      -4.155   1.019   1.709  1.00  0.00    -0.272 OA
HETATM   29  N3  UNL     1      -1.969   1.605   1.699  1.00  0.00    -0.303 N 
HETATM   30  C22 UNL     1      -1.995   2.862   1.953  1.00  0.00     0.203 C 
ATOM     31  H3  UNL     1      -1.108   1.101   1.909  1.00  0.00     0.171 HD
HETATM   32  N4  UNL     1      -0.812   3.437   2.507  1.00  0.00    -0.066 NA
HETATM   33  N5  UNL     1      -3.100   3.703   1.725  1.00  0.00    -0.066 NA
ENDBRANCH  11  27
TORSDOF 3
