REMARK  5 active torsions:
REMARK  status: ('A' for Active; 'I' for Inactive)
REMARK       I    between atoms: C2_5  and  N3_6 
REMARK       I    between atoms: C2_5  and  N4_15 
REMARK    1  A    between atoms: N3_6  and  C3_8 
REMARK    2  A    between atoms: C3_8  and  C4_9 
REMARK    3  A    between atoms: N5_18  and  C11_19 
REMARK    4  A    between atoms: C11_19  and  N6_21 
REMARK    5  A    between atoms: N6_21  and  C12_23 
ROOT
HETATM    1  N1  UNL     1       4.157  -4.474  -0.898  1.00  0.00    -0.171 NA
HETATM    2  C1  UNL     1       3.193  -3.911  -0.620  1.00  0.00     0.196 C 
HETATM    3  N2  UNL     1       2.029  -3.272  -0.290  1.00  0.00    -0.126 N 
ATOM      4  H2  UNL     1       1.215  -3.886  -0.263  1.00  0.00     0.197 HD
HETATM    5  C2  UNL     1       1.771  -2.070  -0.013  1.00  0.00     0.685 C 
HETATM    6  N3  UNL     1       2.645  -0.967   0.042  1.00  0.00    -0.225 N 
ATOM      7  H3  UNL     1       2.263  -0.033   0.191  1.00  0.00     0.177 HD
HETATM    8  N4  UNL     1       0.360  -1.836   0.285  1.00  0.00    -0.214 N 
HETATM    9  C9  UNL     1      -0.668  -2.442  -0.521  1.00  0.00     0.161 C 
HETATM   10  C10 UNL     1      -1.830  -1.513  -0.620  1.00  0.00     0.145 C 
HETATM   11  N5  UNL     1      -2.224  -0.982   0.681  1.00  0.00    -0.355 N 
HETATM   12  C18 UNL     1      -1.381  -1.304   1.812  1.00  0.00     0.145 C 
HETATM   13  C19 UNL     1       0.055  -0.985   1.403  1.00  0.00     0.161 C 
ENDROOT
BRANCH   6  14
HETATM   14  C3  UNL     1       4.054  -1.130  -0.106  1.00  0.00     0.142 C 
BRANCH  14  15
HETATM   15  C4  UNL     1       4.816   0.173   0.006  1.00  0.00     0.008 C 
HETATM   16  C5  UNL     1       4.635   0.861   1.311  1.00  0.00     0.032 C 
HETATM   17  C6  UNL     1       5.677   1.954   1.419  1.00  0.00     0.168 C 
HETATM   18  O1  UNL     1       5.925   2.528   0.196  1.00  0.00    -0.391 OA
HETATM   19  C7  UNL     1       4.855   2.534  -0.675  1.00  0.00     0.168 C 
HETATM   20  C8  UNL     1       4.454   1.130  -1.096  1.00  0.00     0.032 C 
ENDBRANCH  14  15
ENDBRANCH   6  14
BRANCH  11  21
HETATM   21  C11 UNL     1      -3.413  -0.167   0.814  1.00  0.00     0.174 C 
HETATM   22  S1  UNL     1      -3.740   0.330   2.317  1.00  0.00    -0.041 SA
BRANCH  21  23
HETATM   23  N6  UNL     1      -4.150   0.079  -0.348  1.00  0.00    -0.333 N 
ATOM     24  H6  UNL     1      -3.788  -0.349  -1.200  1.00  0.00     0.168 HD
BRANCH  23  25
HETATM   25  C12 UNL     1      -5.329   0.842  -0.499  1.00  0.00     0.037 A 
HETATM   26  C13 UNL     1      -5.753   1.811   0.370  1.00  0.00     0.029 A 
HETATM   27  C14 UNL     1      -6.945   2.522   0.189  1.00  0.00     0.005 A 
HETATM   28  C15 UNL     1      -7.713   2.235  -0.898  1.00  0.00     0.042 A 
HETATM   29  C16 UNL     1      -7.346   1.274  -1.810  1.00  0.00     0.118 A 
HETATM   30  F1  UNL     1      -8.165   1.051  -2.863  1.00  0.00    -0.206 F 
HETATM   31  C17 UNL     1      -6.167   0.606  -1.585  1.00  0.00     0.071 A 
ENDBRANCH  23  25
ENDBRANCH  21  23
ENDBRANCH  11  21
TORSDOF 5
