REMARK  7 active torsions:
REMARK  status: ('A' for Active; 'I' for Inactive)
REMARK       I    between atoms: C2_2  and  N1_4 
REMARK    1  A    between atoms: N1_4  and  C3_6 
REMARK    2  A    between atoms: C3_6  and  O2_7 
REMARK    3  A    between atoms: C3_6  and  N2_9 
REMARK       I    between atoms: N2_9  and  C4_11 
REMARK    4  A    between atoms: C4_11  and  C5_13 
REMARK    5  A    between atoms: N3_18  and  C9_19 
REMARK    6  A    between atoms: C9_19  and  C10_21 
REMARK    7  A    between atoms: C10_21  and  C11_22 
ROOT
HETATM    1  C5  UNL     1       2.432  -0.883  -1.951  1.00  0.00     0.180 C 
HETATM    2  C6  UNL     1       3.033  -2.224  -2.312  1.00  0.00     0.073 C 
HETATM    3  C7  UNL     1       2.028  -3.259  -1.799  1.00  0.00     0.190 C 
HETATM    4  F1  UNL     1       1.010  -3.438  -2.709  1.00  0.00    -0.248 F 
HETATM    5  C8  UNL     1       1.443  -2.484  -0.624  1.00  0.00     0.161 C 
HETATM    6  N3  UNL     1       1.237  -1.176  -1.228  1.00  0.00    -0.359 N 
ENDROOT
BRANCH   6   7
HETATM    7  C9  UNL     1       0.038  -0.420  -1.078  1.00  0.00     0.077 C 
HETATM    8  S1  UNL     1       0.031   1.017  -1.850  1.00  0.00    -0.066 SA
BRANCH   7   9
HETATM    9  C10 UNL     1      -1.025  -0.981  -0.270  1.00  0.00     0.079 C 
BRANCH   9  10
HETATM   10  C11 UNL     1      -2.304  -0.249  -0.156  1.00  0.00    -0.033 C 
HETATM   11  C12 UNL     1      -3.052  -0.011  -1.414  1.00  0.00     0.014 C 
HETATM   12  C13 UNL     1      -4.374   0.662  -1.128  1.00  0.00    -0.013 C 
HETATM   13  C14 UNL     1      -5.272  -0.243  -0.351  1.00  0.00     0.009 C 
HETATM   14  C18 UNL     1      -4.118   1.968  -0.432  1.00  0.00     0.009 C 
HETATM   15  C15 UNL     1      -4.543  -0.548   0.962  1.00  0.00    -0.013 C 
HETATM   16  C16 UNL     1      -4.416   0.760   1.693  1.00  0.00     0.009 C 
HETATM   17  C20 UNL     1      -3.208  -1.160   0.705  1.00  0.00     0.014 C 
HETATM   18  C17 UNL     1      -3.499   1.645   0.911  1.00  0.00    -0.013 C 
HETATM   19  C19 UNL     1      -2.161   1.016   0.696  1.00  0.00     0.014 C 
ENDBRANCH   9  10
ENDBRANCH   7   9
ENDBRANCH   6   7
BRANCH   1  20
HETATM   20  C4  UNL     1       3.437  -0.099  -1.114  1.00  0.00     0.247 C 
HETATM   21  N2  UNL     1       3.161   0.295   0.192  1.00  0.00    -0.291 N 
ATOM     22  H2  UNL     1       2.229  -0.010   0.474  1.00  0.00     0.172 HD
HETATM   23  O3  UNL     1       4.484   0.134  -1.718  1.00  0.00    -0.271 OA
BRANCH  21  24
HETATM   24  C3  UNL     1       3.781   0.975   1.208  1.00  0.00     0.226 C 
BRANCH  24  25
HETATM   25  N1  UNL     1       4.944   1.624   1.533  1.00  0.00    -0.293 N 
HETATM   26  C2  UNL     1       6.145   1.922   0.927  1.00  0.00     0.220 C 
HETATM   27  C1  UNL     1       7.193   2.708   1.729  1.00  0.00     0.117 C 
HETATM   28  O1  UNL     1       6.557   1.655  -0.211  1.00  0.00    -0.274 OA
ATOM     29  H1  UNL     1       4.911   1.986   2.486  1.00  0.00     0.172 HD
ENDBRANCH  24  25
BRANCH  24  30
HETATM   30  O2  UNL     1       2.930   1.021   2.288  1.00  0.00    -0.332 OA
ATOM     31  H2  UNL     1       2.124   0.571   2.063  1.00  0.00     0.221 HD
ENDBRANCH  24  30
ENDBRANCH  21  24
ENDBRANCH   1  20
TORSDOF 7
