REMARK  4 active torsions:
REMARK  status: ('A' for Active; 'I' for Inactive)
REMARK       I    between atoms: C1_2  and  N1_3 
REMARK       I    between atoms: C1_2  and  N2_17 
REMARK    1  A    between atoms: C2_5  and  C3_6 
REMARK    2  A    between atoms: N2_17  and  N3_19 
REMARK       I    between atoms: N3_19  and  C14_21 
REMARK    3  A    between atoms: C14_21  and  C15_23 
REMARK    4  A    between atoms: C16_26  and  C17_27 
ROOT
HETATM    1  O1  UNL     1       1.567   1.815  -2.312  1.00  0.00    -0.245 OA
HETATM    2  C1  UNL     1       1.649   0.914  -1.459  1.00  0.00     0.338 C 
HETATM    3  N1  UNL     1       0.624  -0.109  -1.408  1.00  0.00    -0.321 N 
ATOM      4  H1  UNL     1       0.340  -0.621  -2.243  1.00  0.00     0.169 HD
HETATM    5  C2  UNL     1       0.096  -0.340  -0.278  1.00  0.00     0.070 C 
HETATM    6  N2  UNL     1       2.680   0.795  -0.505  1.00  0.00    -0.249 N 
ATOM      7  H2  UNL     1       2.690   0.028   0.167  1.00  0.00     0.192 HD
ENDROOT
BRANCH   6   8
HETATM    8  N3  UNL     1       3.698   1.773  -0.510  1.00  0.00    -0.264 N 
HETATM    9  C14 UNL     1       3.832   2.588   0.607  1.00  0.00     0.271 C 
HETATM   10  O2  UNL     1       3.051   2.457   1.614  1.00  0.00    -0.269 OA
ATOM     11  H3  UNL     1       4.319   1.878  -1.312  1.00  0.00     0.190 HD
BRANCH   9  12
HETATM   12  C15 UNL     1       4.848   3.636   0.727  1.00  0.00     0.286 C 
HETATM   13  O3  UNL     1       5.742   3.818  -0.291  1.00  0.00    -0.223 OA
HETATM   14  O4  UNL     1       6.675   4.049   0.643  1.00  0.00    -0.231 OA
HETATM   15  C16 UNL     1       6.093   3.079   1.408  1.00  0.00     0.211 C 
BRANCH  15  16
HETATM   16  C17 UNL     1       6.010   3.295   2.896  1.00  0.00     0.123 C 
HETATM   17 BR1  UNL     1       7.633   2.573   3.707  1.00  0.00    -0.094 Br
ENDBRANCH  15  16
ENDBRANCH   9  12
ENDBRANCH   6   8
BRANCH   5  18
HETATM   18  C3  UNL     1      -0.960  -1.384  -0.184  1.00  0.00     0.028 C 
HETATM   19  C4  UNL     1      -1.759  -1.091   1.038  1.00  0.00     0.014 C 
HETATM   20  C5  UNL     1      -3.104  -1.741   1.084  1.00  0.00    -0.013 C 
HETATM   21  C6  UNL     1      -3.176  -3.094   0.472  1.00  0.00     0.009 C 
HETATM   22  C10 UNL     1      -4.191  -0.848   0.511  1.00  0.00     0.009 C 
HETATM   23  C7  UNL     1      -3.433  -3.140  -1.002  1.00  0.00    -0.013 C 
HETATM   24  C8  UNL     1      -4.504  -2.229  -1.493  1.00  0.00     0.009 C 
HETATM   25  C13 UNL     1      -2.175  -2.781  -1.759  1.00  0.00     0.010 C 
HETATM   26  C9  UNL     1      -4.179  -0.840  -0.992  1.00  0.00    -0.013 C 
HETATM   27  C11 UNL     1      -2.863  -0.378  -1.486  1.00  0.00     0.010 C 
HETATM   28  C12 UNL     1      -1.746  -1.363  -1.461  1.00  0.00    -0.005 C 
ENDBRANCH   5  18
TORSDOF 4
