REMARK  4 active torsions:
REMARK  status: ('A' for Active; 'I' for Inactive)
REMARK    1  A    between atoms: N2_4  and  C3_6 
REMARK    2  A    between atoms: C7_12  and  C9_14 
REMARK    3  A    between atoms: C9_14  and  C10_15 
REMARK    4  A    between atoms: C10_15  and  C11_16 
ROOT
HETATM    1  C1  UNL     1      -2.885  -3.064   0.078  1.00  0.00     0.190 C 
HETATM    2  N1  UNL     1      -1.684  -2.292  -0.007  1.00  0.00    -0.096 N 
HETATM    3  C2  UNL     1      -1.742  -0.859  -0.108  1.00  0.00     0.689 C 
HETATM    4  N2  UNL     1      -2.884  -0.333  -0.065  1.00  0.00    -0.217 N 
ATOM      5  H2  UNL     1      -3.648  -1.001   0.038  1.00  0.00     0.178 HD
HETATM    6  N3  UNL     1      -0.498  -0.172  -0.246  1.00  0.00    -0.199 N 
ATOM      7  H3  UNL     1      -0.507   0.711  -0.757  1.00  0.00     0.180 HD
HETATM    8  C7  UNL     1       0.747  -0.611   0.265  1.00  0.00     0.128 C 
HETATM    9  C8  UNL     1       0.765  -0.404   1.779  1.00  0.00     0.064 C 
HETATM   10  N6  UNL     1       1.104  -1.965  -0.029  1.00  0.00    -0.274 N 
ATOM     11  H6  UNL     1       2.061  -2.243  -0.247  1.00  0.00     0.176 HD
HETATM   12  S1  UNL     1      -0.176  -3.075   0.010  1.00  0.00     0.336 S 
HETATM   13  O1  UNL     1      -0.094  -3.969  -1.214  1.00  0.00    -0.182 OA
HETATM   14  O2  UNL     1      -0.098  -3.999   1.205  1.00  0.00    -0.182 OA
ENDROOT
BRANCH   8  15
HETATM   15  C9  UNL     1       1.851   0.269  -0.287  1.00  0.00     0.060 C 
BRANCH  15  16
HETATM   16  C10 UNL     1       3.155  -0.255   0.299  1.00  0.00     0.063 C 
BRANCH  16  17
HETATM   17  C11 UNL     1       4.318   0.536  -0.174  1.00  0.00     0.025 A 
HETATM   18  C12 UNL     1       4.876   1.660   0.400  1.00  0.00     0.114 A 
HETATM   19  N4  UNL     1       5.915   2.064  -0.347  1.00  0.00    -0.360 N 
HETATM   20  C13 UNL     1       6.023   1.218  -1.380  1.00  0.00     0.180 A 
ATOM     21  H4  UNL     1       6.514   2.869  -0.162  1.00  0.00     0.166 HD
HETATM   22  N5  UNL     1       5.051   0.296  -1.267  1.00  0.00    -0.355 N 
ATOM     23  H5  UNL     1       4.895  -0.473  -1.919  1.00  0.00     0.166 HD
ENDBRANCH  16  17
ENDBRANCH  15  16
ENDBRANCH   8  15
BRANCH   4  24
HETATM   24  C3  UNL     1      -3.299   1.017  -0.134  1.00  0.00     0.036 C 
HETATM   25  C4  UNL     1      -2.692   1.749   1.071  1.00  0.00     0.038 C 
HETATM   26  C5  UNL     1      -2.923   1.756  -1.371  1.00  0.00     0.038 C 
HETATM   27  C6  UNL     1      -4.813   1.164   0.059  1.00  0.00     0.038 C 
ENDBRANCH   4  24
TORSDOF 4
