REMARK  4 active torsions:
REMARK  status: ('A' for Active; 'I' for Inactive)
REMARK    1  A    between atoms: C2_2  and  N2_6 
REMARK    2  A    between atoms: C4_8  and  N3_9 
REMARK       I    between atoms: N3_9  and  C5_11 
REMARK    3  A    between atoms: C5_11  and  C6_13 
REMARK    4  A    between atoms: C6_13  and  N4_14 
ROOT
HETATM    1  N2  UNL     1      -3.342   1.003   0.039  1.00  0.00    -0.351 N 
HETATM    2  C3  UNL     1      -2.152   0.970   0.863  1.00  0.00     0.151 C 
HETATM    3  C4  UNL     1      -1.306  -0.183   0.408  1.00  0.00     0.103 C 
HETATM    4  C12 UNL     1      -2.088  -1.254  -0.310  1.00  0.00     0.038 C 
HETATM    5  C13 UNL     1      -3.439  -1.414   0.321  1.00  0.00    -0.011 C 
HETATM    6  C14 UNL     1      -3.397  -1.704   1.785  1.00  0.00     0.018 C 
HETATM    7  C15 UNL     1      -4.226  -2.534  -0.347  1.00  0.00     0.018 C 
HETATM    8  C16 UNL     1      -4.220  -0.144   0.090  1.00  0.00     0.190 C 
HETATM    9 CL1  UNL     1      -5.546   0.064   1.248  1.00  0.00    -0.102 Cl
ENDROOT
BRANCH   3  10
HETATM   10  N3  UNL     1      -0.167   0.256  -0.381  1.00  0.00    -0.350 N 
HETATM   11  C5  UNL     1       1.175   0.060   0.024  1.00  0.00     0.265 C 
HETATM   12  O1  UNL     1       1.358  -0.520   1.113  1.00  0.00    -0.267 OA
ATOM     13  H3  UNL     1      -0.343   0.727  -1.268  1.00  0.00     0.163 HD
BRANCH  11  14
HETATM   14  C6  UNL     1       2.274   0.519  -0.802  1.00  0.00     0.275 C 
BRANCH  14  15
HETATM   15  N4  UNL     1       3.600   0.294  -0.345  1.00  0.00    -0.042 N 
HETATM   16  C7  UNL     1       4.467   0.909  -1.390  1.00  0.00     0.279 C 
HETATM   17  C8  UNL     1       3.916   0.970   0.888  1.00  0.00     0.268 C 
HETATM   18  C9  UNL     1       4.925   0.182   1.714  1.00  0.00     0.196 C 
HETATM   19  O2  UNL     1       5.937  -0.362   0.953  1.00  0.00    -0.388 OA
HETATM   20  C10 UNL     1       5.463  -1.194  -0.028  1.00  0.00     0.196 C 
HETATM   21  C11 UNL     1       3.959  -1.101  -0.202  1.00  0.00     0.268 C 
ENDBRANCH  14  15
ENDBRANCH  11  14
ENDBRANCH   3  10
BRANCH   1  22
HETATM   22  C2  UNL     1      -3.632   2.123  -0.785  1.00  0.00     0.070 C 
HETATM   23  C1  UNL     1      -2.904   2.427  -2.044  1.00  0.00     0.088 C 
HETATM   24  N1  UNL     1      -4.585   2.957  -0.455  1.00  0.00    -0.389 N 
ATOM     25  H12 UNL     1      -4.793   3.761  -1.047  1.00  0.00     0.157 HD
ATOM     26  H11 UNL     1      -5.085   2.748   0.409  1.00  0.00     0.157 HD
ENDBRANCH   1  22
TORSDOF 4
