REMARK  10 active torsions:
REMARK  status: ('A' for Active; 'I' for Inactive)
REMARK    1  A    between atoms: N1_2  and  N2_3 
REMARK    2  A    between atoms: N1_2  and  C6_17 
REMARK    3  A    between atoms: N2_3  and  C2_5 
REMARK    4  A    between atoms: C2_5  and  N3_7 
REMARK    5  A    between atoms: N3_7  and  N4_9 
REMARK    6  A    between atoms: N4_9  and  C3_11 
REMARK    7  A    between atoms: C3_11  and  O1_13 
REMARK    8  A    between atoms: O1_13  and  C4_14 
REMARK    9  A    between atoms: C4_14  and  C5_15 
REMARK   10  A    between atoms: C6_17  and  N5_19 
ROOT
HETATM    1  C2  UNL     1       0.758   1.802  -0.575  1.00  0.00     0.205 C 
HETATM    2  S1  UNL     1       1.035   1.403  -2.130  1.00  0.00    -0.038 SA
ENDROOT
BRANCH   1   3
HETATM    3  N2  UNL     1      -0.577   1.967  -0.123  1.00  0.00    -0.271 N 
ATOM      4  H2  UNL     1      -0.769   2.216   0.847  1.00  0.00     0.189 HD
BRANCH   3   5
HETATM    5  N1  UNL     1      -1.621   1.784  -1.026  1.00  0.00    -0.270 N 
HETATM    6  C1  UNL     1      -1.840   2.886  -1.993  1.00  0.00     0.180 C 
BRANCH   5   7
HETATM    7  C6  UNL     1      -2.475   0.665  -1.111  1.00  0.00     0.190 C 
HETATM    8  S3  UNL     1      -3.648   0.721  -2.318  1.00  0.00    -0.039 SA
BRANCH   7   9
HETATM    9  N5  UNL     1      -2.418  -0.464  -0.282  1.00  0.00    -0.357 N 
HETATM   10  C7  UNL     1      -3.344  -1.612  -0.428  1.00  0.00     0.125 C 
HETATM   11  C8  UNL     1      -3.541  -2.129   0.980  1.00  0.00     0.021 C 
HETATM   12  C9  UNL     1      -2.645  -1.273   1.850  1.00  0.00     0.021 C 
HETATM   13  C10 UNL     1      -1.588  -0.837   0.806  1.00  0.00     0.125 C 
ENDBRANCH   7   9
ENDBRANCH   5   7
ENDBRANCH   3   5
ENDBRANCH   1   3
BRANCH   1  14
HETATM   14  N3  UNL     1       1.848   1.980   0.315  1.00  0.00    -0.272 N 
ATOM     15  H3  UNL     1       1.662   2.229   1.287  1.00  0.00     0.189 HD
BRANCH  14  16
HETATM   16  N4  UNL     1       3.168   1.822  -0.108  1.00  0.00    -0.268 N 
ATOM     17  H4  UNL     1       3.528   2.407  -0.862  1.00  0.00     0.190 HD
BRANCH  16  18
HETATM   18  C3  UNL     1       4.007   0.869   0.491  1.00  0.00     0.229 C 
HETATM   19  S2  UNL     1       5.538   0.703  -0.017  1.00  0.00    -0.032 SA
BRANCH  18  20
HETATM   20  O1  UNL     1       3.546   0.068   1.509  1.00  0.00    -0.324 OA
BRANCH  20  21
HETATM   21  C4  UNL     1       3.240  -1.288   1.395  1.00  0.00     0.209 C 
BRANCH  21  22
HETATM   22  C5  UNL     1       4.438  -2.120   0.964  1.00  0.00     0.248 C 
HETATM   23  F1  UNL     1       5.472  -2.025   1.859  1.00  0.00    -0.253 F 
ENDBRANCH  21  22
ENDBRANCH  20  21
ENDBRANCH  18  20
ENDBRANCH  16  18
ENDBRANCH  14  16
ENDBRANCH   1  14
TORSDOF 10
