REMARK  4 active torsions:
REMARK  status: ('A' for Active; 'I' for Inactive)
REMARK    1  A    between atoms: N1_1  and  C1_4 
REMARK    2  A    between atoms: C4_9  and  C5_10 
REMARK    3  A    between atoms: C5_10  and  N3_11 
REMARK    4  A    between atoms: N3_11  and  C6_14 
ROOT
HETATM    1  C1  UNL     1      -3.444   0.943   0.331  1.00  0.00     0.675 A 
HETATM    2  N2  UNL     1      -4.183  -0.152   0.093  1.00  0.00    -0.202 N 
ATOM      3  H2  UNL     1      -5.197  -0.088   0.180  1.00  0.00     0.183 HD
HETATM    4  C2  UNL     1      -3.636  -1.329  -0.255  1.00  0.00     0.108 A 
HETATM    5  C3  UNL     1      -2.268  -1.396  -0.368  1.00  0.00     0.045 A 
HETATM    6  C4  UNL     1      -1.473  -0.272  -0.126  1.00  0.00     0.053 A 
HETATM    7  N5  UNL     1      -2.100   0.868   0.219  1.00  0.00    -0.194 N 
ATOM      8  H5  UNL     1      -1.542   1.702   0.402  1.00  0.00     0.184 HD
ENDROOT
BRANCH   6   9
HETATM    9  C5  UNL     1      -0.028  -0.426  -0.275  1.00  0.00     0.290 C 
BRANCH   9  10
HETATM   10  N3  UNL     1       0.781   0.492   0.457  1.00  0.00    -0.062 N 
ATOM     11  H32 UNL     1       0.513   1.459   0.274  1.00  0.00     0.278 HD
ATOM     12  H31 UNL     1       0.576   0.461   1.456  1.00  0.00     0.278 HD
BRANCH  10  13
HETATM   13  C6  UNL     1       2.159   0.273   0.198  1.00  0.00     0.237 C 
HETATM   14  C7  UNL     1       2.762  -1.051   0.594  1.00  0.00     0.267 C 
HETATM   15  N4  UNL     1       4.024  -0.288   0.713  1.00  0.00    -0.071 N 
HETATM   16  C8  UNL     1       3.146   0.768   1.260  1.00  0.00     0.267 C 
ATOM     17  H42 UNL     1       4.839  -0.643   1.214  1.00  0.00     0.277 HD
ATOM     18  H41 UNL     1       4.651  -0.131  -0.076  1.00  0.00     0.277 HD
ENDBRANCH  10  13
ENDBRANCH   9  10
ENDBRANCH   6   9
BRANCH   1  19
HETATM   19  N1  UNL     1      -4.062   2.030   0.663  1.00  0.00    -0.234 N 
ATOM     20  H12 UNL     1      -5.077   2.087   0.748  1.00  0.00     0.174 HD
ATOM     21  H11 UNL     1      -3.500   2.862   0.844  1.00  0.00     0.174 HD
ENDBRANCH   1  19
TORSDOF 4
