REMARK  5 active torsions:
REMARK  status: ('A' for Active; 'I' for Inactive)
REMARK    1  A    between atoms: C2_3  and  C3_4 
REMARK    2  A    between atoms: C3_4  and  C4_5 
REMARK    3  A    between atoms: C4_5  and  C5_6 
REMARK    4  A    between atoms: C6_9  and  N3_10 
REMARK    5  A    between atoms: C7_15  and  N5_16 
ROOT
HETATM    1  N1  UNL     1       3.652   2.063   1.907  1.00  0.00    -0.197 NA
HETATM    2  C1  UNL     1       3.497   1.084   1.314  1.00  0.00     0.059 C 
HETATM    3  C2  UNL     1       3.319  -0.163   0.581  1.00  0.00     0.124 C 
ENDROOT
BRANCH   3   4
HETATM    4  C3  UNL     1       1.996  -0.154  -0.167  1.00  0.00     0.022 C 
BRANCH   4   5
HETATM    5  C4  UNL     1       0.908   0.006   0.877  1.00  0.00     0.078 C 
BRANCH   5   6
HETATM    6  C5  UNL     1      -0.444   0.026   0.239  1.00  0.00     0.113 A 
HETATM    7  N2  UNL     1      -1.021   1.170  -0.170  1.00  0.00    -0.180 N 
HETATM    8  C6  UNL     1      -2.245   1.139  -0.742  1.00  0.00     0.691 A 
ATOM      9  H2  UNL     1      -0.536   2.059  -0.049  1.00  0.00     0.185 HD
HETATM   10  N4  UNL     1      -2.933  -0.001  -0.929  1.00  0.00    -0.023 N 
HETATM   11  C7  UNL     1      -2.355  -1.145  -0.520  1.00  0.00     0.691 A 
ATOM     12  H4  UNL     1      -3.856   0.001  -1.363  1.00  0.00     0.203 HD
HETATM   13  N6  UNL     1      -1.123  -1.119   0.056  1.00  0.00    -0.180 N 
ATOM     14  H6  UNL     1      -0.701  -1.997   0.359  1.00  0.00     0.185 HD
BRANCH   8  15
HETATM   15  N3  UNL     1      -2.822   2.228  -1.144  1.00  0.00    -0.234 N 
ATOM     16  H32 UNL     1      -2.300   3.093  -1.002  1.00  0.00     0.174 HD
ATOM     17  H31 UNL     1      -3.746   2.205  -1.576  1.00  0.00     0.174 HD
ENDBRANCH   8  15
BRANCH  11  18
HETATM   18  N5  UNL     1      -2.952  -2.279  -0.665  1.00  0.00    -0.234 N 
ATOM     19  H52 UNL     1      -3.876  -2.298  -1.097  1.00  0.00     0.174 HD
ATOM     20  H51 UNL     1      -2.514  -3.146  -0.355  1.00  0.00     0.174 HD
ENDBRANCH  11  18
ENDBRANCH   5   6
ENDBRANCH   4   5
ENDBRANCH   3   4
TORSDOF 5
