REMARK  4 active torsions:
REMARK  status: ('A' for Active; 'I' for Inactive)
REMARK    1  A    between atoms: N1_1  and  C1_5 
REMARK    2  A    between atoms: C2_9  and  N3_10 
REMARK    3  A    between atoms: N3_10  and  N4_11 
REMARK    4  A    between atoms: N4_11  and  C3_13 
ROOT
HETATM    1  C1  UNL     1      -2.752  -0.571   0.394  1.00  0.00     0.430 A 
HETATM    2  N2  UNL     1      -3.198  -0.761  -0.996  1.00  0.00    -0.019 N 
ATOM      3  H21 UNL     1      -3.774  -0.209  -1.632  1.00  0.00     0.281 HD
ATOM      4  H22 UNL     1      -3.859  -1.397  -1.442  1.00  0.00     0.281 HD
HETATM    5  C2  UNL     1      -1.775  -0.822  -0.736  1.00  0.00     0.358 A 
ENDROOT
BRANCH   5   6
HETATM    6  N3  UNL     1      -1.011   0.286  -1.215  1.00  0.00    -0.103 NA
BRANCH   6   7
HETATM    7  N4  UNL     1      -0.207   0.879  -0.266  1.00  0.00    -0.302 N 
ATOM      8  H4  UNL     1      -0.566   1.674   0.263  1.00  0.00     0.182 HD
BRANCH   7   9
HETATM    9  C3  UNL     1       1.111   0.412  -0.005  1.00  0.00     0.044 A 
HETATM   10  C4  UNL     1       1.583  -0.663  -0.729  1.00  0.00     0.030 A 
HETATM   11  C5  UNL     1       2.861  -1.112  -0.473  1.00  0.00     0.002 A 
HETATM   12  C6  UNL     1       3.678  -0.513   0.488  1.00  0.00     0.000 A 
HETATM   13  C7  UNL     1       3.197   0.567   1.212  1.00  0.00     0.002 A 
HETATM   14  C8  UNL     1       1.916   1.016   0.955  1.00  0.00     0.030 A 
ENDBRANCH   7   9
ENDBRANCH   6   7
ENDBRANCH   5   6
BRANCH   1  15
HETATM   15  N1  UNL     1      -2.894   0.763   0.922  1.00  0.00    -0.047 N 
ATOM     16  H13 UNL     1      -2.422   1.430   0.312  1.00  0.00     0.276 HD
ATOM     17  H12 UNL     1      -3.860   1.075   0.821  1.00  0.00     0.276 HD
ATOM     18  H11 UNL     1      -2.585   0.895   1.885  1.00  0.00     0.276 HD
ENDBRANCH   1  15
TORSDOF 4
