REMARK  5 active torsions:
REMARK  status: ('A' for Active; 'I' for Inactive)
REMARK    1  A    between atoms: N1_1  and  C1_5 
REMARK    2  A    between atoms: C1_5  and  C2_6 
REMARK    3  A    between atoms: C2_6  and  C3_7 
REMARK    4  A    between atoms: C3_7  and  N2_8 
REMARK    5  A    between atoms: N2_8  and  C4_10 
ROOT
HETATM    1  C4  UNL     1       1.057   0.108   0.158  1.00  0.00     0.679 A 
HETATM    2  N3  UNL     1       1.024  -1.192   0.474  1.00  0.00    -0.202 N 
ATOM      3  H3  UNL     1       0.154  -1.573   0.845  1.00  0.00     0.183 HD
HETATM    4  C5  UNL     1       2.066  -2.023   0.332  1.00  0.00     0.109 A 
HETATM    5  C6  UNL     1       3.253  -1.537  -0.165  1.00  0.00     0.063 A 
HETATM    6  C7  UNL     1       3.274  -0.176  -0.491  1.00  0.00     0.133 A 
HETATM    7  N4  UNL     1       4.485   0.349  -1.006  1.00  0.00    -0.082 NA
HETATM    8  N5  UNL     1       2.197   0.610  -0.328  1.00  0.00    -0.179 N 
ATOM      9  H5  UNL     1       2.249   1.598  -0.577  1.00  0.00     0.185 HD
ENDROOT
BRANCH   1  10
HETATM   10  N2  UNL     1       0.045   0.897   0.299  1.00  0.00    -0.226 N 
ATOM     11  H2  UNL     1       0.112   1.883   0.046  1.00  0.00     0.177 HD
BRANCH  10  12
HETATM   12  C3  UNL     1      -1.197   0.344   0.830  1.00  0.00     0.139 C 
BRANCH  12  13
HETATM   13  C2  UNL     1      -2.299   0.743  -0.139  1.00  0.00     0.047 C 
BRANCH  13  14
HETATM   14  C1  UNL     1      -3.591   0.173   0.405  1.00  0.00     0.231 C 
BRANCH  14  15
HETATM   15  N1  UNL     1      -4.724   0.490  -0.440  1.00  0.00    -0.079 N 
ATOM     16  H13 UNL     1      -4.800   1.495  -0.595  1.00  0.00     0.274 HD
ATOM     17  H12 UNL     1      -4.563   0.190  -1.402  1.00  0.00     0.274 HD
ATOM     18  H11 UNL     1      -5.595   0.106  -0.073  1.00  0.00     0.274 HD
ENDBRANCH  14  15
ENDBRANCH  13  14
ENDBRANCH  12  13
ENDBRANCH  10  12
ENDBRANCH   1  10
TORSDOF 5
