REMARK  3 active torsions:
REMARK  status: ('A' for Active; 'I' for Inactive)
REMARK    1  A    between atoms: C2_7  and  C3_8 
REMARK    2  A    between atoms: C3_8  and  N3_9 
REMARK    3  A    between atoms: N3_9  and  C4_12 
ROOT
HETATM    1  N3  UNL     1      -0.279   0.022  -0.105  1.00  0.00    -0.042 N 
ATOM      2  H31 UNL     1      -0.404   0.304   0.867  1.00  0.00     0.279 HD
ATOM      3  H32 UNL     1      -0.822   0.750  -0.570  1.00  0.00     0.279 HD
ENDROOT
BRANCH   1   4
HETATM    4  C3  UNL     1      -0.867  -1.254  -0.330  1.00  0.00     0.288 C 
BRANCH   4   5
HETATM    5  C2  UNL     1      -2.314  -1.219   0.106  1.00  0.00     0.259 A 
HETATM    6  N2  UNL     1      -3.082  -0.092  -0.307  1.00  0.00    -0.328 N 
HETATM    7  C1  UNL     1      -3.334   0.134   1.066  1.00  0.00     0.216 A 
ATOM      8  H2  UNL     1      -3.335   0.350  -1.191  1.00  0.00     0.165 HD
HETATM    9  N1  UNL     1      -4.068   0.988   1.712  1.00  0.00    -0.365 N 
HETATM   10  O1  UNL     1      -2.497  -0.906   1.482  1.00  0.00    -0.295 OA
ATOM     11  H12 UNL     1      -4.679   1.747   1.409  1.00  0.00     0.159 HD
ATOM     12  H11 UNL     1      -4.250   1.151   2.702  1.00  0.00     0.159 HD
ENDBRANCH   4   5
ENDBRANCH   1   4
BRANCH   1  13
HETATM   13  C4  UNL     1       1.106   0.115  -0.479  1.00  0.00     0.382 C 
HETATM   14  C5  UNL     1       2.013  -0.783   0.279  1.00  0.00     0.064 C 
HETATM   15  C6  UNL     1       3.150   0.072   0.801  1.00  0.00     0.031 C 
HETATM   16  C7  UNL     1       2.524   1.447   0.785  1.00  0.00     0.235 C 
HETATM   17  N4  UNL     1       1.605   1.468  -0.329  1.00  0.00    -0.046 N 
ATOM     18  H42 UNL     1       2.016   1.844  -1.184  1.00  0.00     0.279 HD
ATOM     19  H41 UNL     1       0.864   2.162  -0.228  1.00  0.00     0.279 HD
ENDBRANCH   1  13
TORSDOF 3
