REMARK  5 active torsions:
REMARK  status: ('A' for Active; 'I' for Inactive)
REMARK    1  A    between atoms: N1_1  and  C1_4 
REMARK    2  A    between atoms: C2_7  and  C3_8 
REMARK    3  A    between atoms: N3_10  and  C4_11 
REMARK    4  A    between atoms: C4_11  and  C5_12 
REMARK    5  A    between atoms: C5_12  and  N4_13 
ROOT
HETATM    1  C1  UNL     1       1.411  -1.772  -0.837  1.00  0.00     0.692 A 
HETATM    2  N2  UNL     1       1.917  -0.952   0.093  1.00  0.00    -0.177 N 
ATOM      3  H2  UNL     1       2.795  -1.091   0.593  1.00  0.00     0.185 HD
HETATM    4  C2  UNL     1       1.058   0.108   0.262  1.00  0.00     0.124 A 
HETATM    5  N3  UNL     1       0.052  -0.117  -0.582  1.00  0.00    -0.263 N 
HETATM    6  N5  UNL     1       0.253  -1.265  -1.265  1.00  0.00    -0.129 N 
ATOM      7  H5  UNL     1      -0.362  -1.667  -1.972  1.00  0.00     0.206 HD
ENDROOT
BRANCH   5   8
HETATM    8  C4  UNL     1      -1.125   0.716  -0.719  1.00  0.00     0.178 C 
BRANCH   8   9
HETATM    9  C5  UNL     1      -2.314   0.258   0.039  1.00  0.00     0.251 C 
BRANCH   9  10
HETATM   10  N4  UNL     1      -2.109   0.167   1.443  1.00  0.00    -0.078 N 
ATOM     11  H43 UNL     1      -1.304  -0.425   1.649  1.00  0.00     0.274 HD
ATOM     12  H42 UNL     1      -1.770   1.055   1.813  1.00  0.00     0.274 HD
ATOM     13  H41 UNL     1      -2.927  -0.148   1.964  1.00  0.00     0.274 HD
ENDBRANCH   9  10
ENDBRANCH   8   9
ENDBRANCH   5   8
BRANCH   4  14
HETATM   14  C3  UNL     1       1.308   1.249   1.199  1.00  0.00     0.164 C 
HETATM   15  S1  UNL     1       2.288   2.543   0.367  1.00  0.00    -0.090 SA
ENDBRANCH   4  14
BRANCH   1  16
HETATM   16  N1  UNL     1       1.955  -2.885  -1.261  1.00  0.00    -0.233 N 
ATOM     17  H12 UNL     1       2.840  -3.272  -0.934  1.00  0.00     0.174 HD
ATOM     18  H11 UNL     1       1.570  -3.510  -1.969  1.00  0.00     0.174 HD
ENDBRANCH   1  16
TORSDOF 5
