REMARK  3 active torsions:
REMARK  status: ('A' for Active; 'I' for Inactive)
REMARK    1  A    between atoms: N4_13  and  C6_14 
REMARK    2  A    between atoms: C6_14  and  C7_15 
REMARK    3  A    between atoms: C7_15  and  N5_16 
ROOT
HETATM    1  N1  UNL     1       4.505   0.809  -0.168  1.00  0.00    -0.384 N 
ATOM      2  H11 UNL     1       5.133   0.431  -0.878  1.00  0.00     0.157 HD
ATOM      3  H12 UNL     1       4.919   1.336   0.601  1.00  0.00     0.157 HD
HETATM    4  C1  UNL     1       3.211   0.630  -0.231  1.00  0.00     0.116 A 
HETATM    5  C2  UNL     1       2.363   1.141   0.728  1.00  0.00     0.138 A 
HETATM    6  N2  UNL     1       1.028   0.957   0.663  1.00  0.00    -0.345 N 
ATOM      7  H2  UNL     1       0.430   1.350   1.390  1.00  0.00     0.167 HD
HETATM    8  C3  UNL     1       0.477   0.264  -0.346  1.00  0.00     0.153 A 
HETATM    9  C4  UNL     1       1.324  -0.251  -1.311  1.00  0.00     0.153 A 
HETATM   10  N3  UNL     1       0.519  -0.884  -2.183  1.00  0.00    -0.335 N 
ATOM     11  H3  UNL     1       0.843  -1.372  -3.018  1.00  0.00     0.168 HD
HETATM   12  C5  UNL     1      -0.767  -0.788  -1.809  1.00  0.00     0.186 A 
HETATM   13  N4  UNL     1      -0.793  -0.075  -0.668  1.00  0.00    -0.325 N 
HETATM   14  N6  UNL     1       2.665  -0.065  -1.245  1.00  0.00    -0.325 N 
ATOM     15  H6  UNL     1       3.266  -0.456  -1.971  1.00  0.00     0.169 HD
ENDROOT
BRANCH  13  16
HETATM   16  C6  UNL     1      -1.981   0.270   0.085  1.00  0.00     0.158 C 
BRANCH  16  17
HETATM   17  C7  UNL     1      -2.231  -0.844   1.096  1.00  0.00     0.249 C 
BRANCH  17  18
HETATM   18  N5  UNL     1      -3.413  -0.520   1.861  1.00  0.00    -0.078 N 
ATOM     19  H53 UNL     1      -3.354   0.399   2.300  1.00  0.00     0.274 HD
ATOM     20  H52 UNL     1      -4.224  -0.342   1.269  1.00  0.00     0.274 HD
ATOM     21  H51 UNL     1      -3.580  -1.265   2.537  1.00  0.00     0.274 HD
ENDBRANCH  17  18
ENDBRANCH  16  17
ENDBRANCH  13  16
TORSDOF 3
