REMARK  6 active torsions:
REMARK  status: ('A' for Active; 'I' for Inactive)
REMARK    1  A    between atoms: N1_1  and  C1_4 
REMARK    2  A    between atoms: N2_7  and  C4_8 
REMARK    3  A    between atoms: C4_8  and  C5_9 
REMARK    4  A    between atoms: C5_9  and  C6_10 
REMARK    5  A    between atoms: C6_10  and  N3_11 
REMARK    6  A    between atoms: C7_15  and  N4_16 
ROOT
HETATM    1  C1  UNL     1       3.268   0.303  -0.405  1.00  0.00     0.116 A 
HETATM    2  C2  UNL     1       2.534   0.147  -1.559  1.00  0.00     0.066 A 
HETATM    3  C3  UNL     1       1.206  -0.245  -1.477  1.00  0.00     0.112 A 
HETATM    4  N2  UNL     1       0.618  -0.477  -0.285  1.00  0.00    -0.194 N 
HETATM    5  C7  UNL     1       1.377  -0.311   0.806  1.00  0.00     0.679 A 
HETATM    6  N5  UNL     1       2.675   0.070   0.756  1.00  0.00    -0.177 N 
ATOM      7  H5  UNL     1       3.202   0.179   1.622  1.00  0.00     0.185 HD
ENDROOT
BRANCH   4   8
HETATM    8  C4  UNL     1      -0.738  -0.878  -0.186  1.00  0.00     0.148 C 
BRANCH   8   9
HETATM    9  C5  UNL     1      -1.731   0.247  -0.075  1.00  0.00     0.048 C 
BRANCH   9  10
HETATM   10  C6  UNL     1      -3.130  -0.332   0.023  1.00  0.00     0.231 C 
BRANCH  10  11
HETATM   11  N3  UNL     1      -4.073   0.787   0.130  1.00  0.00    -0.079 N 
ATOM     12  H33 UNL     1      -3.852   1.419   0.900  1.00  0.00     0.274 HD
ATOM     13  H32 UNL     1      -3.976   1.460  -0.630  1.00  0.00     0.274 HD
ATOM     14  H31 UNL     1      -5.014   0.398   0.196  1.00  0.00     0.274 HD
ENDBRANCH  10  11
ENDBRANCH   9  10
ENDBRANCH   8   9
ENDBRANCH   4   8
BRANCH   5  15
HETATM   15  N4  UNL     1       0.831  -0.529   1.949  1.00  0.00    -0.234 N 
ATOM     16  H42 UNL     1      -0.147  -0.816   1.987  1.00  0.00     0.174 HD
ATOM     17  H41 UNL     1       1.409  -0.403   2.780  1.00  0.00     0.174 HD
ENDBRANCH   5  15
BRANCH   1  18
HETATM   18  N1  UNL     1       4.524   0.671  -0.443  1.00  0.00    -0.385 N 
ATOM     19  H12 UNL     1       4.981   0.850  -1.337  1.00  0.00     0.157 HD
ATOM     20  H11 UNL     1       5.068   0.787   0.412  1.00  0.00     0.157 HD
ENDBRANCH   1  18
TORSDOF 6
