REMARK  5 active torsions:
REMARK  status: ('A' for Active; 'I' for Inactive)
REMARK    1  A    between atoms: C2_2  and  O1_4 
REMARK    2  A    between atoms: O1_4  and  C4_5 
REMARK       I    between atoms: C4_5  and  N1_7 
REMARK    3  A    between atoms: N2_10  and  C7_11 
REMARK    4  A    between atoms: C8_12  and  O3_13 
REMARK    5  A    between atoms: C11_17  and  O4_18 
ROOT
HETATM    1  C7  UNL     1      -2.236  -0.116  -0.336  1.00  0.00     0.091 A 
HETATM    2  C8  UNL     1      -2.931   1.008  -0.715  1.00  0.00     0.128 A 
HETATM    3  C9  UNL     1      -4.323   0.954  -0.739  1.00  0.00     0.113 A 
HETATM    4  C10 UNL     1      -4.971  -0.211  -0.386  1.00  0.00     0.015 A 
HETATM    5  C11 UNL     1      -4.258  -1.329  -0.007  1.00  0.00     0.099 A 
HETATM    6  C12 UNL     1      -2.888  -1.296   0.022  1.00  0.00     0.097 A 
HETATM    7 CL1  UNL     1      -2.008  -2.728   0.506  1.00  0.00    -0.079 Cl
HETATM    8  C13 UNL     1      -6.440   0.075  -0.520  1.00  0.00     0.071 C 
HETATM    9  C14 UNL     1      -6.467   1.581  -0.410  1.00  0.00     0.180 C 
HETATM   10  O5  UNL     1      -5.248   1.932  -1.079  1.00  0.00    -0.347 OA
ENDROOT
BRANCH   1  11
HETATM   11  N2  UNL     1      -0.817  -0.092  -0.302  1.00  0.00    -0.371 N 
HETATM   12  C6  UNL     1      -0.057   0.290   0.869  1.00  0.00     0.143 C 
HETATM   13  C5  UNL     1       1.314  -0.312   0.851  1.00  0.00     0.151 C 
HETATM   14  N1  UNL     1       1.983   0.026  -0.393  1.00  0.00    -0.294 N 
HETATM   15  C4  UNL     1       3.394   0.088  -0.504  1.00  0.00     0.365 C 
HETATM   16  C16 UNL     1       1.184   0.312  -1.568  1.00  0.00     0.293 C 
HETATM   17  O2  UNL     1       3.901   0.386  -1.609  1.00  0.00    -0.238 OA
HETATM   18  C15 UNL     1      -0.094  -0.470  -1.504  1.00  0.00     0.182 C 
HETATM   19  F1  UNL     1       1.818   0.003  -2.739  1.00  0.00    -0.225 F 
BRANCH  15  20
HETATM   20  O1  UNL     1       4.256  -0.164   0.546  1.00  0.00    -0.299 OA
BRANCH  20  21
HETATM   21  C2  UNL     1       5.663  -0.102   0.432  1.00  0.00     0.125 C 
HETATM   22  C1  UNL     1       6.351  -1.346   0.886  1.00  0.00     0.040 C 
HETATM   23  C3  UNL     1       6.129   1.044   1.317  1.00  0.00     0.040 C 
ENDBRANCH  20  21
ENDBRANCH  15  20
ENDBRANCH   1  11
BRANCH   2  24
HETATM   24  O3  UNL     1      -2.283   2.189  -1.074  1.00  0.00    -0.356 OA
ATOM     25  H3  UNL     1      -2.763   2.966  -1.336  1.00  0.00     0.218 HD
ENDBRANCH   2  24
BRANCH   5  26
HETATM   26  O4  UNL     1      -4.980  -2.461   0.333  1.00  0.00    -0.358 OA
ATOM     27  H4  UNL     1      -4.489  -3.231   0.594  1.00  0.00     0.217 HD
ENDBRANCH   5  26
TORSDOF 5
