REMARK  3 active torsions:
REMARK  status: ('A' for Active; 'I' for Inactive)
REMARK    1  A    between atoms: C3_3  and  O1_4 
REMARK    2  A    between atoms: C5_7  and  N1_8 
REMARK    3  A    between atoms: C11_15  and  N2_16 
ROOT
HETATM    1  C1  UNL     1       1.679  -3.088  -0.931  1.00  0.00     0.100 C 
HETATM    2  C2  UNL     1       1.162  -2.191  -0.272  1.00  0.00    -0.142 C 
HETATM    3  C3  UNL     1       0.533  -1.142   0.536  1.00  0.00     0.177 C 
HETATM    4  C4  UNL     1      -0.977  -1.125   0.282  1.00  0.00     0.097 C 
HETATM    5  C5  UNL     1      -1.603   0.094   0.853  1.00  0.00     0.251 C 
HETATM    6  C10 UNL     1      -0.813   1.337   0.827  1.00  0.00     0.213 C 
HETATM    7  O2  UNL     1       0.535   1.242   0.893  1.00  0.00    -0.333 OA
HETATM    8  C11 UNL     1       1.060   0.219   0.170  1.00  0.00     0.173 C 
ENDROOT
BRANCH   3   9
HETATM    9  O1  UNL     1       0.638  -1.531   1.843  1.00  0.00    -0.371 OA
ATOM     10  H1  UNL     1       0.230  -0.851   2.367  1.00  0.00     0.212 HD
ENDBRANCH   3   9
BRANCH   8  11
HETATM   11  N2  UNL     1       2.344   0.274  -0.408  1.00  0.00    -0.284 N 
HETATM   12  C12 UNL     1       2.621  -0.034  -1.722  1.00  0.00     0.191 A 
HETATM   13  N3  UNL     1       3.904   0.093  -2.004  1.00  0.00    -0.347 N 
HETATM   14  C13 UNL     1       4.495   0.495  -0.856  1.00  0.00     0.101 A 
ATOM     15  H3  UNL     1       4.356  -0.077  -2.902  1.00  0.00     0.167 HD
HETATM   16  C14 UNL     1       5.823   0.777  -0.586  1.00  0.00     0.132 A 
HETATM   17  C17 UNL     1       3.518   0.608   0.143  1.00  0.00     0.095 A 
HETATM   18 CL1  UNL     1       7.004   0.618  -1.881  1.00  0.00    -0.062 Cl
HETATM   19  N4  UNL     1       6.177   1.162   0.645  1.00  0.00    -0.353 N 
HETATM   20  C15 UNL     1       5.268   1.276   1.610  1.00  0.00     0.115 A 
ATOM     21  H4  UNL     1       7.155   1.371   0.846  1.00  0.00     0.166 HD
HETATM   22  C16 UNL     1       3.917   1.005   1.393  1.00  0.00     0.079 A 
HETATM   23 CL2  UNL     1       2.766   1.170   2.678  1.00  0.00    -0.080 Cl
ENDBRANCH   8  11
BRANCH   5  24
HETATM   24  N1  UNL     1      -2.911   0.391   0.335  1.00  0.00     0.095 N 
HETATM   25  C6  UNL     1      -3.903  -0.620   0.629  1.00  0.00     0.273 C 
HETATM   26  C7  UNL     1      -5.125   0.014  -0.051  1.00  0.00     0.032 C 
HETATM   27  C8  UNL     1      -4.507   0.627  -1.299  1.00  0.00     0.032 C 
HETATM   28  C9  UNL     1      -2.988   0.515  -1.098  1.00  0.00     0.273 C 
ENDBRANCH   5  24
TORSDOF 3
