REMARK  6 active torsions:
REMARK  status: ('A' for Active; 'I' for Inactive)
REMARK    1  A    between atoms: C2_2  and  O1_3 
REMARK    2  A    between atoms: O1_3  and  C3_4 
REMARK    3  A    between atoms: C3_4  and  C4_6 
REMARK    4  A    between atoms: C4_6  and  O3_7 
REMARK    5  A    between atoms: C7_11  and  O4_12 
REMARK    6  A    between atoms: C10_16  and  O5_17 
ROOT
HETATM    1  C4  UNL     1       0.480   0.085  -0.809  1.00  0.00     0.206 C 
HETATM    2  C5  UNL     1      -0.812   0.519  -0.183  1.00  0.00     0.028 A 
HETATM    3  C6  UNL     1      -1.955  -0.173   0.182  1.00  0.00     0.052 A 
HETATM    4  C7  UNL     1      -3.052   0.439   0.747  1.00  0.00     0.089 A 
HETATM    5  C9  UNL     1      -3.040   1.814   0.974  1.00  0.00     0.080 A 
HETATM    6 BR1  UNL     1      -4.564   2.682   1.756  1.00  0.00    -0.045 Br
HETATM    7  C10 UNL     1      -1.914   2.509   0.618  1.00  0.00     0.120 A 
HETATM    8  C11 UNL     1      -0.802   1.874   0.042  1.00  0.00     0.114 A 
HETATM    9  O6  UNL     1       0.419   2.361  -0.388  1.00  0.00    -0.333 OA
HETATM   10  C12 UNL     1       1.164   1.376  -1.060  1.00  0.00     0.105 C 
HETATM   11  C13 UNL     1       1.080   1.700  -2.552  1.00  0.00     0.050 C 
HETATM   12  C14 UNL     1       2.617   1.374  -0.662  1.00  0.00     0.050 C 
ENDROOT
BRANCH   1  13
HETATM   13  C3  UNL     1       1.201  -0.780   0.170  1.00  0.00     0.301 C 
HETATM   14  O2  UNL     1       1.543  -0.259   1.257  1.00  0.00    -0.261 OA
BRANCH  13  15
HETATM   15  O1  UNL     1       1.508  -2.103  -0.051  1.00  0.00    -0.319 OA
BRANCH  15  16
HETATM   16  C2  UNL     1       2.184  -2.964   0.818  1.00  0.00     0.174 C 
HETATM   17  C1  UNL     1       3.595  -2.548   1.140  1.00  0.00     0.034 C 
ENDBRANCH  15  16
ENDBRANCH  13  15
ENDBRANCH   1  13
BRANCH   1  18
HETATM   18  O3  UNL     1       0.230  -0.610  -1.998  1.00  0.00    -0.372 OA
ATOM     19  H3  UNL     1      -0.229  -0.059  -2.621  1.00  0.00     0.211 HD
ENDBRANCH   1  18
BRANCH   4  20
HETATM   20  O4  UNL     1      -4.193  -0.232   1.114  1.00  0.00    -0.354 OA
HETATM   21  C8  UNL     1      -4.345  -1.618   0.947  1.00  0.00     0.210 C 
ENDBRANCH   4  20
BRANCH   7  22
HETATM   22  O5  UNL     1      -1.867   3.889   0.832  1.00  0.00    -0.357 OA
ATOM     23  H5  UNL     1      -1.086   4.371   0.585  1.00  0.00     0.218 HD
ENDBRANCH   7  22
TORSDOF 6
