REMARK  3 active torsions:
REMARK  status: ('A' for Active; 'I' for Inactive)
REMARK       I    between atoms: C1_2  and  N1_3 
REMARK    1  A    between atoms: C1_2  and  C11_18 
REMARK    2  A    between atoms: N1_3  and  C2_5 
REMARK    3  A    between atoms: C4_8  and  O2_9 
ROOT
HETATM    1  C2  UNL     1       0.318   0.146   0.783  1.00  0.00     0.388 C 
HETATM    2  S1  UNL     1      -0.407   1.742   0.900  1.00  0.00    -0.111 SA
HETATM    3  C3  UNL     1      -1.452   2.296  -0.428  1.00  0.00     0.110 C 
HETATM    4  C4  UNL     1      -2.782   1.512  -0.504  1.00  0.00     0.133 C 
HETATM    5  C5  UNL     1      -2.404   0.187   0.007  1.00  0.00     0.049 C 
HETATM    6  C6  UNL     1      -3.382  -0.924  -0.014  1.00  0.00     0.015 C 
HETATM    7  C7  UNL     1      -2.362  -2.076  -0.107  1.00  0.00     0.016 C 
HETATM    8  C8  UNL     1      -1.789  -1.642  -1.471  1.00  0.00     0.043 C 
HETATM    9  C9  UNL     1      -1.267  -0.311  -0.888  1.00  0.00     0.233 C 
HETATM   10  N2  UNL     1      -0.307  -0.858   0.030  1.00  0.00     0.126 N 
HETATM   11  C10 UNL     1      -1.149  -1.792   0.762  1.00  0.00     0.281 C 
ENDROOT
BRANCH   1  12
HETATM   12  N1  UNL     1       1.680   0.309   0.246  1.00  0.00    -0.318 N 
HETATM   13  C1  UNL     1       2.823   0.004   0.984  1.00  0.00     0.264 C 
HETATM   14  O1  UNL     1       2.629  -0.438   2.184  1.00  0.00    -0.267 OA
ATOM     15  H1  UNL     1       1.792   0.660  -0.705  1.00  0.00     0.165 HD
BRANCH  13  16
HETATM   16  C11 UNL     1       4.215   0.129   0.548  1.00  0.00     0.114 A 
HETATM   17  S2  UNL     1       5.624  -0.265   1.502  1.00  0.00    -0.051 SA
HETATM   18  C12 UNL     1       6.821   0.129   0.358  1.00  0.00     0.147 A 
HETATM   19 CL1  UNL     1       8.589   0.028   0.501  1.00  0.00    -0.056 Cl
HETATM   20  N3  UNL     1       6.104   0.532  -0.672  1.00  0.00    -0.330 N 
HETATM   21  C13 UNL     1       4.805   0.542  -0.604  1.00  0.00     0.127 A 
ATOM     22  H3  UNL     1       6.570   0.837  -1.526  1.00  0.00     0.168 HD
HETATM   23 CL2  UNL     1       3.847   1.092  -2.013  1.00  0.00    -0.063 Cl
ENDBRANCH  13  16
ENDBRANCH   1  12
BRANCH   4  24
HETATM   24  O2  UNL     1      -3.780   2.133   0.208  1.00  0.00    -0.394 OA
ATOM     25  H2  UNL     1      -4.597   1.651   0.161  1.00  0.00     0.210 HD
ENDBRANCH   4  24
TORSDOF 3
