REMARK  6 active torsions:
REMARK  status: ('A' for Active; 'I' for Inactive)
REMARK    1  A    between atoms: C2_2  and  N1_3 
REMARK    2  A    between atoms: C3_4  and  N2_5 
REMARK    3  A    between atoms: N2_5  and  N3_7 
REMARK    4  A    between atoms: C4_9  and  O1_11 
REMARK    5  A    between atoms: O1_11  and  C6_12 
REMARK    6  A    between atoms: C6_12  and  C7_14 
ROOT
HETATM    1  N1  UNL     1      -2.183   1.000   0.201  1.00  0.00    -0.145 N 
HETATM    2  C3  UNL     1      -1.091   0.234   0.025  1.00  0.00     0.702 A 
HETATM    3  N4  UNL     1      -1.063  -0.750  -0.907  1.00  0.00    -0.193 N 
ATOM      4  H4  UNL     1      -0.214  -1.306  -1.005  1.00  0.00     0.184 HD
HETATM    5  C9  UNL     1      -2.110  -1.023  -1.708  1.00  0.00     0.045 A 
HETATM    6  C10 UNL     1      -2.066  -2.114  -2.735  1.00  0.00     0.070 C 
HETATM    7  C11 UNL     1      -3.240  -0.249  -1.543  1.00  0.00     0.102 A 
HETATM    8 BR1  UNL     1      -4.783  -0.559  -2.634  1.00  0.00    -0.043 Br
HETATM    9  C12 UNL     1      -3.248   0.750  -0.587  1.00  0.00     0.281 A 
HETATM   10  O2  UNL     1      -4.257   1.468  -0.414  1.00  0.00    -0.266 OA
ENDROOT
BRANCH   2  11
HETATM   11  N2  UNL     1      -0.063   0.433   0.745  1.00  0.00    -0.130 N 
ATOM     12  H2  UNL     1      -0.111   1.179   1.439  1.00  0.00     0.205 HD
BRANCH  11  13
HETATM   13  N3  UNL     1       1.123  -0.290   0.659  1.00  0.00    -0.269 N 
HETATM   14  C4  UNL     1       2.218   0.320   0.953  1.00  0.00     0.136 C 
HETATM   15  C5  UNL     1       2.244   1.745   1.373  1.00  0.00     0.099 C 
ATOM     16  H3  UNL     1       1.125  -1.269   0.373  1.00  0.00     0.189 HD
BRANCH  14  17
HETATM   17  O1  UNL     1       3.387  -0.414   0.862  1.00  0.00    -0.285 OA
BRANCH  17  18
HETATM   18  C6  UNL     1       3.340  -1.668   0.294  1.00  0.00     0.144 C 
HETATM   19  S1  UNL     1       2.146  -2.738   0.604  1.00  0.00    -0.052 SA
BRANCH  18  20
HETATM   20  C7  UNL     1       4.412  -2.051  -0.626  1.00  0.00     0.061 C 
HETATM   21  C8  UNL     1       5.398  -1.223  -0.908  1.00  0.00     0.088 C 
HETATM   22 CL1  UNL     1       5.544   0.381  -0.240  1.00  0.00    -0.097 Cl
ENDBRANCH  18  20
ENDBRANCH  17  18
ENDBRANCH  14  17
ENDBRANCH  11  13
ENDBRANCH   2  11
BRANCH   1  23
HETATM   23  C2  UNL     1      -2.145   2.014   1.195  1.00  0.00     0.146 C 
HETATM   24  C1  UNL     1      -2.597   1.592   2.558  1.00  0.00     0.027 C 
ENDBRANCH   1  23
TORSDOF 6
