REMARK  4 active torsions:
REMARK  status: ('A' for Active; 'I' for Inactive)
REMARK    1  A    between atoms: C3_4  and  C4_5 
REMARK    2  A    between atoms: C4_5  and  C5_6 
REMARK    3  A    between atoms: C5_6  and  O1_7 
REMARK    4  A    between atoms: C5_6  and  C6_9 
ROOT
HETATM    1  N1  UNL     1      -4.396   3.607  -1.605  1.00  0.00    -0.182 NA
HETATM    2  C1  UNL     1      -3.597   2.845  -1.254  1.00  0.00     0.152 C 
HETATM    3  C2  UNL     1      -2.642   1.906  -0.816  1.00  0.00     0.014 C 
HETATM    4  C3  UNL     1      -1.824   1.108  -0.428  1.00  0.00    -0.078 C 
ENDROOT
BRANCH   4   5
HETATM    5  C4  UNL     1      -0.800   0.145   0.041  1.00  0.00     0.051 C 
HETATM    6  C10 UNL     1      -1.237  -0.294   1.392  1.00  0.00     0.025 C 
HETATM    7  C11 UNL     1      -2.510  -1.066   1.079  1.00  0.00     0.002 C 
HETATM    8  C12 UNL     1      -2.201  -1.755  -0.223  1.00  0.00     0.002 C 
HETATM    9  C13 UNL     1      -0.972  -1.078  -0.800  1.00  0.00     0.025 C 
BRANCH   5  10
HETATM   10  C5  UNL     1       0.515   0.801  -0.065  1.00  0.00     0.143 C 
BRANCH  10  11
HETATM   11  O1  UNL     1       0.721   1.139  -1.406  1.00  0.00    -0.393 OA
ATOM     12  H1  UNL     1       1.569   1.562  -1.474  1.00  0.00     0.210 HD
ENDBRANCH  10  11
BRANCH  10  13
HETATM   13  C6  UNL     1       1.698   0.117   0.478  1.00  0.00     0.016 C 
HETATM   14  C7  UNL     1       2.951   0.954   0.271  1.00  0.00     0.007 C 
HETATM   15  C8  UNL     1       3.712  -0.377   0.239  1.00  0.00     0.001 C 
HETATM   16  C9  UNL     1       2.387  -0.951  -0.288  1.00  0.00     0.007 C 
ENDBRANCH  10  13
ENDBRANCH   5  10
ENDBRANCH   4   5
TORSDOF 4
