REMARK  2 active torsions:
REMARK  status: ('A' for Active; 'I' for Inactive)
REMARK    1  A    between atoms: C4_5  and  N2_6 
REMARK    2  A    between atoms: N2_6  and  C5_8 
ROOT
HETATM    1  N2  UNL     1       0.247  -0.381   0.668  1.00  0.00    -0.413 N 
ATOM      2  H2  UNL     1       0.048   0.086   1.553  1.00  0.00     0.154 HD
ENDROOT
BRANCH   1   3
HETATM    3  C4  UNL     1      -0.745  -1.162   0.070  1.00  0.00     0.080 C 
HETATM    4  C3  UNL     1      -1.321  -0.759  -1.238  1.00  0.00     0.055 C 
HETATM    5  C2  UNL     1      -2.246   0.434  -0.955  1.00  0.00     0.274 C 
HETATM    6  N1  UNL     1      -3.421  -0.096  -0.358  1.00  0.00     0.084 N 
HETATM    7  C1  UNL     1      -4.285   0.903   0.223  1.00  0.00     0.309 C 
HETATM    8  C12 UNL     1      -3.221  -1.242   0.448  1.00  0.00     0.274 C 
HETATM    9  C11 UNL     1      -1.877  -1.362   1.077  1.00  0.00     0.055 C 
ENDBRANCH   1   3
BRANCH   1  10
HETATM   10  C5  UNL     1       1.528  -0.222   0.071  1.00  0.00     0.077 C 
HETATM   11  C6  UNL     1       1.588   0.467  -1.226  1.00  0.00     0.024 C 
HETATM   12  C7  UNL     1       2.818   1.341  -1.407  1.00  0.00     0.002 C 
HETATM   13  C8  UNL     1       3.983   0.467  -0.948  1.00  0.00     0.000 C 
HETATM   14  C9  UNL     1       3.913   0.497   0.562  1.00  0.00     0.002 C 
HETATM   15  C10 UNL     1       2.557   0.261   1.080  1.00  0.00     0.024 C 
ENDBRANCH   1  10
TORSDOF 2
