REMARK  10 active torsions:
REMARK  status: ('A' for Active; 'I' for Inactive)
REMARK    1  A    between atoms: O1_3  and  N2_4 
REMARK       I    between atoms: N2_4  and  C2_6 
REMARK    2  A    between atoms: N4_8  and  N5_10 
REMARK    3  A    between atoms: C3_12  and  N6_13 
REMARK    4  A    between atoms: C3_12  and  C10_31 
REMARK    5  A    between atoms: N6_13  and  N7_15 
REMARK    6  A    between atoms: N7_15  and  C4_17 
REMARK    7  A    between atoms: C5_18  and  O2_19 
REMARK    8  A    between atoms: C7_22  and  N8_23 
REMARK    9  A    between atoms: C9_27  and  N9_28 
REMARK   10  A    between atoms: C11_37  and  N12_38 
ROOT
HETATM    1  N1  UNL     1       6.822  -1.413   1.248  1.00  0.00    -0.162 NA
HETATM    2  C1  UNL     1       5.766  -1.058   0.927  1.00  0.00     0.253 C 
HETATM    3  O1  UNL     1       4.523  -0.624   0.548  1.00  0.00    -0.157 OA
ENDROOT
BRANCH   3   4
HETATM    4  N2  UNL     1       3.666  -1.543  -0.006  1.00  0.00    -0.220 N 
HETATM    5  C2  UNL     1       3.178  -1.353  -1.316  1.00  0.00     0.228 C 
HETATM    6  N3  UNL     1       3.298  -2.404  -2.255  1.00  0.00    -0.060 NA
HETATM    7  N4  UNL     1       2.638  -0.264  -1.653  1.00  0.00    -0.270 N 
ATOM      8  H4  UNL     1       2.313  -0.210  -2.618  1.00  0.00     0.189 HD
ATOM      9  H2  UNL     1       3.382  -2.363   0.530  1.00  0.00     0.198 HD
BRANCH   7  10
HETATM   10  N5  UNL     1       2.432   0.854  -0.891  1.00  0.00    -0.280 N 
HETATM   11  C3  UNL     1       1.323   1.145  -0.292  1.00  0.00     0.168 C 
ATOM     12  H5  UNL     1       3.210   1.506  -0.788  1.00  0.00     0.188 HD
BRANCH  11  13
HETATM   13  N6  UNL     1       0.245   0.284  -0.407  1.00  0.00    -0.282 N 
ATOM     14  H6  UNL     1       0.166  -0.288  -1.248  1.00  0.00     0.188 HD
BRANCH  13  15
HETATM   15  N7  UNL     1      -0.724   0.165   0.560  1.00  0.00    -0.294 N 
ATOM     16  H7  UNL     1      -0.491   0.420   1.520  1.00  0.00     0.187 HD
BRANCH  15  17
HETATM   17  C4  UNL     1      -2.051  -0.304   0.276  1.00  0.00     0.114 A 
HETATM   18  C5  UNL     1      -2.741   0.071  -0.854  1.00  0.00     0.098 A 
HETATM   19  C6  UNL     1      -4.016  -0.481  -1.026  1.00  0.00     0.075 A 
HETATM   20  C7  UNL     1      -4.570  -1.354  -0.125  1.00  0.00     0.108 A 
HETATM   21  C8  UNL     1      -3.881  -1.722   0.991  1.00  0.00     0.074 A 
HETATM   22  C9  UNL     1      -2.599  -1.198   1.211  1.00  0.00     0.136 A 
BRANCH  18  23
HETATM   23  O2  UNL     1      -2.238   0.935  -1.770  1.00  0.00    -0.358 OA
ATOM     24  H2  UNL     1      -2.714   1.194  -2.550  1.00  0.00     0.217 HD
ENDBRANCH  18  23
BRANCH  20  25
HETATM   25  N8  UNL     1      -5.886  -1.900  -0.345  1.00  0.00    -0.116 N 
HETATM   26  O3  UNL     1      -6.552  -1.592  -1.359  1.00  0.00    -0.532 OA
HETATM   27  O4  UNL     1      -6.440  -2.765   0.541  1.00  0.00    -0.532 OA
ENDBRANCH  20  25
BRANCH  22  28
HETATM   28  N9  UNL     1      -1.894  -1.598   2.373  1.00  0.00    -0.113 N 
HETATM   29  O5  UNL     1      -0.668  -1.737   2.395  1.00  0.00    -0.532 OA
HETATM   30  O6  UNL     1      -2.576  -1.875   3.533  1.00  0.00    -0.532 OA
ENDBRANCH  22  28
ENDBRANCH  15  17
ENDBRANCH  13  15
ENDBRANCH  11  13
BRANCH  11  31
HETATM   31  C10 UNL     1       1.254   2.382   0.446  1.00  0.00     0.148 A 
HETATM   32  N10 UNL     1       0.621   2.663   1.580  1.00  0.00    -0.234 N 
HETATM   33  O7  UNL     1       0.783   3.893   1.951  1.00  0.00    -0.155 OA
ATOM     34  H10 UNL     1       0.067   1.983   2.102  1.00  0.00     0.197 HD
HETATM   35  N11 UNL     1       1.544   4.471   1.055  1.00  0.00    -0.224 N 
HETATM   36  C11 UNL     1       1.869   3.590   0.098  1.00  0.00     0.154 A 
ATOM     37  H11 UNL     1       1.844   5.445   1.081  1.00  0.00     0.198 HD
BRANCH  36  38
HETATM   38  N12 UNL     1       2.582   3.710  -0.959  1.00  0.00    -0.382 N 
ATOM     39 2H12 UNL     1       2.829   3.040  -1.687  1.00  0.00     0.157 HD
ATOM     40 1H12 UNL     1       3.030   4.590  -1.213  1.00  0.00     0.157 HD
ENDBRANCH  36  38
ENDBRANCH  11  31
ENDBRANCH   7  10
ENDBRANCH   3   4
TORSDOF 10
