REMARK  10 active torsions:
REMARK  status: ('A' for Active; 'I' for Inactive)
REMARK    1  A    between atoms: C2_2  and  C3_4 
REMARK    2  A    between atoms: C4_8  and  C5_9 
REMARK    3  A    between atoms: C5_9  and  N3_10 
REMARK    4  A    between atoms: N3_10  and  C6_12 
REMARK    5  A    between atoms: C7_13  and  C8_14 
REMARK    6  A    between atoms: C8_14  and  N4_15 
REMARK    7  A    between atoms: C8_14  and  O2_19 
REMARK    8  A    between atoms: C11_29  and  N8_30 
REMARK    9  A    between atoms: N8_30  and  O3_32 
REMARK   10  A    between atoms: C15_41  and  O5_42 
ROOT
HETATM    1  C6  UNL     1      -2.385  -0.137  -0.262  1.00  0.00     0.086 A 
HETATM    2  C7  UNL     1      -3.047   0.016   0.921  1.00  0.00     0.096 A 
HETATM    3  N5  UNL     1      -4.332   0.477   0.925  1.00  0.00    -0.339 N 
ATOM      4  H5  UNL     1      -4.812   0.585   1.819  1.00  0.00     0.167 HD
HETATM    5  C9  UNL     1      -4.988   0.794  -0.203  1.00  0.00     0.126 A 
HETATM    6  N6  UNL     1      -6.209   1.232  -0.199  1.00  0.00    -0.384 N 
ATOM      7  H61 UNL     1      -6.707   1.473  -1.056  1.00  0.00     0.157 HD
ATOM      8  H62 UNL     1      -6.696   1.344   0.690  1.00  0.00     0.157 HD
HETATM    9  C10 UNL     1      -4.329   0.643  -1.406  1.00  0.00     0.120 A 
HETATM   10  N7  UNL     1      -5.001   0.970  -2.602  1.00  0.00    -0.096 NA
HETATM   11  C11 UNL     1      -3.012   0.172  -1.433  1.00  0.00     0.110 A 
ENDROOT
BRANCH   1  12
HETATM   12  N3  UNL     1      -1.060  -0.611  -0.265  1.00  0.00    -0.379 N 
ATOM     13  H3  UNL     1      -0.911  -1.619  -0.318  1.00  0.00     0.160 HD
BRANCH  12  14
HETATM   14  C5  UNL     1       0.100   0.243  -0.198  1.00  0.00     0.199 C 
BRANCH  14  15
HETATM   15  C4  UNL     1       1.319  -0.627  -0.221  1.00  0.00     0.136 A 
HETATM   16  N2  UNL     1       2.558  -0.106  -0.170  1.00  0.00    -0.232 N 
HETATM   17  N1  UNL     1       2.903   1.190  -0.094  1.00  0.00    -0.286 N 
HETATM   18  C14 UNL     1       3.668  -0.867  -0.189  1.00  0.00     0.163 A 
HETATM   19  C3  UNL     1       4.243   1.270  -0.064  1.00  0.00     0.130 A 
ATOM     20  H1  UNL     1       2.257   1.979  -0.064  1.00  0.00     0.188 HD
HETATM   21  C15 UNL     1       4.746  -0.012  -0.123  1.00  0.00     0.132 A 
HETATM   22  C13 UNL     1       3.487  -2.234  -0.265  1.00  0.00     0.293 A 
HETATM   23  N10 UNL     1       2.257  -2.784  -0.318  1.00  0.00    -0.259 N 
HETATM   24  O4  UNL     1       4.491  -2.988  -0.287  1.00  0.00    -0.264 OA
HETATM   25  N9  UNL     1       1.212  -1.974  -0.295  1.00  0.00    -0.281 N 
HETATM   26  C12 UNL     1       2.114  -4.237  -0.398  1.00  0.00     0.181 C 
ATOM     27  H9  UNL     1       0.279  -2.385  -0.335  1.00  0.00     0.188 HD
BRANCH  19  28
HETATM   28  C2  UNL     1       5.084   2.466   0.016  1.00  0.00     0.176 C 
HETATM   29  C1  UNL     1       4.384   3.783   0.073  1.00  0.00     0.098 C 
HETATM   30  O1  UNL     1       6.331   2.408   0.036  1.00  0.00    -0.291 OA
ENDBRANCH  19  28
BRANCH  21  31
HETATM   31  O5  UNL     1       6.075  -0.420  -0.120  1.00  0.00    -0.356 OA
ATOM     32  H5  UNL     1       6.422  -1.304  -0.161  1.00  0.00     0.218 HD
ENDBRANCH  21  31
ENDBRANCH  14  15
ENDBRANCH  12  14
ENDBRANCH   1  12
BRANCH   2  33
HETATM   33  C8  UNL     1      -2.452  -0.296   2.256  1.00  0.00     0.369 C 
BRANCH  33  34
HETATM   34  N4  UNL     1      -2.774   0.785   3.135  1.00  0.00    -0.047 N 
ATOM     35  H43 UNL     1      -2.482   1.693   2.772  1.00  0.00     0.277 HD
ATOM     36  H42 UNL     1      -3.775   0.975   3.181  1.00  0.00     0.277 HD
ATOM     37  H41 UNL     1      -2.368   0.572   4.046  1.00  0.00     0.277 HD
ENDBRANCH  33  34
BRANCH  33  38
HETATM   38  O2  UNL     1      -2.947  -1.503   2.754  1.00  0.00    -0.365 OA
ATOM     39  H2  UNL     1      -2.569  -1.701   3.603  1.00  0.00     0.212 HD
ENDBRANCH  33  38
ENDBRANCH   2  33
BRANCH  11  40
HETATM   40  N8  UNL     1      -2.353   0.026  -2.697  1.00  0.00    -0.265 N 
ATOM     41  H8  UNL     1      -2.130  -0.891  -3.085  1.00  0.00     0.194 HD
BRANCH  40  42
HETATM   42  O3  UNL     1      -2.067   1.079  -3.296  1.00  0.00    -0.289 OA
ATOM     43  H3  UNL     1      -1.630   0.982  -4.134  1.00  0.00     0.244 HD
ENDBRANCH  40  42
ENDBRANCH  11  40
TORSDOF 10
