REMARK  11 active torsions:
REMARK  status: ('A' for Active; 'I' for Inactive)
REMARK    1  A    between atoms: C3_3  and  N1_4 
REMARK    2  A    between atoms: C4_7  and  N2_8 
REMARK    3  A    between atoms: N2_8  and  N3_10 
REMARK    4  A    between atoms: N3_10  and  C5_12 
REMARK    5  A    between atoms: C5_12  and  N4_13 
REMARK    6  A    between atoms: C5_12  and  C8_25 
REMARK    7  A    between atoms: N4_13  and  N5_15 
REMARK    8  A    between atoms: C7_21  and  N8_22 
REMARK    9  A    between atoms: N9_27  and  N10_28 
REMARK   10  A    between atoms: C10_37  and  N14_38 
REMARK   11  A    between atoms: C11_41  and  N15_42 
ROOT
HETATM    1  C5  UNL     1      -2.094   0.319   0.149  1.00  0.00     0.166 C 
ENDROOT
BRANCH   1   2
HETATM    2  N3  UNL     1      -0.817   0.127   0.858  1.00  0.00    -0.281 N 
ATOM      3  H3  UNL     1      -0.641   0.497   1.792  1.00  0.00     0.188 HD
BRANCH   2   4
HETATM    4  N2  UNL     1       0.127  -0.602   0.145  1.00  0.00    -0.282 N 
ATOM      5  H2  UNL     1      -0.168  -1.395  -0.425  1.00  0.00     0.188 HD
BRANCH   4   6
HETATM    6  C4  UNL     1       1.508  -0.246   0.207  1.00  0.00     0.155 A 
HETATM    7  C3  UNL     1       2.430  -0.987  -0.507  1.00  0.00     0.156 A 
HETATM    8  C2  UNL     1       3.763  -0.633  -0.425  1.00  0.00     0.012 A 
HETATM    9  C1  UNL     1       4.762  -1.391  -1.182  1.00  0.00     0.054 C 
HETATM   10  C11 UNL     1       4.146   0.445   0.362  1.00  0.00     0.154 A 
HETATM   11  C10 UNL     1       3.209   1.157   1.055  1.00  0.00     0.134 A 
HETATM   12  N13 UNL     1       1.917   0.790   0.956  1.00  0.00    -0.324 N 
ATOM     13  H13 UNL     1       1.218   1.323   1.473  1.00  0.00     0.169 HD
BRANCH   7  14
HETATM   14  N1  UNL     1       2.010  -2.077  -1.303  1.00  0.00    -0.111 N 
HETATM   15  O1  UNL     1       2.214  -3.252  -0.908  1.00  0.00    -0.532 OA
HETATM   16  O2  UNL     1       1.362  -1.885  -2.527  1.00  0.00    -0.532 OA
ENDBRANCH   7  14
BRANCH  10  17
HETATM   17  N15 UNL     1       5.496   0.848   0.482  1.00  0.00    -0.111 N 
HETATM   18  O3  UNL     1       6.239   0.130   1.203  1.00  0.00    -0.532 OA
HETATM   19  O4  UNL     1       6.022   1.962  -0.131  1.00  0.00    -0.532 OA
ENDBRANCH  10  17
BRANCH  11  20
HETATM   20  N14 UNL     1       3.491   2.163   1.788  1.00  0.00    -0.383 N 
ATOM     21 2H14 UNL     1       2.791   2.695   2.306  1.00  0.00     0.157 HD
ATOM     22 1H14 UNL     1       4.470   2.441   1.863  1.00  0.00     0.157 HD
ENDBRANCH  11  20
ENDBRANCH   4   6
ENDBRANCH   2   4
ENDBRANCH   1   2
BRANCH   1  23
HETATM   23  N4  UNL     1      -2.492   1.426   0.024  1.00  0.00    -0.260 N 
ATOM     24  H4  UNL     1      -1.784   2.002   0.479  1.00  0.00     0.190 HD
BRANCH  23  25
HETATM   25  N5  UNL     1      -3.392   2.293  -0.408  1.00  0.00    -0.078 N 
HETATM   26  C6  UNL     1      -4.413   2.079  -1.263  1.00  0.00     0.242 A 
HETATM   27  N6  UNL     1      -5.055   3.264  -1.402  1.00  0.00    -0.279 N 
HETATM   28  N7  UNL     1      -4.482   4.177  -0.681  1.00  0.00    -0.130 N 
ATOM     29  H6  UNL     1      -5.874   3.417  -1.991  1.00  0.00     0.188 HD
HETATM   30  C7  UNL     1      -3.450   3.623  -0.050  1.00  0.00     0.712 A 
ATOM     31  H7  UNL     1      -4.773   5.152  -0.610  1.00  0.00     0.205 HD
BRANCH  30  32
HETATM   32  N8  UNL     1      -2.629   4.187   0.759  1.00  0.00    -0.232 N 
ATOM     33  H82 UNL     1      -1.838   3.762   1.243  1.00  0.00     0.174 HD
ATOM     34  H81 UNL     1      -2.672   5.171   1.024  1.00  0.00     0.174 HD
ENDBRANCH  30  32
ENDBRANCH  23  25
ENDBRANCH   1  23
BRANCH   1  35
HETATM   35  C8  UNL     1      -2.662  -0.929  -0.310  1.00  0.00     0.115 A 
HETATM   36  C9  UNL     1      -2.737  -2.095   0.475  1.00  0.00     0.172 A 
HETATM   37  N9  UNL     1      -3.281  -3.077  -0.246  1.00  0.00    -0.198 N 
HETATM   38  N11 UNL     1      -3.544  -2.574  -1.434  1.00  0.00    -0.222 N 
HETATM   39  N12 UNL     1      -3.184  -1.313  -1.483  1.00  0.00    -0.280 N 
ATOM     40  H11 UNL     1      -3.967  -3.090  -2.205  1.00  0.00     0.210 HD
ATOM     41  H12 UNL     1      -3.287  -0.710  -2.299  1.00  0.00     0.189 HD
BRANCH  37  42
HETATM   42  N10 UNL     1      -3.512  -4.384   0.210  1.00  0.00    -0.323 N 
ATOM     43 2H10 UNL     1      -3.308  -4.774   1.130  1.00  0.00     0.179 HD
ATOM     44 1H10 UNL     1      -3.928  -5.135  -0.341  1.00  0.00     0.179 HD
ENDBRANCH  37  42
ENDBRANCH   1  35
TORSDOF 11
