REMARK  11 active torsions:
REMARK  status: ('A' for Active; 'I' for Inactive)
REMARK    1  A    between atoms: C3_5  and  S1_6 
REMARK    2  A    between atoms: S1_6  and  C4_7 
REMARK    3  A    between atoms: C4_7  and  C5_8 
REMARK    4  A    between atoms: C5_8  and  N2_9 
REMARK    5  A    between atoms: C5_8  and  C6_13 
REMARK    6  A    between atoms: N3_16  and  N4_17 
REMARK    7  A    between atoms: N5_21  and  C8_23 
REMARK    8  A    between atoms: C9_25  and  N6_26 
REMARK    9  A    between atoms: C10_31  and  N8_32 
REMARK       I    between atoms: C11_34  and  N10_36 
REMARK   10  A    between atoms: N10_36  and  N11_38 
REMARK   11  A    between atoms: N11_38  and  O3_40 
ROOT
HETATM    1  C1  UNL     1      -0.814  -3.515   1.879  1.00  0.00     0.089 C 
HETATM    2  C2  UNL     1      -0.783  -2.142   1.276  1.00  0.00     0.095 A 
HETATM    3  N1  UNL     1      -1.877  -1.354   1.282  1.00  0.00    -0.324 N 
ATOM      4  H1  UNL     1      -2.736  -1.707   1.704  1.00  0.00     0.169 HD
HETATM    5  C3  UNL     1      -1.875  -0.099   0.742  1.00  0.00     0.184 A 
HETATM    6  N3  UNL     1      -0.730   0.339   0.191  1.00  0.00    -0.070 N 
HETATM    7  C7  UNL     1       0.383  -0.406   0.160  1.00  0.00     0.707 A 
HETATM    8  N5  UNL     1       1.488   0.022  -0.375  1.00  0.00    -0.179 N 
ATOM      9  H5  UNL     1       1.524   0.954  -0.788  1.00  0.00     0.185 HD
HETATM   10  N12 UNL     1       0.332  -1.638   0.706  1.00  0.00    -0.179 N 
ATOM     11  H12 UNL     1       1.173  -2.215   0.687  1.00  0.00     0.185 HD
ENDROOT
BRANCH   6  12
HETATM   12  N4  UNL     1      -0.707   1.624  -0.370  1.00  0.00    -0.322 N 
ATOM     13  H42 UNL     1      -1.554   2.191  -0.346  1.00  0.00     0.178 HD
ATOM     14  H41 UNL     1       0.162   1.956  -0.788  1.00  0.00     0.178 HD
ENDBRANCH   6  12
BRANCH   8  15
HETATM   15  C8  UNL     1       2.654  -0.807  -0.387  1.00  0.00     0.138 A 
HETATM   16  S2  UNL     1       2.824  -2.378  -1.032  1.00  0.00    -0.032 SA
HETATM   17  C9  UNL     1       4.468  -2.637  -0.647  1.00  0.00     0.145 A 
HETATM   18  N7  UNL     1       4.808  -1.499  -0.039  1.00  0.00    -0.321 N 
HETATM   19  C10 UNL     1       3.912  -0.568   0.101  1.00  0.00     0.144 A 
ATOM     20  H7  UNL     1       5.756  -1.362   0.310  1.00  0.00     0.169 HD
BRANCH  17  21
HETATM   21  N6  UNL     1       5.234  -3.683  -0.880  1.00  0.00    -0.380 N 
ATOM     22  H62 UNL     1       4.974  -4.553  -1.345  1.00  0.00     0.158 HD
ATOM     23  H61 UNL     1       6.216  -3.838  -0.650  1.00  0.00     0.158 HD
ENDBRANCH  17  21
BRANCH  19  24
HETATM   24  N8  UNL     1       4.176   0.715   0.744  1.00  0.00    -0.313 N 
HETATM   25  C11 UNL     1       5.061   1.451   0.171  1.00  0.00     0.210 C 
HETATM   26  N9  UNL     1       5.727   1.031  -1.006  1.00  0.00    -0.062 NA
HETATM   27  N10 UNL     1       5.406   2.735   0.710  1.00  0.00    -0.254 N 
ATOM     28  H10 UNL     1       5.810   3.466   0.125  1.00  0.00     0.191 HD
ATOM     29  H8  UNL     1       3.691   1.009   1.592  1.00  0.00     0.170 HD
BRANCH  27  30
HETATM   30  N11 UNL     1       5.165   2.940   2.066  1.00  0.00    -0.208 N 
ATOM     31  H11 UNL     1       5.655   2.378   2.762  1.00  0.00     0.215 HD
BRANCH  30  32
HETATM   32  O3  UNL     1       4.347   3.814   2.432  1.00  0.00    -0.274 OA
ATOM     33  H3  UNL     1       4.183   3.954   3.357  1.00  0.00     0.246 HD
ENDBRANCH  30  32
ENDBRANCH  27  30
ENDBRANCH  19  24
ENDBRANCH   8  15
BRANCH   5  34
HETATM   34  S1  UNL     1      -3.324   0.921   0.757  1.00  0.00    -0.089 SA
BRANCH  34  35
HETATM   35  C4  UNL     1      -4.329   0.655  -0.734  1.00  0.00     0.126 C 
BRANCH  35  36
HETATM   36  C5  UNL     1      -5.562   1.549  -0.592  1.00  0.00     0.293 C 
BRANCH  36  37
HETATM   37  N2  UNL     1      -6.406   1.371  -1.771  1.00  0.00    -0.064 N 
ATOM     38  H23 UNL     1      -5.901   1.537  -2.642  1.00  0.00     0.275 HD
ATOM     39  H22 UNL     1      -6.649   0.394  -1.934  1.00  0.00     0.275 HD
ATOM     40  H21 UNL     1      -7.228   1.967  -1.676  1.00  0.00     0.275 HD
ENDBRANCH  36  37
BRANCH  36  41
HETATM   41  C6  UNL     1      -6.273   1.131   0.627  1.00  0.00     0.205 C 
HETATM   42  O1  UNL     1      -5.727   1.224   1.747  1.00  0.00    -0.646 OA
HETATM   43  O2  UNL     1      -7.556   0.627   0.548  1.00  0.00    -0.646 OA
ENDBRANCH  36  41
ENDBRANCH  35  36
ENDBRANCH  34  35
ENDBRANCH   5  34
TORSDOF 11
