REMARK  11 active torsions:
REMARK  status: ('A' for Active; 'I' for Inactive)
REMARK    1  A    between atoms: C2_3  and  O1_4 
REMARK    2  A    between atoms: C3_6  and  C4_7 
REMARK    3  A    between atoms: C4_7  and  O2_8 
REMARK    4  A    between atoms: C4_7  and  C5_10 
REMARK    5  A    between atoms: C6_13  and  N3_14 
REMARK    6  A    between atoms: N3_14  and  N4_16 
REMARK    7  A    between atoms: N4_16  and  S1_18 
REMARK    8  A    between atoms: S1_18  and  O5_21 
REMARK    9  A    between atoms: O5_21  and  C7_22 
REMARK   10  A    between atoms: C8_28  and  N7_29 
REMARK   11  A    between atoms: C9_32  and  O7_33 
ROOT
HETATM    1  C5  UNL     1      -1.604   0.308   0.948  1.00  0.00     0.164 A 
HETATM    2  N2  UNL     1      -0.362   0.373   1.459  1.00  0.00    -0.319 N 
ATOM      3  H2  UNL     1      -0.129   0.641   2.415  1.00  0.00     0.169 HD
HETATM    4  C6  UNL     1       0.522   0.028   0.509  1.00  0.00     0.182 A 
HETATM    5  C9  UNL     1      -0.230  -0.255  -0.621  1.00  0.00     0.232 A 
HETATM    6  O8  UNL     1      -1.486  -0.069  -0.288  1.00  0.00    -0.269 OA
ENDROOT
BRANCH   4   7
HETATM    7  N3  UNL     1       1.937  -0.042   0.607  1.00  0.00    -0.270 N 
ATOM      8  H3  UNL     1       2.518   0.770   0.397  1.00  0.00     0.189 HD
BRANCH   7   9
HETATM    9  N4  UNL     1       2.505  -1.241   0.995  1.00  0.00    -0.202 N 
ATOM     10  H4  UNL     1       2.163  -1.830   1.754  1.00  0.00     0.202 HD
BRANCH   9  11
HETATM   11  S1  UNL     1       3.893  -1.602  -0.003  1.00  0.00     0.382 S 
HETATM   12  O3  UNL     1       4.091  -3.081  -0.118  1.00  0.00    -0.174 OA
HETATM   13  O4  UNL     1       3.729  -0.946  -1.344  1.00  0.00    -0.174 OA
BRANCH  11  14
HETATM   14  O5  UNL     1       5.244  -0.918   0.753  1.00  0.00    -0.191 OA
BRANCH  14  15
HETATM   15  C7  UNL     1       5.886   0.222   0.348  1.00  0.00     0.229 A 
HETATM   16  N5  UNL     1       5.681   1.460   0.811  1.00  0.00    -0.215 N 
HETATM   17  O6  UNL     1       6.498   2.275   0.164  1.00  0.00    -0.153 OA
ATOM     18  H5  UNL     1       5.014   1.728   1.534  1.00  0.00     0.199 HD
HETATM   19  N6  UNL     1       7.216   1.632  -0.689  1.00  0.00    -0.222 N 
HETATM   20  C8  UNL     1       6.862   0.330  -0.605  1.00  0.00     0.175 A 
ATOM     21  H6  UNL     1       7.920   2.030  -1.311  1.00  0.00     0.198 HD
BRANCH  20  22
HETATM   22  N7  UNL     1       7.363  -0.613  -1.303  1.00  0.00    -0.380 N 
ATOM     23  H72 UNL     1       7.096  -1.595  -1.240  1.00  0.00     0.157 HD
ATOM     24  H71 UNL     1       8.091  -0.532  -2.013  1.00  0.00     0.157 HD
ENDBRANCH  20  22
ENDBRANCH  14  15
ENDBRANCH  11  14
ENDBRANCH   9  11
ENDBRANCH   7   9
ENDBRANCH   4   7
BRANCH   5  25
HETATM   25  O7  UNL     1       0.310  -0.654  -1.836  1.00  0.00    -0.338 OA
ATOM     26  H7  UNL     1      -0.205  -0.848  -2.610  1.00  0.00     0.220 HD
ENDBRANCH   5  25
BRANCH   1  27
HETATM   27  C4  UNL     1      -2.815   0.628   1.740  1.00  0.00     0.254 C 
BRANCH  27  28
HETATM   28  C3  UNL     1      -4.054   0.208   1.094  1.00  0.00     0.146 A 
HETATM   29  C2  UNL     1      -4.646   0.732  -0.037  1.00  0.00     0.180 A 
HETATM   30  N1  UNL     1      -5.773   0.042  -0.275  1.00  0.00    -0.276 N 
HETATM   31  C1  UNL     1      -6.699   0.251  -1.351  1.00  0.00     0.164 C 
HETATM   32  C10 UNL     1      -5.857  -0.884   0.702  1.00  0.00     0.373 A 
HETATM   33  O9  UNL     1      -4.826  -0.770   1.507  1.00  0.00    -0.258 OA
HETATM   34  O10 UNL     1      -6.785  -1.738   0.832  1.00  0.00    -0.237 OA
BRANCH  29  35
HETATM   35  O1  UNL     1      -4.173   1.779  -0.800  1.00  0.00    -0.344 OA
ATOM     36  H1  UNL     1      -3.376   2.267  -0.632  1.00  0.00     0.219 HD
ENDBRANCH  29  35
ENDBRANCH  27  28
BRANCH  27  37
HETATM   37  O2  UNL     1      -2.719   0.021   2.988  1.00  0.00    -0.381 OA
ATOM     38  H2  UNL     1      -1.912   0.294   3.409  1.00  0.00     0.211 HD
ENDBRANCH  27  37
ENDBRANCH   1  27
TORSDOF 11
