REMARK  12 active torsions:
REMARK  status: ('A' for Active; 'I' for Inactive)
REMARK    1  A    between atoms: C1_4  and  O1_5 
REMARK    2  A    between atoms: C1_4  and  O2_7 
REMARK    3  A    between atoms: O2_7  and  C2_8 
REMARK    4  A    between atoms: C2_8  and  C3_10 
REMARK    5  A    between atoms: C4_11  and  C5_12 
REMARK    6  A    between atoms: C4_11  and  S1_37 
REMARK    7  A    between atoms: C9_23  and  N5_24 
REMARK    8  A    between atoms: N6_27  and  N7_28 
REMARK    9  A    between atoms: N7_28  and  O4_30 
REMARK   10  A    between atoms: N8_32  and  C10_33 
REMARK   11  A    between atoms: C10_33  and  C11_34 
REMARK   12  A    between atoms: C11_34  and  O5_35 
ROOT
HETATM    1  C5  UNL     1      -0.278  -0.020   0.644  1.00  0.00     0.134 A 
HETATM    2  N2  UNL     1      -1.240  -0.280   1.600  1.00  0.00    -0.323 N 
ATOM      3  H2  UNL     1      -1.060  -0.606   2.550  1.00  0.00     0.169 HD
HETATM    4  C6  UNL     1      -2.431  -0.038   1.085  1.00  0.00     0.180 A 
HETATM    5  C7  UNL     1      -2.251   0.382  -0.210  1.00  0.00     0.128 A 
HETATM    6  C8  UNL     1      -3.382   0.697  -0.936  1.00  0.00     0.145 A 
HETATM    7  N3  UNL     1      -3.326   1.107  -2.147  1.00  0.00    -0.383 N 
ATOM      8  H31 UNL     1      -4.162   1.340  -2.683  1.00  0.00     0.157 HD
ATOM      9  H32 UNL     1      -2.408   1.194  -2.583  1.00  0.00     0.157 HD
HETATM   10  N4  UNL     1      -4.614   0.580  -0.351  1.00  0.00    -0.173 N 
ATOM     11  H4  UNL     1      -5.451   0.812  -0.886  1.00  0.00     0.186 HD
HETATM   12  C9  UNL     1      -4.731   0.166   0.912  1.00  0.00     0.702 A 
HETATM   13  N6  UNL     1      -3.668  -0.152   1.663  1.00  0.00    -0.048 N 
HETATM   14  N8  UNL     1      -0.889   0.385  -0.467  1.00  0.00    -0.324 N 
ENDROOT
BRANCH   1  15
HETATM   15  C4  UNL     1       1.137  -0.193   0.987  1.00  0.00     0.130 C 
HETATM   16  C3  UNL     1       2.150   0.016   0.215  1.00  0.00     0.113 C 
BRANCH  16  17
HETATM   17  C2  UNL     1       3.553  -0.131   0.528  1.00  0.00     0.292 C 
HETATM   18  O3  UNL     1       3.990  -0.460   1.629  1.00  0.00    -0.260 OA
BRANCH  17  19
HETATM   19  O2  UNL     1       4.544   0.105  -0.456  1.00  0.00    -0.237 OA
BRANCH  19  20
HETATM   20  C1  UNL     1       5.875  -0.037  -0.153  1.00  0.00     0.263 C 
HETATM   21  N1  UNL     1       6.210  -0.386   1.034  1.00  0.00    -0.359 N 
ATOM     22  H12 UNL     1       7.199  -0.492   1.259  1.00  0.00     0.160 HD
ATOM     23  H11 UNL     1       5.466  -0.546   1.713  1.00  0.00     0.160 HD
BRANCH  20  24
HETATM   24  O1  UNL     1       6.892   0.182  -1.082  1.00  0.00    -0.327 OA
ATOM     25  H1  UNL     1       6.644   0.441  -1.962  1.00  0.00     0.221 HD
ENDBRANCH  20  24
ENDBRANCH  19  20
ENDBRANCH  17  19
ENDBRANCH  16  17
BRANCH  15  26
HETATM   26  S1  UNL     1       1.484  -0.772   2.632  1.00  0.00     0.141 S 
HETATM   27  O6  UNL     1       2.293  -2.004   2.667  1.00  0.00    -0.591 OA
HETATM   28  O7  UNL     1       0.098  -1.127   3.237  1.00  0.00    -0.591 OA
HETATM   29  O8  UNL     1       2.064   0.429   3.591  1.00  0.00    -0.591 OA
ENDBRANCH  15  26
ENDBRANCH   1  15
BRANCH  14  30
HETATM   30  C10 UNL     1      -0.407   0.767  -1.757  1.00  0.00     0.157 C 
BRANCH  30  31
HETATM   31  C11 UNL     1      -0.313  -0.297  -2.793  1.00  0.00     0.184 C 
BRANCH  31  32
HETATM   32  O5  UNL     1       0.486  -1.375  -2.522  1.00  0.00    -0.399 OA
ATOM     33  H5  UNL     1       0.546  -2.054  -3.183  1.00  0.00     0.209 HD
ENDBRANCH  31  32
ENDBRANCH  30  31
ENDBRANCH  14  30
BRANCH  13  34
HETATM   34  N7  UNL     1      -3.810  -0.584   2.985  1.00  0.00    -0.187 N 
ATOM     35  H7  UNL     1      -3.104  -0.387   3.694  1.00  0.00     0.217 HD
BRANCH  34  36
HETATM   36  O4  UNL     1      -4.853  -1.227   3.252  1.00  0.00    -0.273 OA
ATOM     37  H4  UNL     1      -4.949  -1.521   4.150  1.00  0.00     0.246 HD
ENDBRANCH  34  36
ENDBRANCH  13  34
BRANCH  12  38
HETATM   38  N5  UNL     1      -5.905   0.058   1.461  1.00  0.00    -0.233 N 
ATOM     39  H52 UNL     1      -6.714   0.300   0.889  1.00  0.00     0.174 HD
ATOM     40  H51 UNL     1      -5.994  -0.258   2.427  1.00  0.00     0.174 HD
ENDBRANCH  12  38
TORSDOF 12
