REMARK  13 active torsions:
REMARK  status: ('A' for Active; 'I' for Inactive)
REMARK    1  A    between atoms: O1_2  and  C2_3 
REMARK    2  A    between atoms: C2_3  and  O2_4 
REMARK    3  A    between atoms: C2_3  and  N1_6 
REMARK    4  A    between atoms: N1_6  and  C3_8 
REMARK    5  A    between atoms: C4_10  and  C5_11 
REMARK    6  A    between atoms: C6_12  and  C7_13 
REMARK    7  A    between atoms: C7_13  and  O5_15 
REMARK    8  A    between atoms: O5_15  and  C8_16 
REMARK    9  A    between atoms: C8_16  and  O6_17 
REMARK   10  A    between atoms: C8_16  and  C9_19 
REMARK   11  A    between atoms: C12_31  and  C13_32 
REMARK   12  A    between atoms: C13_32  and  O9_33 
REMARK   13  A    between atoms: C13_32  and  O10_35 
ROOT
HETATM    1  C5  UNL     1      -0.657   0.052  -1.735  1.00  0.00     0.136 A 
HETATM    2  C6  UNL     1      -1.796  -0.357  -1.091  1.00  0.00     0.155 A 
HETATM    3  N2  UNL     1      -2.800  -0.507  -2.014  1.00  0.00    -0.182 N 
ATOM      4  H2  UNL     1      -3.758  -0.802  -1.824  1.00  0.00     0.184 HD
HETATM    5  C10 UNL     1      -2.295  -0.199  -3.193  1.00  0.00     0.693 A 
HETATM    6  N3  UNL     1      -2.970  -0.230  -4.292  1.00  0.00    -0.233 N 
ATOM      7  H31 UNL     1      -2.579   0.008  -5.204  1.00  0.00     0.174 HD
ATOM      8  H32 UNL     1      -3.950  -0.485  -4.415  1.00  0.00     0.174 HD
HETATM    9  N4  UNL     1      -0.989   0.141  -3.029  1.00  0.00    -0.075 N 
HETATM   10  C11 UNL     1      -0.208   0.436  -4.152  1.00  0.00     0.204 C 
HETATM   11  N5  UNL     1       0.446   0.651  -5.092  1.00  0.00    -0.171 NA
ENDROOT
BRANCH   1  12
HETATM   12  C4  UNL     1       0.714   0.203  -1.132  1.00  0.00     0.127 A 
HETATM   13  O3  UNL     1       1.166  -0.730  -0.361  1.00  0.00    -0.284 OA
HETATM   14  C3  UNL     1       2.302  -0.676   0.187  1.00  0.00     0.192 A 
HETATM   15  S1  UNL     1       2.911   0.813  -0.363  1.00  0.00    -0.043 SA
HETATM   16  C12 UNL     1       1.539   1.278  -1.329  1.00  0.00     0.077 A 
BRANCH  14  17
HETATM   17  N1  UNL     1       2.894  -1.539   0.988  1.00  0.00    -0.316 N 
ATOM     18  H1  UNL     1       2.416  -2.403   1.244  1.00  0.00     0.167 HD
BRANCH  17  19
HETATM   19  C2  UNL     1       4.217  -1.269   1.506  1.00  0.00     0.369 C 
BRANCH  19  20
HETATM   20  O1  UNL     1       4.339   0.109   1.677  1.00  0.00    -0.349 OA
HETATM   21  C1  UNL     1       4.454   0.401   3.014  1.00  0.00     0.206 C 
ENDBRANCH  19  20
BRANCH  19  22
HETATM   22  O2  UNL     1       5.229  -1.758   0.707  1.00  0.00    -0.355 OA
ATOM     23  H2  UNL     1       5.146  -2.697   0.590  1.00  0.00     0.214 HD
ENDBRANCH  19  22
ENDBRANCH  17  19
ENDBRANCH  14  17
BRANCH  16  24
HETATM   24  C13 UNL     1       1.368   2.561  -2.078  1.00  0.00     0.298 C 
BRANCH  24  25
HETATM   25  O9  UNL     1       0.143   3.159  -1.866  1.00  0.00    -0.367 OA
ATOM     26  H9  UNL     1       0.034   3.974  -2.342  1.00  0.00     0.213 HD
ENDBRANCH  24  25
BRANCH  24  27
HETATM   27  O10 UNL     1       2.299   3.463  -1.454  1.00  0.00    -0.367 OA
ATOM     28  H10 UNL     1       2.190   4.278  -1.930  1.00  0.00     0.213 HD
ENDBRANCH  24  27
ENDBRANCH  16  24
ENDBRANCH   1  12
BRANCH   2  29
HETATM   29  C7  UNL     1      -1.975  -0.591   0.336  1.00  0.00     0.316 C 
HETATM   30  O4  UNL     1      -1.120  -0.459   1.218  1.00  0.00    -0.257 OA
BRANCH  29  31
HETATM   31  O5  UNL     1      -3.238  -1.013   0.814  1.00  0.00    -0.274 OA
BRANCH  31  32
HETATM   32  C8  UNL     1      -3.472  -1.256   2.189  1.00  0.00     0.369 C 
BRANCH  32  33
HETATM   33  O6  UNL     1      -3.876  -2.564   2.433  1.00  0.00    -0.362 OA
ATOM     34  H6  UNL     1      -4.033  -2.727   3.356  1.00  0.00     0.213 HD
ENDBRANCH  32  33
BRANCH  32  35
HETATM   35  C9  UNL     1      -4.526  -0.314   2.642  1.00  0.00     0.231 C 
HETATM   36  O7  UNL     1      -4.361   0.926   2.512  1.00  0.00    -0.644 OA
HETATM   37  O8  UNL     1      -5.689  -0.778   3.206  1.00  0.00    -0.644 OA
ENDBRANCH  32  35
ENDBRANCH  31  32
ENDBRANCH  29  31
ENDBRANCH   2  29
TORSDOF 13
