REMARK  12 active torsions:
REMARK  status: ('A' for Active; 'I' for Inactive)
REMARK    1  A    between atoms: C2_3  and  C3_4 
REMARK    2  A    between atoms: C3_4  and  N15_39 
REMARK    3  A    between atoms: N2_5  and  N3_7 
REMARK    4  A    between atoms: C4_9  and  S1_10 
REMARK    5  A    between atoms: C4_9  and  N7_22 
REMARK    6  A    between atoms: S1_10  and  C5_11 
REMARK    7  A    between atoms: C5_11  and  C6_12 
REMARK    8  A    between atoms: C6_12  and  N4_13 
REMARK    9  A    between atoms: N4_13  and  C7_15 
REMARK   10  A    between atoms: N11_28  and  C11_29 
REMARK   11  A    between atoms: C12_35  and  N14_36 
REMARK   12  A    between atoms: N15_39  and  N16_41 
ROOT
HETATM    1  N1  UNL     1      -1.506  -5.197   2.819  1.00  0.00    -0.197 NA
HETATM    2  C1  UNL     1      -0.869  -4.312   2.440  1.00  0.00     0.066 C 
HETATM    3  C2  UNL     1      -0.072  -3.173   1.979  1.00  0.00     0.203 C 
ENDROOT
BRANCH   3   4
HETATM    4  C3  UNL     1      -0.720  -2.486   0.827  1.00  0.00     0.123 C 
HETATM    5  N2  UNL     1      -1.061  -1.254   0.959  1.00  0.00    -0.285 N 
ATOM      6  H2  UNL     1      -0.854  -0.835   1.866  1.00  0.00     0.188 HD
BRANCH   5   7
HETATM    7  N3  UNL     1      -1.650  -0.445   0.071  1.00  0.00    -0.276 N 
HETATM    8  C4  UNL     1      -1.500   0.713  -0.373  1.00  0.00     0.196 C 
ATOM      9  H3  UNL     1      -2.448  -0.904  -0.368  1.00  0.00     0.189 HD
BRANCH   8  10
HETATM   10  S1  UNL     1      -0.217   1.792   0.162  1.00  0.00    -0.088 SA
BRANCH  10  11
HETATM   11  C5  UNL     1       1.142   1.067   1.028  1.00  0.00     0.102 C 
BRANCH  11  12
HETATM   12  C6  UNL     1       2.091   0.240   0.225  1.00  0.00     0.133 C 
BRANCH  12  13
HETATM   13  N4  UNL     1       3.120  -0.273   1.094  1.00  0.00    -0.362 N 
ATOM     14  H4  UNL     1       3.067  -0.041   2.086  1.00  0.00     0.162 HD
BRANCH  13  15
HETATM   15  C7  UNL     1       4.195  -1.075   0.659  1.00  0.00     0.171 A 
HETATM   16  N5  UNL     1       4.213  -2.361   0.709  1.00  0.00    -0.361 N 
HETATM   17  C8  UNL     1       5.470  -2.876   0.180  1.00  0.00     0.142 A 
ATOM     18  H5  UNL     1       3.454  -2.939   1.069  1.00  0.00     0.162 HD
HETATM   19  C9  UNL     1       6.296  -1.689  -0.237  1.00  0.00     0.142 A 
HETATM   20  N6  UNL     1       5.423  -0.583   0.098  1.00  0.00    -0.361 N 
ATOM     21  H6  UNL     1       5.647   0.402  -0.044  1.00  0.00     0.162 HD
ENDBRANCH  13  15
ENDBRANCH  12  13
ENDBRANCH  11  12
ENDBRANCH  10  11
ENDBRANCH   8  10
BRANCH   8  22
HETATM   22  N7  UNL     1      -2.501   1.157  -1.328  1.00  0.00    -0.144 N 
HETATM   23  N8  UNL     1      -3.157   0.388  -2.292  1.00  0.00     0.006 NA
HETATM   24  N9  UNL     1      -4.023   1.240  -2.960  1.00  0.00    -0.254 N 
HETATM   25  C10 UNL     1      -3.964   2.433  -2.510  1.00  0.00     0.230 A 
ATOM     26  H9  UNL     1      -4.635   0.948  -3.722  1.00  0.00     0.187 HD
HETATM   27  N10 UNL     1      -4.732   3.554  -2.984  1.00  0.00    -0.060 NA
HETATM   28  N11 UNL     1      -3.012   2.449  -1.467  1.00  0.00    -0.182 N 
BRANCH  28  29
HETATM   29  C11 UNL     1      -2.624   3.569  -0.688  1.00  0.00     0.199 A 
HETATM   30  N12 UNL     1      -1.672   4.471  -0.980  1.00  0.00    -0.220 N 
HETATM   31  O1  UNL     1      -1.653   5.315   0.012  1.00  0.00    -0.153 OA
ATOM     32  H12 UNL     1      -1.082   4.491  -1.812  1.00  0.00     0.198 HD
HETATM   33  N13 UNL     1      -2.528   5.012   0.916  1.00  0.00    -0.222 N 
HETATM   34  C12 UNL     1      -3.181   3.904   0.525  1.00  0.00     0.169 A 
ATOM     35  H13 UNL     1      -2.694   5.527   1.780  1.00  0.00     0.198 HD
BRANCH  34  36
HETATM   36  N14 UNL     1      -4.128   3.309   1.182  1.00  0.00    -0.381 N 
ATOM     37 2H14 UNL     1      -4.623   2.468   0.885  1.00  0.00     0.157 HD
ATOM     38 1H14 UNL     1      -4.541   3.557   2.081  1.00  0.00     0.157 HD
ENDBRANCH  34  36
ENDBRANCH  28  29
ENDBRANCH   8  22
ENDBRANCH   5   7
BRANCH   4  39
HETATM   39  N15 UNL     1      -0.941  -3.201  -0.372  1.00  0.00    -0.294 N 
ATOM     40  H15 UNL     1      -0.150  -3.492  -0.946  1.00  0.00     0.187 HD
BRANCH  39  41
HETATM   41  N16 UNL     1      -2.216  -3.503  -0.762  1.00  0.00    -0.344 N 
ATOM     42 2H16 UNL     1      -2.996  -3.205  -0.177  1.00  0.00     0.176 HD
ATOM     43 1H16 UNL     1      -2.375  -4.019  -1.627  1.00  0.00     0.176 HD
ENDBRANCH  39  41
ENDBRANCH   4  39
ENDBRANCH   3   4
TORSDOF 12
