REMARK  6 active torsions:
REMARK  status: ('A' for Active; 'I' for Inactive)
REMARK    1  A    between atoms: C2_7  and  C3_8 
REMARK    2  A    between atoms: C4_13  and  N5_14 
REMARK       I    between atoms: N5_14  and  C5_16 
REMARK       I    between atoms: C5_16  and  N6_17 
REMARK       I    between atoms: C5_16  and  N7_21 
REMARK    3  A    between atoms: C6_25  and  C7_26 
REMARK    4  A    between atoms: N9_30  and  C9_31 
REMARK    5  A    between atoms: C9_31  and  C10_32 
REMARK       I    between atoms: C10_32  and  N10_34 
REMARK    6  A    between atoms: C12_40  and  N13_41 
ROOT
HETATM    1  C7  UNL     1      -1.042  -0.112   0.680  1.00  0.00     0.084 A 
HETATM    2  C8  UNL     1      -0.763  -0.100   2.043  1.00  0.00     0.141 A 
HETATM    3  N8  UNL     1       0.445   0.479   2.122  1.00  0.00    -0.293 N 
ATOM      4  H8  UNL     1       0.949   0.644   2.993  1.00  0.00     0.187 HD
HETATM    5  N9  UNL     1       0.897   0.807   0.926  1.00  0.00    -0.225 N 
HETATM    6  N16 UNL     1      -0.012   0.446   0.041  1.00  0.00    -0.281 N 
ATOM      7  H16 UNL     1       0.061   0.573  -0.968  1.00  0.00     0.189 HD
ENDROOT
BRANCH   1   8
HETATM    8  C6  UNL     1      -2.278  -0.664   0.154  1.00  0.00     0.081 A 
HETATM    9  C1  UNL     1      -2.364  -1.995  -0.199  1.00  0.00     0.117 A 
HETATM   10  N1  UNL     1      -1.347  -2.772  -0.067  1.00  0.00    -0.385 N 
HETATM   11  N2  UNL     1      -3.560  -2.427  -0.684  1.00  0.00    -0.324 N 
ATOM     12  H12 UNL     1      -1.411  -3.756  -0.328  1.00  0.00     0.157 HD
ATOM     13  H11 UNL     1      -0.451  -2.448   0.296  1.00  0.00     0.157 HD
HETATM   14  C2  UNL     1      -4.619  -1.608  -0.819  1.00  0.00     0.174 A 
ATOM     15  H2  UNL     1      -3.657  -3.406  -0.955  1.00  0.00     0.169 HD
HETATM   16  N4  UNL     1      -4.514  -0.300  -0.466  1.00  0.00    -0.324 N 
HETATM   17  C4  UNL     1      -3.356   0.175   0.017  1.00  0.00     0.122 A 
ATOM     18  H4  UNL     1      -5.316   0.321  -0.568  1.00  0.00     0.169 HD
BRANCH  14  19
HETATM   19  C3  UNL     1      -5.880  -2.110  -1.342  1.00  0.00     0.298 C 
HETATM   20  N3  UNL     1      -5.993  -3.472  -1.711  1.00  0.00    -0.054 NA
HETATM   21  O1  UNL     1      -6.876  -1.360  -1.473  1.00  0.00    -0.268 OA
ENDBRANCH  14  19
BRANCH  17  22
HETATM   22  N5  UNL     1      -3.222   1.529   0.391  1.00  0.00    -0.326 N 
HETATM   23  C5  UNL     1      -4.351   2.428   0.253  1.00  0.00     0.481 C 
HETATM   24  N6  UNL     1      -4.001   3.764   0.691  1.00  0.00    -0.033 N 
HETATM   25  N7  UNL     1      -4.736   2.436  -1.134  1.00  0.00    -0.033 N 
ATOM     26  H63 UNL     1      -3.632   3.765   1.642  1.00  0.00     0.278 HD
ATOM     27  H62 UNL     1      -3.176   4.117   0.205  1.00  0.00     0.278 HD
ATOM     28  H61 UNL     1      -4.795   4.396   0.594  1.00  0.00     0.278 HD
ATOM     29  H73 UNL     1      -3.964   2.670  -1.759  1.00  0.00     0.278 HD
ATOM     30  H72 UNL     1      -4.926   1.502  -1.498  1.00  0.00     0.278 HD
ATOM     31  H71 UNL     1      -5.530   3.068  -1.231  1.00  0.00     0.278 HD
ATOM     32  H5  UNL     1      -2.335   1.874   0.757  1.00  0.00     0.164 HD
ENDBRANCH  17  22
ENDBRANCH   1   8
BRANCH   5  33
HETATM   33  C9  UNL     1       2.187   1.459   0.644  1.00  0.00     0.274 C 
BRANCH  33  34
HETATM   34  C10 UNL     1       3.248   0.426   0.431  1.00  0.00     0.267 C 
HETATM   35  O2  UNL     1       2.911  -0.775   0.517  1.00  0.00    -0.269 OA
HETATM   36  N10 UNL     1       4.587   0.772   0.142  1.00  0.00    -0.189 N 
HETATM   37  N11 UNL     1       4.988   2.050   0.042  1.00  0.00    -0.231 N 
HETATM   38  C14 UNL     1       5.613  -0.049  -0.066  1.00  0.00     0.165 A 
HETATM   39  N12 UNL     1       6.270   2.020  -0.230  1.00  0.00    -0.279 N 
ATOM     40  H11 UNL     1       4.408   2.881   0.156  1.00  0.00     0.209 HD
HETATM   41  C11 UNL     1       6.713   0.765  -0.309  1.00  0.00     0.139 A 
ATOM     42  H12 UNL     1       6.852   2.847  -0.364  1.00  0.00     0.189 HD
HETATM   43  C12 UNL     1       7.912   0.171  -0.557  1.00  0.00     0.132 A 
HETATM   44  N14 UNL     1       8.012  -1.175  -0.562  1.00  0.00    -0.337 N 
HETATM   45  C13 UNL     1       6.973  -1.981  -0.331  1.00  0.00     0.183 A 
ATOM     46  H14 UNL     1       8.922  -1.595  -0.751  1.00  0.00     0.168 HD
HETATM   47  N15 UNL     1       5.774  -1.387  -0.084  1.00  0.00    -0.335 N 
ATOM     48  H15 UNL     1       4.963  -1.979   0.095  1.00  0.00     0.168 HD
BRANCH  43  49
HETATM   49  N13 UNL     1       8.930   0.934  -0.782  1.00  0.00    -0.383 N 
ATOM     50 2H13 UNL     1       8.854   1.951  -0.778  1.00  0.00     0.157 HD
ATOM     51 1H13 UNL     1       9.829   0.489  -0.968  1.00  0.00     0.157 HD
ENDBRANCH  43  49
ENDBRANCH  33  34
ENDBRANCH   5  33
TORSDOF 6
