REMARK  11 active torsions:
REMARK  status: ('A' for Active; 'I' for Inactive)
REMARK    1  A    between atoms: C2_2  and  N1_3 
REMARK    2  A    between atoms: C2_2  and  C10_37 
REMARK    3  A    between atoms: N1_3  and  N2_5 
REMARK    4  A    between atoms: N2_5  and  C3_7 
REMARK    5  A    between atoms: C4_11  and  C5_12 
REMARK       I    between atoms: C5_12  and  N4_14 
REMARK    6  A    between atoms: N4_14  and  N5_16 
REMARK    7  A    between atoms: N5_16  and  N6_18 
REMARK    8  A    between atoms: N6_18  and  C6_20 
REMARK    9  A    between atoms: C8_25  and  N9_26 
REMARK   10  A    between atoms: N11_33  and  N12_34 
REMARK   11  A    between atoms: N14_41  and  N15_42 
ROOT
HETATM    1  C3  UNL     1       2.094   1.147   0.710  1.00  0.00     0.284 A 
HETATM    2  O1  UNL     1       1.617   1.580   1.852  1.00  0.00    -0.195 OA
HETATM    3  N3  UNL     1       0.328   1.431   1.847  1.00  0.00    -0.235 N 
ATOM      4  H3  UNL     1      -0.297   1.686   2.612  1.00  0.00     0.197 HD
HETATM    5  C4  UNL     1      -0.062   0.881   0.662  1.00  0.00     0.221 A 
HETATM    6  N11 UNL     1       1.069   0.709  -0.043  1.00  0.00    -0.199 N 
ENDROOT
BRANCH   5   7
HETATM    7  C5  UNL     1      -1.401   0.546   0.234  1.00  0.00     0.308 C 
HETATM    8  O2  UNL     1      -1.585   0.040  -0.901  1.00  0.00    -0.262 OA
HETATM    9  N4  UNL     1      -2.538   0.766   1.055  1.00  0.00    -0.249 N 
ATOM     10  H4  UNL     1      -2.396   1.176   1.978  1.00  0.00     0.192 HD
BRANCH   9  11
HETATM   11  N5  UNL     1      -3.832   0.453   0.667  1.00  0.00    -0.239 N 
ATOM     12  H5  UNL     1      -4.115  -0.519   0.544  1.00  0.00     0.208 HD
BRANCH  11  13
HETATM   13  N6  UNL     1      -4.669   1.405   0.465  1.00  0.00    -0.278 N 
ATOM     14  H6  UNL     1      -4.372   2.373   0.591  1.00  0.00     0.189 HD
BRANCH  13  15
HETATM   15  C6  UNL     1      -6.005   1.126   0.067  1.00  0.00     0.160 A 
HETATM   16  C7  UNL     1      -6.556  -0.115   0.308  1.00  0.00     0.165 A 
HETATM   17  N7  UNL     1      -5.797  -1.151   0.962  1.00  0.00    -0.079 NA
HETATM   18  N8  UNL     1      -7.826  -0.344  -0.084  1.00  0.00    -0.176 N 
HETATM   19  C8  UNL     1      -8.570   0.594  -0.698  1.00  0.00     0.680 A 
ATOM     20  H8  UNL     1      -8.237  -1.261   0.091  1.00  0.00     0.185 HD
HETATM   21  N10 UNL     1      -8.030   1.799  -0.929  1.00  0.00    -0.154 N 
HETATM   22  C9  UNL     1      -6.768   2.088  -0.562  1.00  0.00     0.291 A 
ATOM     23  H10 UNL     1      -8.589   2.514  -1.394  1.00  0.00     0.187 HD
HETATM   24  O3  UNL     1      -6.316   3.236  -0.806  1.00  0.00    -0.265 OA
BRANCH  19  25
HETATM   25  N9  UNL     1      -9.802   0.343  -1.067  1.00  0.00    -0.234 N 
ATOM     26  H92 UNL     1     -10.213  -0.574  -0.891  1.00  0.00     0.174 HD
ATOM     27  H91 UNL     1     -10.366   1.054  -1.532  1.00  0.00     0.174 HD
ENDBRANCH  19  25
ENDBRANCH  13  15
ENDBRANCH  11  13
ENDBRANCH   9  11
ENDBRANCH   5   7
BRANCH   6  28
HETATM   28  N12 UNL     1       1.105   0.160  -1.339  1.00  0.00    -0.333 N 
ATOM     29 2H12 UNL     1       1.963   0.029  -1.874  1.00  0.00     0.177 HD
ATOM     30 1H12 UNL     1       0.328  -0.172  -1.910  1.00  0.00     0.177 HD
ENDBRANCH   6  28
BRANCH   1  31
HETATM   31  N2  UNL     1       3.335   1.142   0.366  1.00  0.00    -0.262 N 
ATOM     32  H2  UNL     1       3.998   1.509   1.049  1.00  0.00     0.190 HD
BRANCH  31  33
HETATM   33  N1  UNL     1       3.847   0.708  -0.787  1.00  0.00    -0.300 N 
ATOM     34  H1  UNL     1       3.300   1.093  -1.557  1.00  0.00     0.186 HD
BRANCH  33  35
HETATM   35  C2  UNL     1       4.749   0.005  -1.252  1.00  0.00     0.052 C 
HETATM   36  C1  UNL     1       4.764  -0.064  -2.780  1.00  0.00     0.072 C 
BRANCH  35  37
HETATM   37  C10 UNL     1       5.790  -0.760  -0.558  1.00  0.00     0.100 A 
HETATM   38  N13 UNL     1       6.741  -1.508  -1.222  1.00  0.00    -0.346 N 
HETATM   39  C11 UNL     1       7.540  -2.081  -0.318  1.00  0.00     0.208 A 
ATOM     40  H13 UNL     1       6.820  -1.607  -2.234  1.00  0.00     0.167 HD
HETATM   41  N14 UNL     1       7.173  -1.755   0.920  1.00  0.00    -0.242 N 
HETATM   42  C12 UNL     1       6.085  -0.934   0.763  1.00  0.00     0.167 A 
HETATM   43  N16 UNL     1       5.386  -0.360   1.864  1.00  0.00    -0.078 NA
BRANCH  41  44
HETATM   44  N15 UNL     1       7.716  -2.121   2.147  1.00  0.00    -0.336 N 
ATOM     45 2H15 UNL     1       8.525  -2.731   2.264  1.00  0.00     0.177 HD
ATOM     46 1H15 UNL     1       7.435  -1.871   3.095  1.00  0.00     0.177 HD
ENDBRANCH  41  44
ENDBRANCH  35  37
ENDBRANCH  33  35
ENDBRANCH  31  33
ENDBRANCH   1  31
TORSDOF 11
