REMARK  3 active torsions:
REMARK  status: ('A' for Active; 'I' for Inactive)
REMARK    1  A    between atoms: S1_2  and  S2_3 
REMARK    2  A    between atoms: S2_3  and  C2_4 
REMARK    3  A    between atoms: C6_9  and  O2_10 
ROOT
HETATM    1  C2  UNL     1       0.133  -0.177   0.337  1.00  0.00     0.222 C 
HETATM    2  O1  UNL     1      -0.189   1.025   0.937  1.00  0.00    -0.372 OA
HETATM    3  C3  UNL     1      -1.239   1.583   0.216  1.00  0.00     0.169 C 
HETATM    4  C4  UNL     1      -2.499   0.816   0.418  1.00  0.00     0.029 C 
HETATM    5  C5  UNL     1      -2.314  -0.671   0.378  1.00  0.00     0.037 C 
HETATM    6  C6  UNL     1      -0.957  -1.070  -0.093  1.00  0.00     0.158 C 
ENDROOT
BRANCH   1   7
HETATM    7  S2  UNL     1       1.608  -1.004   0.952  1.00  0.00    -0.063 SA
BRANCH   7   8
HETATM    8  S1  UNL     1       3.145  -1.086  -0.502  1.00  0.00    -0.099 SA
HETATM    9  C1  UNL     1       4.238   0.355  -0.506  1.00  0.00     0.103 C 
ENDBRANCH   7   8
ENDBRANCH   1   7
BRANCH   6  10
HETATM   10  O2  UNL     1      -0.665  -2.381   0.291  1.00  0.00    -0.392 OA
ATOM     11  H2  UNL     1      -1.368  -2.957   0.014  1.00  0.00     0.210 HD
ENDBRANCH   6  10
TORSDOF 3
