REMARK  3 active torsions:
REMARK  status: ('A' for Active; 'I' for Inactive)
REMARK    1  A    between atoms: C4_4  and  N1_5 
REMARK    2  A    between atoms: N1_5  and  N2_7 
REMARK    3  A    between atoms: N2_7  and  C5_9 
ROOT
HETATM    1  N1  UNL     1       0.863  -0.803   0.999  1.00  0.00    -0.307 N 
ATOM      2  H1  UNL     1       1.018  -1.074   1.970  1.00  0.00     0.186 HD
ENDROOT
BRANCH   1   3
HETATM    3  C4  UNL     1      -0.335  -0.520   0.613  1.00  0.00     0.004 C 
HETATM    4  C3  UNL     1      -0.686  -0.112  -0.774  1.00  0.00     0.054 C 
HETATM    5  C2  UNL     1      -1.997   0.614  -0.550  1.00  0.00     0.006 C 
HETATM    6  C1  UNL     1      -2.692  -0.349   0.422  1.00  0.00     0.006 C 
HETATM    7  C6  UNL     1      -1.566  -0.542   1.444  1.00  0.00     0.054 C 
ENDBRANCH   1   3
BRANCH   1   8
HETATM    8  N2  UNL     1       1.951  -0.750   0.133  1.00  0.00    -0.277 N 
ATOM      9  H2  UNL     1       2.004  -1.384  -0.664  1.00  0.00     0.189 HD
BRANCH   8  10
HETATM   10  C5  UNL     1       2.927   0.137   0.353  1.00  0.00     0.209 A 
HETATM   11  N3  UNL     1       4.031   0.369  -0.313  1.00  0.00    -0.228 N 
HETATM   12  O1  UNL     1       4.558   1.300   0.341  1.00  0.00    -0.194 OA
ATOM     13  H3  UNL     1       4.376  -0.093  -1.154  1.00  0.00     0.198 HD
HETATM   14  S1  UNL     1       3.361   1.337   1.406  1.00  0.00     0.100 SA
ENDBRANCH   8  10
ENDBRANCH   1   8
TORSDOF 3
