REMARK  1 active torsions:
REMARK  status: ('A' for Active; 'I' for Inactive)
REMARK    1  A    between atoms: N3_9  and  C5_10 
ROOT
HETATM    1  C1  UNL     1      -1.377   2.359   0.880  1.00  0.00     0.091 C 
HETATM    2  C2  UNL     1      -1.988   1.117   0.352  1.00  0.00     0.095 A 
HETATM    3  N1  UNL     1      -3.324   0.938   0.277  1.00  0.00    -0.288 N 
ATOM      4  H1  UNL     1      -4.022   1.622   0.569  1.00  0.00     0.188 HD
HETATM    5  N2  UNL     1      -3.598  -0.252  -0.230  1.00  0.00    -0.288 N 
ATOM      6  H2  UNL     1      -4.522  -0.650  -0.399  1.00  0.00     0.188 HD
HETATM    7  C3  UNL     1      -2.412  -0.830  -0.477  1.00  0.00     0.095 A 
HETATM    8  C4  UNL     1      -2.197  -2.172  -1.049  1.00  0.00     0.091 C 
HETATM    9  N3  UNL     1      -1.418   0.021  -0.116  1.00  0.00    -0.320 N 
ENDROOT
BRANCH   9  10
HETATM   10  C5  UNL     1       0.001  -0.205  -0.213  1.00  0.00     0.092 C 
HETATM   11  C6  UNL     1       0.632  -0.579   1.128  1.00  0.00     0.026 C 
HETATM   12  C7  UNL     1       1.983  -1.201   0.782  1.00  0.00     0.002 C 
HETATM   13  C8  UNL     1       2.828  -0.306  -0.060  1.00  0.00     0.000 C 
HETATM   14  C9  UNL     1       2.147   1.023  -0.303  1.00  0.00     0.002 C 
HETATM   15  C10 UNL     1       0.777   0.815  -0.967  1.00  0.00     0.026 C 
ENDBRANCH   9  10
TORSDOF 1
