REMARK  3 active torsions:
REMARK  status: ('A' for Active; 'I' for Inactive)
REMARK    1  A    between atoms: C3_3  and  C4_4 
REMARK    2  A    between atoms: C4_4  and  O1_5 
REMARK    3  A    between atoms: C9_13  and  C10_14 
ROOT
HETATM    1  C1  UNL     1       1.042  -2.225  -0.340  1.00  0.00     0.049 C 
HETATM    2  C2  UNL     1       0.290  -0.948  -0.126  1.00  0.00    -0.051 A 
HETATM    3  C3  UNL     1       0.846   0.207   0.042  1.00  0.00     0.000 A 
HETATM    4  C7  UNL     1       0.010   1.458   0.255  1.00  0.00     0.068 A 
HETATM    5  C8  UNL     1      -1.425   1.344   0.268  1.00  0.00     0.115 A 
HETATM    6 CL1  UNL     1      -2.062   2.465  -0.997  1.00  0.00    -0.120 Cl
HETATM    7  C9  UNL     1      -1.979   0.005   0.073  1.00  0.00    -0.057 A 
HETATM    8  C13 UNL     1      -1.194  -1.033  -0.106  1.00  0.00     0.012 A 
ENDROOT
BRANCH   3   9
HETATM    9  C4  UNL     1       2.253   0.482   0.055  1.00  0.00     0.144 C 
HETATM   10  N1  UNL     1       3.510  -0.000  -0.050  1.00  0.00    -0.370 N 
HETATM   11  C5  UNL     1       4.138  -1.272  -0.284  1.00  0.00     0.151 C 
HETATM   12  C6  UNL     1       4.614   1.060   0.118  1.00  0.00     0.151 C 
BRANCH   9  13
HETATM   13  O1  UNL     1       2.337   1.850   0.273  1.00  0.00    -0.346 OA
ATOM     14  H1  UNL     1       3.269   2.032   0.282  1.00  0.00     0.219 HD
ENDBRANCH   9  13
ENDBRANCH   3   9
BRANCH   7  15
HETATM   15  C10 UNL     1      -3.442  -0.203   0.082  1.00  0.00     0.008 C 
HETATM   16  C11 UNL     1      -3.967   0.122   1.490  1.00  0.00     0.014 C 
HETATM   17  C12 UNL     1      -4.198   0.535  -0.965  1.00  0.00     0.014 C 
ENDBRANCH   7  15
TORSDOF 3
