REMARK  2 active torsions:
REMARK  status: ('A' for Active; 'I' for Inactive)
REMARK    1  A    between atoms: C2_2  and  C3_3 
REMARK    2  A    between atoms: C8_8  and  N1_9 
ROOT
HETATM    1  C3  UNL     1      -1.142  -0.995  -0.229  1.00  0.00     0.030 C 
HETATM    2  C4  UNL     1       0.231  -1.594  -0.443  1.00  0.00     0.016 C 
HETATM    3  C5  UNL     1       1.362  -0.838   0.097  1.00  0.00    -0.003 C 
HETATM    4  C6  UNL     1       1.199   0.622   0.339  1.00  0.00    -0.002 C 
HETATM    5  C7  UNL     1      -0.119   1.239   0.228  1.00  0.00     0.031 C 
HETATM    6  C8  UNL     1      -1.198   0.460  -0.477  1.00  0.00     0.086 C 
HETATM    7  C11 UNL     1       2.256   1.155  -0.615  1.00  0.00     0.014 C 
HETATM    8  C12 UNL     1       2.184   0.255  -1.831  1.00  0.00     0.014 C 
HETATM    9  C13 UNL     1       2.601  -0.807  -0.801  1.00  0.00     0.014 C 
HETATM   10  C14 UNL     1       3.464   0.304  -0.263  1.00  0.00     0.041 C 
HETATM   11  C15 UNL     1       3.887   0.272   1.137  1.00  0.00     0.033 C 
HETATM   12 CL1  UNL     1       4.806   0.665  -1.360  1.00  0.00    -0.119 Cl
ENDROOT
BRANCH   6  13
HETATM   13  N1  UNL     1      -2.469   1.024  -0.306  1.00  0.00    -0.416 N 
HETATM   14  C9  UNL     1      -3.148   1.101   0.901  1.00  0.00     0.143 C 
HETATM   15  C10 UNL     1      -3.367   0.971  -1.420  1.00  0.00     0.143 C 
ENDBRANCH   6  13
BRANCH   1  16
HETATM   16  C2  UNL     1      -1.675  -1.445   1.065  1.00  0.00    -0.030 C 
HETATM   17  C1  UNL     1      -2.674  -2.309   1.111  1.00  0.00     0.007 C 
ENDBRANCH   1  16
TORSDOF 2
