REMARK  4 active torsions:
REMARK  status: ('A' for Active; 'I' for Inactive)
REMARK    1  A    between atoms: C2_2  and  C3_4 
REMARK    2  A    between atoms: C10_11  and  N1_12 
REMARK    3  A    between atoms: N1_12  and  N2_13 
REMARK    4  A    between atoms: C11_16  and  C12_17 
ROOT
HETATM    1  C3  UNL     1       0.962   0.496  -0.537  1.00  0.00     0.068 C 
HETATM    2  C4  UNL     1      -0.452   0.687  -0.996  1.00  0.00     0.018 C 
HETATM    3  C5  UNL     1      -1.484   0.890   0.032  1.00  0.00    -0.009 C 
HETATM    4  C6  UNL     1      -2.786   1.351  -0.645  1.00  0.00     0.005 C 
HETATM    5  C7  UNL     1      -3.088  -0.143  -0.834  1.00  0.00     0.006 C 
HETATM    6  C8  UNL     1      -2.249  -0.393   0.374  1.00  0.00    -0.004 C 
HETATM    7  C9  UNL     1      -1.323  -1.586   0.322  1.00  0.00     0.076 C 
HETATM    8  C10 UNL     1      -0.085  -1.167   1.020  1.00  0.00     0.094 C 
HETATM    9  C11 UNL     1       1.149  -0.667   0.410  1.00  0.00     0.092 C 
ENDROOT
BRANCH   8  10
HETATM   10  N1  UNL     1      -0.140  -1.267   2.267  1.00  0.00    -0.341 NA
BRANCH  10  11
HETATM   11  N2  UNL     1      -0.108  -1.597   3.464  1.00  0.00    -0.280 N 
ATOM     12  H22 UNL     1       0.245  -2.518   3.204  1.00  0.00     0.191 HD
ATOM     13  H21 UNL     1      -0.153  -1.678   4.480  1.00  0.00     0.191 HD
ENDBRANCH  10  11
ENDBRANCH   8  10
BRANCH   9  14
HETATM   14  C12 UNL     1       1.869  -1.834  -0.239  1.00  0.00     0.177 C 
HETATM   15  C13 UNL     1       3.259  -1.400  -0.713  1.00  0.00     0.046 C 
HETATM   16  F1  UNL     1       1.192  -2.309  -1.342  1.00  0.00    -0.249 F 
ENDBRANCH   9  14
BRANCH   1  17
HETATM   17  C2  UNL     1       1.612   1.711  -0.057  1.00  0.00     0.128 C 
HETATM   18  C1  UNL     1       1.148   2.538   1.087  1.00  0.00     0.091 C 
HETATM   19  O1  UNL     1       2.618   2.110  -0.614  1.00  0.00    -0.298 OA
ENDBRANCH   1  17
TORSDOF 4
