REMARK  2 active torsions:
REMARK  status: ('A' for Active; 'I' for Inactive)
REMARK    1  A    between atoms: C2_2  and  C3_3 
REMARK    2  A    between atoms: C2_2  and  N2_13 
ROOT
HETATM    1  C3  UNL     1       0.945  -0.361   0.637  1.00  0.00     0.042 C 
HETATM    2  C4  UNL     1       0.432   1.037   0.669  1.00  0.00     0.035 C 
HETATM    3  C5  UNL     1      -0.999   1.018   1.133  1.00  0.00     0.058 C 
HETATM    4  C6  UNL     1      -1.723   2.317   0.835  1.00  0.00     0.034 C 
HETATM    5 CL1  UNL     1      -0.954   0.876   2.926  1.00  0.00    -0.118 Cl
HETATM    6  C7  UNL     1      -1.801  -0.115   0.595  1.00  0.00     0.261 C 
HETATM    7  N1  UNL     1      -1.190  -0.810  -0.506  1.00  0.00    -0.072 N 
HETATM    8  C8  UNL     1      -1.197  -0.034  -1.729  1.00  0.00     0.272 C 
HETATM    9  C9  UNL     1      -2.049  -1.978  -0.768  1.00  0.00     0.272 C 
HETATM   10  C10 UNL     1       0.096  -1.314  -0.148  1.00  0.00     0.243 C 
ENDROOT
BRANCH   1  11
HETATM   11  C2  UNL     1       2.378  -0.470   0.191  1.00  0.00     0.157 C 
HETATM   12  C1  UNL     1       2.619   0.062  -1.192  1.00  0.00     0.039 C 
BRANCH  11  13
HETATM   13  N2  UNL     1       3.281   0.213   1.090  1.00  0.00    -0.151 N 
HETATM   14  O1  UNL     1       4.088   1.076   0.724  1.00  0.00    -0.536 OA
HETATM   15  O2  UNL     1       3.237  -0.116   2.419  1.00  0.00    -0.536 OA
ENDBRANCH  11  13
ENDBRANCH   1  11
TORSDOF 2
