REMARK  7 active torsions:
REMARK  status: ('A' for Active; 'I' for Inactive)
REMARK    1  A    between atoms: C2_2  and  C3_3 
REMARK    2  A    between atoms: C3_3  and  O1_4 
REMARK    3  A    between atoms: C3_3  and  C4_6 
REMARK    4  A    between atoms: C3_3  and  C12_19 
REMARK    5  A    between atoms: C5_7  and  C6_8 
REMARK    6  A    between atoms: C6_8  and  N1_9 
REMARK    7  A    between atoms: N2_13  and  N3_14 
ROOT
HETATM    1  N1  UNL     1      -1.448   1.084  -0.199  1.00  0.00    -0.361 N 
HETATM    2  C7  UNL     1      -1.571   0.851   1.168  1.00  0.00     0.065 C 
HETATM    3  C8  UNL     1      -2.341  -0.425   1.419  1.00  0.00     0.066 C 
HETATM    4  C9  UNL     1      -3.727  -0.413   0.873  1.00  0.00     0.147 C 
HETATM    5  N2  UNL     1      -3.889   0.058  -0.452  1.00  0.00    -0.332 N 
HETATM    6  C10 UNL     1      -3.828   1.462  -0.651  1.00  0.00     0.162 C 
HETATM    7  C11 UNL     1      -2.412   1.988  -0.779  1.00  0.00     0.149 C 
ENDROOT
BRANCH   1   8
HETATM    8  C6  UNL     1      -0.923   0.110  -1.059  1.00  0.00     0.155 C 
BRANCH   8   9
HETATM    9  C5  UNL     1       0.516  -0.127  -0.808  1.00  0.00    -0.058 C 
HETATM   10  C4  UNL     1       1.687  -0.329  -0.583  1.00  0.00    -0.062 C 
BRANCH  10  11
HETATM   11  C3  UNL     1       3.110  -0.565  -0.284  1.00  0.00     0.120 C 
BRANCH  11  12
HETATM   12  C2  UNL     1       3.363  -2.043  -0.196  1.00  0.00     0.047 C 
HETATM   13  C1  UNL     1       4.765  -2.394   0.137  1.00  0.00     0.009 C 
ENDBRANCH  11  12
BRANCH  11  14
HETATM   14  O1  UNL     1       3.920  -0.042  -1.267  1.00  0.00    -0.378 OA
ATOM     15  H1  UNL     1       3.760   0.893  -1.323  1.00  0.00     0.211 HD
ENDBRANCH  11  14
BRANCH  11  16
HETATM   16  C12 UNL     1       3.388   0.140   1.024  1.00  0.00     0.047 C 
HETATM   17  C13 UNL     1       3.129   1.627   0.916  1.00  0.00     0.009 C 
ENDBRANCH  11  16
ENDBRANCH  10  11
ENDBRANCH   8   9
ENDBRANCH   1   8
BRANCH   5  18
HETATM   18  N3  UNL     1      -4.653  -0.669  -1.308  1.00  0.00    -0.347 N 
ATOM     19  H32 UNL     1      -4.697  -1.678  -1.165  1.00  0.00     0.176 HD
ATOM     20  H31 UNL     1      -4.770  -0.330  -2.263  1.00  0.00     0.176 HD
ENDBRANCH   5  18
TORSDOF 7
