REMARK  5 active torsions:
REMARK  status: ('A' for Active; 'I' for Inactive)
REMARK    1  A    between atoms: N2_4  and  C3_5 
REMARK    2  A    between atoms: C3_5  and  C4_6 
REMARK    3  A    between atoms: C6_8  and  O1_9 
REMARK    4  A    between atoms: C7_11  and  C8_12 
REMARK    5  A    between atoms: C8_12  and  O2_13 
ROOT
HETATM    1  C4  UNL     1       1.538  -0.275   0.227  1.00  0.00     0.153 C 
HETATM    2  C5  UNL     1       2.412  -1.366   0.792  1.00  0.00     0.068 C 
HETATM    3  C6  UNL     1       3.728  -1.190   0.097  1.00  0.00     0.151 C 
HETATM    4  C7  UNL     1       3.491   0.083  -0.688  1.00  0.00     0.174 C 
HETATM    5  O3  UNL     1       2.137   0.089  -0.952  1.00  0.00    -0.374 OA
ENDROOT
BRANCH   1   6
HETATM    6  C3  UNL     1       0.150  -0.858   0.008  1.00  0.00     0.306 C 
BRANCH   6   7
HETATM    7  N2  UNL     1      -0.767   0.025  -0.626  1.00  0.00     0.121 N 
HETATM    8  C2  UNL     1      -1.186   1.147   0.145  1.00  0.00     0.543 C 
HETATM    9  N1  UNL     1      -2.632   1.222   0.050  1.00  0.00     0.123 N 
HETATM   10  C1  UNL     1      -3.096   2.221  -0.854  1.00  0.00     0.313 C 
HETATM   11  C10 UNL     1      -3.038  -0.109  -0.242  1.00  0.00     0.180 C 
HETATM   12  C9  UNL     1      -1.934  -0.658  -1.127  1.00  0.00     0.315 C 
HETATM   13  C11 UNL     1      -3.141  -0.866   1.066  1.00  0.00     0.051 C 
HETATM   14  C12 UNL     1      -4.330  -0.263  -0.980  1.00  0.00     0.051 C 
ENDBRANCH   6   7
ENDBRANCH   1   6
BRANCH   3  15
HETATM   15  O1  UNL     1       4.772  -0.996   0.967  1.00  0.00    -0.393 OA
ATOM     16  H1  UNL     1       5.606  -0.884   0.526  1.00  0.00     0.210 HD
ENDBRANCH   3  15
BRANCH   4  17
HETATM   17  C8  UNL     1       3.881   1.281   0.150  1.00  0.00     0.198 C 
BRANCH  17  18
HETATM   18  O2  UNL     1       5.270   1.263   0.413  1.00  0.00    -0.398 OA
ATOM     19  H2  UNL     1       5.515   2.015   0.939  1.00  0.00     0.209 HD
ENDBRANCH  17  18
ENDBRANCH   4  17
TORSDOF 5
