REMARK  3 active torsions:
REMARK  status: ('A' for Active; 'I' for Inactive)
REMARK    1  A    between atoms: C3_3  and  C4_4 
REMARK    2  A    between atoms: C9_12  and  C10_13 
REMARK    3  A    between atoms: C10_13  and  O4_15 
ROOT
HETATM    1  C1  UNL     1       2.360   0.419  -1.841  1.00  0.00     0.015 C 
HETATM    2  C2  UNL     1       1.793   0.275  -0.653  1.00  0.00    -0.068 C 
HETATM    3  C3  UNL     1       2.150   0.813   0.691  1.00  0.00     0.130 C 
HETATM    4  C5  UNL     1       0.890   0.237   1.265  1.00  0.00     0.075 C 
HETATM    5  S1  UNL     1      -0.443   1.481   1.412  1.00  0.00    -0.152 SA
HETATM    6  C6  UNL     1      -1.136   1.225  -0.271  1.00  0.00     0.014 C 
HETATM    7  C7  UNL     1      -0.494   2.245  -1.196  1.00  0.00     0.027 C 
HETATM    8  C8  UNL     1      -2.612   1.481  -0.230  1.00  0.00     0.027 C 
HETATM    9  C9  UNL     1      -0.725  -0.158  -0.540  1.00  0.00     0.112 C 
HETATM   10  C12 UNL     1       0.662  -0.404  -0.064  1.00  0.00     0.045 C 
ENDROOT
BRANCH   9  11
HETATM   11  C10 UNL     1      -1.594  -1.132   0.143  1.00  0.00     0.264 C 
HETATM   12  O3  UNL     1      -2.445  -0.748   0.954  1.00  0.00    -0.265 OA
BRANCH  11  13
HETATM   13  O4  UNL     1      -1.453  -2.481  -0.126  1.00  0.00    -0.326 OA
HETATM   14  C11 UNL     1      -2.241  -3.489   0.482  1.00  0.00     0.213 C 
ENDBRANCH  11  13
ENDBRANCH   9  11
BRANCH   3  15
HETATM   15  C4  UNL     1       3.407   0.258   1.254  1.00  0.00     0.182 C 
HETATM   16  O1  UNL     1       4.404   0.991   1.548  1.00  0.00    -0.647 OA
HETATM   17  O2  UNL     1       3.545  -1.095   1.483  1.00  0.00    -0.647 OA
ENDBRANCH   3  15
TORSDOF 3
