REMARK  4 active torsions:
REMARK  status: ('A' for Active; 'I' for Inactive)
REMARK    1  A    between atoms: C2_2  and  N1_3 
REMARK    2  A    between atoms: C8_12  and  N3_13 
REMARK       I    between atoms: N3_13  and  C10_15 
REMARK    3  A    between atoms: C10_15  and  O2_17 
REMARK    4  A    between atoms: O2_17  and  C11_18 
ROOT
HETATM    1  N1  UNL     1      -1.758   0.401   1.137  1.00  0.00     0.112 N 
HETATM    2  C3  UNL     1      -3.019  -0.282   1.105  1.00  0.00     0.281 C 
HETATM    3  C4  UNL     1      -2.821  -1.548   0.318  1.00  0.00     0.049 C 
HETATM    4  C5  UNL     1      -4.065  -1.826  -0.465  1.00  0.00     0.239 C 
HETATM    5  N2  UNL     1      -3.679  -1.727  -1.857  1.00  0.00    -0.074 N 
ATOM      6  H21 UNL     1      -4.438  -1.421  -2.466  1.00  0.00     0.277 HD
ATOM      7  H22 UNL     1      -3.520  -2.633  -2.298  1.00  0.00     0.277 HD
HETATM    8  C6  UNL     1      -2.522  -0.857  -1.901  1.00  0.00     0.241 C 
HETATM    9  C7  UNL     1      -1.742  -1.143  -0.663  1.00  0.00     0.072 C 
HETATM   10  C8  UNL     1      -1.037   0.021  -0.060  1.00  0.00     0.334 C 
ENDROOT
BRANCH  10  11
HETATM   11  N3  UNL     1       0.269  -0.416   0.396  1.00  0.00    -0.301 N 
HETATM   12  C9  UNL     1       0.301  -1.545   1.303  1.00  0.00     0.157 C 
HETATM   13  C10 UNL     1       1.467   0.234  -0.032  1.00  0.00     0.364 C 
HETATM   14  O1  UNL     1       1.438   1.208  -0.821  1.00  0.00    -0.238 OA
BRANCH  13  15
HETATM   15  O2  UNL     1       2.703  -0.197   0.418  1.00  0.00    -0.294 OA
BRANCH  15  16
HETATM   16  C11 UNL     1       3.936   0.359   0.078  1.00  0.00     0.061 C 
HETATM   17  C12 UNL     1       5.008  -0.451   0.814  1.00  0.00     0.046 C 
HETATM   18  C13 UNL     1       4.063   1.805   0.525  1.00  0.00     0.046 C 
HETATM   19  C14 UNL     1       4.243   0.298  -1.395  1.00  0.00     0.046 C 
ENDBRANCH  15  16
ENDBRANCH  13  15
ENDBRANCH  10  11
BRANCH   1  20
HETATM   20  C2  UNL     1      -1.884   1.825   1.290  1.00  0.00     0.270 C 
HETATM   21  C1  UNL     1      -2.479   2.522   0.108  1.00  0.00     0.037 C 
ENDBRANCH   1  20
TORSDOF 4
