REMARK  1 active torsions:
REMARK  status: ('A' for Active; 'I' for Inactive)
REMARK    1  A    between atoms: C18_23  and  O5_24 
ROOT
HETATM    1  C1  UNL     1      -2.171   4.034  -0.483  1.00  0.00     0.017 C 
HETATM    2  C2  UNL     1      -2.035   2.880   0.518  1.00  0.00     0.071 C 
HETATM    3  C3  UNL     1      -0.513   2.830   0.831  1.00  0.00     0.306 C 
HETATM    4  O1  UNL     1      -0.264   2.186   2.015  1.00  0.00    -0.204 OA
HETATM    5  O2  UNL     1       0.643   1.299   1.901  1.00  0.00    -0.197 OA
HETATM    6  C4  UNL     1       1.058   1.237   0.545  1.00  0.00     0.212 C 
HETATM    7  C5  UNL     1       2.321   2.073   0.573  1.00  0.00     0.075 C 
HETATM    8  C6  UNL     1       3.287   1.831  -0.514  1.00  0.00     0.042 C 
HETATM    9  C7  UNL     1       3.700   0.354  -0.405  1.00  0.00     0.171 C 
HETATM   10  F1  UNL     1       4.741   0.091  -1.267  1.00  0.00    -0.249 F 
HETATM   11  C8  UNL     1       2.424  -0.367  -0.865  1.00  0.00     0.057 C 
HETATM   12  C9  UNL     1       1.372  -0.129   0.210  1.00  0.00     0.077 C 
HETATM   13  C10 UNL     1       1.976  -0.756   1.484  1.00  0.00     0.027 C 
HETATM   14  C11 UNL     1       0.238  -1.090  -0.178  1.00  0.00     0.203 C 
HETATM   15  O3  UNL     1       0.927  -2.285  -0.333  1.00  0.00    -0.352 OA
HETATM   16  C12 UNL     1       0.727  -3.346   0.409  1.00  0.00     0.171 C 
HETATM   17  C13 UNL     1      -0.624  -3.716   0.895  1.00  0.00     0.029 C 
HETATM   18  C14 UNL     1      -1.760  -3.128   0.052  1.00  0.00     0.034 C 
HETATM   19  C15 UNL     1      -1.882  -1.735   0.509  1.00  0.00     0.132 C 
HETATM   20  O4  UNL     1      -0.667  -1.174   0.827  1.00  0.00    -0.346 OA
HETATM   21  C16 UNL     1      -2.626  -0.822  -0.462  1.00  0.00     0.049 C 
HETATM   22  C17 UNL     1      -1.802  -0.726  -1.668  1.00  0.00     0.047 C 
HETATM   23  C18 UNL     1      -0.324  -0.796  -1.539  1.00  0.00     0.182 C 
HETATM   24  C19 UNL     1      -3.034   0.484   0.231  1.00  0.00     0.158 A 
HETATM   25  O6  UNL     1      -2.042   0.744   1.117  1.00  0.00    -0.374 OA
HETATM   26  C20 UNL     1      -2.334   1.573  -0.112  1.00  0.00     0.160 A 
HETATM   27  O7  UNL     1       0.113   1.946  -0.084  1.00  0.00    -0.318 OA
ENDROOT
BRANCH  23  28
HETATM   28  O5  UNL     1       0.220  -1.640  -2.549  1.00  0.00    -0.390 OA
ATOM     29  H5  UNL     1      -0.136  -1.454  -3.410  1.00  0.00     0.210 HD
ENDBRANCH  23  28
TORSDOF 1
