REMARK  2 active torsions:
REMARK  status: ('A' for Active; 'I' for Inactive)
REMARK    1  A    between atoms: C2_5  and  N2_6 
REMARK    2  A    between atoms: N2_6  and  C3_8 
ROOT
HETATM    1  C3  UNL     1      -1.619  -0.555  -1.069  1.00  0.00     0.083 C 
HETATM    2  C4  UNL     1      -1.059   0.814  -0.888  1.00  0.00     0.030 C 
HETATM    3  C5  UNL     1       0.035   0.871   0.164  1.00  0.00     0.073 C 
HETATM    4  C6  UNL     1       0.994  -0.275  -0.185  1.00  0.00     0.200 C 
HETATM    5  C7  UNL     1       0.300  -1.538   0.222  1.00  0.00     0.073 C 
HETATM    6  C8  UNL     1      -1.159  -1.560  -0.059  1.00  0.00     0.030 C 
HETATM    7  O1  UNL     1       1.215  -0.334  -1.558  1.00  0.00    -0.197 OA
HETATM    8  O2  UNL     1       2.370  -0.962  -1.618  1.00  0.00    -0.197 OA
HETATM    9  C9  UNL     1       3.108  -0.330  -0.625  1.00  0.00     0.204 C 
HETATM   10  C10 UNL     1       3.584   1.035  -1.083  1.00  0.00     0.072 C 
HETATM   11  C11 UNL     1       4.540   1.546  -0.026  1.00  0.00     0.010 C 
HETATM   12  C12 UNL     1       5.475   0.464   0.409  1.00  0.00    -0.013 C 
HETATM   13  C13 UNL     1       4.657  -0.532   1.242  1.00  0.00     0.014 C 
HETATM   14  C14 UNL     1       4.241  -1.150  -0.101  1.00  0.00     0.052 C 
HETATM   15  C15 UNL     1       5.587  -0.649  -0.638  1.00  0.00     0.014 C 
HETATM   16  O3  UNL     1       2.204  -0.126   0.438  1.00  0.00    -0.313 OA
ENDROOT
BRANCH   1  17
HETATM   17  N2  UNL     1      -3.048  -0.506  -1.075  1.00  0.00    -0.369 N 
ATOM     18  H2  UNL     1      -3.509  -0.864  -1.911  1.00  0.00     0.161 HD
BRANCH  17  19
HETATM   19  C2  UNL     1      -3.807  -0.068  -0.158  1.00  0.00     0.142 A 
HETATM   20  N1  UNL     1      -3.391   0.443   1.018  1.00  0.00    -0.317 N 
HETATM   21  C1  UNL     1      -4.219   0.898   1.967  1.00  0.00     0.182 A 
ATOM     22  H1  UNL     1      -2.387   0.486   1.195  1.00  0.00     0.170 HD
HETATM   23 CL1  UNL     1      -3.615   1.557   3.486  1.00  0.00    -0.045 Cl
HETATM   24  N3  UNL     1      -5.542   0.838   1.728  1.00  0.00    -0.311 N 
HETATM   25  C17 UNL     1      -6.067   0.352   0.599  1.00  0.00     0.184 A 
ATOM     26  H3  UNL     1      -6.178   1.182   2.447  1.00  0.00     0.170 HD
HETATM   27  C16 UNL     1      -5.172  -0.110  -0.359  1.00  0.00     0.166 A 
HETATM   28  O4  UNL     1      -7.333   0.161   0.072  1.00  0.00    -0.307 OA
HETATM   29  O5  UNL     1      -5.918  -0.565  -1.436  1.00  0.00    -0.318 OA
HETATM   30  C18 UNL     1      -7.227   0.010  -1.347  1.00  0.00     0.354 C 
ENDBRANCH  17  19
ENDBRANCH   1  17
TORSDOF 2
