REMARK  4 active torsions:
REMARK  status: ('A' for Active; 'I' for Inactive)
REMARK    1  A    between atoms: O1_2  and  C2_3 
REMARK    2  A    between atoms: C14_17  and  O4_18 
REMARK    3  A    between atoms: N1_25  and  C19_26 
REMARK    4  A    between atoms: C19_26  and  C20_27 
ROOT
HETATM    1  C2  UNL     1       2.218   1.643   0.054  1.00  0.00     0.282 C 
HETATM    2  O2  UNL     1       2.648   1.676  -1.294  1.00  0.00    -0.358 OA
HETATM    3  C3  UNL     1       1.625   1.853  -2.172  1.00  0.00     0.181 C 
HETATM    4  C4  UNL     1       0.594   0.724  -2.188  1.00  0.00     0.049 C 
HETATM    5  C5  UNL     1      -0.624   1.207  -1.540  1.00  0.00     0.019 C 
HETATM    6  C6  UNL     1      -1.251   0.493  -0.411  1.00  0.00     0.021 C 
HETATM    7  C7  UNL     1      -2.628   1.175  -0.240  1.00  0.00     0.013 C 
HETATM    8  C8  UNL     1      -3.609   0.394  -1.038  1.00  0.00    -0.005 A 
HETATM    9  C9  UNL     1      -4.978   0.094  -0.668  1.00  0.00     0.015 A 
HETATM   10  C10 UNL     1      -3.802  -0.927  -0.505  1.00  0.00     0.031 A 
HETATM   11  C11 UNL     1      -3.559  -1.250   0.879  1.00  0.00     0.040 A 
HETATM   12  C12 UNL     1      -2.587  -0.981   1.810  1.00  0.00     0.103 A 
HETATM   13  C13 UNL     1      -2.988  -1.616   2.956  1.00  0.00     0.182 A 
HETATM   14  O3  UNL     1      -4.151  -2.237   2.718  1.00  0.00    -0.297 OA
HETATM   15  C14 UNL     1      -4.538  -2.051   1.489  1.00  0.00     0.192 A 
HETATM   16  O5  UNL     1      -1.444  -0.281   1.788  1.00  0.00    -0.338 OA
HETATM   17  C15 UNL     1      -0.619   0.525   0.903  1.00  0.00     0.070 C 
HETATM   18  C16 UNL     1      -0.741   1.913   1.543  1.00  0.00     0.047 C 
HETATM   19  C17 UNL     1       0.698  -0.107   1.109  1.00  0.00     0.069 C 
HETATM   20  C18 UNL     1       1.902   0.241   0.394  1.00  0.00     0.146 C 
HETATM   21  N1  UNL     1       2.081  -0.619  -0.740  1.00  0.00    -0.364 N 
HETATM   22  C23 UNL     1       1.146  -0.584  -1.764  1.00  0.00     0.070 C 
ENDROOT
BRANCH  21  23
HETATM   23  C19 UNL     1       3.375  -1.105  -0.967  1.00  0.00     0.068 C 
BRANCH  23  24
HETATM   24  C20 UNL     1       3.895  -2.094   0.050  1.00  0.00     0.024 A 
HETATM   25  C21 UNL     1       3.206  -3.371   0.292  1.00  0.00     0.010 A 
HETATM   26  C22 UNL     1       4.508  -3.392  -0.449  1.00  0.00     0.010 A 
ENDBRANCH  23  24
ENDBRANCH  21  23
BRANCH   1  27
HETATM   27  O1  UNL     1       3.330   2.172   0.761  1.00  0.00    -0.364 OA
HETATM   28  C1  UNL     1       3.064   3.426   1.279  1.00  0.00     0.204 C 
ENDBRANCH   1  27
BRANCH  15  29
HETATM   29  O4  UNL     1      -5.701  -2.567   0.944  1.00  0.00    -0.340 OA
ATOM     30  H4  UNL     1      -6.363  -3.109   1.357  1.00  0.00     0.220 HD
ENDBRANCH  15  29
TORSDOF 4
