REMARK  6 active torsions:
REMARK  status: ('A' for Active; 'I' for Inactive)
REMARK    1  A    between atoms: C2_2  and  C3_3 
REMARK    2  A    between atoms: C11_12  and  O2_13 
REMARK    3  A    between atoms: O2_13  and  C12_14 
REMARK    4  A    between atoms: C15_19  and  C16_20 
REMARK    5  A    between atoms: C19_24  and  O5_25 
REMARK    6  A    between atoms: O5_25  and  C20_26 
ROOT
HETATM    1  C3  UNL     1      -2.645  -1.965   1.056  1.00  0.00    -0.026 C 
HETATM    2  C4  UNL     1      -3.047  -2.736  -0.193  1.00  0.00     0.019 C 
HETATM    3  C5  UNL     1      -1.167  -2.201   1.263  1.00  0.00     0.018 C 
HETATM    4  C6  UNL     1      -0.454  -0.937   0.953  1.00  0.00    -0.003 C 
HETATM    5  C7  UNL     1       0.775  -1.123   0.100  1.00  0.00     0.028 C 
HETATM    6  C8  UNL     1       1.346   0.200  -0.324  1.00  0.00     0.081 C 
HETATM    7  C9  UNL     1       0.426   1.337  -0.083  1.00  0.00     0.171 C 
HETATM    8  O1  UNL     1       0.924   2.497   0.035  1.00  0.00    -0.292 OA
HETATM    9  C10 UNL     1      -1.017   1.183   0.024  1.00  0.00     0.016 C 
HETATM   10  C11 UNL     1      -1.869   2.183   0.091  1.00  0.00     0.158 C 
HETATM   11  C13 UNL     1      -1.477  -0.224   0.054  1.00  0.00     0.029 C 
HETATM   12  C14 UNL     1      -2.737  -0.455   0.796  1.00  0.00     0.023 C 
HETATM   13  C15 UNL     1       1.780   0.085  -1.759  1.00  0.00     0.030 C 
HETATM   14  C18 UNL     1       3.279  -0.025  -1.628  1.00  0.00     0.177 C 
HETATM   15  O4  UNL     1       3.553   0.882  -0.612  1.00  0.00    -0.359 OA
HETATM   16  C19 UNL     1       2.648   0.517   0.377  1.00  0.00     0.286 C 
ENDROOT
BRANCH  13  17
HETATM   17  C16 UNL     1       1.369   1.278  -2.585  1.00  0.00     0.004 C 
HETATM   18  C17 UNL     1       1.856   1.052  -4.001  1.00  0.00     0.005 C 
ENDBRANCH  13  17
BRANCH  16  19
HETATM   19  O5  UNL     1       3.147  -0.553   1.124  1.00  0.00    -0.289 OA
BRANCH  19  20
HETATM   20  C20 UNL     1       3.440  -0.412   2.480  1.00  0.00     0.257 C 
HETATM   21  C21 UNL     1       3.973  -1.531   3.306  1.00  0.00     0.126 C 
HETATM   22  O6  UNL     1       3.222   0.743   2.980  1.00  0.00    -0.266 OA
ENDBRANCH  19  20
ENDBRANCH  16  19
BRANCH  10  23
HETATM   23  O2  UNL     1      -1.482   3.511   0.066  1.00  0.00    -0.275 OA
BRANCH  23  24
HETATM   24  C12 UNL     1      -1.360   4.240  -1.128  1.00  0.00     0.377 C 
HETATM   25  N1  UNL     1      -0.961   5.607  -1.142  1.00  0.00    -0.032 NA
HETATM   26  O3  UNL     1      -1.630   3.596  -2.186  1.00  0.00    -0.242 OA
ENDBRANCH  23  24
ENDBRANCH  10  23
BRANCH   1  27
HETATM   27  C2  UNL     1      -3.468  -2.388   2.189  1.00  0.00    -0.028 C 
HETATM   28  C1  UNL     1      -4.766  -2.584   2.011  1.00  0.00     0.007 C 
ENDBRANCH   1  27
TORSDOF 6
