REMARK  6 active torsions:
REMARK  status: ('A' for Active; 'I' for Inactive)
REMARK    1  A    between atoms: C5_5  and  C6_6 
REMARK    2  A    between atoms: N1_7  and  C7_9 
REMARK    3  A    between atoms: C7_9  and  C8_10 
REMARK    4  A    between atoms: C18_20  and  C19_21 
REMARK    5  A    between atoms: C19_21  and  O1_22 
REMARK    6  A    between atoms: C27_31  and  O2_32 
ROOT
HETATM    1  C8  UNL     1       0.804  -0.048   0.276  1.00  0.00    -0.021 C 
HETATM    2  C9  UNL     1       1.227  -1.512   0.585  1.00  0.00     0.018 C 
HETATM    3  C10 UNL     1       1.372   0.755   1.390  1.00  0.00     0.011 C 
HETATM    4  C11 UNL     1       0.573   1.859   1.958  1.00  0.00     0.002 C 
HETATM    5  C12 UNL     1      -0.916   1.733   1.895  1.00  0.00     0.010 C 
HETATM    6  C13 UNL     1      -1.300   1.328   0.521  1.00  0.00    -0.032 C 
HETATM    7  C14 UNL     1      -0.823   2.377  -0.425  1.00  0.00     0.016 C 
HETATM    8  C15 UNL     1      -2.724   1.120   0.216  1.00  0.00    -0.001 C 
HETATM    9  C16 UNL     1      -3.737   2.107  -0.092  1.00  0.00     0.007 C 
HETATM   10  C17 UNL     1      -4.846   1.246  -0.730  1.00  0.00     0.012 C 
HETATM   11  C18 UNL     1      -4.893  -0.181  -0.351  1.00  0.00    -0.012 C 
HETATM   12  C20 UNL     1      -5.705  -0.111   0.980  1.00  0.00     0.012 C 
HETATM   13  C21 UNL     1      -4.592   0.489   1.834  1.00  0.00     0.006 C 
HETATM   14  C22 UNL     1      -3.278   0.152   1.171  1.00  0.00    -0.001 C 
HETATM   15  C23 UNL     1      -3.739  -0.928   0.182  1.00  0.00     0.023 C 
HETATM   16  C24 UNL     1      -2.656  -1.399  -0.692  1.00  0.00    -0.024 C 
HETATM   17  C25 UNL     1      -1.295  -0.919  -0.706  1.00  0.00    -0.024 C 
HETATM   18  C26 UNL     1      -0.684  -0.053   0.331  1.00  0.00     0.026 C 
ENDROOT
BRANCH   1  19
HETATM   19  C7  UNL     1       1.433   0.189  -1.059  1.00  0.00     0.128 C 
BRANCH  19  20
HETATM   20  N1  UNL     1       2.872   0.021  -0.925  1.00  0.00    -0.397 N 
HETATM   21  C6  UNL     1       3.540  -0.947  -1.460  1.00  0.00     0.097 C 
ATOM     22  H1  UNL     1       3.385   0.710  -0.375  1.00  0.00     0.158 HD
BRANCH  21  23
HETATM   23  C5  UNL     1       4.975  -0.971  -1.231  1.00  0.00     0.015 A 
HETATM   24  C4  UNL     1       5.566   0.024  -0.462  1.00  0.00     0.016 A 
HETATM   25  C3  UNL     1       6.916   0.084  -0.192  1.00  0.00     0.011 A 
HETATM   26  C2  UNL     1       7.746  -0.887  -0.701  1.00  0.00    -0.021 A 
HETATM   27  C1  UNL     1       9.218  -0.856  -0.428  1.00  0.00     0.051 C 
HETATM   28  C28 UNL     1       7.179  -1.875  -1.460  1.00  0.00     0.156 A 
HETATM   29  C27 UNL     1       5.807  -1.938  -1.738  1.00  0.00     0.116 A 
HETATM   30  F1  UNL     1       7.968  -2.842  -1.974  1.00  0.00    -0.203 F 
BRANCH  29  31
HETATM   31  O2  UNL     1       5.297  -2.962  -2.512  1.00  0.00    -0.357 OA
ATOM     32  H2  UNL     1       5.873  -3.631  -2.863  1.00  0.00     0.218 HD
ENDBRANCH  29  31
ENDBRANCH  21  23
ENDBRANCH  19  20
ENDBRANCH   1  19
BRANCH  11  33
HETATM   33  C19 UNL     1      -5.733  -0.914  -1.338  1.00  0.00     0.174 C 
BRANCH  33  34
HETATM   34  O1  UNL     1      -5.313  -0.871  -2.640  1.00  0.00    -0.400 OA
ATOM     35  H1  UNL     1      -5.849  -1.339  -3.270  1.00  0.00     0.209 HD
ENDBRANCH  33  34
ENDBRANCH  11  33
TORSDOF 6
