REMARK  6 active torsions:
REMARK  status: ('A' for Active; 'I' for Inactive)
REMARK    1  A    between atoms: C2_2  and  C5_5 
REMARK    2  A    between atoms: C11_11  and  C12_12 
REMARK    3  A    between atoms: C17_19  and  C18_20 
REMARK    4  A    between atoms: C20_23  and  O1_24 
REMARK    5  A    between atoms: C20_23  and  C21_26 
REMARK    6  A    between atoms: C21_26  and  C22_27 
ROOT
HETATM    1  C5  UNL     1      -1.949   0.662   0.177  1.00  0.00     0.029 C 
HETATM    2  C6  UNL     1      -0.991   1.515  -0.759  1.00  0.00     0.009 C 
HETATM    3  C7  UNL     1       0.269   1.075  -0.037  1.00  0.00     0.014 C 
HETATM    4  C8  UNL     1       0.062  -0.449  -0.074  1.00  0.00    -0.001 C 
HETATM    5  C9  UNL     1       0.678  -0.906  -1.396  1.00  0.00     0.014 C 
HETATM    6  C10 UNL     1       2.035  -0.305  -1.676  1.00  0.00     0.011 C 
HETATM    7  C11 UNL     1       2.926  -0.474  -0.475  1.00  0.00     0.036 C 
HETATM    8  C16 UNL     1       2.266  -0.219   0.813  1.00  0.00     0.020 C 
HETATM    9  C17 UNL     1       0.924  -0.991   0.998  1.00  0.00     0.021 C 
HETATM   10  C20 UNL     1      -1.390  -0.709  -0.166  1.00  0.00     0.080 C 
ENDROOT
BRANCH   9  11
HETATM   11  C18 UNL     1       0.598  -0.567   2.381  1.00  0.00    -0.014 C 
HETATM   12  C19 UNL     1       0.605  -1.454   3.352  1.00  0.00     0.052 C 
HETATM   13 BR1  UNL     1       1.015  -3.306   3.172  1.00  0.00    -0.064 Br
ENDBRANCH   9  11
BRANCH  10  14
HETATM   14  O1  UNL     1      -1.791  -0.906  -1.501  1.00  0.00    -0.388 OA
ATOM     15  H1  UNL     1      -1.442  -1.763  -1.715  1.00  0.00     0.210 HD
ENDBRANCH  10  14
BRANCH  10  16
HETATM   16  C21 UNL     1      -2.060  -1.720   0.623  1.00  0.00     0.152 C 
BRANCH  16  17
HETATM   17  C22 UNL     1      -1.755  -3.139   0.485  1.00  0.00     0.175 C 
HETATM   18  O2  UNL     1      -2.340  -3.885   1.360  1.00  0.00    -0.648 OA
HETATM   19  O3  UNL     1      -0.976  -3.781  -0.398  1.00  0.00    -0.648 OA
ENDBRANCH  16  17
ENDBRANCH  10  16
BRANCH   1  20
HETATM   20  C2  UNL     1      -3.286   1.084  -0.070  1.00  0.00    -0.045 C 
HETATM   21  C1  UNL     1      -4.353   0.446   0.764  1.00  0.00     0.015 C 
HETATM   22  C3  UNL     1      -3.341   2.588   0.300  1.00  0.00     0.015 C 
HETATM   23  C4  UNL     1      -3.805   1.063  -1.491  1.00  0.00     0.015 C 
ENDBRANCH   1  20
BRANCH   7  24
HETATM   24  C12 UNL     1       4.142   0.370  -0.574  1.00  0.00     0.013 A 
HETATM   25  C13 UNL     1       5.464  -0.073  -0.722  1.00  0.00     0.026 A 
HETATM   26  C14 UNL     1       6.306   1.012  -0.774  1.00  0.00     0.019 A 
HETATM   27  C15 UNL     1       5.512   2.116  -0.659  1.00  0.00     0.088 A 
HETATM   28  N1  UNL     1       4.239   1.714  -0.542  1.00  0.00    -0.369 N 
ATOM     29  H1  UNL     1       3.444   2.345  -0.441  1.00  0.00     0.165 HD
ENDBRANCH   7  24
TORSDOF 6
