REMARK  4 active torsions:
REMARK  status: ('A' for Active; 'I' for Inactive)
REMARK    1  A    between atoms: C16_18  and  O2_19 
REMARK    2  A    between atoms: C17_21  and  C18_22 
REMARK    3  A    between atoms: C18_22  and  C19_23 
REMARK    4  A    between atoms: C19_23  and  N1_24 
ROOT
HETATM    1  C1  UNL     1      -4.653   0.983   2.214  1.00  0.00     0.018 C 
HETATM    2  C2  UNL     1      -3.645   0.467   1.192  1.00  0.00    -0.015 C 
HETATM    3  C3  UNL     1      -2.939   1.619   0.645  1.00  0.00     0.012 C 
HETATM    4  C4  UNL     1      -1.547   1.537   0.292  1.00  0.00     0.010 C 
HETATM    5  C5  UNL     1      -0.885   0.133   0.179  1.00  0.00     0.021 C 
HETATM    6  C6  UNL     1      -1.535  -0.891   1.161  1.00  0.00     0.014 C 
HETATM    7  C7  UNL     1      -2.676  -0.437   1.891  1.00  0.00    -0.004 C 
HETATM    8  C8  UNL     1      -3.617  -1.620   2.206  1.00  0.00     0.007 C 
HETATM    9  C9  UNL     1      -4.538  -1.699   1.015  1.00  0.00     0.031 C 
HETATM   10  C10 UNL     1      -4.440  -0.374   0.270  1.00  0.00     0.063 C 
HETATM   11 CL1  UNL     1      -6.158   0.258   0.226  1.00  0.00    -0.114 Cl
HETATM   12  C11 UNL     1      -4.053  -0.610  -1.088  1.00  0.00     0.011 C 
HETATM   13  C12 UNL     1      -2.640  -0.591  -1.517  1.00  0.00    -0.030 A 
HETATM   14  C13 UNL     1      -2.781  -1.017  -2.861  1.00  0.00     0.014 A 
HETATM   15  C14 UNL     1      -1.748  -1.157  -3.732  1.00  0.00     0.039 A 
HETATM   16  C15 UNL     1      -0.468  -0.872  -3.306  1.00  0.00     0.089 A 
HETATM   17  O1  UNL     1       0.670  -0.927  -3.952  1.00  0.00    -0.287 OA
HETATM   18  C16 UNL     1       1.637  -0.558  -3.131  1.00  0.00     0.191 A 
HETATM   19  C17 UNL     1       1.078  -0.247  -1.874  1.00  0.00     0.015 A 
HETATM   20  C25 UNL     1      -0.285  -0.452  -1.989  1.00  0.00     0.016 A 
HETATM   21  C26 UNL     1      -1.321  -0.309  -1.108  1.00  0.00    -0.030 A 
ENDROOT
BRANCH  19  22
HETATM   22  C18 UNL     1       1.753   0.202  -0.700  1.00  0.00     0.075 C 
BRANCH  22  23
HETATM   23  C19 UNL     1       3.240   0.369  -0.981  1.00  0.00     0.277 C 
BRANCH  23  24
HETATM   24  N1  UNL     1       3.912   0.846   0.242  1.00  0.00     0.088 N 
HETATM   25  C20 UNL     1       3.877  -0.202   1.199  1.00  0.00     0.272 C 
HETATM   26  C21 UNL     1       5.074  -0.133   2.101  1.00  0.00     0.030 C 
HETATM   27  C22 UNL     1       6.321  -0.325   1.274  1.00  0.00     0.003 C 
HETATM   28  C23 UNL     1       6.318   0.502   0.030  1.00  0.00     0.030 C 
HETATM   29  C24 UNL     1       5.158   1.477   0.011  1.00  0.00     0.272 C 
ENDBRANCH  23  24
ENDBRANCH  22  23
ENDBRANCH  19  22
BRANCH  18  30
HETATM   30  O2  UNL     1       2.984  -0.478  -3.428  1.00  0.00    -0.340 OA
ATOM     31  H2  UNL     1       3.679  -0.213  -2.838  1.00  0.00     0.220 HD
ENDBRANCH  18  30
TORSDOF 4
