REMARK  7 active torsions:
REMARK  status: ('A' for Active; 'I' for Inactive)
REMARK    1  A    between atoms: C2_2  and  C5_5 
REMARK    2  A    between atoms: C5_5  and  C8_8 
REMARK    3  A    between atoms: C10_10  and  C11_11 
REMARK    4  A    between atoms: C11_11  and  C12_12 
REMARK    5  A    between atoms: C12_12  and  C13_13 
REMARK    6  A    between atoms: C17_21  and  N2_22 
REMARK    7  A    between atoms: N2_22  and  C18_24 
ROOT
HETATM    1  C8  UNL     1      -2.110  -0.396   0.358  1.00  0.00    -0.021 A 
HETATM    2  C9  UNL     1      -3.135   0.471   0.668  1.00  0.00     0.017 A 
HETATM    3  C10 UNL     1      -2.991   1.814   0.986  1.00  0.00    -0.056 A 
HETATM    4  C14 UNL     1      -1.732   2.336   0.999  1.00  0.00     0.022 A 
HETATM    5  C15 UNL     1      -0.673   1.515   0.697  1.00  0.00     0.008 A 
HETATM    6  C16 UNL     1       0.582   2.083   0.719  1.00  0.00     0.120 A 
HETATM    7  N1  UNL     1       1.660   1.340   0.432  1.00  0.00    -0.201 N 
ATOM      8  H1  UNL     1       2.595   1.747   0.444  1.00  0.00     0.183 HD
HETATM    9  C17 UNL     1       1.476   0.059   0.131  1.00  0.00     0.678 A 
HETATM   10  N3  UNL     1       0.255  -0.504   0.108  1.00  0.00    -0.191 N 
ATOM     11  H3  UNL     1       0.180  -1.493  -0.130  1.00  0.00     0.184 HD
HETATM   12  C26 UNL     1      -0.854   0.166   0.380  1.00  0.00     0.068 A 
ENDROOT
BRANCH   9  13
HETATM   13  N2  UNL     1       2.519  -0.653  -0.145  1.00  0.00    -0.221 N 
ATOM     14  H2  UNL     1       2.396  -1.639  -0.377  1.00  0.00     0.178 HD
BRANCH  13  15
HETATM   15  C18 UNL     1       3.862  -0.094  -0.135  1.00  0.00     0.099 C 
HETATM   16  C19 UNL     1       4.704  -1.068   0.655  1.00  0.00     0.026 C 
HETATM   17  C20 UNL     1       6.163  -0.959   0.397  1.00  0.00     0.002 C 
HETATM   18  C21 UNL     1       6.643   0.391   0.912  1.00  0.00     0.000 C 
HETATM   19  C22 UNL     1       7.035   1.199  -0.303  1.00  0.00     0.000 C 
HETATM   20  C23 UNL     1       5.789   1.976  -0.751  1.00  0.00     0.000 C 
HETATM   21  C24 UNL     1       5.067   1.307  -1.854  1.00  0.00     0.002 C 
HETATM   22  C25 UNL     1       4.303   0.093  -1.539  1.00  0.00     0.026 C 
ENDBRANCH  13  15
ENDBRANCH   9  13
BRANCH   1  23
HETATM   23  C5  UNL     1      -2.273  -1.814   0.023  1.00  0.00    -0.012 C 
HETATM   24  C6  UNL     1      -1.869  -2.153  -1.397  1.00  0.00     0.021 C 
HETATM   25  C7  UNL     1      -1.632  -2.681   1.083  1.00  0.00     0.021 C 
BRANCH  23  26
HETATM   26  C2  UNL     1      -3.723  -2.317   0.036  1.00  0.00    -0.040 C 
HETATM   27  C1  UNL     1      -3.584  -3.822  -0.304  1.00  0.00     0.015 C 
HETATM   28  C3  UNL     1      -4.581  -1.772  -1.045  1.00  0.00     0.015 C 
HETATM   29  C4  UNL     1      -4.330  -2.314   1.417  1.00  0.00     0.015 C 
ENDBRANCH  23  26
ENDBRANCH   1  23
BRANCH   3  30
HETATM   30  C11 UNL     1      -4.203   2.588   1.345  1.00  0.00     0.049 C 
BRANCH  30  31
HETATM   31  C12 UNL     1      -5.057   3.006   0.221  1.00  0.00     0.117 C 
BRANCH  31  32
HETATM   32  C13 UNL     1      -4.445   3.886  -0.758  1.00  0.00     0.172 C 
HETATM   33  O1  UNL     1      -3.297   4.329  -0.666  1.00  0.00    -0.648 OA
HETATM   34  O2  UNL     1      -5.211   4.263  -1.893  1.00  0.00    -0.648 OA
ENDBRANCH  31  32
ENDBRANCH  30  31
ENDBRANCH   3  30
TORSDOF 7
