REMARK  4 active torsions:
REMARK  status: ('A' for Active; 'I' for Inactive)
REMARK    1  A    between atoms: N3_19  and  C15_20 
REMARK    2  A    between atoms: C15_20  and  C16_21 
REMARK    3  A    between atoms: N4_24  and  C19_25 
REMARK    4  A    between atoms: C19_25  and  C20_26 
ROOT
HETATM    1  C1  UNL     1      -3.985  -2.132   1.941  1.00  0.00     0.032 C 
HETATM    2  C2  UNL     1      -3.017  -0.967   1.955  1.00  0.00     0.083 C 
HETATM    3  N1  UNL     1      -3.760   0.246   2.044  1.00  0.00    -0.371 N 
ATOM      4  H1  UNL     1      -3.690   0.748   2.929  1.00  0.00     0.161 HD
HETATM    5  C3  UNL     1      -4.574   0.836   1.068  1.00  0.00     0.109 A 
HETATM    6  N2  UNL     1      -5.406   1.854   1.262  1.00  0.00    -0.342 N 
ATOM      7  H2  UNL     1      -5.558   2.333   2.150  1.00  0.00     0.167 HD
HETATM    8  C4  UNL     1      -6.015   2.151   0.101  1.00  0.00     0.044 A 
HETATM    9  C5  UNL     1      -6.947   3.120  -0.163  1.00  0.00     0.030 A 
HETATM   10  C6  UNL     1      -7.431   3.229  -1.446  1.00  0.00     0.002 A 
HETATM   11  C7  UNL     1      -6.998   2.389  -2.447  1.00  0.00     0.001 A 
HETATM   12  C8  UNL     1      -6.062   1.427  -2.139  1.00  0.00     0.014 A 
HETATM   13  C9  UNL     1      -5.569   1.310  -0.855  1.00  0.00     0.001 A 
HETATM   14  C10 UNL     1      -4.641   0.452  -0.262  1.00  0.00    -0.002 A 
HETATM   15  C11 UNL     1      -3.999  -0.579  -1.075  1.00  0.00     0.048 C 
HETATM   16  C12 UNL     1      -2.943  -1.409  -0.533  1.00  0.00    -0.002 C 
HETATM   17  C13 UNL     1      -1.823  -1.479  -1.596  1.00  0.00     0.025 C 
HETATM   18  C14 UNL     1      -0.557  -2.028  -1.105  1.00  0.00     0.122 C 
HETATM   19  N3  UNL     1       0.413  -1.127  -0.583  1.00  0.00    -0.393 N 
HETATM   20  C25 UNL     1      -0.008   0.049   0.065  1.00  0.00     0.058 C 
HETATM   21  C26 UNL     1      -1.446   0.252   0.370  1.00  0.00     0.051 C 
HETATM   22  C27 UNL     1      -2.217  -0.981   0.694  1.00  0.00     0.017 C 
ENDROOT
BRANCH  19  23
HETATM   23  C15 UNL     1       1.509  -1.806   0.058  1.00  0.00     0.128 C 
BRANCH  23  24
HETATM   24  C16 UNL     1       2.670  -0.942   0.408  1.00  0.00     0.023 C 
HETATM   25  C17 UNL     1       3.742  -1.767   1.088  1.00  0.00     0.028 C 
HETATM   26  C18 UNL     1       4.990  -0.924   0.813  1.00  0.00     0.122 C 
HETATM   27  N4  UNL     1       4.731  -0.162  -0.341  1.00  0.00    -0.392 N 
HETATM   28  C24 UNL     1       3.428  -0.486  -0.845  1.00  0.00     0.128 C 
BRANCH  27  29
HETATM   29  C19 UNL     1       5.783  -0.013  -1.245  1.00  0.00     0.065 C 
BRANCH  29  30
HETATM   30  C20 UNL     1       6.931   0.851  -0.896  1.00  0.00     0.058 C 
HETATM   31  C21 UNL     1       7.776   0.605   0.283  1.00  0.00     0.015 C 
HETATM   32  C22 UNL     1       7.758   2.109   0.613  1.00  0.00     0.039 C 
HETATM   33  C23 UNL     1       6.597   2.225  -0.355  1.00  0.00     0.179 C 
HETATM   34  F1  UNL     1       6.815   3.207  -1.293  1.00  0.00    -0.249 F 
ENDBRANCH  29  30
ENDBRANCH  27  29
ENDBRANCH  23  24
ENDBRANCH  19  23
TORSDOF 4
