REMARK  5 active torsions:
REMARK  status: ('A' for Active; 'I' for Inactive)
REMARK       I    between atoms: C1_2  and  N1_3 
REMARK    1  A    between atoms: C1_2  and  C8_14 
REMARK    2  A    between atoms: N1_3  and  S1_5 
REMARK    3  A    between atoms: S1_5  and  C2_8 
REMARK    4  A    between atoms: C12_24  and  C13_25 
REMARK    5  A    between atoms: C13_25  and  O4_26 
ROOT
HETATM    1  C8  UNL     1      -1.792   0.289   0.005  1.00  0.00     0.287 C 
HETATM    2  N2  UNL     1      -1.982   1.296  -1.027  1.00  0.00    -0.032 N 
ATOM      3  H21 UNL     1      -1.968   0.880  -1.958  1.00  0.00     0.281 HD
ATOM      4  H22 UNL     1      -1.165   1.901  -1.109  1.00  0.00     0.281 HD
HETATM    5  C9  UNL     1      -3.184   2.065  -0.815  1.00  0.00     0.252 C 
HETATM    6 BR1  UNL     1      -3.044   3.164   0.759  1.00  0.00    -0.040 Br
HETATM    7 BR2  UNL     1      -3.398   3.235  -2.343  1.00  0.00    -0.040 Br
HETATM    8  C10 UNL     1      -4.413   1.199  -0.729  1.00  0.00     0.117 C 
HETATM    9 BR3  UNL     1      -5.960   2.328  -0.453  1.00  0.00    -0.087 Br
HETATM   10  C11 UNL     1      -4.240   0.255   0.436  1.00  0.00     0.029 C 
HETATM   11  C12 UNL     1      -3.007  -0.602   0.107  1.00  0.00     0.051 C 
ENDROOT
BRANCH   1  12
HETATM   12  C1  UNL     1      -0.645  -0.531  -0.451  1.00  0.00     0.262 C 
HETATM   13  O1  UNL     1      -0.407  -0.698  -1.688  1.00  0.00    -0.270 OA
HETATM   14  N1  UNL     1       0.246  -1.166   0.469  1.00  0.00    -0.252 N 
ATOM     15  H1  UNL     1       0.084  -1.062   1.471  1.00  0.00     0.181 HD
BRANCH  14  16
HETATM   16  S1  UNL     1       1.576  -2.095  -0.070  1.00  0.00     0.237 S 
HETATM   17  O2  UNL     1       1.216  -2.713  -1.391  1.00  0.00    -0.205 OA
HETATM   18  O3  UNL     1       1.839  -3.264   0.877  1.00  0.00    -0.205 OA
BRANCH  16  19
HETATM   19  C2  UNL     1       3.075  -1.119  -0.171  1.00  0.00     0.129 C 
HETATM   20  C3  UNL     1       3.471  -0.720   1.206  1.00  0.00     0.022 C 
HETATM   21  C4  UNL     1       3.576   0.800   1.299  1.00  0.00     0.001 C 
HETATM   22  C5  UNL     1       4.674   1.155   0.288  1.00  0.00     0.000 C 
HETATM   23  C6  UNL     1       4.043   1.026  -1.070  1.00  0.00     0.001 C 
HETATM   24  C7  UNL     1       2.947   0.013  -1.133  1.00  0.00     0.022 C 
ENDBRANCH  16  19
ENDBRANCH  14  16
ENDBRANCH   1  12
BRANCH  11  25
HETATM   25  C13 UNL     1      -2.885  -1.621   1.180  1.00  0.00     0.171 C 
BRANCH  25  26
HETATM   26  O4  UNL     1      -4.076  -2.391   1.186  1.00  0.00    -0.400 OA
ATOM     27  H4  UNL     1      -3.998  -3.043   1.873  1.00  0.00     0.209 HD
ENDBRANCH  25  26
ENDBRANCH  11  25
TORSDOF 5
