REMARK  8 active torsions:
REMARK  status: ('A' for Active; 'I' for Inactive)
REMARK    1  A    between atoms: C2_2  and  C3_3 
REMARK    2  A    between atoms: C4_4  and  O1_5 
REMARK    3  A    between atoms: C5_8  and  O2_9 
REMARK    4  A    between atoms: C9_18  and  O3_19 
REMARK    5  A    between atoms: C10_21  and  C11_22 
REMARK    6  A    between atoms: C11_22  and  C12_23 
REMARK    7  A    between atoms: C15_28  and  O4_29 
REMARK    8  A    between atoms: C18_33  and  C19_34 
ROOT
HETATM    1  C3  UNL     1      -2.317   0.966  -0.337  1.00  0.00     0.117 C 
HETATM    2  C4  UNL     1      -2.656  -0.490  -0.311  1.00  0.00     0.130 C 
HETATM    3  N1  UNL     1      -1.545  -1.371  -0.578  1.00  0.00    -0.302 N 
HETATM    4  C5  UNL     1      -0.901  -2.186   0.352  1.00  0.00     0.136 C 
HETATM    5  C6  UNL     1      -0.595  -2.105   1.744  1.00  0.00     0.154 C 
HETATM    6 BR1  UNL     1      -1.017  -3.823   2.632  1.00  0.00    -0.081 Br
HETATM    7  C7  UNL     1      -1.027  -1.072   2.662  1.00  0.00     0.142 C 
HETATM    8 CL1  UNL     1      -0.219  -1.595   4.240  1.00  0.00    -0.120 Cl
HETATM    9  C8  UNL     1      -0.682   0.327   2.478  1.00  0.00     0.208 C 
HETATM   10 CL2  UNL     1      -1.972   1.388   3.097  1.00  0.00    -0.100 Cl
HETATM   11  N2  UNL     1      -0.238   0.740   1.141  1.00  0.00    -0.306 N 
HETATM   12  C9  UNL     1       1.097   0.331   0.838  1.00  0.00     0.143 C 
HETATM   13  C10 UNL     1       1.747  -0.173  -0.320  1.00  0.00     0.158 C 
HETATM   14  N3  UNL     1       1.139  -0.211  -1.586  1.00  0.00    -0.361 N 
ATOM     15  H3  UNL     1       1.419   0.585  -2.159  1.00  0.00     0.162 HD
HETATM   16  C15 UNL     1       0.258  -1.044  -2.267  1.00  0.00     0.135 C 
HETATM   17  C16 UNL     1      -1.139  -1.397  -1.978  1.00  0.00     0.163 C 
HETATM   18  C17 UNL     1      -1.516  -2.783  -2.480  1.00  0.00     0.041 C 
HETATM   19  C18 UNL     1      -1.153   1.493   0.339  1.00  0.00     0.104 C 
ENDROOT
BRANCH  13  20
HETATM   20  C11 UNL     1       3.140   0.390  -0.484  1.00  0.00     0.037 C 
BRANCH  20  21
HETATM   21  C12 UNL     1       4.150   0.145   0.554  1.00  0.00    -0.020 C 
HETATM   22  C13 UNL     1       4.426  -1.320   0.817  1.00  0.00     0.009 C 
HETATM   23  C14 UNL     1       5.484   0.650  -0.120  1.00  0.00     0.009 C 
ENDBRANCH  20  21
ENDBRANCH  13  20
BRANCH  12  24
HETATM   24  O3  UNL     1       1.928   0.431   1.834  1.00  0.00    -0.348 OA
ATOM     25  H3  UNL     1       2.816   0.159   1.633  1.00  0.00     0.219 HD
ENDBRANCH  12  24
BRANCH  16  26
HETATM   26  O4  UNL     1       0.660  -1.651  -3.360  1.00  0.00    -0.348 OA
ATOM     27  H4  UNL     1       0.058  -2.220  -3.825  1.00  0.00     0.219 HD
ENDBRANCH  16  26
BRANCH  19  28
HETATM   28  C19 UNL     1      -0.429   2.511  -0.519  1.00  0.00     0.223 C 
HETATM   29  O5  UNL     1       0.680   3.003  -0.205  1.00  0.00    -0.643 OA
HETATM   30  O6  UNL     1      -0.962   2.950  -1.711  1.00  0.00    -0.643 OA
ENDBRANCH  19  28
BRANCH   1  31
HETATM   31  C2  UNL     1      -3.659   1.646  -0.068  1.00  0.00     0.015 C 
HETATM   32  C1  UNL     1      -3.566   3.106  -0.073  1.00  0.00     0.006 C 
ENDBRANCH   1  31
BRANCH   2  33
HETATM   33  O1  UNL     1      -3.503  -0.900   0.704  1.00  0.00    -0.349 OA
ATOM     34  H1  UNL     1      -3.718  -1.825   0.721  1.00  0.00     0.219 HD
ENDBRANCH   2  33
BRANCH   4  35
HETATM   35  O2  UNL     1      -0.470  -3.302  -0.186  1.00  0.00    -0.348 OA
ATOM     36  H2  UNL     1      -0.031  -3.857   0.448  1.00  0.00     0.219 HD
ENDBRANCH   4  35
TORSDOF 8
