REMARK  7 active torsions:
REMARK  status: ('A' for Active; 'I' for Inactive)
REMARK    1  A    between atoms: C3_4  and  N2_5 
REMARK    2  A    between atoms: N2_5  and  C4_7 
REMARK    3  A    between atoms: C4_7  and  O1_8 
REMARK    4  A    between atoms: C4_7  and  C5_10 
REMARK    5  A    between atoms: C6_11  and  C7_12 
REMARK    6  A    between atoms: C11_16  and  N3_17 
REMARK    7  A    between atoms: C11_16  and  C12_21 
ROOT
HETATM    1  C4  UNL     1      -0.176   0.928   1.088  1.00  0.00     0.119 C 
ENDROOT
BRANCH   1   2
HETATM    2  N2  UNL     1       0.690   0.344   0.191  1.00  0.00    -0.366 N 
ATOM      3  H2  UNL     1       0.347   0.085  -0.734  1.00  0.00     0.161 HD
BRANCH   2   4
HETATM    4  C3  UNL     1       2.121   0.079   0.537  1.00  0.00     0.128 C 
HETATM    5  C2  UNL     1       2.466  -1.351   0.400  1.00  0.00     0.298 C 
HETATM    6  N1  UNL     1       3.698  -1.504  -0.338  1.00  0.00     0.088 N 
HETATM    7  C1  UNL     1       4.049  -2.904  -0.314  1.00  0.00     0.310 C 
HETATM    8  C15 UNL     1       4.711  -0.717   0.384  1.00  0.00     0.306 C 
HETATM    9  C14 UNL     1       4.470   0.732  -0.006  1.00  0.00     0.117 C 
HETATM   10  C13 UNL     1       3.006   0.965  -0.308  1.00  0.00     0.114 C 
HETATM   11 BR2  UNL     1       5.055   1.940   1.380  1.00  0.00    -0.070 Br
HETATM   12 BR3  UNL     1       5.516   1.091  -1.589  1.00  0.00    -0.070 Br
HETATM   13 BR1  UNL     1       2.630   2.790   0.213  1.00  0.00    -0.086 Br
ENDBRANCH   2   4
ENDBRANCH   1   2
BRANCH   1  14
HETATM   14  O1  UNL     1       0.398   1.223   2.236  1.00  0.00    -0.349 OA
ATOM     15  H1  UNL     1      -0.200   1.626   2.855  1.00  0.00     0.219 HD
ENDBRANCH   1  14
BRANCH   1  16
HETATM   16  C5  UNL     1      -1.546   1.262   0.983  1.00  0.00     0.115 A 
HETATM   17  C6  UNL     1      -2.692   0.675   0.300  1.00  0.00     0.055 A 
HETATM   18  C11 UNL     1      -2.042   1.832  -0.344  1.00  0.00     0.226 A 
BRANCH  17  19
HETATM   19  C7  UNL     1      -2.960  -0.658  -0.195  1.00  0.00    -0.044 C 
HETATM   20  C8  UNL     1      -4.369  -0.654  -0.847  1.00  0.00     0.015 C 
HETATM   21  C9  UNL     1      -2.094  -1.408  -1.088  1.00  0.00     0.015 C 
HETATM   22  C10 UNL     1      -3.167  -1.564   1.053  1.00  0.00     0.015 C 
ENDBRANCH  17  19
BRANCH  18  23
HETATM   23  N3  UNL     1      -1.284   1.703  -1.541  1.00  0.00    -0.059 N 
ATOM     24  H33 UNL     1      -0.354   2.083  -1.365  1.00  0.00     0.275 HD
ATOM     25  H32 UNL     1      -1.085   0.712  -1.681  1.00  0.00     0.275 HD
ATOM     26  H31 UNL     1      -1.615   2.084  -2.427  1.00  0.00     0.275 HD
ENDBRANCH  18  23
BRANCH  18  27
HETATM   27  C12 UNL     1      -2.672   3.206  -0.226  1.00  0.00     0.211 C 
HETATM   28  O2  UNL     1      -2.318   4.117  -0.968  1.00  0.00    -0.646 OA
HETATM   29  O3  UNL     1      -3.657   3.390   0.747  1.00  0.00    -0.646 OA
ENDBRANCH  18  27
ENDBRANCH   1  16
TORSDOF 7
