REMARK  8 active torsions:
REMARK  status: ('A' for Active; 'I' for Inactive)
REMARK    1  A    between atoms: N1_12  and  C10_13 
REMARK    2  A    between atoms: C10_13  and  O1_14 
REMARK    3  A    between atoms: C10_13  and  C11_16 
REMARK    4  A    between atoms: C11_16  and  C12_18 
REMARK    5  A    between atoms: C12_18  and  N2_19 
REMARK    6  A    between atoms: N2_19  and  O2_20 
REMARK       I    between atoms: N2_19  and  C13_22 
REMARK    7  A    between atoms: C14_25  and  C15_26 
REMARK    8  A    between atoms: C15_26  and  O4_27 
ROOT
HETATM    1  C1  UNL     1      -1.701   1.801  -0.162  1.00  0.00     0.016 C 
HETATM    2  C2  UNL     1      -2.472   0.546   0.010  1.00  0.00    -0.031 C 
HETATM    3  C3  UNL     1      -3.942   0.852   0.104  1.00  0.00     0.016 C 
HETATM    4  C4  UNL     1      -2.341  -0.403  -1.198  1.00  0.00     0.021 C 
HETATM    5  C5  UNL     1      -2.898  -1.693  -0.675  1.00  0.00     0.041 C 
HETATM    6  C6  UNL     1      -2.647  -1.693   0.820  1.00  0.00     0.086 C 
HETATM    7 BR1  UNL     1      -1.596  -3.218   1.371  1.00  0.00    -0.072 Br
HETATM    8 BR2  UNL     1      -4.333  -1.839   1.784  1.00  0.00    -0.072 Br
HETATM    9  C7  UNL     1      -1.984  -0.383   1.081  1.00  0.00     0.007 C 
HETATM   10  C8  UNL     1      -2.225   0.137   2.472  1.00  0.00     0.020 C 
HETATM   11  C9  UNL     1      -0.486  -0.532   0.911  1.00  0.00     0.137 C 
HETATM   12  N1  UNL     1      -0.039  -0.299  -0.439  1.00  0.00    -0.353 N 
HETATM   13  C14 UNL     1      -0.917  -0.518  -1.570  1.00  0.00     0.115 C 
ENDROOT
BRANCH  12  14
HETATM   14  C10 UNL     1       1.291   0.111  -0.660  1.00  0.00     0.157 C 
BRANCH  14  15
HETATM   15  O1  UNL     1       1.618   0.485  -1.872  1.00  0.00    -0.345 OA
ATOM     16  H1  UNL     1       2.515   0.761  -2.021  1.00  0.00     0.219 HD
ENDBRANCH  14  15
BRANCH  14  17
HETATM   17  C11 UNL     1       2.399   0.188   0.252  1.00  0.00     0.079 C 
HETATM   18 BR3  UNL     1       2.414  -0.360   2.075  1.00  0.00    -0.045 Br
BRANCH  17  19
HETATM   19  C12 UNL     1       3.569   0.645  -0.206  1.00  0.00     0.151 C 
BRANCH  19  20
HETATM   20  N2  UNL     1       4.748   0.793   0.516  1.00  0.00    -0.185 N 
HETATM   21  C13 UNL     1       5.927   1.304  -0.149  1.00  0.00     0.358 C 
HETATM   22  N3  UNL     1       7.144   1.465   0.567  1.00  0.00    -0.038 NA
HETATM   23  O3  UNL     1       5.872   1.603  -1.346  1.00  0.00    -0.248 OA
BRANCH  20  24
HETATM   24  O2  UNL     1       4.835   0.477   1.815  1.00  0.00    -0.279 OA
ATOM     25  H2  UNL     1       5.641   0.578   2.308  1.00  0.00     0.245 HD
ENDBRANCH  20  24
ENDBRANCH  19  20
ENDBRANCH  17  19
ENDBRANCH  14  17
ENDBRANCH  12  14
BRANCH  13  26
HETATM   26  C15 UNL     1      -0.672  -1.782  -2.328  1.00  0.00     0.189 C 
BRANCH  26  27
HETATM   27  O4  UNL     1       0.618  -1.805  -2.923  1.00  0.00    -0.399 OA
ATOM     28  H4  UNL     1       0.774  -2.609  -3.405  1.00  0.00     0.209 HD
ENDBRANCH  26  27
ENDBRANCH  13  26
TORSDOF 8
