REMARK  10 active torsions:
REMARK  status: ('A' for Active; 'I' for Inactive)
REMARK    1  A    between atoms: C1_2  and  C2_3 
REMARK       I    between atoms: C1_2  and  N1_10 
REMARK    2  A    between atoms: C2_3  and  C3_4 
REMARK    3  A    between atoms: C4_5  and  C5_6 
REMARK    4  A    between atoms: C5_6  and  C6_7 
REMARK    5  A    between atoms: C6_7  and  O2_8 
REMARK    6  A    between atoms: N1_10  and  C7_12 
REMARK    7  A    between atoms: C7_12  and  C8_13 
REMARK    8  A    between atoms: C7_12  and  C12_18 
REMARK    9  A    between atoms: C8_13  and  C9_15 
REMARK       I    between atoms: N2_24  and  C18_25 
REMARK   10  A    between atoms: C18_25  and  C19_27 
ROOT
HETATM    1  C12 UNL     1      -0.169  -2.610  -0.744  1.00  0.00     0.121 C 
HETATM    2  C13 UNL     1      -0.587  -3.809   0.086  1.00  0.00     0.013 C 
HETATM    3  C14 UNL     1      -2.109  -3.838   0.043  1.00  0.00     0.009 C 
HETATM    4  C15 UNL     1      -2.563  -2.757   1.021  1.00  0.00     0.026 C 
HETATM    5  C16 UNL     1      -1.270  -1.969   1.164  1.00  0.00     0.088 C 
HETATM    6  C17 UNL     1      -0.365  -3.188   1.448  1.00  0.00     0.032 C 
HETATM    7  N2  UNL     1      -0.918  -1.527  -0.147  1.00  0.00    -0.339 N 
HETATM    8  C18 UNL     1      -1.257  -0.319  -0.805  1.00  0.00     0.229 C 
HETATM    9  O4  UNL     1      -0.937  -0.146  -2.045  1.00  0.00    -0.272 OA
ENDROOT
BRANCH   1  10
HETATM   10  C7  UNL     1       1.328  -2.480  -0.734  1.00  0.00     0.177 C 
BRANCH  10  11
HETATM   11  N1  UNL     1       1.745  -1.324  -1.538  1.00  0.00    -0.347 N 
HETATM   12  C1  UNL     1       2.476  -0.299  -0.887  1.00  0.00     0.221 C 
HETATM   13  O1  UNL     1       2.733  -0.421   0.336  1.00  0.00    -0.273 OA
ATOM     14  H1  UNL     1       1.517  -1.261  -2.530  1.00  0.00     0.163 HD
BRANCH  12  15
HETATM   15  C2  UNL     1       2.946   0.919  -1.617  1.00  0.00     0.129 C 
BRANCH  15  16
HETATM   16  C3  UNL     1       3.674   1.806  -0.673  1.00  0.00    -0.022 C 
HETATM   17  C4  UNL     1       3.266   3.054  -0.427  1.00  0.00    -0.028 C 
BRANCH  17  18
HETATM   18  C5  UNL     1       3.957   3.964   0.498  1.00  0.00     0.053 C 
BRANCH  18  19
HETATM   19  C6  UNL     1       3.021   4.387   1.626  1.00  0.00     0.168 C 
BRANCH  19  20
HETATM   20  O2  UNL     1       3.685   5.242   2.488  1.00  0.00    -0.401 OA
ATOM     21  H2  UNL     1       3.102   5.505   3.190  1.00  0.00     0.209 HD
ENDBRANCH  19  20
ENDBRANCH  18  19
ENDBRANCH  17  18
ENDBRANCH  15  16
ENDBRANCH  12  15
ENDBRANCH  10  11
BRANCH  10  22
HETATM   22  C8  UNL     1       1.891  -3.648  -1.485  1.00  0.00     0.155 C 
HETATM   23  O3  UNL     1       1.666  -3.624  -2.718  1.00  0.00    -0.295 OA
BRANCH  22  24
HETATM   24  C9  UNL     1       2.655  -4.773  -0.974  1.00  0.00     0.058 A 
HETATM   25  C10 UNL     1       3.987  -4.496  -0.314  1.00  0.00     0.013 A 
HETATM   26  C11 UNL     1       2.850  -5.088   0.461  1.00  0.00     0.013 A 
ENDBRANCH  22  24
ENDBRANCH  10  22
ENDBRANCH   1  10
BRANCH   8  27
HETATM   27  C19 UNL     1      -1.960   0.856  -0.298  1.00  0.00     0.042 C 
HETATM   28  C20 UNL     1      -3.407   0.774  -0.747  1.00  0.00     0.024 C 
HETATM   29  C21 UNL     1      -4.202   1.999  -0.351  1.00  0.00    -0.013 C 
HETATM   30  C22 UNL     1      -3.612   3.180  -1.082  1.00  0.00     0.009 C 
HETATM   31  C26 UNL     1      -4.140   2.213   1.138  1.00  0.00     0.009 C 
HETATM   32  C23 UNL     1      -2.165   3.319  -0.707  1.00  0.00    -0.013 C 
HETATM   33  C24 UNL     1      -2.056   3.551   0.796  1.00  0.00     0.009 C 
HETATM   34  C28 UNL     1      -1.368   2.084  -0.988  1.00  0.00     0.024 C 
HETATM   35  C25 UNL     1      -2.661   2.382   1.487  1.00  0.00    -0.013 C 
HETATM   36  C27 UNL     1      -1.995   1.052   1.180  1.00  0.00     0.024 C 
ENDBRANCH   8  27
TORSDOF 10
