REMARK  9 active torsions:
REMARK  status: ('A' for Active; 'I' for Inactive)
REMARK    1  A    between atoms: C2_2  and  C3_3 
REMARK    2  A    between atoms: C4_4  and  N1_5 
REMARK    3  A    between atoms: N2_13  and  C12_14 
REMARK    4  A    between atoms: C12_14  and  C13_15 
REMARK    5  A    between atoms: C13_15  and  C14_16 
REMARK    6  A    between atoms: N3_23  and  C21_24 
REMARK    7  A    between atoms: C21_24  and  C22_25 
REMARK    8  A    between atoms: C21_24  and  C26_29 
REMARK    9  A    between atoms: C22_25  and  C23_26 
REMARK       I    between atoms: C26_29  and  N4_31 
ROOT
HETATM    1  C3  UNL     1       0.674  -0.295   0.501  1.00  0.00     0.074 C 
HETATM    2  C4  UNL     1      -0.612  -0.140   0.070  1.00  0.00     0.129 C 
HETATM    3  N2  UNL     1      -0.841   0.970  -0.791  1.00  0.00    -0.359 N 
HETATM    4  C18 UNL     1      -0.135   2.227  -0.613  1.00  0.00     0.100 C 
HETATM    5  C19 UNL     1       0.118   2.869  -1.966  1.00  0.00     0.034 C 
HETATM    6  C20 UNL     1       1.222   2.026   0.026  1.00  0.00     0.149 C 
HETATM    7  N3  UNL     1       1.656   0.644   0.001  1.00  0.00    -0.362 N 
ENDROOT
BRANCH   7   8
HETATM    8  C21 UNL     1       2.906   0.218  -0.523  1.00  0.00     0.177 C 
BRANCH   8   9
HETATM    9  C22 UNL     1       3.932   1.302  -0.759  1.00  0.00     0.038 C 
BRANCH   9  10
HETATM   10  C23 UNL     1       4.371   2.004   0.477  1.00  0.00    -0.020 C 
HETATM   11  C24 UNL     1       5.003   0.960   1.400  1.00  0.00     0.009 C 
HETATM   12  C25 UNL     1       5.452   3.016   0.091  1.00  0.00     0.009 C 
ENDBRANCH   9  10
ENDBRANCH   8   9
BRANCH   8  13
HETATM   13  C26 UNL     1       2.732  -0.532  -1.796  1.00  0.00     0.246 C 
HETATM   14  O1  UNL     1       1.638  -0.782  -2.285  1.00  0.00    -0.271 OA
HETATM   15  N4  UNL     1       3.912  -0.985  -2.485  1.00  0.00    -0.302 N 
HETATM   16  C27 UNL     1       4.491  -2.087  -2.130  1.00  0.00     0.203 C 
ATOM     17  H4  UNL     1       4.293  -0.436  -3.255  1.00  0.00     0.171 HD
HETATM   18  N5  UNL     1       4.010  -2.897  -1.067  1.00  0.00    -0.066 NA
HETATM   19  N6  UNL     1       5.657  -2.521  -2.819  1.00  0.00    -0.066 NA
ENDBRANCH   8  13
ENDBRANCH   7   8
BRANCH   1  20
HETATM   20  C2  UNL     1       0.968  -1.371   1.369  1.00  0.00     0.023 C 
HETATM   21  C1  UNL     1       2.047  -1.767   1.985  1.00  0.00     0.013 C 
ENDBRANCH   1  20
BRANCH   2  22
HETATM   22  N1  UNL     1      -1.648  -1.051   0.493  1.00  0.00    -0.365 N 
HETATM   23  C5  UNL     1      -2.253  -0.920   1.801  1.00  0.00     0.125 C 
HETATM   24  C6  UNL     1      -2.757  -2.172   2.445  1.00  0.00     0.029 C 
HETATM   25  C7  UNL     1      -3.397  -3.119   1.505  1.00  0.00    -0.037 A 
HETATM   26  C8  UNL     1      -2.431  -3.399   0.375  1.00  0.00     0.029 C 
HETATM   27  C10 UNL     1      -4.819  -3.427   1.441  1.00  0.00     0.010 A 
HETATM   28  C11 UNL     1      -3.929  -4.392   2.141  1.00  0.00     0.010 A 
HETATM   29  C9  UNL     1      -2.117  -2.110  -0.370  1.00  0.00     0.125 C 
ENDBRANCH   2  22
BRANCH   3  30
HETATM   30  C12 UNL     1      -1.745   0.865  -1.876  1.00  0.00     0.129 C 
BRANCH  30  31
HETATM   31  C13 UNL     1      -3.003   1.629  -1.889  1.00  0.00     0.047 C 
BRANCH  31  32
HETATM   32  C14 UNL     1      -3.950   1.354  -0.800  1.00  0.00    -0.023 C 
HETATM   33  C15 UNL     1      -4.391   2.302  -0.011  1.00  0.00    -0.091 C 
HETATM   34  C16 UNL     1      -3.960   3.707  -0.174  1.00  0.00     0.042 C 
HETATM   35  C17 UNL     1      -5.360   1.984   1.093  1.00  0.00     0.042 C 
ENDBRANCH  31  32
ENDBRANCH  30  31
ENDBRANCH   3  30
TORSDOF 9
