REMARK  9 active torsions:
REMARK  status: ('A' for Active; 'I' for Inactive)
REMARK    1  A    between atoms: C3_4  and  N2_5 
REMARK    2  A    between atoms: C3_4  and  C19_28 
REMARK       I    between atoms: N2_5  and  C4_7 
REMARK    3  A    between atoms: C4_7  and  C5_9 
REMARK    4  A    between atoms: C5_9  and  C6_10 
REMARK    5  A    between atoms: C6_10  and  C7_11 
REMARK    6  A    between atoms: C7_11  and  C8_12 
REMARK       I    between atoms: C8_12  and  N3_14 
REMARK    7  A    between atoms: N3_14  and  C9_15 
REMARK    8  A    between atoms: N3_14  and  C13_19 
REMARK    9  A    between atoms: N4_22  and  S1_23 
ROOT
HETATM    1  C7  UNL     1       0.921  -1.100  -0.117  1.00  0.00     0.103 C 
ENDROOT
BRANCH   1   2
HETATM    2  C6  UNL     1      -0.219  -0.088  -0.075  1.00  0.00     0.019 C 
BRANCH   2   3
HETATM    3  C5  UNL     1      -1.486  -0.877  -0.262  1.00  0.00     0.103 C 
BRANCH   3   4
HETATM    4  C4  UNL     1      -2.690   0.071  -0.236  1.00  0.00     0.222 C 
HETATM    5  N2  UNL     1      -3.931  -0.521  -0.394  1.00  0.00    -0.329 N 
ATOM      6  H2  UNL     1      -3.899  -1.532  -0.529  1.00  0.00     0.168 HD
HETATM    7  O1  UNL     1      -2.428   1.258  -0.077  1.00  0.00    -0.273 OA
BRANCH   5   8
HETATM    8  C3  UNL     1      -5.255   0.032  -0.402  1.00  0.00     0.036 C 
HETATM    9  C2  UNL     1      -6.223  -0.814  -0.613  1.00  0.00     0.043 C 
HETATM   10  C1  UNL     1      -5.922  -2.261  -0.833  1.00  0.00     0.067 C 
HETATM   11  N1  UNL     1      -7.588  -0.480  -0.630  1.00  0.00    -0.105 NA
BRANCH   8  12
HETATM   12  C19 UNL     1      -5.367   1.502  -0.252  1.00  0.00     0.037 C 
HETATM   13  C20 UNL     1      -5.086   1.767   1.256  1.00  0.00     0.011 C 
HETATM   14  C21 UNL     1      -6.312   1.543   2.101  1.00  0.00     0.001 C 
HETATM   15  C22 UNL     1      -7.418   2.475   1.773  1.00  0.00     0.000 C 
HETATM   16  C23 UNL     1      -7.602   2.685   0.318  1.00  0.00     0.001 C 
HETATM   17  C24 UNL     1      -6.611   2.179  -0.622  1.00  0.00     0.011 C 
ENDBRANCH   8  12
ENDBRANCH   5   8
ENDBRANCH   3   4
ENDBRANCH   2   3
ENDBRANCH   1   2
BRANCH   1  18
HETATM   18  C8  UNL     1       2.223  -0.448   0.057  1.00  0.00     0.220 C 
HETATM   19  O2  UNL     1       2.263   0.781   0.243  1.00  0.00    -0.273 OA
HETATM   20  N3  UNL     1       3.434  -1.200   0.017  1.00  0.00    -0.343 N 
BRANCH  20  21
HETATM   21  C9  UNL     1       3.301  -2.615  -0.205  1.00  0.00     0.087 C 
HETATM   22  C10 UNL     1       3.990  -3.234  -1.376  1.00  0.00     0.025 C 
HETATM   23  C11 UNL     1       4.865  -3.998  -0.405  1.00  0.00     0.004 C 
HETATM   24  C12 UNL     1       3.914  -3.589   0.720  1.00  0.00     0.025 C 
ENDBRANCH  20  21
BRANCH  20  25
HETATM   25  C13 UNL     1       4.598  -0.443   0.219  1.00  0.00     0.089 C 
HETATM   26  C14 UNL     1       5.568  -0.738   1.284  1.00  0.00     0.041 C 
HETATM   27  C15 UNL     1       6.712   0.287   1.153  1.00  0.00     0.107 C 
HETATM   28  N4  UNL     1       6.318   1.405   0.345  1.00  0.00    -0.234 NA
HETATM   29  C17 UNL     1       6.243   0.953  -1.035  1.00  0.00     0.107 C 
HETATM   30  C18 UNL     1       5.404  -0.340  -1.077  1.00  0.00     0.041 C 
BRANCH  28  31
HETATM   31  S1  UNL     1       7.513   2.634   0.539  1.00  0.00     0.087 S 
HETATM   32  C16 UNL     1       6.888   4.249   0.229  1.00  0.00     0.146 C 
HETATM   33  O3  UNL     1       8.045   2.580   2.136  1.00  0.00    -0.242 OA
ENDBRANCH  28  31
ENDBRANCH  20  25
ENDBRANCH   1  18
TORSDOF 9
