REMARK  6 active torsions:
REMARK  status: ('A' for Active; 'I' for Inactive)
REMARK    1  A    between atoms: N2_4  and  O1_5 
REMARK    2  A    between atoms: N2_4  and  N3_7 
REMARK       I    between atoms: N3_7  and  C1_9 
REMARK    3  A    between atoms: N5_11  and  C2_13 
REMARK    4  A    between atoms: C2_13  and  C3_14 
REMARK    5  A    between atoms: C2_13  and  C4_17 
REMARK    6  A    between atoms: C2_13  and  C5_20 
ROOT
HETATM    1  C2  UNL     1      -0.278  -0.605  -0.898  1.00  0.00     0.221 C 
ENDROOT
BRANCH   1   2
HETATM    2  N5  UNL     1       0.970  -0.174  -0.523  1.00  0.00    -0.336 N 
HETATM    3  C1  UNL     1       2.033  -0.441   0.008  1.00  0.00     0.207 C 
HETATM    4  N3  UNL     1       3.007   0.634   0.054  1.00  0.00    -0.232 N 
HETATM    5  N4  UNL     1       2.522  -1.633   0.610  1.00  0.00    -0.062 NA
ATOM      6  H3  UNL     1       3.441   0.931  -0.820  1.00  0.00     0.194 HD
ATOM      7  H5  UNL     1       1.036   0.799  -0.820  1.00  0.00     0.164 HD
BRANCH   4   8
HETATM    8  N2  UNL     1       3.375   1.274   1.217  1.00  0.00    -0.099 N 
HETATM    9  N1  UNL     1       3.644   2.497   1.323  1.00  0.00    -0.303 N 
ATOM     10  H12 UNL     1       3.916   2.971   2.184  1.00  0.00     0.181 HD
ATOM     11  H11 UNL     1       3.584   3.057   0.473  1.00  0.00     0.181 HD
BRANCH   8  12
HETATM   12  O1  UNL     1       3.457   0.514   2.370  1.00  0.00    -0.254 OA
ATOM     13  H1  UNL     1       3.254  -0.411   2.290  1.00  0.00     0.248 HD
ENDBRANCH   8  12
ENDBRANCH   4   8
ENDBRANCH   1   2
BRANCH   1  14
HETATM   14  C3  UNL     1      -0.586   0.110  -2.215  1.00  0.00     0.272 C 
HETATM   15  N6  UNL     1       0.349   0.938  -2.860  1.00  0.00    -0.059 NA
HETATM   16  O2  UNL     1      -1.719  -0.084  -2.692  1.00  0.00    -0.273 OA
ENDBRANCH   1  14
BRANCH   1  17
HETATM   17  C4  UNL     1      -0.418  -2.024  -1.284  1.00  0.00     0.213 C 
HETATM   18  O3  UNL     1       0.562  -2.763  -1.307  1.00  0.00    -0.646 OA
HETATM   19  O4  UNL     1      -1.652  -2.508  -1.618  1.00  0.00    -0.646 OA
ENDBRANCH   1  17
BRANCH   1  20
HETATM   20  C5  UNL     1      -1.428  -0.209  -0.008  1.00  0.00     0.218 C 
HETATM   21  C6  UNL     1      -1.571   1.239   0.120  1.00  0.00     0.242 C 
HETATM   22  O5  UNL     1      -0.862   2.125  -0.410  1.00  0.00    -0.272 OA
HETATM   23  N7  UNL     1      -2.648   1.714   0.947  1.00  0.00    -0.278 N 
HETATM   24  C7  UNL     1      -3.173   0.891   1.981  1.00  0.00     0.329 C 
ATOM     25  H7  UNL     1      -3.036   2.644   0.791  1.00  0.00     0.173 HD
HETATM   26  O6  UNL     1      -4.120   1.283   2.725  1.00  0.00    -0.247 OA
HETATM   27  N8  UNL     1      -2.586  -0.392   2.141  1.00  0.00    -0.278 N 
HETATM   28  C8  UNL     1      -1.507  -0.842   1.294  1.00  0.00     0.242 C 
ATOM     29  H8  UNL     1      -2.935  -1.011   2.873  1.00  0.00     0.173 HD
HETATM   30  O7  UNL     1      -0.785  -1.716   1.795  1.00  0.00    -0.272 OA
ENDBRANCH   1  20
TORSDOF 6
