REMARK  6 active torsions:
REMARK  status: ('A' for Active; 'I' for Inactive)
REMARK    1  A    between atoms: N1_1  and  N2_4 
REMARK       I    between atoms: N2_4  and  C1_6 
REMARK    2  A    between atoms: N4_8  and  N5_10 
REMARK       I    between atoms: C2_12  and  N6_13 
REMARK       I    between atoms: C2_12  and  N8_19 
REMARK    3  A    between atoms: N6_13  and  N7_15 
REMARK    4  A    between atoms: N7_15  and  C3_17 
REMARK    5  A    between atoms: C4_20  and  O2_21 
REMARK    6  A    between atoms: C8_27  and  C9_28 
ROOT
HETATM    1  N5  UNL     1       1.143   0.100  -0.095  1.00  0.00    -0.128 N 
ATOM      2  H5  UNL     1       1.230  -0.767  -0.624  1.00  0.00     0.205 HD
HETATM    3  C2  UNL     1      -0.043   0.557   0.129  1.00  0.00     0.720 C 
HETATM    4  N6  UNL     1      -0.236   1.766   0.864  1.00  0.00    -0.128 N 
ATOM      5  H6  UNL     1       0.274   1.890   1.739  1.00  0.00     0.205 HD
HETATM    6  N8  UNL     1      -1.121  -0.204  -0.402  1.00  0.00    -0.119 N 
HETATM    7  C4  UNL     1      -1.526   0.002  -1.687  1.00  0.00     0.167 A 
HETATM    8  C5  UNL     1      -2.547  -0.671  -2.284  1.00  0.00     0.111 A 
HETATM    9  C6  UNL     1      -3.219  -1.624  -1.548  1.00  0.00     0.178 A 
HETATM   10  O3  UNL     1      -4.184  -2.293  -2.040  1.00  0.00    -0.288 OA
HETATM   11  C7  UNL     1      -2.807  -1.827  -0.257  1.00  0.00     0.090 A 
HETATM   12  C8  UNL     1      -1.756  -1.126   0.341  1.00  0.00     0.128 A 
ENDROOT
BRANCH   1  13
HETATM   13  N4  UNL     1       2.305   0.716   0.340  1.00  0.00    -0.258 N 
HETATM   14  C1  UNL     1       3.426   0.233  -0.076  1.00  0.00     0.222 C 
HETATM   15  N2  UNL     1       3.505  -0.882  -0.946  1.00  0.00    -0.279 N 
HETATM   16  N3  UNL     1       4.612   0.865   0.368  1.00  0.00    -0.061 NA
ATOM     17  H2  UNL     1       3.433  -0.704  -1.948  1.00  0.00     0.189 HD
ATOM     18  H4  UNL     1       2.275   1.521   0.966  1.00  0.00     0.190 HD
BRANCH  15  19
HETATM   19  N1  UNL     1       3.673  -2.202  -0.538  1.00  0.00    -0.343 N 
ATOM     20  H12 UNL     1       3.743  -2.361   0.467  1.00  0.00     0.176 HD
ATOM     21  H11 UNL     1       3.730  -3.005  -1.164  1.00  0.00     0.176 HD
ENDBRANCH  15  19
ENDBRANCH   1  13
BRANCH   4  22
HETATM   22  N7  UNL     1      -1.086   2.780   0.443  1.00  0.00    -0.263 N 
ATOM     23  H7  UNL     1      -1.817   2.574  -0.238  1.00  0.00     0.190 HD
BRANCH  22  24
HETATM   24  C3  UNL     1      -0.951   4.104   0.949  1.00  0.00     0.369 C 
HETATM   25  O1  UNL     1      -0.066   4.402   1.792  1.00  0.00    -0.282 OA
ENDBRANCH  22  24
ENDBRANCH   4  22
BRANCH   7  26
HETATM   26  O2  UNL     1      -0.848   0.955  -2.412  1.00  0.00    -0.345 OA
ATOM     27  H2  UNL     1      -1.130   1.099  -3.308  1.00  0.00     0.219 HD
ENDBRANCH   7  26
BRANCH  12  28
HETATM   28  C9  UNL     1      -1.402  -1.430   1.710  1.00  0.00     0.282 C 
HETATM   29  N9  UNL     1      -2.135  -2.397   2.434  1.00  0.00    -0.056 NA
HETATM   30  O4  UNL     1      -0.454  -0.850   2.274  1.00  0.00    -0.269 OA
ENDBRANCH  12  28
TORSDOF 6
