REMARK  7 active torsions:
REMARK  status: ('A' for Active; 'I' for Inactive)
REMARK       I    between atoms: N1_2  and  C2_4 
REMARK       I    between atoms: C2_4  and  N2_6 
REMARK    1  A    between atoms: N2_6  and  N3_8 
REMARK    2  A    between atoms: C3_10  and  N4_11 
REMARK    3  A    between atoms: C3_10  and  C5_15 
REMARK    4  A    between atoms: N4_11  and  O2_13 
REMARK       I    between atoms: C5_15  and  N5_17 
REMARK    5  A    between atoms: N5_17  and  N6_19 
REMARK       I    between atoms: N6_19  and  C6_21 
REMARK    6  A    between atoms: C6_21  and  C7_23 
REMARK       I    between atoms: C7_23  and  N7_25 
REMARK    7  A    between atoms: N7_25  and  O6_27 
ROOT
HETATM    1  N3  UNL     1      -2.117   0.635  -0.399  1.00  0.00    -0.276 N 
ATOM      2  H3  UNL     1      -1.943   1.529   0.060  1.00  0.00     0.189 HD
HETATM    3  C3  UNL     1      -1.136  -0.166  -0.633  1.00  0.00     0.211 C 
ENDROOT
BRANCH   3   4
HETATM    4  N4  UNL     1      -1.372  -1.397  -1.260  1.00  0.00    -0.245 N 
ATOM      5  H4  UNL     1      -0.897  -1.614  -2.136  1.00  0.00     0.196 HD
BRANCH   4   6
HETATM    6  O2  UNL     1      -2.226  -2.307  -0.716  1.00  0.00    -0.283 OA
HETATM    7  C4  UNL     1      -1.707  -2.839   0.455  1.00  0.00     0.237 C 
ENDBRANCH   4   6
ENDBRANCH   3   4
BRANCH   3   8
HETATM    8  C5  UNL     1       0.217   0.289  -0.224  1.00  0.00     0.307 C 
HETATM    9  O3  UNL     1       0.318   1.405   0.314  1.00  0.00    -0.262 OA
HETATM   10  N5  UNL     1       1.325  -0.541  -0.449  1.00  0.00    -0.260 N 
ATOM     11  H5  UNL     1       1.107  -1.429  -0.900  1.00  0.00     0.190 HD
BRANCH  10  12
HETATM   12  N6  UNL     1       2.617  -0.361  -0.171  1.00  0.00    -0.259 N 
HETATM   13  C6  UNL     1       3.251   0.597   0.618  1.00  0.00     0.329 C 
HETATM   14  O4  UNL     1       2.729   1.529   1.263  1.00  0.00    -0.261 OA
ATOM     15  H6  UNL     1       3.245  -1.036  -0.608  1.00  0.00     0.190 HD
BRANCH  13  16
HETATM   16  C7  UNL     1       4.728   0.528   0.723  1.00  0.00     0.334 C 
HETATM   17  O5  UNL     1       5.320  -0.391   0.144  1.00  0.00    -0.260 OA
HETATM   18  N7  UNL     1       5.398   1.512   1.474  1.00  0.00    -0.227 N 
ATOM     19  H7  UNL     1       4.870   2.253   1.935  1.00  0.00     0.198 HD
BRANCH  18  20
HETATM   20  O6  UNL     1       6.735   1.469   1.580  1.00  0.00    -0.282 OA
HETATM   21  C8  UNL     1       7.296   1.379   0.323  1.00  0.00     0.237 C 
ENDBRANCH  18  20
ENDBRANCH  13  16
ENDBRANCH  10  12
ENDBRANCH   3   8
BRANCH   1  22
HETATM   22  N2  UNL     1      -3.419   0.286  -0.770  1.00  0.00    -0.250 N 
HETATM   23  C2  UNL     1      -4.597   0.748  -0.152  1.00  0.00     0.334 C 
HETATM   24  N1  UNL     1      -5.878   0.323  -0.610  1.00  0.00    -0.346 N 
HETATM   25  O1  UNL     1      -4.577   1.548   0.822  1.00  0.00    -0.246 OA
HETATM   26  C1  UNL     1      -7.128   0.732  -0.051  1.00  0.00     0.151 C 
ATOM     27  H1  UNL     1      -5.905  -0.324  -1.398  1.00  0.00     0.163 HD
ATOM     28  H2  UNL     1      -3.525  -0.357  -1.554  1.00  0.00     0.192 HD
ENDBRANCH   1  22
TORSDOF 7
