REMARK  4 active torsions:
REMARK  status: ('A' for Active; 'I' for Inactive)
REMARK    1  A    between atoms: N1_1  and  N2_4 
REMARK       I    between atoms: N2_4  and  C1_6 
REMARK       I    between atoms: C1_6  and  N3_8 
REMARK    2  A    between atoms: N3_8  and  C2_10 
REMARK    3  A    between atoms: C2_10  and  C3_11 
REMARK    4  A    between atoms: C3_11  and  N4_12 
ROOT
HETATM    1  C2  UNL     1       0.692  -0.470  -0.598  1.00  0.00     0.210 C 
HETATM    2  N6  UNL     1       1.713  -0.750  -1.632  1.00  0.00    -0.307 N 
ATOM      3  H6  UNL     1       2.327  -0.076  -2.088  1.00  0.00     0.167 HD
HETATM    4  C8  UNL     1       1.661  -2.153  -1.858  1.00  0.00     0.312 C 
HETATM    5  O4  UNL     1       1.963  -2.808  -2.881  1.00  0.00    -0.262 OA
HETATM    6  C9  UNL     1       1.161  -2.712  -0.596  1.00  0.00     0.312 C 
HETATM    7  O5  UNL     1       0.946  -3.910  -0.309  1.00  0.00    -0.262 OA
HETATM    8  N7  UNL     1       0.956  -1.608   0.276  1.00  0.00    -0.307 N 
ATOM      9  H7  UNL     1       0.987  -1.611   1.296  1.00  0.00     0.167 HD
ENDROOT
BRANCH   1  10
HETATM   10  N3  UNL     1       1.075   0.768  -0.023  1.00  0.00    -0.296 N 
HETATM   11  C1  UNL     1       2.344   0.944   0.646  1.00  0.00     0.337 C 
HETATM   12  N2  UNL     1       2.730   2.176   1.220  1.00  0.00    -0.258 N 
HETATM   13  O1  UNL     1       3.091  -0.059   0.692  1.00  0.00    -0.245 OA
ATOM     14  H2  UNL     1       2.075   2.955   1.148  1.00  0.00     0.191 HD
ATOM     15  H3  UNL     1       0.435   1.560  -0.083  1.00  0.00     0.168 HD
BRANCH  12  16
HETATM   16  N1  UNL     1       3.919   2.406   1.868  1.00  0.00    -0.341 N 
ATOM     17  H12 UNL     1       4.561   1.616   1.931  1.00  0.00     0.177 HD
ATOM     18  H11 UNL     1       4.198   3.295   2.282  1.00  0.00     0.177 HD
ENDBRANCH  12  16
ENDBRANCH   1  10
BRANCH   1  19
HETATM   19  C3  UNL     1      -0.611  -0.506  -1.246  1.00  0.00     0.211 C 
BRANCH  19  20
HETATM   20  N4  UNL     1      -1.798  -0.222  -0.530  1.00  0.00    -0.304 N 
HETATM   21  C4  UNL     1      -2.415  -1.136   0.266  1.00  0.00     0.101 A 
HETATM   22  C5  UNL     1      -3.530  -0.827   0.971  1.00  0.00     0.092 A 
HETATM   23  C6  UNL     1      -4.095   0.431   0.916  1.00  0.00     0.250 A 
HETATM   24  O2  UNL     1      -5.131   0.700   1.579  1.00  0.00    -0.268 OA
HETATM   25  N5  UNL     1      -3.471   1.313   0.127  1.00  0.00    -0.275 N 
HETATM   26  C7  UNL     1      -2.347   0.996  -0.582  1.00  0.00     0.329 A 
ATOM     27  H5  UNL     1      -3.849   2.258   0.052  1.00  0.00     0.173 HD
HETATM   28  O3  UNL     1      -1.903   1.953  -1.276  1.00  0.00    -0.246 OA
ENDBRANCH  19  20
ENDBRANCH   1  19
TORSDOF 4
