REMARK  8 active torsions:
REMARK  status: ('A' for Active; 'I' for Inactive)
REMARK    1  A    between atoms: C2_2  and  C3_4 
REMARK    2  A    between atoms: C3_4  and  C4_5 
REMARK    3  A    between atoms: C4_5  and  C5_6 
REMARK    4  A    between atoms: C5_6  and  O1_7 
REMARK    5  A    between atoms: O1_7  and  N2_8 
REMARK    6  A    between atoms: C6_10  and  C7_11 
REMARK    7  A    between atoms: C6_10  and  C14_18 
REMARK    8  A    between atoms: C7_11  and  C8_12 
ROOT
HETATM    1  N2  UNL     1      -0.513  -0.440  -0.377  1.00  0.00    -0.270 N 
ATOM      2  H2  UNL     1      -1.043   0.410  -0.186  1.00  0.00     0.194 HD
HETATM    3  C6  UNL     1      -1.225  -1.468  -0.340  1.00  0.00     0.049 C 
ENDROOT
BRANCH   3   4
HETATM    4  C7  UNL     1      -2.674  -1.420  -0.048  1.00  0.00     0.065 C 
BRANCH   4   5
HETATM    5  C8  UNL     1      -3.222  -0.077   0.203  1.00  0.00    -0.009 C 
HETATM    6  C9  UNL     1      -2.646   0.682   1.353  1.00  0.00     0.005 C 
HETATM    7  C10 UNL     1      -3.724   1.689   1.788  1.00  0.00     0.000 C 
HETATM    8  C11 UNL     1      -3.956   2.625   0.622  1.00  0.00     0.000 C 
HETATM    9  C12 UNL     1      -4.259   1.926  -0.661  1.00  0.00     0.000 C 
HETATM   10  C13 UNL     1      -3.220   0.845  -0.997  1.00  0.00     0.005 C 
ENDBRANCH   4   5
ENDBRANCH   3   4
BRANCH   3  11
HETATM   11  C14 UNL     1      -0.659  -2.798  -0.590  1.00  0.00     0.029 A 
HETATM   12  C15 UNL     1       0.616  -3.184  -0.884  1.00  0.00     0.021 A 
HETATM   13  C16 UNL     1       0.855  -4.491  -1.066  1.00  0.00     0.008 A 
HETATM   14  C17 UNL     1      -0.197  -5.353  -0.945  1.00  0.00     0.050 A 
HETATM   15  S1  UNL     1      -1.495  -4.318  -0.580  1.00  0.00    -0.100 SA
ENDBRANCH   3  11
BRANCH   1  16
HETATM   16  O1  UNL     1       0.771  -0.198  -0.607  1.00  0.00    -0.280 OA
BRANCH  16  17
HETATM   17  C5  UNL     1       1.670   0.454   0.270  1.00  0.00     0.201 C 
BRANCH  17  18
HETATM   18  C4  UNL     1       3.050   0.543  -0.346  1.00  0.00     0.034 C 
BRANCH  18  19
HETATM   19  C3  UNL     1       3.984   1.235   0.598  1.00  0.00     0.055 C 
BRANCH  19  20
HETATM   20  C2  UNL     1       5.344   1.326  -0.002  1.00  0.00     0.015 C 
HETATM   21  C1  UNL     1       6.368   0.761   0.610  1.00  0.00     0.035 C 
HETATM   22  N1  UNL     1       5.577   2.009  -1.224  1.00  0.00    -0.108 NA
ENDBRANCH  19  20
ENDBRANCH  18  19
ENDBRANCH  17  18
ENDBRANCH  16  17
ENDBRANCH   1  16
TORSDOF 8
