REMARK  8 active torsions:
REMARK  status: ('A' for Active; 'I' for Inactive)
REMARK    1  A    between atoms: C5_5  and  C6_6 
REMARK    2  A    between atoms: C6_6  and  C7_7 
REMARK    3  A    between atoms: C7_7  and  C8_8 
REMARK    4  A    between atoms: C8_8  and  C9_9 
REMARK    5  A    between atoms: C9_9  and  C10_10 
REMARK    6  A    between atoms: C10_10  and  O1_11 
REMARK    7  A    between atoms: O1_11  and  C11_12 
REMARK    8  A    between atoms: C11_12  and  C12_13 
ROOT
HETATM    1  C1  UNL     1      -4.618   0.329   1.347  1.00  0.00     0.019 C 
HETATM    2  C2  UNL     1      -3.488  -0.214   0.468  1.00  0.00    -0.028 C 
HETATM    3  C3  UNL     1      -3.742  -1.726   0.400  1.00  0.00     0.019 C 
HETATM    4  C4  UNL     1      -2.221   0.068   1.198  1.00  0.00    -0.004 C 
HETATM    5  C5  UNL     1      -1.034  -0.002   0.617  1.00  0.00    -0.024 C 
HETATM    6  S1  UNL     1      -1.070  -0.446  -1.100  1.00  0.00    -0.125 SA
HETATM    7  C13 UNL     1      -2.477   0.486  -1.767  1.00  0.00     0.006 C 
HETATM    8  C14 UNL     1      -2.757  -0.050  -3.173  1.00  0.00     0.027 C 
HETATM    9  C15 UNL     1      -2.083   1.951  -1.983  1.00  0.00     0.027 C 
HETATM   10  C16 UNL     1      -3.638   0.378  -0.869  1.00  0.00     0.033 C 
ENDROOT
BRANCH   5  11
HETATM   11  C6  UNL     1       0.208   0.272   1.330  1.00  0.00     0.045 C 
BRANCH  11  12
HETATM   12  C7  UNL     1       1.202  -0.820   1.425  1.00  0.00     0.005 C 
BRANCH  12  13
HETATM   13  C8  UNL     1       1.776  -1.360   0.181  1.00  0.00     0.002 C 
BRANCH  13  14
HETATM   14  C9  UNL     1       2.533  -0.370  -0.660  1.00  0.00     0.026 C 
BRANCH  14  15
HETATM   15  C10 UNL     1       3.714   0.231   0.078  1.00  0.00     0.168 C 
BRANCH  15  16
HETATM   16  O1  UNL     1       4.624  -0.694   0.475  1.00  0.00    -0.381 OA
BRANCH  16  17
HETATM   17  C11 UNL     1       5.725  -0.294   1.146  1.00  0.00     0.280 C 
BRANCH  17  18
HETATM   18  C12 UNL     1       6.663   0.603   0.504  1.00  0.00     0.197 C 
HETATM   19  O2  UNL     1       7.683   1.025   1.105  1.00  0.00    -0.646 OA
HETATM   20  O3  UNL     1       6.475   1.031  -0.795  1.00  0.00    -0.646 OA
ENDBRANCH  17  18
ENDBRANCH  16  17
ENDBRANCH  15  16
ENDBRANCH  14  15
ENDBRANCH  13  14
ENDBRANCH  12  13
ENDBRANCH  11  12
ENDBRANCH   5  11
TORSDOF 8
