REMARK  8 active torsions:
REMARK  status: ('A' for Active; 'I' for Inactive)
REMARK    1  A    between atoms: C2_2  and  N1_4 
REMARK    2  A    between atoms: N1_4  and  C4_6 
REMARK    3  A    between atoms: C7_9  and  O1_10 
REMARK    4  A    between atoms: C10_14  and  O2_15 
REMARK    5  A    between atoms: C20_26  and  O3_27 
REMARK    6  A    between atoms: C21_29  and  C22_30 
REMARK    7  A    between atoms: C22_30  and  C24_32 
REMARK    8  A    between atoms: C25_33  and  C26_34 
ROOT
HETATM    1  C4  UNL     1      -2.385  -0.281  -0.229  1.00  0.00     0.085 C 
HETATM    2  C5  UNL     1      -3.176   0.778   0.413  1.00  0.00     0.017 C 
HETATM    3  C6  UNL     1      -3.000   2.153  -0.202  1.00  0.00     0.038 C 
HETATM    4  C7  UNL     1      -3.706   3.009   0.831  1.00  0.00     0.119 C 
HETATM    5  C8  UNL     1      -3.270   2.402   2.143  1.00  0.00     0.039 C 
HETATM    6  C9  UNL     1      -2.994   0.943   1.899  1.00  0.00     0.023 C 
HETATM    7  C10 UNL     1      -1.711   0.448   2.452  1.00  0.00     0.123 C 
HETATM    8  C11 UNL     1      -0.472   0.893   1.741  1.00  0.00     0.037 C 
HETATM    9  C12 UNL     1      -0.111  -0.036   0.614  1.00  0.00    -0.001 C 
HETATM   10  C13 UNL     1      -0.957   0.092  -0.603  1.00  0.00     0.013 C 
HETATM   11  C14 UNL     1      -0.520  -1.053  -1.532  1.00  0.00     0.008 C 
HETATM   12  C15 UNL     1       0.885  -0.845  -1.907  1.00  0.00     0.010 C 
HETATM   13  C16 UNL     1       1.875  -0.844  -0.727  1.00  0.00    -0.033 C 
HETATM   14  C17 UNL     1       1.918  -2.245  -0.257  1.00  0.00     0.016 C 
HETATM   15  C18 UNL     1       1.359   0.010   0.408  1.00  0.00     0.001 C 
HETATM   16  C19 UNL     1       1.967   1.369   0.293  1.00  0.00     0.038 C 
HETATM   17  C20 UNL     1       2.774   1.281  -0.994  1.00  0.00     0.124 C 
HETATM   18  C21 UNL     1       3.075  -0.162  -1.200  1.00  0.00     0.030 C 
ENDROOT
BRANCH  18  19
HETATM   19  C22 UNL     1       4.437  -0.528  -0.712  1.00  0.00     0.011 C 
HETATM   20  C23 UNL     1       4.687  -2.033  -1.089  1.00  0.00     0.015 C 
BRANCH  19  21
HETATM   21  C24 UNL     1       4.734  -0.353   0.684  1.00  0.00    -0.015 C 
HETATM   22  C25 UNL     1       5.639   0.334   1.298  1.00  0.00     0.080 C 
BRANCH  22  23
HETATM   23  C26 UNL     1       6.690   1.172   0.778  1.00  0.00     0.198 C 
HETATM   24  O4  UNL     1       6.864   1.322  -0.443  1.00  0.00    -0.645 OA
HETATM   25  O5  UNL     1       7.582   1.871   1.599  1.00  0.00    -0.645 OA
ENDBRANCH  22  23
ENDBRANCH  19  21
ENDBRANCH  18  19
BRANCH  17  26
HETATM   26  O3  UNL     1       3.792   2.171  -1.100  1.00  0.00    -0.395 OA
ATOM     27  H3  UNL     1       4.296   2.116  -1.904  1.00  0.00     0.210 HD
ENDBRANCH  17  26
BRANCH   1  28
HETATM   28  N1  UNL     1      -3.000  -0.853  -1.379  1.00  0.00    -0.413 N 
ATOM     29  H1  UNL     1      -2.592  -0.756  -2.309  1.00  0.00     0.154 HD
BRANCH  28  30
HETATM   30  C2  UNL     1      -4.205  -1.563  -1.166  1.00  0.00     0.068 C 
HETATM   31  C1  UNL     1      -4.051  -2.808  -0.298  1.00  0.00     0.031 C 
HETATM   32  C3  UNL     1      -4.806  -2.043  -2.497  1.00  0.00     0.031 C 
ENDBRANCH  28  30
ENDBRANCH   1  28
BRANCH   7  33
HETATM   33  O2  UNL     1      -1.613   0.921   3.775  1.00  0.00    -0.395 OA
ATOM     34  H2  UNL     1      -0.791   0.604   4.129  1.00  0.00     0.210 HD
ENDBRANCH   7  33
BRANCH   4  35
HETATM   35  O1  UNL     1      -5.089   2.929   0.660  1.00  0.00    -0.396 OA
ATOM     36  H1  UNL     1      -5.531   3.465   1.307  1.00  0.00     0.210 HD
ENDBRANCH   4  35
TORSDOF 8
