REMARK  9 active torsions:
REMARK  status: ('A' for Active; 'I' for Inactive)
REMARK    1  A    between atoms: C2_2  and  C3_3 
REMARK    2  A    between atoms: C2_2  and  C11_18 
REMARK    3  A    between atoms: C3_3  and  N1_4 
REMARK    4  A    between atoms: N1_4  and  C4_7 
REMARK    5  A    between atoms: C4_7  and  C5_8 
REMARK    6  A    between atoms: C8_11  and  N2_12 
REMARK    7  A    between atoms: C15_22  and  C17_24 
REMARK    8  A    between atoms: C21_30  and  C22_31 
REMARK    9  A    between atoms: C23_32  and  C24_33 
ROOT
HETATM    1  C11 UNL     1      -0.822   0.208  -0.985  1.00  0.00     0.004 C 
HETATM    2  C12 UNL     1      -0.235  -1.106  -1.527  1.00  0.00     0.006 C 
HETATM    3  C13 UNL     1      -1.169  -2.201  -0.968  1.00  0.00     0.007 C 
HETATM    4  C14 UNL     1      -2.185  -1.448  -0.196  1.00  0.00     0.017 C 
HETATM    5  C15 UNL     1      -3.460  -2.109   0.102  1.00  0.00     0.050 C 
HETATM    6  C16 UNL     1      -3.822  -3.218  -0.875  1.00  0.00     0.027 C 
HETATM    7  C18 UNL     1      -4.618  -1.165   0.313  1.00  0.00     0.025 C 
HETATM    8  C19 UNL     1      -4.107   0.226   0.639  1.00  0.00     0.037 C 
HETATM    9  C20 UNL     1      -3.248   0.737  -0.455  1.00  0.00    -0.063 C 
HETATM   10  C21 UNL     1      -3.439   1.941  -0.915  1.00  0.00     0.068 C 
HETATM   11  C25 UNL     1      -2.241  -0.146  -0.976  1.00  0.00    -0.011 C 
HETATM   12  C26 UNL     1      -2.618  -0.409  -2.449  1.00  0.00     0.021 C 
ENDROOT
BRANCH   1  13
HETATM   13  C2  UNL     1      -0.091   0.595   0.216  1.00  0.00     0.012 C 
HETATM   14  C1  UNL     1      -0.612   1.889   0.884  1.00  0.00     0.012 C 
BRANCH  13  15
HETATM   15  C3  UNL     1       1.352   0.963  -0.223  1.00  0.00     0.237 C 
BRANCH  15  16
HETATM   16  N1  UNL     1       2.127   1.338   0.949  1.00  0.00    -0.074 N 
ATOM     17  H12 UNL     1       1.643   2.053   1.492  1.00  0.00     0.277 HD
ATOM     18  H11 UNL     1       2.136   0.584   1.636  1.00  0.00     0.277 HD
BRANCH  16  19
HETATM   19  C4  UNL     1       3.448   1.751   0.632  1.00  0.00     0.237 C 
BRANCH  19  20
HETATM   20  C5  UNL     1       4.357   0.666   0.109  1.00  0.00     0.011 C 
HETATM   21  C6  UNL     1       4.568  -0.467   1.053  1.00  0.00     0.008 C 
HETATM   22  C7  UNL     1       5.967  -0.593   1.586  1.00  0.00     0.033 C 
HETATM   23  C8  UNL     1       7.042  -0.555   0.550  1.00  0.00     0.183 C 
HETATM   24  C9  UNL     1       6.724   0.353  -0.611  1.00  0.00     0.033 C 
HETATM   25  C10 UNL     1       5.656   1.349  -0.292  1.00  0.00     0.008 C 
BRANCH  23  26
HETATM   26  N2  UNL     1       7.393  -1.887   0.075  1.00  0.00    -0.075 N 
ATOM     27  H23 UNL     1       7.648  -2.500   0.849  1.00  0.00     0.274 HD
ATOM     28  H22 UNL     1       6.571  -2.387  -0.264  1.00  0.00     0.274 HD
ATOM     29  H21 UNL     1       8.127  -1.861  -0.633  1.00  0.00     0.274 HD
ENDBRANCH  23  26
ENDBRANCH  19  20
ENDBRANCH  16  19
ENDBRANCH  15  16
ENDBRANCH  13  15
ENDBRANCH   1  13
BRANCH   5  30
HETATM   30  C17 UNL     1      -3.335  -2.855   1.418  1.00  0.00     0.181 C 
HETATM   31  O1  UNL     1      -2.249  -2.809   2.049  1.00  0.00    -0.647 OA
HETATM   32  O2  UNL     1      -4.393  -3.587   1.939  1.00  0.00    -0.647 OA
ENDBRANCH   5  30
BRANCH  10  33
HETATM   33  C22 UNL     1      -4.471   2.788  -0.381  1.00  0.00    -0.067 C 
HETATM   34  C23 UNL     1      -5.349   3.498   0.051  1.00  0.00     0.009 C 
BRANCH  34  35
HETATM   35  C24 UNL     1      -6.404   4.337   0.542  1.00  0.00     0.258 C 
HETATM   36  O3  UNL     1      -6.163   5.170   1.451  1.00  0.00    -0.637 OA
HETATM   37  O4  UNL     1      -7.702   4.275   0.057  1.00  0.00    -0.637 OA
ENDBRANCH  34  35
ENDBRANCH  10  33
TORSDOF 9
