REMARK  9 active torsions:
REMARK  status: ('A' for Active; 'I' for Inactive)
REMARK    1  A    between atoms: O1_2  and  C2_3 
REMARK    2  A    between atoms: C2_3  and  C3_5 
REMARK    3  A    between atoms: C3_5  and  C4_6 
REMARK    4  A    between atoms: C4_6  and  C5_7 
REMARK    5  A    between atoms: C5_7  and  N2_11 
REMARK    6  A    between atoms: N2_11  and  C6_13 
REMARK    7  A    between atoms: C18_25  and  C19_26 
REMARK    8  A    between atoms: C19_26  and  O3_29 
REMARK    9  A    between atoms: C24_33  and  O4_34 
ROOT
HETATM    1  C6  UNL     1       2.500   1.138  -0.088  1.00  0.00     0.093 C 
HETATM    2  C7  UNL     1       2.709   1.586   1.343  1.00  0.00     0.026 C 
HETATM    3  C8  UNL     1       1.391   1.329   2.089  1.00  0.00     0.008 C 
HETATM    4  C9  UNL     1       0.477   0.998   0.965  1.00  0.00     0.003 C 
HETATM    5  C10 UNL     1      -0.844   0.438   1.285  1.00  0.00    -0.005 C 
HETATM    6  C11 UNL     1      -1.873   1.532   1.155  1.00  0.00     0.006 C 
HETATM    7  C12 UNL     1      -3.007   1.189   0.224  1.00  0.00     0.010 C 
HETATM    8  C13 UNL     1      -3.607  -0.090   0.703  1.00  0.00    -0.034 C 
HETATM    9  C14 UNL     1      -4.064   0.144   2.150  1.00  0.00     0.016 C 
HETATM   10  C15 UNL     1      -2.613  -1.236   0.632  1.00  0.00    -0.001 C 
HETATM   11  C16 UNL     1      -3.063  -2.113  -0.495  1.00  0.00     0.006 C 
HETATM   12  C17 UNL     1      -4.161  -1.321  -1.218  1.00  0.00     0.009 C 
HETATM   13  C18 UNL     1      -4.766  -0.592  -0.056  1.00  0.00     0.028 C 
HETATM   14  C22 UNL     1      -1.175  -0.825   0.555  1.00  0.00    -0.003 C 
HETATM   15  C23 UNL     1      -0.623  -0.925  -0.844  1.00  0.00     0.038 C 
HETATM   16  C24 UNL     1       0.603  -0.146  -1.125  1.00  0.00     0.129 C 
HETATM   17  C25 UNL     1       1.366   0.121   0.109  1.00  0.00     0.006 C 
HETATM   18  C26 UNL     1       1.954  -1.035   0.803  1.00  0.00     0.020 C 
ENDROOT
BRANCH   1  19
HETATM   19  N2  UNL     1       3.646   0.462  -0.641  1.00  0.00    -0.375 N 
ATOM     20  H2  UNL     1       3.567  -0.502  -0.965  1.00  0.00     0.161 HD
BRANCH  19  21
HETATM   21  C5  UNL     1       4.892   1.152  -0.731  1.00  0.00     0.071 C 
HETATM   22  N1  UNL     1       5.158   2.025   0.171  1.00  0.00    -0.389 N 
ATOM     23  H12 UNL     1       6.049   2.518   0.107  1.00  0.00     0.157 HD
ATOM     24  H11 UNL     1       4.487   2.206   0.918  1.00  0.00     0.157 HD
BRANCH  21  25
HETATM   25  C4  UNL     1       5.864   0.890  -1.813  1.00  0.00     0.085 C 
BRANCH  25  26
HETATM   26  C3  UNL     1       6.324  -0.556  -1.803  1.00  0.00     0.118 C 
BRANCH  26  27
HETATM   27  C2  UNL     1       6.976  -0.893  -0.513  1.00  0.00     0.258 C 
HETATM   28  O2  UNL     1       6.243  -1.013   0.500  1.00  0.00    -0.265 OA
BRANCH  27  29
HETATM   29  O1  UNL     1       8.337  -1.079  -0.373  1.00  0.00    -0.326 OA
HETATM   30  C1  UNL     1       8.901  -1.396   0.873  1.00  0.00     0.213 C 
ENDBRANCH  27  29
ENDBRANCH  26  27
ENDBRANCH  25  26
ENDBRANCH  21  25
ENDBRANCH  19  21
ENDBRANCH   1  19
BRANCH  16  31
HETATM   31  O4  UNL     1       1.405  -0.791  -2.095  1.00  0.00    -0.395 OA
ATOM     32  H4  UNL     1       2.192  -0.291  -2.275  1.00  0.00     0.210 HD
ENDBRANCH  16  31
BRANCH  13  33
HETATM   33  C19 UNL     1      -5.764   0.380  -0.565  1.00  0.00     0.055 C 
HETATM   34  C20 UNL     1      -6.827  -0.457  -1.306  1.00  0.00     0.045 C 
HETATM   35  C21 UNL     1      -6.567   1.064   0.546  1.00  0.00     0.045 C 
BRANCH  33  36
HETATM   36  O3  UNL     1      -5.294   1.275  -1.497  1.00  0.00    -0.390 OA
ATOM     37  H3  UNL     1      -5.933   1.898  -1.823  1.00  0.00     0.210 HD
ENDBRANCH  33  36
ENDBRANCH  13  33
TORSDOF 9
