REMARK  0 active torsions:
REMARK  status: ('A' for Active; 'I' for Inactive)
ROOT
HETATM    1  C1  UNL     1       1.580  -0.633   0.413  1.00  0.00     0.015 C 
HETATM    2  C2  UNL     1       0.357   0.188  -0.019  1.00  0.00    -0.040 A 
HETATM    3  C3  UNL     1       0.718   1.501  -0.627  1.00  0.00     0.015 C 
HETATM    4  C4  UNL     1      -0.900   0.001   0.761  1.00  0.00    -0.001 A 
HETATM    5  C5  UNL     1      -2.191  -0.365   0.044  1.00  0.00     0.011 A 
HETATM    6  C6  UNL     1      -0.815  -0.607  -0.564  1.00  0.00    -0.001 A 
ENDROOT
TORSDOF 0
