REMARK  0 active torsions:
REMARK  status: ('A' for Active; 'I' for Inactive)
ROOT
HETATM    1  C1  UNL     1       1.752   0.060   0.289  1.00  0.00     0.195 C 
HETATM    2  N1  UNL     1       0.288   0.144   0.003  1.00  0.00    -0.234 N 
HETATM    3  N2  UNL     1      -0.432   1.069  -0.371  1.00  0.00    -0.240 N 
ATOM      4  H2  UNL     1      -0.245   2.046  -0.595  1.00  0.00     0.189 HD
HETATM    5  C2  UNL     1      -1.602   0.297  -0.378  1.00  0.00     0.438 A 
HETATM    6  F1  UNL     1      -2.456   0.710   0.639  1.00  0.00    -0.162 F 
HETATM    7  F2  UNL     1      -2.241   0.125  -1.593  1.00  0.00    -0.162 F 
HETATM    8  N3  UNL     1      -0.758  -0.744   0.049  1.00  0.00    -0.024 NA
ENDROOT
TORSDOF 0
