REMARK  0 active torsions:
REMARK  status: ('A' for Active; 'I' for Inactive)
ROOT
HETATM    1  F1  UNL     1      -0.339   1.932   0.413  1.00  0.00    -0.179 F 
HETATM    2  C1  UNL     1      -0.111   0.619   0.083  1.00  0.00     0.274 A 
HETATM    3  N1  UNL     1      -0.853  -0.327  -0.553  1.00  0.00    -0.228 N 
ATOM      4  H1  UNL     1      -1.782  -0.357  -0.972  1.00  0.00     0.197 HD
HETATM    5  O1  UNL     1       0.115  -1.173  -0.403  1.00  0.00    -0.200 OA
HETATM    6  C2  UNL     1       0.874  -0.315   0.213  1.00  0.00     0.307 A 
HETATM    7  F2  UNL     1       2.101  -0.346   0.744  1.00  0.00    -0.171 F 
ENDROOT
TORSDOF 0
