REMARK  9 active torsions:
REMARK  status: ('A' for Active; 'I' for Inactive)
REMARK    1  A    between atoms: C3_3  and  C4_4 
REMARK    2  A    between atoms: C5_6  and  N1_7 
REMARK    3  A    between atoms: N1_7  and  C6_9 
REMARK    4  A    between atoms: C6_9  and  N2_11 
REMARK    5  A    between atoms: N2_11  and  N3_13 
REMARK    6  A    between atoms: C7_15  and  C8_16 
REMARK    7  A    between atoms: C11_19  and  O1_20 
REMARK    8  A    between atoms: C13_22  and  O2_23 
REMARK    9  A    between atoms: O2_23  and  C14_24 
ROOT
HETATM    1  C1  UNL     1       7.916   4.508   1.481  1.00  0.00     0.112 C 
HETATM    2  C2  UNL     1       6.793   3.556   1.540  1.00  0.00    -0.105 C 
HETATM    3  C3  UNL     1       5.891   2.765   1.605  1.00  0.00    -0.058 C 
ENDROOT
BRANCH   3   4
HETATM    4  C4  UNL     1       4.811   1.781   1.659  1.00  0.00     0.084 A 
HETATM    5  S1  UNL     1       3.142   2.020   1.886  1.00  0.00    -0.043 SA
HETATM    6  C5  UNL     1       2.638   0.399   1.810  1.00  0.00     0.152 A 
HETATM    7  N4  UNL     1       3.781  -0.265   1.612  1.00  0.00    -0.339 N 
HETATM    8  C17 UNL     1       4.892   0.419   1.534  1.00  0.00     0.033 A 
ATOM      9  H4  UNL     1       3.786  -1.281   1.524  1.00  0.00     0.168 HD
HETATM   10  C18 UNL     1       6.250  -0.237   1.332  1.00  0.00     0.070 C 
BRANCH   6  11
HETATM   11  N1  UNL     1       1.427  -0.110   1.912  1.00  0.00    -0.312 N 
ATOM     12  H1  UNL     1       0.636   0.518   2.058  1.00  0.00     0.170 HD
BRANCH  11  13
HETATM   13  C6  UNL     1       1.193  -1.499   1.825  1.00  0.00     0.192 C 
HETATM   14  S2  UNL     1       1.603  -2.479   3.083  1.00  0.00    -0.039 SA
BRANCH  13  15
HETATM   15  N2  UNL     1       0.624  -2.031   0.657  1.00  0.00    -0.276 N 
ATOM     16  H2  UNL     1       0.479  -3.041   0.665  1.00  0.00     0.189 HD
BRANCH  15  17
HETATM   17  N3  UNL     1       0.259  -1.434  -0.422  1.00  0.00    -0.309 N 
HETATM   18  C7  UNL     1      -0.598  -0.912  -1.083  1.00  0.00     0.118 C 
ATOM     19  H3  UNL     1       1.104  -1.375  -0.990  1.00  0.00     0.186 HD
BRANCH  18  20
HETATM   20  C8  UNL     1      -2.003  -0.728  -0.714  1.00  0.00    -0.017 A 
HETATM   21  C9  UNL     1      -2.479  -0.879   0.554  1.00  0.00     0.016 A 
HETATM   22  C10 UNL     1      -3.845  -0.767   0.854  1.00  0.00     0.040 A 
HETATM   23  C11 UNL     1      -4.731  -0.498  -0.165  1.00  0.00     0.101 A 
HETATM   24  C13 UNL     1      -4.247  -0.336  -1.478  1.00  0.00     0.102 A 
HETATM   25  C16 UNL     1      -2.922  -0.452  -1.718  1.00  0.00     0.052 A 
BRANCH  23  26
HETATM   26  O1  UNL     1      -6.053  -0.383   0.011  1.00  0.00    -0.353 OA
HETATM   27  C12 UNL     1      -6.727  -0.438   1.236  1.00  0.00     0.210 C 
ENDBRANCH  23  26
BRANCH  24  28
HETATM   28  O2  UNL     1      -5.142  -0.066  -2.491  1.00  0.00    -0.349 OA
BRANCH  28  29
HETATM   29  C14 UNL     1      -4.829   0.041  -3.849  1.00  0.00     0.171 C 
HETATM   30  C15 UNL     1      -4.291  -1.283  -4.377  1.00  0.00     0.034 C 
ENDBRANCH  28  29
ENDBRANCH  24  28
ENDBRANCH  18  20
ENDBRANCH  15  17
ENDBRANCH  13  15
ENDBRANCH  11  13
ENDBRANCH   6  11
ENDBRANCH   3   4
TORSDOF 9
