REMARK  5 active torsions:
REMARK  status: ('A' for Active; 'I' for Inactive)
REMARK    1  A    between atoms: C3_3  and  N1_4 
REMARK    2  A    between atoms: C9_13  and  O1_14 
REMARK    3  A    between atoms: O1_14  and  C10_15 
REMARK    4  A    between atoms: N3_23  and  C18_24 
REMARK    5  A    between atoms: C18_24  and  C19_25 
ROOT
HETATM    1  C10 UNL     1      -0.147  -1.250   0.586  1.00  0.00     0.071 C 
HETATM    2  C11 UNL     1      -0.708  -0.417   1.669  1.00  0.00     0.048 C 
HETATM    3  C12 UNL     1      -2.121  -0.718   2.062  1.00  0.00     0.028 C 
HETATM    4  C13 UNL     1      -2.539  -2.154   1.840  1.00  0.00     0.015 C 
HETATM    5  C14 UNL     1      -1.976  -2.704   0.586  1.00  0.00    -0.002 C 
HETATM    6  C15 UNL     1      -0.451  -2.737   0.765  1.00  0.00     0.044 C 
HETATM    7  C16 UNL     1      -2.120  -1.799  -0.578  1.00  0.00     0.032 C 
HETATM    8  C17 UNL     1      -3.406  -1.043  -0.685  1.00  0.00     0.073 C 
HETATM    9  N3  UNL     1      -3.866  -0.302   0.367  1.00  0.00    -0.353 N 
HETATM   10  C23 UNL     1      -3.042   0.246   1.352  1.00  0.00     0.072 C 
HETATM   11  C24 UNL     1      -0.900  -0.945  -0.688  1.00  0.00     0.049 C 
ENDROOT
BRANCH   1  12
HETATM   12  O1  UNL     1       1.223  -1.124   0.450  1.00  0.00    -0.324 OA
BRANCH  12  13
HETATM   13  C9  UNL     1       1.980  -0.035   0.167  1.00  0.00     0.144 A 
HETATM   14  C8  UNL     1       3.347  -0.163   0.087  1.00  0.00     0.085 A 
HETATM   15  C3  UNL     1       4.170   0.902  -0.196  1.00  0.00     0.035 A 
HETATM   16  C2  UNL     1       3.526   2.113  -0.395  1.00  0.00     0.046 A 
HETATM   17  C1  UNL     1       2.149   2.224  -0.311  1.00  0.00     0.092 A 
HETATM   18  N4  UNL     1       1.423   1.158  -0.035  1.00  0.00    -0.347 N 
ATOM     19  H4  UNL     1       0.409   1.250   0.025  1.00  0.00     0.167 HD
BRANCH  15  20
HETATM   20  N1  UNL     1       5.581   0.791  -0.284  1.00  0.00    -0.378 N 
HETATM   21  C4  UNL     1       6.332  -0.426  -0.128  1.00  0.00     0.150 C 
HETATM   22  C5  UNL     1       7.484  -0.450  -1.127  1.00  0.00     0.252 C 
HETATM   23  N2  UNL     1       8.352   0.679  -1.025  1.00  0.00    -0.072 N 
HETATM   24  C6  UNL     1       7.782   1.757  -0.234  1.00  0.00     0.252 C 
ATOM     25  H22 UNL     1       9.266   0.406  -0.665  1.00  0.00     0.277 HD
ATOM     26  H21 UNL     1       8.630   1.011  -1.949  1.00  0.00     0.277 HD
HETATM   27  C7  UNL     1       6.341   2.010  -0.552  1.00  0.00     0.150 C 
ENDBRANCH  15  20
ENDBRANCH  12  13
ENDBRANCH   1  12
BRANCH   9  28
HETATM   28  C18 UNL     1      -5.249  -0.204   0.552  1.00  0.00     0.072 C 
BRANCH  28  29
HETATM   29  C19 UNL     1      -6.106   0.528  -0.375  1.00  0.00     0.024 C 
HETATM   30  C20 UNL     1      -6.248   0.203  -1.798  1.00  0.00     0.010 C 
HETATM   31  C21 UNL     1      -6.267   1.692  -2.169  1.00  0.00     0.001 C 
HETATM   32  C22 UNL     1      -5.704   1.930  -0.761  1.00  0.00     0.010 C 
ENDBRANCH  28  29
ENDBRANCH   9  28
TORSDOF 5
