REMARK  7 active torsions:
REMARK  status: ('A' for Active; 'I' for Inactive)
REMARK    1  A    between atoms: N2_5  and  C3_6 
REMARK    2  A    between atoms: C10_14  and  C11_15 
REMARK    3  A    between atoms: C11_15  and  C12_16 
REMARK    4  A    between atoms: C14_18  and  O2_19 
REMARK    5  A    between atoms: C16_21  and  O3_22 
REMARK    6  A    between atoms: C17_24  and  O4_25 
REMARK    7  A    between atoms: O4_25  and  C18_26 
ROOT
HETATM    1  C12 UNL     1      -0.437  -1.996   0.273  1.00  0.00    -0.030 A 
HETATM    2  C13 UNL     1      -0.610  -2.994  -0.641  1.00  0.00     0.051 A 
HETATM    3  C14 UNL     1      -1.602  -3.000  -1.593  1.00  0.00     0.104 A 
HETATM    4  C16 UNL     1      -2.470  -1.930  -1.619  1.00  0.00     0.133 A 
HETATM    5  C17 UNL     1      -2.346  -0.870  -0.707  1.00  0.00     0.106 A 
HETATM    6  C23 UNL     1      -1.331  -0.925   0.221  1.00  0.00     0.051 A 
ENDROOT
BRANCH   1   7
HETATM    7  C11 UNL     1       0.624  -2.017   1.269  1.00  0.00     0.031 C 
BRANCH   7   8
HETATM    8  C10 UNL     1       1.705  -1.307   1.215  1.00  0.00     0.062 A 
HETATM    9  C2  UNL     1       2.731  -1.297   2.135  1.00  0.00     0.055 A 
HETATM   10  C1  UNL     1       2.835  -1.994   3.247  1.00  0.00     0.045 C 
HETATM   11  N1  UNL     1       3.676  -0.422   1.717  1.00  0.00    -0.291 N 
HETATM   12  N2  UNL     1       3.287   0.117   0.578  1.00  0.00    -0.220 N 
ATOM     13  H1  UNL     1       4.548  -0.214   2.204  1.00  0.00     0.187 HD
HETATM   14  C9  UNL     1       2.072  -0.410   0.241  1.00  0.00     0.279 A 
HETATM   15  O1  UNL     1       1.473  -0.069  -0.801  1.00  0.00    -0.265 OA
BRANCH  12  16
HETATM   16  C3  UNL     1       4.027   1.095  -0.176  1.00  0.00     0.060 A 
HETATM   17  C4  UNL     1       4.695   2.127   0.450  1.00  0.00     0.031 A 
HETATM   18  C5  UNL     1       5.416   3.081  -0.274  1.00  0.00     0.002 A 
HETATM   19  C6  UNL     1       5.469   2.999  -1.650  1.00  0.00     0.000 A 
HETATM   20  C7  UNL     1       4.811   1.978  -2.298  1.00  0.00     0.002 A 
HETATM   21  C8  UNL     1       4.101   1.043  -1.553  1.00  0.00     0.031 A 
ENDBRANCH  12  16
ENDBRANCH   7   8
ENDBRANCH   1   7
BRANCH   3  22
HETATM   22  O2  UNL     1      -1.738  -4.052  -2.512  1.00  0.00    -0.353 OA
HETATM   23  C15 UNL     1      -0.802  -5.108  -2.410  1.00  0.00     0.210 C 
ENDBRANCH   3  22
BRANCH   5  24
HETATM   24  O4  UNL     1      -3.248   0.153  -0.801  1.00  0.00    -0.343 OA
BRANCH  24  25
HETATM   25  C18 UNL     1      -3.326   1.292  -0.022  1.00  0.00     0.129 C 
HETATM   26  C19 UNL     1      -3.340   2.549  -0.882  1.00  0.00     0.032 C 
HETATM   27  C20 UNL     1      -3.918   3.584   0.058  1.00  0.00     0.002 C 
HETATM   28  C21 UNL     1      -4.950   2.837   0.864  1.00  0.00     0.002 C 
HETATM   29  C22 UNL     1      -4.728   1.364   0.585  1.00  0.00     0.032 C 
ENDBRANCH  24  25
ENDBRANCH   5  24
BRANCH   4  30
HETATM   30  O3  UNL     1      -3.467  -1.935  -2.576  1.00  0.00    -0.356 OA
ATOM     31  H3  UNL     1      -4.065  -1.197  -2.594  1.00  0.00     0.218 HD
ENDBRANCH   4  30
TORSDOF 7
