REMARK  8 active torsions:
REMARK  status: ('A' for Active; 'I' for Inactive)
REMARK    1  A    between atoms: O1_3  and  C3_4 
REMARK    2  A    between atoms: C3_4  and  C4_5 
REMARK    3  A    between atoms: C5_6  and  C6_7 
REMARK    4  A    between atoms: C6_7  and  C7_8 
REMARK    5  A    between atoms: C6_7  and  N3_22 
REMARK    6  A    between atoms: C7_8  and  N1_9 
REMARK    7  A    between atoms: N3_22  and  C16_25 
REMARK    8  A    between atoms: C16_25  and  C17_26 
ROOT
HETATM    1  C1  UNL     1      -3.514   6.335   0.039  1.00  0.00     0.044 C 
HETATM    2  C2  UNL     1      -3.089   5.197   0.097  1.00  0.00     0.043 C 
HETATM    3  O1  UNL     1      -2.634   3.915   0.167  1.00  0.00    -0.292 OA
ENDROOT
BRANCH   3   4
HETATM    4  C3  UNL     1      -3.075   3.037   1.197  1.00  0.00     0.281 C 
BRANCH   4   5
HETATM    5  C4  UNL     1      -2.453   1.736   1.060  1.00  0.00    -0.077 C 
HETATM    6  C5  UNL     1      -1.928   0.654   0.967  1.00  0.00    -0.069 C 
BRANCH   6   7
HETATM    7  C6  UNL     1      -1.323  -0.650   0.877  1.00  0.00     0.282 C 
BRANCH   7   8
HETATM    8  C7  UNL     1      -0.294  -0.807  -0.205  1.00  0.00     0.180 C 
BRANCH   8   9
HETATM    9  N1  UNL     1       0.829   0.072  -0.084  1.00  0.00    -0.289 N 
HETATM   10  C8  UNL     1       0.994   1.362  -0.653  1.00  0.00     0.324 C 
HETATM   11  O2  UNL     1       0.159   1.977  -1.402  1.00  0.00    -0.247 OA
HETATM   12  N2  UNL     1       2.264   1.832  -0.229  1.00  0.00    -0.327 N 
HETATM   13  C9  UNL     1       3.068   0.704   0.183  1.00  0.00     0.088 C 
ATOM     14  H2  UNL     1       2.561   2.808  -0.217  1.00  0.00     0.165 HD
HETATM   15  C10 UNL     1       3.734   0.174  -1.062  1.00  0.00     0.038 C 
HETATM   16  C14 UNL     1       4.017   1.081   1.268  1.00  0.00     0.038 C 
HETATM   17  C15 UNL     1       2.015  -0.222   0.681  1.00  0.00     0.112 C 
HETATM   18  C11 UNL     1       4.830  -0.800  -0.819  1.00  0.00     0.003 C 
HETATM   19  C12 UNL     1       5.667  -0.481   0.396  1.00  0.00     0.000 C 
HETATM   20  C13 UNL     1       5.465   0.938   0.868  1.00  0.00     0.003 C 
HETATM   21  S1  UNL     1       2.126  -1.339   1.835  1.00  0.00    -0.062 SA
ENDBRANCH   8   9
ENDBRANCH   7   8
BRANCH   7  22
HETATM   22  N3  UNL     1      -2.315  -1.717   0.782  1.00  0.00    -0.054 N 
ATOM     23  H32 UNL     1      -1.881  -2.638   0.849  1.00  0.00     0.279 HD
ATOM     24  H31 UNL     1      -2.901  -1.758   1.616  1.00  0.00     0.279 HD
BRANCH  22  25
HETATM   25  C16 UNL     1      -3.112  -1.592  -0.420  1.00  0.00     0.280 C 
BRANCH  25  26
HETATM   26  C17 UNL     1      -4.082  -2.747  -0.363  1.00  0.00     0.008 A 
HETATM   27  C18 UNL     1      -4.990  -3.123  -1.317  1.00  0.00     0.017 A 
HETATM   28  C19 UNL     1      -5.755  -4.185  -1.050  1.00  0.00     0.008 A 
HETATM   29  C20 UNL     1      -5.572  -4.812   0.151  1.00  0.00     0.050 A 
HETATM   30  S2  UNL     1      -4.331  -3.895   0.875  1.00  0.00    -0.105 SA
ENDBRANCH  25  26
ENDBRANCH  22  25
ENDBRANCH   7  22
ENDBRANCH   6   7
ENDBRANCH   4   5
ENDBRANCH   3   4
TORSDOF 8
