REMARK  5 active torsions:
REMARK  status: ('A' for Active; 'I' for Inactive)
REMARK    1  A    between atoms: N1_2  and  C2_5 
REMARK    2  A    between atoms: N2_8  and  C5_9 
REMARK    3  A    between atoms: C7_13  and  C8_14 
REMARK    4  A    between atoms: C13_19  and  C14_20 
REMARK    5  A    between atoms: C14_20  and  C15_21 
ROOT
HETATM    1  C5  UNL     1       0.719   0.192   0.101  1.00  0.00     0.109 A 
HETATM    2  N3  UNL     1       1.105   1.380  -0.508  1.00  0.00    -0.351 N 
ATOM      3  H3  UNL     1       1.825   1.348  -1.229  1.00  0.00     0.166 HD
HETATM    4  C6  UNL     1       0.572   2.563  -0.188  1.00  0.00     0.097 A 
HETATM    5  C7  UNL     1      -0.400   2.689   0.772  1.00  0.00    -0.038 A 
HETATM    6  C12 UNL     1      -0.814   1.548   1.398  1.00  0.00     0.020 A 
HETATM    7  C13 UNL     1      -0.248   0.304   1.053  1.00  0.00    -0.008 A 
ENDROOT
BRANCH   7   8
HETATM    8  C14 UNL     1      -0.890  -0.862   1.715  1.00  0.00     0.101 C 
BRANCH   8   9
HETATM    9  C15 UNL     1      -2.304  -1.100   1.316  1.00  0.00     0.037 A 
HETATM   10  N4  UNL     1      -3.264  -0.725   2.214  1.00  0.00    -0.301 N 
HETATM   11  N5  UNL     1      -4.546  -0.839   2.061  1.00  0.00    -0.266 N 
ATOM     12  H4  UNL     1      -2.940  -0.315   3.090  1.00  0.00     0.186 HD
HETATM   13  C16 UNL     1      -5.021  -1.362   0.943  1.00  0.00     0.266 A 
ATOM     14  H5  UNL     1      -5.182  -0.528   2.795  1.00  0.00     0.190 HD
HETATM   15  O1  UNL     1      -6.269  -1.478   0.779  1.00  0.00    -0.266 OA
HETATM   16  C17 UNL     1      -4.157  -1.773  -0.030  1.00  0.00     0.019 A 
HETATM   17  C18 UNL     1      -2.778  -1.640   0.163  1.00  0.00    -0.022 A 
HETATM   18  C21 UNL     1      -4.367  -2.356  -1.371  1.00  0.00     0.045 C 
HETATM   19  C19 UNL     1      -2.063  -2.176  -1.017  1.00  0.00     0.042 C 
HETATM   20  C20 UNL     1      -3.059  -2.926  -1.835  1.00  0.00     0.009 C 
ENDBRANCH   8   9
ENDBRANCH   7   8
BRANCH   1  21
HETATM   21  N2  UNL     1       1.424  -0.977  -0.268  1.00  0.00    -0.367 N 
HETATM   22  C4  UNL     1       2.158  -1.886   0.546  1.00  0.00     0.126 C 
HETATM   23  C3  UNL     1       3.212  -2.584  -0.334  1.00  0.00     0.053 C 
HETATM   24  C2  UNL     1       3.927  -1.692  -1.268  1.00  0.00     0.188 C 
HETATM   25  C23 UNL     1       2.945  -0.896  -2.092  1.00  0.00     0.053 C 
HETATM   26  C22 UNL     1       1.509  -1.298  -1.706  1.00  0.00     0.126 C 
BRANCH  24  27
HETATM   27  N1  UNL     1       4.811  -0.814  -0.488  1.00  0.00    -0.075 N 
HETATM   28  C1  UNL     1       5.809  -1.584   0.214  1.00  0.00     0.267 C 
ATOM     29  H12 UNL     1       4.283  -0.214   0.145  1.00  0.00     0.277 HD
ATOM     30  H11 UNL     1       5.233  -0.090  -1.070  1.00  0.00     0.277 HD
ENDBRANCH  24  27
ENDBRANCH   1  21
BRANCH   5  31
HETATM   31  C8  UNL     1      -1.002   3.984   1.130  1.00  0.00     0.020 A 
HETATM   32  C9  UNL     1      -1.563   4.794  -0.021  1.00  0.00     0.009 A 
HETATM   33  C10 UNL     1      -0.513   5.834   0.215  1.00  0.00     0.001 A 
HETATM   34  C11 UNL     1       0.047   5.078   1.395  1.00  0.00     0.009 A 
ENDBRANCH   5  31
TORSDOF 5
