REMARK  5 active torsions:
REMARK  status: ('A' for Active; 'I' for Inactive)
REMARK    1  A    between atoms: O1_2  and  C2_3 
REMARK    2  A    between atoms: C2_3  and  C3_4 
REMARK    3  A    between atoms: C3_4  and  N1_5 
REMARK    4  A    between atoms: C3_4  and  C6_10 
REMARK       I    between atoms: N1_5  and  C4_7 
REMARK    5  A    between atoms: C9_13  and  O3_14 
ROOT
HETATM    1  C6  UNL     1       2.302   0.395   0.367  1.00  0.00     0.017 C 
HETATM    2  C7  UNL     1       2.181   1.763  -0.301  1.00  0.00     0.010 C 
HETATM    3  C8  UNL     1       0.854   1.731  -1.055  1.00  0.00     0.039 C 
HETATM    4  C9  UNL     1       0.051   0.895  -0.031  1.00  0.00     0.067 C 
HETATM    5  C10 UNL     1       1.033  -0.287   0.048  1.00  0.00     0.027 C 
HETATM    6  C11 UNL     1       0.497  -1.201   1.099  1.00  0.00     0.009 C 
HETATM    7  C12 UNL     1      -0.925  -1.656   0.783  1.00  0.00     0.010 C 
HETATM    8  C13 UNL     1      -1.576  -1.026  -0.350  1.00  0.00    -0.032 C 
HETATM    9  C14 UNL     1      -1.194  -1.796  -1.640  1.00  0.00     0.016 C 
HETATM   10  C15 UNL     1      -2.950  -0.559  -0.422  1.00  0.00     0.008 C 
HETATM   11  C16 UNL     1      -4.143  -1.018   0.213  1.00  0.00    -0.002 C 
HETATM   12  C17 UNL     1      -5.273  -0.038  -0.154  1.00  0.00     0.005 C 
HETATM   13  C18 UNL     1      -5.166   0.576  -1.480  1.00  0.00     0.000 C 
HETATM   14  C19 UNL     1      -4.139   1.610  -1.682  1.00  0.00     0.001 C 
HETATM   15  C20 UNL     1      -3.240   1.932  -0.573  1.00  0.00     0.011 C 
HETATM   16  C21 UNL     1      -2.524   0.815   0.124  1.00  0.00    -0.022 C 
HETATM   17  C22 UNL     1      -2.631   0.939   1.580  1.00  0.00     0.088 C 
HETATM   18  C23 UNL     1      -3.851   0.292   2.194  1.00  0.00     0.128 C 
HETATM   19  O4  UNL     1      -4.503   0.856   3.060  1.00  0.00    -0.298 OA
HETATM   20  C24 UNL     1      -4.233  -1.054   1.710  1.00  0.00     0.083 C 
HETATM   21  C25 UNL     1      -1.225   0.463  -0.533  1.00  0.00     0.038 C 
ENDROOT
BRANCH   1  22
HETATM   22  C3  UNL     1       3.547  -0.231  -0.165  1.00  0.00     0.112 C 
BRANCH  22  23
HETATM   23  C2  UNL     1       3.838  -1.606   0.383  1.00  0.00     0.192 C 
BRANCH  23  24
HETATM   24  O1  UNL     1       5.087  -1.979  -0.171  1.00  0.00    -0.394 OA
HETATM   25  C1  UNL     1       5.451  -3.248   0.278  1.00  0.00     0.201 C 
ENDBRANCH  23  24
ENDBRANCH  22  23
BRANCH  22  26
HETATM   26  N1  UNL     1       4.675   0.597   0.299  1.00  0.00    -0.354 N 
HETATM   27  C4  UNL     1       5.609   1.158  -0.574  1.00  0.00     0.214 C 
HETATM   28  C5  UNL     1       6.717   1.982  -0.031  1.00  0.00     0.117 C 
HETATM   29  O2  UNL     1       5.543   0.987  -1.819  1.00  0.00    -0.274 OA
ATOM     30  H1  UNL     1       4.777   0.767   1.299  1.00  0.00     0.162 HD
ENDBRANCH  22  26
ENDBRANCH   1  22
BRANCH   4  31
HETATM   31  O3  UNL     1       0.088   1.681   1.097  1.00  0.00    -0.389 OA
ATOM     32  H3  UNL     1      -0.405   1.168   1.726  1.00  0.00     0.210 HD
ENDBRANCH   4  31
TORSDOF 5
