REMARK  7 active torsions:
REMARK  status: ('A' for Active; 'I' for Inactive)
REMARK    1  A    between atoms: C2_2  and  O1_3 
REMARK    2  A    between atoms: O1_3  and  C3_4 
REMARK    3  A    between atoms: C3_4  and  C4_6 
REMARK    4  A    between atoms: N1_9  and  C7_10 
REMARK    5  A    between atoms: C12_17  and  N3_18 
REMARK    6  A    between atoms: N3_18  and  C13_20 
REMARK    7  A    between atoms: C18_28  and  C19_29 
ROOT
HETATM    1  C7  UNL     1      -0.469   0.254  -0.385  1.00  0.00     0.112 A 
HETATM    2  N2  UNL     1      -0.475   0.825  -1.600  1.00  0.00    -0.345 N 
ATOM      3  H2  UNL     1      -1.362   0.976  -2.080  1.00  0.00     0.167 HD
HETATM    4  C8  UNL     1       0.660   1.197  -2.188  1.00  0.00     0.015 A 
HETATM    5  C9  UNL     1       0.633   1.837  -3.545  1.00  0.00     0.069 C 
HETATM    6  C10 UNL     1       1.867   0.998  -1.550  1.00  0.00    -0.013 A 
HETATM    7  C11 UNL     1       3.108   1.411  -2.269  1.00  0.00     0.052 C 
HETATM    8  C12 UNL     1       1.911   0.407  -0.281  1.00  0.00     0.046 A 
HETATM    9  C18 UNL     1       0.706   0.015   0.330  1.00  0.00     0.017 A 
ENDROOT
BRANCH   1  10
HETATM   10  N1  UNL     1      -1.739  -0.087   0.198  1.00  0.00    -0.367 N 
HETATM   11  C6  UNL     1      -2.433  -1.225  -0.366  1.00  0.00     0.125 C 
HETATM   12  C5  UNL     1      -3.785  -0.831  -0.920  1.00  0.00     0.034 C 
HETATM   13  C4  UNL     1      -4.334   0.419  -0.309  1.00  0.00     0.088 C 
HETATM   14  C24 UNL     1      -3.886   0.641   1.109  1.00  0.00     0.034 C 
HETATM   15  C23 UNL     1      -2.372   0.618   1.264  1.00  0.00     0.125 C 
BRANCH  13  16
HETATM   16  C3  UNL     1      -5.817   0.381  -0.292  1.00  0.00     0.263 C 
HETATM   17  O2  UNL     1      -6.487   1.254  -0.879  1.00  0.00    -0.265 OA
BRANCH  16  18
HETATM   18  O1  UNL     1      -6.468  -0.632   0.384  1.00  0.00    -0.322 OA
BRANCH  18  19
HETATM   19  C2  UNL     1      -7.874  -0.745   0.455  1.00  0.00     0.174 C 
HETATM   20  C1  UNL     1      -8.519  -0.883  -0.898  1.00  0.00     0.034 C 
ENDBRANCH  18  19
ENDBRANCH  16  18
ENDBRANCH  13  16
ENDBRANCH   1  10
BRANCH   9  21
HETATM   21  C19 UNL     1       0.668  -0.585   1.634  1.00  0.00     0.025 C 
HETATM   22  C20 UNL     1       1.959  -1.116   2.176  1.00  0.00     0.009 C 
HETATM   23  C21 UNL     1       1.101  -2.096   3.032  1.00  0.00     0.001 C 
HETATM   24  C22 UNL     1       0.123  -1.954   1.874  1.00  0.00     0.009 C 
ENDBRANCH   9  21
BRANCH   8  25
HETATM   25  N3  UNL     1       3.012   0.309   0.283  1.00  0.00    -0.384 N 
ATOM     26  H3  UNL     1       2.809  -0.143   1.175  1.00  0.00     0.160 HD
BRANCH  25  27
HETATM   27  C13 UNL     1       4.355   0.510   0.292  1.00  0.00     0.085 C 
HETATM   28  C14 UNL     1       4.948   1.035   1.633  1.00  0.00     0.052 C 
HETATM   29  C15 UNL     1       6.398   1.343   1.344  1.00  0.00     0.234 C 
HETATM   30  N4  UNL     1       7.128   0.122   1.041  1.00  0.00    -0.075 N 
HETATM   31  C16 UNL     1       6.575  -0.477  -0.162  1.00  0.00     0.234 C 
ATOM     32  H42 UNL     1       8.133   0.279   0.969  1.00  0.00     0.277 HD
ATOM     33  H41 UNL     1       7.140  -0.528   1.827  1.00  0.00     0.277 HD
HETATM   34  C17 UNL     1       5.141  -0.809   0.085  1.00  0.00     0.052 C 
ENDBRANCH  25  27
ENDBRANCH   8  25
TORSDOF 7
