REMARK  5 active torsions:
REMARK  status: ('A' for Active; 'I' for Inactive)
REMARK    1  A    between atoms: C2_2  and  C3_3 
REMARK    2  A    between atoms: C3_3  and  C4_4 
REMARK    3  A    between atoms: C4_4  and  C5_5 
REMARK       I    between atoms: C5_5  and  N1_7 
REMARK    4  A    between atoms: N1_7  and  C6_9 
REMARK    5  A    between atoms: N2_12  and  C9_13 
ROOT
HETATM    1  C6  UNL     1       1.296   0.808  -1.804  1.00  0.00     0.185 C 
HETATM    2  C7  UNL     1      -0.042   0.678  -1.125  1.00  0.00     0.077 C 
HETATM    3  C8  UNL     1      -0.028  -0.151   0.138  1.00  0.00     0.276 C 
HETATM    4  N2  UNL     1      -1.263  -0.855   0.352  1.00  0.00     0.095 N 
HETATM    5  C17 UNL     1      -1.113  -2.195   0.816  1.00  0.00     0.303 C 
HETATM    6  C18 UNL     1      -0.771  -3.184  -0.264  1.00  0.00     0.302 C 
HETATM    7  N3  UNL     1      -1.646  -3.091  -1.415  1.00  0.00     0.087 N 
HETATM    8  C19 UNL     1      -2.826  -3.905  -1.316  1.00  0.00     0.310 C 
HETATM    9  C20 UNL     1      -0.854  -3.404  -2.590  1.00  0.00     0.298 C 
HETATM   10  C21 UNL     1      -1.116  -2.418  -3.719  1.00  0.00     0.198 C 
HETATM   11  O2  UNL     1       0.018  -2.073  -4.431  1.00  0.00    -0.384 OA
HETATM   12  C22 UNL     1       1.023  -1.529  -3.663  1.00  0.00     0.211 C 
HETATM   13  C23 UNL     1       1.454  -0.146  -4.018  1.00  0.00     0.083 C 
HETATM   14  N4  UNL     1       1.037   0.905  -3.207  1.00  0.00    -0.379 N 
ATOM     15  H4  UNL     1       0.562   1.718  -3.600  1.00  0.00     0.160 HD
ENDROOT
BRANCH   1  16
HETATM   16  N1  UNL     1       2.120   1.842  -1.261  1.00  0.00    -0.337 N 
HETATM   17  C5  UNL     1       3.517   1.620  -0.931  1.00  0.00     0.242 C 
HETATM   18  O1  UNL     1       3.965   0.483  -1.160  1.00  0.00    -0.269 OA
ATOM     19  H1  UNL     1       1.715   2.764  -1.100  1.00  0.00     0.164 HD
BRANCH  17  20
HETATM   20  C4  UNL     1       4.282   2.695  -0.372  1.00  0.00     0.070 C 
BRANCH  20  21
HETATM   21  C3  UNL     1       5.617   2.513   0.176  1.00  0.00    -0.022 C 
BRANCH  21  22
HETATM   22  C2  UNL     1       5.946   1.698   1.343  1.00  0.00     0.023 C 
HETATM   23  C1  UNL     1       5.702   0.233   1.257  1.00  0.00     0.009 C 
ENDBRANCH  21  22
ENDBRANCH  20  21
ENDBRANCH  17  20
ENDBRANCH   1  16
BRANCH   4  24
HETATM   24  C9  UNL     1      -2.137  -0.174   1.305  1.00  0.00     0.223 C 
HETATM   25  C10 UNL     1      -2.557   1.176   0.787  1.00  0.00     0.036 C 
HETATM   26  C11 UNL     1      -3.940   1.523   1.253  1.00  0.00     0.002 C 
HETATM   27  C12 UNL     1      -3.942   2.656   2.261  1.00  0.00     0.000 C 
HETATM   28  C13 UNL     1      -4.149   2.165   3.671  1.00  0.00     0.000 C 
HETATM   29  C14 UNL     1      -3.332   0.959   4.020  1.00  0.00     0.000 C 
HETATM   30  C15 UNL     1      -1.921   1.065   3.496  1.00  0.00     0.002 C 
HETATM   31  C16 UNL     1      -1.606  -0.162   2.699  1.00  0.00     0.036 C 
ENDBRANCH   4  24
TORSDOF 5
