REMARK  7 active torsions:
REMARK  status: ('A' for Active; 'I' for Inactive)
REMARK       I    between atoms: C1_2  and  N1_3 
REMARK       I    between atoms: C1_2  and  N4_12 
REMARK    1  A    between atoms: N1_3  and  C2_5 
REMARK    2  A    between atoms: N4_12  and  C4_14 
REMARK    3  A    between atoms: C7_17  and  C8_18 
REMARK    4  A    between atoms: C8_18  and  C9_19 
REMARK    5  A    between atoms: C9_19  and  N5_20 
REMARK    6  A    between atoms: C12_23  and  O3_24 
REMARK    7  A    between atoms: C12_23  and  C13_26 
ROOT
HETATM    1  C4  UNL     1       4.876   0.270  -0.495  1.00  0.00     0.086 C 
HETATM    2  C5  UNL     1       3.870   1.385  -0.439  1.00  0.00     0.026 C 
HETATM    3  C6  UNL     1       2.801   1.078   0.619  1.00  0.00     0.007 C 
HETATM    4  C7  UNL     1       2.201  -0.243   0.217  1.00  0.00    -0.013 C 
HETATM    5  C21 UNL     1       3.233  -1.316   0.585  1.00  0.00     0.007 C 
HETATM    6  C22 UNL     1       4.636  -0.827   0.487  1.00  0.00     0.026 C 
ENDROOT
BRANCH   4   7
HETATM    7  C8  UNL     1       0.866  -0.540   0.807  1.00  0.00     0.034 C 
BRANCH   7   8
HETATM    8  C9  UNL     1      -0.129   0.488   0.401  1.00  0.00     0.272 C 
BRANCH   8   9
HETATM    9  N5  UNL     1      -1.464   0.213   0.967  1.00  0.00     0.088 N 
HETATM   10  C10 UNL     1      -1.934  -0.986   0.309  1.00  0.00     0.275 C 
HETATM   11  C11 UNL     1      -3.421  -1.228   0.553  1.00  0.00     0.068 C 
HETATM   12  C12 UNL     1      -4.148  -0.031   0.004  1.00  0.00     0.065 C 
HETATM   13  C19 UNL     1      -3.726   1.164   0.828  1.00  0.00     0.068 C 
HETATM   14  C20 UNL     1      -2.263   1.372   0.643  1.00  0.00     0.275 C 
BRANCH  12  15
HETATM   15  O3  UNL     1      -3.755   0.239  -1.318  1.00  0.00    -0.389 OA
ATOM     16  H3  UNL     1      -4.214   0.995  -1.665  1.00  0.00     0.210 HD
ENDBRANCH  12  15
BRANCH  12  17
HETATM   17  C13 UNL     1      -5.610  -0.273   0.014  1.00  0.00     0.020 C 
HETATM   18  C14 UNL     1      -6.406   0.943  -0.447  1.00  0.00     0.007 C 
HETATM   19  C15 UNL     1      -7.873   0.592  -0.312  1.00  0.00     0.000 C 
HETATM   20  C16 UNL     1      -8.255  -0.637  -1.065  1.00  0.00     0.000 C 
HETATM   21  C17 UNL     1      -7.360  -1.800  -0.697  1.00  0.00     0.000 C 
HETATM   22  C18 UNL     1      -5.928  -1.352  -1.016  1.00  0.00     0.007 C 
ENDBRANCH  12  17
ENDBRANCH   8   9
ENDBRANCH   7   8
ENDBRANCH   4   7
BRANCH   1  23
HETATM   23  N4  UNL     1       6.184   0.825  -0.198  1.00  0.00    -0.338 N 
HETATM   24  C1  UNL     1       7.260   0.771  -1.123  1.00  0.00     0.322 C 
HETATM   25  O1  UNL     1       7.103   0.230  -2.245  1.00  0.00    -0.247 OA
HETATM   26  N1  UNL     1       8.533   1.317  -0.818  1.00  0.00    -0.292 N 
ATOM     27  H1  UNL     1       8.689   2.321  -0.904  1.00  0.00     0.172 HD
ATOM     28  H4  UNL     1       6.336   1.270   0.707  1.00  0.00     0.164 HD
BRANCH  26  29
HETATM   29  C2  UNL     1       9.492   0.549  -0.433  1.00  0.00     0.148 A 
HETATM   30  C3  UNL     1      10.765   0.952  -0.109  1.00  0.00     0.166 A 
HETATM   31  N2  UNL     1      11.447  -0.164   0.240  1.00  0.00    -0.249 N 
HETATM   32  O2  UNL     1      10.635  -1.167   0.132  1.00  0.00    -0.156 OA
ATOM     33  H2  UNL     1      12.423  -0.207   0.534  1.00  0.00     0.196 HD
HETATM   34  N3  UNL     1       9.458  -0.782  -0.267  1.00  0.00    -0.224 N 
ATOM     35  H3  UNL     1       8.651  -1.386  -0.426  1.00  0.00     0.198 HD
ENDBRANCH  26  29
ENDBRANCH   1  23
TORSDOF 7
