REMARK  6 active torsions:
REMARK  status: ('A' for Active; 'I' for Inactive)
REMARK    1  A    between atoms: C4_5  and  C5_6 
REMARK    2  A    between atoms: C6_7  and  C7_8 
REMARK    3  A    between atoms: N3_25  and  C18_26 
REMARK    4  A    between atoms: C18_26  and  C19_27 
REMARK    5  A    between atoms: C19_27  and  C20_28 
REMARK    6  A    between atoms: C20_28  and  N4_29 
ROOT
HETATM    1  O1  UNL     1      -1.606   0.983   3.946  1.00  0.00    -0.273 OA
HETATM    2  C1  UNL     1      -1.240   0.192   3.050  1.00  0.00     0.222 C 
HETATM    3  C2  UNL     1      -2.099  -0.058   1.858  1.00  0.00     0.144 C 
HETATM    4  C3  UNL     1      -1.163  -0.019   0.668  1.00  0.00    -0.012 A 
HETATM    5  C4  UNL     1      -1.234   0.573  -0.560  1.00  0.00     0.005 A 
HETATM    6  C17 UNL     1      -0.038   0.272  -1.204  1.00  0.00     0.104 A 
HETATM    7  N3  UNL     1       0.704  -0.472  -0.379  1.00  0.00    -0.357 N 
HETATM    8  C25 UNL     1       0.045  -0.663   0.761  1.00  0.00     0.036 A 
HETATM    9  C26 UNL     1       0.337  -1.391   2.038  1.00  0.00     0.180 C 
HETATM   10  N5  UNL     1       0.010  -0.505   3.125  1.00  0.00    -0.355 N 
ATOM     11  H5  UNL     1       0.642  -0.379   3.916  1.00  0.00     0.162 HD
ENDROOT
BRANCH   5  12
HETATM   12  C5  UNL     1      -2.327   1.347  -1.150  1.00  0.00     0.061 A 
HETATM   13  C6  UNL     1      -3.598   1.045  -1.314  1.00  0.00     0.061 A 
HETATM   14  C15 UNL     1      -4.300   2.163  -1.985  1.00  0.00     0.260 A 
HETATM   15  O2  UNL     1      -5.518   2.201  -2.293  1.00  0.00    -0.267 OA
HETATM   16  N2  UNL     1      -3.347   3.198  -2.224  1.00  0.00    -0.289 N 
HETATM   17  C16 UNL     1      -2.137   2.705  -1.716  1.00  0.00     0.260 A 
ATOM     18  H2  UNL     1      -3.511   4.101  -2.668  1.00  0.00     0.172 HD
HETATM   19  O3  UNL     1      -1.039   3.305  -1.726  1.00  0.00    -0.267 OA
BRANCH  13  20
HETATM   20  C7  UNL     1      -4.228  -0.197  -0.927  1.00  0.00     0.009 A 
HETATM   21  C8  UNL     1      -3.796  -1.492  -1.246  1.00  0.00     0.101 A 
HETATM   22  N1  UNL     1      -4.619  -2.392  -0.718  1.00  0.00    -0.364 N 
HETATM   23  C9  UNL     1      -5.598  -1.733  -0.049  1.00  0.00     0.043 A 
ATOM     24  H1  UNL     1      -4.530  -3.405  -0.801  1.00  0.00     0.165 HD
HETATM   25  C10 UNL     1      -6.689  -2.185   0.677  1.00  0.00     0.030 A 
HETATM   26  C14 UNL     1      -5.365  -0.377  -0.172  1.00  0.00     0.003 A 
HETATM   27  C11 UNL     1      -7.543  -1.293   1.278  1.00  0.00     0.002 A 
HETATM   28  C12 UNL     1      -7.347   0.068   1.183  1.00  0.00     0.001 A 
HETATM   29  C13 UNL     1      -6.249   0.492   0.451  1.00  0.00     0.014 A 
ENDBRANCH  13  20
ENDBRANCH   5  12
BRANCH   7  30
HETATM   30  C18 UNL     1       2.002  -0.967  -0.714  1.00  0.00     0.133 C 
BRANCH  30  31
HETATM   31  C19 UNL     1       3.139  -0.038  -0.352  1.00  0.00     0.064 C 
BRANCH  31  32
HETATM   32  C20 UNL     1       4.402  -0.745  -0.787  1.00  0.00     0.060 C 
BRANCH  32  33
HETATM   33  N4  UNL     1       5.610  -0.082  -0.565  1.00  0.00    -0.389 N 
HETATM   34  C21 UNL     1       5.913   1.089  -1.295  1.00  0.00     0.148 C 
HETATM   35  C22 UNL     1       7.396   0.991  -1.681  1.00  0.00     0.187 C 
HETATM   36  O4  UNL     1       8.196   0.677  -0.603  1.00  0.00    -0.388 OA
HETATM   37  C23 UNL     1       7.533   0.638   0.613  1.00  0.00     0.187 C 
HETATM   38  C24 UNL     1       6.385  -0.381   0.573  1.00  0.00     0.148 C 
ENDBRANCH  32  33
ENDBRANCH  31  32
ENDBRANCH  30  31
ENDBRANCH   7  30
TORSDOF 6
