REMARK  6 active torsions:
REMARK  status: ('A' for Active; 'I' for Inactive)
REMARK    1  A    between atoms: C1_4  and  C2_6 
REMARK    2  A    between atoms: C7_12  and  S1_13 
REMARK    3  A    between atoms: S1_13  and  C8_14 
REMARK    4  A    between atoms: C8_14  and  C9_15 
REMARK    5  A    between atoms: C15_21  and  C16_22 
REMARK    6  A    between atoms: C16_22  and  N4_23 
REMARK       I    between atoms: N4_23  and  C17_24 
REMARK       I    between atoms: C17_24  and  N5_26 
ROOT
HETATM    1  C9  UNL     1      -0.589  -0.283   0.903  1.00  0.00    -0.030 C 
HETATM    2  C10 UNL     1      -0.457   0.333   2.291  1.00  0.00     0.015 C 
HETATM    3  C11 UNL     1       0.935   0.138   2.767  1.00  0.00    -0.012 C 
HETATM    4  C12 UNL     1       1.298  -1.341   2.888  1.00  0.00     0.009 C 
HETATM    5  C13 UNL     1       1.185  -1.921   1.507  1.00  0.00    -0.012 C 
HETATM    6  C14 UNL     1       2.096  -1.213   0.526  1.00  0.00     0.020 C 
HETATM    7  C15 UNL     1       1.778   0.268   0.460  1.00  0.00     0.006 C 
HETATM    8  C22 UNL     1       1.983   0.771   1.881  1.00  0.00     0.020 C 
HETATM    9  C23 UNL     1       0.358   0.413  -0.007  1.00  0.00     0.026 C 
HETATM   10  C24 UNL     1      -0.237  -1.765   1.037  1.00  0.00     0.015 C 
ENDROOT
BRANCH   1  11
HETATM   11  C8  UNL     1      -2.012  -0.207   0.440  1.00  0.00     0.086 C 
BRANCH  11  12
HETATM   12  S1  UNL     1      -2.626   1.488   0.371  1.00  0.00    -0.134 SA
BRANCH  12  13
HETATM   13  C7  UNL     1      -4.380   1.477  -0.015  1.00  0.00     0.210 C 
HETATM   14  C6  UNL     1      -4.732   1.005  -1.389  1.00  0.00     0.174 C 
HETATM   15  N3  UNL     1      -6.128   0.596  -1.217  1.00  0.00    -0.334 N 
HETATM   16  C4  UNL     1      -6.296   0.269   0.093  1.00  0.00     0.146 A 
HETATM   17  C5  UNL     1      -7.305   0.412  -1.847  1.00  0.00     0.108 A 
HETATM   18  C3  UNL     1      -7.610  -0.121   0.250  1.00  0.00     0.072 A 
HETATM   19  O3  UNL     1      -5.067   0.460   0.764  1.00  0.00    -0.318 OA
HETATM   20  C2  UNL     1      -8.264  -0.037  -0.967  1.00  0.00     0.024 A 
BRANCH  20  21
HETATM   21  C1  UNL     1      -9.679  -0.360  -1.243  1.00  0.00     0.121 C 
HETATM   22  N1  UNL     1     -10.177  -0.233  -2.411  1.00  0.00    -0.387 N 
ATOM     23  H12 UNL     1     -11.154  -0.456  -2.602  1.00  0.00     0.157 HD
ATOM     24  H11 UNL     1      -9.598   0.098  -3.183  1.00  0.00     0.157 HD
HETATM   25  N2  UNL     1     -10.478  -0.817  -0.177  1.00  0.00    -0.082 NA
ENDBRANCH  20  21
ENDBRANCH  12  13
ENDBRANCH  11  12
ENDBRANCH   1  11
BRANCH   7  26
HETATM   26  C16 UNL     1       2.763   0.910  -0.494  1.00  0.00     0.170 C 
BRANCH  26  27
HETATM   27  N4  UNL     1       4.086   0.820  -0.152  1.00  0.00    -0.368 NA
HETATM   28  C17 UNL     1       5.409   0.731   0.190  1.00  0.00     0.395 C 
HETATM   29  O1  UNL     1       5.930   1.191   1.235  1.00  0.00    -0.230 OA
HETATM   30  N5  UNL     1       6.382   0.059  -0.674  1.00  0.00    -0.318 N 
HETATM   31  C18 UNL     1       7.781  -0.013  -0.326  1.00  0.00     0.155 C 
HETATM   32  C21 UNL     1       5.996  -0.577  -1.914  1.00  0.00     0.155 C 
HETATM   33  C19 UNL     1       8.548   0.131  -1.615  1.00  0.00     0.187 C 
HETATM   34  O2  UNL     1       8.311  -0.860  -2.538  1.00  0.00    -0.388 OA
HETATM   35  C20 UNL     1       7.086  -1.498  -2.417  1.00  0.00     0.187 C 
ENDBRANCH  26  27
ENDBRANCH   7  26
TORSDOF 6
