REMARK  7 active torsions:
REMARK  status: ('A' for Active; 'I' for Inactive)
REMARK    1  A    between atoms: C7_8  and  N1_9 
REMARK    2  A    between atoms: N1_9  and  C8_11 
REMARK    3  A    between atoms: C8_11  and  N2_13 
REMARK    4  A    between atoms: N2_13  and  C9_15 
REMARK    5  A    between atoms: C9_15  and  C10_16 
REMARK    6  A    between atoms: C10_16  and  C11_17 
REMARK    7  A    between atoms: C11_17  and  N3_18 
ROOT
HETATM    1  N3  UNL     1      -1.256   0.695   0.489  1.00  0.00    -0.234 NA
HETATM    2  C12 UNL     1      -2.172  -0.365   0.217  1.00  0.00     0.139 C 
HETATM    3  C13 UNL     1      -1.590  -1.743   0.201  1.00  0.00     0.183 C 
HETATM    4  O1  UNL     1      -2.687  -2.634   0.114  1.00  0.00    -0.388 OA
HETATM    5  C14 UNL     1      -3.190  -2.703  -1.171  1.00  0.00     0.193 C 
HETATM    6  C15 UNL     1      -4.723  -2.692  -1.143  1.00  0.00     0.193 C 
HETATM    7  O2  UNL     1      -5.150  -1.536  -0.542  1.00  0.00    -0.387 OA
HETATM    8  C16 UNL     1      -6.432  -1.147  -0.843  1.00  0.00     0.193 C 
HETATM    9  C17 UNL     1      -6.480   0.298  -1.276  1.00  0.00     0.193 C 
HETATM   10  O3  UNL     1      -6.954   1.151  -0.284  1.00  0.00    -0.387 OA
HETATM   11  C18 UNL     1      -6.062   1.253   0.776  1.00  0.00     0.193 C 
HETATM   12  C19 UNL     1      -5.757   2.653   1.192  1.00  0.00     0.193 C 
HETATM   13  O4  UNL     1      -4.712   3.243   0.514  1.00  0.00    -0.387 OA
HETATM   14  C20 UNL     1      -3.459   2.701   0.884  1.00  0.00     0.188 C 
HETATM   15  C21 UNL     1      -2.768   2.326  -0.383  1.00  0.00     0.160 C 
HETATM   16  N4  UNL     1      -1.454   1.823  -0.259  1.00  0.00    -0.352 N 
ATOM     17  H4  UNL     1      -0.671   2.290  -0.717  1.00  0.00     0.174 HD
ENDROOT
BRANCH   1  18
HETATM   18  C11 UNL     1       0.113   0.256   0.298  1.00  0.00     0.114 C 
BRANCH  18  19
HETATM   19  C10 UNL     1       1.082   1.396   0.592  1.00  0.00     0.036 C 
BRANCH  19  20
HETATM   20  C9  UNL     1       2.501   0.924   0.388  1.00  0.00     0.123 C 
BRANCH  20  21
HETATM   21  N2  UNL     1       2.843  -0.172   1.247  1.00  0.00    -0.367 N 
ATOM     22  H2  UNL     1       2.146  -0.534   1.898  1.00  0.00     0.161 HD
BRANCH  21  23
HETATM   23  C8  UNL     1       4.164  -0.776   1.208  1.00  0.00     0.172 C 
HETATM   24  S2  UNL     1       4.381  -1.996   2.237  1.00  0.00    -0.041 SA
BRANCH  23  25
HETATM   25  N1  UNL     1       5.114  -0.268   0.308  1.00  0.00    -0.333 N 
ATOM     26  H1  UNL     1       4.780   0.510  -0.261  1.00  0.00     0.168 HD
BRANCH  25  27
HETATM   27  C7  UNL     1       6.428  -0.639   0.056  1.00  0.00     0.041 A 
HETATM   28  C2  UNL     1       7.160   0.055  -0.919  1.00  0.00    -0.035 A 
HETATM   29  C1  UNL     1       6.485   1.166  -1.645  1.00  0.00     0.050 C 
HETATM   30  C3  UNL     1       8.453  -0.255  -1.217  1.00  0.00     0.010 A 
HETATM   31  C4  UNL     1       9.091  -1.280  -0.554  1.00  0.00     0.020 A 
HETATM   32  C5  UNL     1       8.412  -1.988   0.409  1.00  0.00     0.014 A 
HETATM   33  S1  UNL     1       9.231  -3.325   1.279  1.00  0.00    -0.052 SA
HETATM   34  C6  UNL     1       7.090  -1.642   0.687  1.00  0.00     0.049 A 
ENDBRANCH  25  27
ENDBRANCH  23  25
ENDBRANCH  21  23
ENDBRANCH  20  21
ENDBRANCH  19  20
ENDBRANCH  18  19
ENDBRANCH   1  18
TORSDOF 7
