REMARK  7 active torsions:
REMARK  status: ('A' for Active; 'I' for Inactive)
REMARK    1  A    between atoms: C5_9  and  O1_10 
REMARK    2  A    between atoms: C6_12  and  O2_13 
REMARK    3  A    between atoms: C7_15  and  N3_16 
REMARK       I    between atoms: N4_27  and  C17_28 
REMARK    4  A    between atoms: C17_28  and  C18_30 
REMARK    5  A    between atoms: C18_30  and  C19_31 
REMARK    6  A    between atoms: C19_31  and  C20_32 
REMARK    7  A    between atoms: C20_32  and  N5_33 
ROOT
HETATM    1  C1  UNL     1       0.036  -4.710  -1.370  1.00  0.00     0.147 C 
HETATM    2  N1  UNL     1      -0.693  -3.688  -0.754  1.00  0.00    -0.379 N 
ATOM      3  H1  UNL     1      -1.693  -3.873  -0.677  1.00  0.00     0.160 HD
HETATM    4  C2  UNL     1      -0.335  -2.585  -0.280  1.00  0.00     0.133 C 
HETATM    5  C3  UNL     1       1.043  -2.069  -0.258  1.00  0.00     0.084 A 
HETATM    6  N2  UNL     1       2.183  -2.583  -0.700  1.00  0.00    -0.350 N 
ATOM      7  H2  UNL     1       2.299  -3.487  -1.158  1.00  0.00     0.166 HD
HETATM    8  C4  UNL     1       3.174  -1.682  -0.431  1.00  0.00     0.080 A 
HETATM    9  C5  UNL     1       4.532  -1.748  -0.693  1.00  0.00     0.129 A 
HETATM   10  C6  UNL     1       5.391  -0.727  -0.346  1.00  0.00     0.128 A 
HETATM   11  C7  UNL     1       4.851   0.379   0.281  1.00  0.00     0.067 A 
HETATM   12  C12 UNL     1       3.488   0.439   0.542  1.00  0.00     0.046 A 
HETATM   13  C13 UNL     1       2.637  -0.586   0.191  1.00  0.00     0.004 A 
HETATM   14  C14 UNL     1       1.285  -0.836   0.298  1.00  0.00    -0.013 A 
HETATM   15  C15 UNL     1       0.267   0.052   0.903  1.00  0.00     0.062 C 
HETATM   16  C16 UNL     1      -0.980  -0.706   1.289  1.00  0.00     0.138 C 
HETATM   17  N4  UNL     1      -1.330  -1.700   0.312  1.00  0.00    -0.302 N 
HETATM   18  C17 UNL     1      -2.670  -1.857  -0.113  1.00  0.00     0.225 C 
HETATM   19  O4  UNL     1      -2.940  -2.740  -0.965  1.00  0.00    -0.273 OA
ENDROOT
BRANCH  18  20
HETATM   20  C18 UNL     1      -3.776  -1.009   0.417  1.00  0.00     0.105 C 
BRANCH  20  21
HETATM   21  C19 UNL     1      -5.089  -1.395  -0.212  1.00  0.00     0.029 C 
BRANCH  21  22
HETATM   22  C20 UNL     1      -6.235  -0.574   0.285  1.00  0.00     0.117 C 
BRANCH  22  23
HETATM   23  N5  UNL     1      -6.053   0.817   0.013  1.00  0.00    -0.408 N 
HETATM   24  C21 UNL     1      -6.104   1.193  -1.359  1.00  0.00     0.143 C 
HETATM   25  C22 UNL     1      -7.329   1.955  -1.767  1.00  0.00     0.187 C 
HETATM   26  O5  UNL     1      -7.821   2.806  -0.812  1.00  0.00    -0.388 OA
HETATM   27  C23 UNL     1      -6.978   3.011   0.255  1.00  0.00     0.187 C 
HETATM   28  C24 UNL     1      -6.687   1.707   0.929  1.00  0.00     0.143 C 
ENDBRANCH  22  23
ENDBRANCH  21  22
ENDBRANCH  20  21
ENDBRANCH  18  20
BRANCH   9  29
HETATM   29  O1  UNL     1       5.047  -2.873  -1.326  1.00  0.00    -0.356 OA
ATOM     30  H1  UNL     1       5.979  -2.918  -1.506  1.00  0.00     0.218 HD
ENDBRANCH   9  29
BRANCH  10  31
HETATM   31  O2  UNL     1       6.745  -0.832  -0.628  1.00  0.00    -0.356 OA
ATOM     32  H2  UNL     1       7.337  -0.128  -0.389  1.00  0.00     0.218 HD
ENDBRANCH  10  31
BRANCH  11  33
HETATM   33  N3  UNL     1       5.708   1.442   0.653  1.00  0.00    -0.374 N 
HETATM   34  C8  UNL     1       6.802   1.181   1.592  1.00  0.00     0.149 C 
HETATM   35  C9  UNL     1       7.318   2.542   2.023  1.00  0.00     0.187 C 
HETATM   36  O3  UNL     1       7.844   3.203   0.930  1.00  0.00    -0.388 OA
HETATM   37  C10 UNL     1       6.928   3.451  -0.062  1.00  0.00     0.187 C 
HETATM   38  C11 UNL     1       5.585   2.801   0.166  1.00  0.00     0.149 C 
ENDBRANCH  11  33
TORSDOF 7
