REMARK  6 active torsions:
REMARK  status: ('A' for Active; 'I' for Inactive)
REMARK    1  A    between atoms: C5_5  and  N1_6 
REMARK    2  A    between atoms: N1_6  and  C6_8 
REMARK    3  A    between atoms: C13_21  and  O1_22 
REMARK    4  A    between atoms: C18_27  and  S1_28 
REMARK    5  A    between atoms: S1_28  and  N5_31 
REMARK    6  A    between atoms: N5_31  and  S2_33 
ROOT
HETATM    1  C1  UNL     1       4.163  -4.900   0.746  1.00  0.00     0.018 C 
HETATM    2  C2  UNL     1       3.735  -3.785   0.583  1.00  0.00    -0.078 C 
HETATM    3  C3  UNL     1       3.224  -2.462   0.379  1.00  0.00     0.020 A 
HETATM    4  C4  UNL     1       1.917  -2.315   0.014  1.00  0.00     0.050 A 
HETATM    5  C5  UNL     1       1.367  -1.081  -0.195  1.00  0.00     0.036 A 
HETATM    6  C17 UNL     1       2.189   0.015  -0.024  1.00  0.00     0.054 A 
HETATM    7  C18 UNL     1       3.504  -0.082   0.341  1.00  0.00     0.084 A 
HETATM    8  C20 UNL     1       4.034  -1.336   0.546  1.00  0.00     0.046 A 
ENDROOT
BRANCH   5   9
HETATM    9  N1  UNL     1       0.001  -0.976  -0.574  1.00  0.00    -0.340 N 
ATOM     10  H1  UNL     1      -0.327  -1.334  -1.471  1.00  0.00     0.167 HD
BRANCH   9  11
HETATM   11  C6  UNL     1      -0.811  -0.412   0.257  1.00  0.00     0.136 A 
HETATM   12  N2  UNL     1      -0.392   0.069   1.458  1.00  0.00    -0.337 N 
HETATM   13  C7  UNL     1      -1.284   0.647   2.285  1.00  0.00     0.182 A 
ATOM     14  H2  UNL     1       0.588  -0.007   1.730  1.00  0.00     0.168 HD
HETATM   15  N3  UNL     1      -2.572   0.748   1.930  1.00  0.00    -0.350 N 
HETATM   16  C8  UNL     1      -3.039   0.292   0.762  1.00  0.00     0.076 A 
ATOM     17  H3  UNL     1      -3.224   1.191   2.577  1.00  0.00     0.166 HD
HETATM   18  C9  UNL     1      -2.139  -0.303  -0.098  1.00  0.00     0.105 A 
HETATM   19  C16 UNL     1      -4.251   0.242   0.122  1.00  0.00     0.022 A 
HETATM   20  N4  UNL     1      -2.781  -0.694  -1.207  1.00  0.00    -0.351 N 
HETATM   21  C10 UNL     1      -4.102  -0.374  -1.112  1.00  0.00     0.045 A 
ATOM     22  H4  UNL     1      -2.346  -1.161  -2.003  1.00  0.00     0.166 HD
HETATM   23  C11 UNL     1      -5.190  -0.528  -1.916  1.00  0.00     0.033 A 
HETATM   24  C12 UNL     1      -6.447  -0.080  -1.526  1.00  0.00     0.039 A 
HETATM   25  C13 UNL     1      -6.611   0.534  -0.301  1.00  0.00     0.069 A 
HETATM   26  C15 UNL     1      -5.500   0.682   0.500  1.00  0.00     0.053 A 
BRANCH  25  27
HETATM   27  O1  UNL     1      -7.855   0.986   0.104  1.00  0.00    -0.356 OA
HETATM   28  C14 UNL     1      -8.969   0.813  -0.751  1.00  0.00     0.210 C 
ENDBRANCH  25  27
ENDBRANCH   9  11
ENDBRANCH   5   9
BRANCH   7  29
HETATM   29  S1  UNL     1       4.502   1.324   0.552  1.00  0.00     0.271 S 
HETATM   30  O2  UNL     1       3.594   2.433   1.061  1.00  0.00    -0.200 OA
HETATM   31  O3  UNL     1       5.496   1.070   1.653  1.00  0.00    -0.200 OA
BRANCH  29  32
HETATM   32  N5  UNL     1       5.245   1.882  -0.869  1.00  0.00    -0.207 N 
ATOM     33  H5  UNL     1       4.785   2.537  -1.501  1.00  0.00     0.192 HD
BRANCH  32  34
HETATM   34  S2  UNL     1       6.805   1.279  -1.169  1.00  0.00     0.235 S 
HETATM   35  C19 UNL     1       8.079   2.283  -0.443  1.00  0.00     0.186 C 
HETATM   36  O4  UNL     1       7.030   1.353  -2.675  1.00  0.00    -0.205 OA
HETATM   37  O5  UNL     1       7.004  -0.140  -0.788  1.00  0.00    -0.205 OA
ENDBRANCH  32  34
ENDBRANCH  29  32
ENDBRANCH   7  29
TORSDOF 6
