REMARK  12 active torsions:
REMARK  status: ('A' for Active; 'I' for Inactive)
REMARK    1  A    between atoms: C2_2  and  C3_3 
REMARK    2  A    between atoms: C3_3  and  C4_4 
REMARK    3  A    between atoms: C5_7  and  O1_8 
REMARK    4  A    between atoms: C13_20  and  C14_21 
REMARK    5  A    between atoms: C14_21  and  C15_22 
REMARK    6  A    between atoms: C25_37  and  C26_38 
REMARK    7  A    between atoms: C26_38  and  C27_39 
REMARK    8  A    between atoms: C27_39  and  C28_40 
REMARK    9  A    between atoms: C28_40  and  C29_41 
REMARK   10  A    between atoms: C29_41  and  C30_42 
REMARK   11  A    between atoms: C30_42  and  C31_43 
REMARK   12  A    between atoms: C31_43  and  N4_44 
ROOT
HETATM    1  C4  UNL     1       1.272  -3.074  -0.581  1.00  0.00     0.063 C 
HETATM    2  N1  UNL     1      -0.078  -3.135  -1.009  1.00  0.00    -0.340 N 
ATOM      3  H1  UNL     1      -0.285  -3.993  -1.520  1.00  0.00     0.167 HD
HETATM    4  C5  UNL     1      -1.193  -2.299  -0.897  1.00  0.00     0.120 C 
HETATM    5  C6  UNL     1      -1.911  -1.911   0.323  1.00  0.00     0.073 C 
HETATM    6  C7  UNL     1      -2.639  -3.088   0.997  1.00  0.00     0.013 C 
HETATM    7  C8  UNL     1      -3.968  -3.388   0.359  1.00  0.00     0.001 C 
HETATM    8  C9  UNL     1      -4.871  -2.242   0.745  1.00  0.00     0.001 C 
HETATM    9  C10 UNL     1      -4.097  -1.019   1.153  1.00  0.00     0.015 C 
HETATM   10  C11 UNL     1      -2.841  -0.787   0.279  1.00  0.00     0.089 C 
HETATM   11  C12 UNL     1      -3.350  -0.247  -0.964  1.00  0.00     0.223 C 
HETATM   12  O2  UNL     1      -4.245  -0.905  -1.577  1.00  0.00    -0.273 OA
HETATM   13  N2  UNL     1      -2.972   0.954  -1.610  1.00  0.00    -0.347 N 
ATOM     14  H2  UNL     1      -3.012   0.974  -2.629  1.00  0.00     0.163 HD
HETATM   15  C13 UNL     1      -2.538   2.144  -0.942  1.00  0.00     0.188 C 
HETATM   16  C21 UNL     1      -1.487   2.790  -1.774  1.00  0.00     0.282 C 
HETATM   17  O3  UNL     1      -1.847   3.045  -2.956  1.00  0.00    -0.263 OA
HETATM   18  O4  UNL     1      -0.275   3.073  -1.301  1.00  0.00    -0.305 OA
HETATM   19  C22 UNL     1       0.773   2.296  -0.788  1.00  0.00     0.220 C 
HETATM   20  C23 UNL     1       0.372   1.781   0.536  1.00  0.00     0.050 C 
HETATM   21  C24 UNL     1       1.226   1.332  -1.795  1.00  0.00     0.251 C 
HETATM   22  O5  UNL     1       1.336   1.890  -2.960  1.00  0.00    -0.270 OA
HETATM   23  N3  UNL     1       1.545  -0.020  -1.732  1.00  0.00    -0.325 N 
ATOM     24  H3  UNL     1       1.012  -0.593  -2.386  1.00  0.00     0.169 HD
HETATM   25  C25 UNL     1       2.466  -0.771  -0.940  1.00  0.00     0.064 C 
HETATM   26  C32 UNL     1       1.796  -1.801  -0.053  1.00  0.00     0.216 C 
HETATM   27  O6  UNL     1       1.734  -1.485   1.122  1.00  0.00    -0.284 OA
ENDROOT
BRANCH  25  28
HETATM   28  C26 UNL     1       3.579  -0.045  -0.265  1.00  0.00     0.061 C 
BRANCH  28  29
HETATM   29  C27 UNL     1       4.473   0.652  -1.248  1.00  0.00     0.006 C 
BRANCH  29  30
HETATM   30  C28 UNL     1       5.632   1.366  -0.576  1.00  0.00     0.000 C 
BRANCH  30  31
HETATM   31  C29 UNL     1       5.188   2.419   0.357  1.00  0.00     0.002 C 
BRANCH  31  32
HETATM   32  C30 UNL     1       6.259   3.146   1.103  1.00  0.00     0.027 C 
BRANCH  32  33
HETATM   33  C31 UNL     1       7.238   3.873   0.263  1.00  0.00     0.229 C 
BRANCH  33  34
HETATM   34  N4  UNL     1       8.036   3.057  -0.605  1.00  0.00    -0.079 N 
ATOM     35  H43 UNL     1       8.510   2.333  -0.065  1.00  0.00     0.274 HD
ATOM     36  H42 UNL     1       7.434   2.480  -1.192  1.00  0.00     0.274 HD
ATOM     37  H41 UNL     1       8.710   3.558  -1.184  1.00  0.00     0.274 HD
ENDBRANCH  33  34
ENDBRANCH  32  33
ENDBRANCH  31  32
ENDBRANCH  30  31
ENDBRANCH  29  30
ENDBRANCH  28  29
ENDBRANCH  25  28
BRANCH   1  38
HETATM   38  C3  UNL     1       1.777  -4.282   0.170  1.00  0.00     0.061 C 
BRANCH  38  39
HETATM   39  C2  UNL     1       1.100  -4.644   1.425  1.00  0.00     0.002 C 
HETATM   40  C1  UNL     1       1.837  -5.889   1.967  1.00  0.00     0.005 C 
ENDBRANCH  38  39
ENDBRANCH   1  38
BRANCH   4  41
HETATM   41  O1  UNL     1      -1.604  -1.837  -2.043  1.00  0.00    -0.349 OA
ATOM     42  H1  UNL     1      -2.362  -1.269  -1.967  1.00  0.00     0.219 HD
ENDBRANCH   4  41
BRANCH  15  43
HETATM   43  C14 UNL     1      -3.634   3.188  -0.837  1.00  0.00     0.074 C 
BRANCH  43  44
HETATM   44  C15 UNL     1      -4.822   2.788  -0.109  1.00  0.00    -0.056 A 
HETATM   45  C16 UNL     1      -5.888   2.207  -0.750  1.00  0.00     0.007 A 
HETATM   46  C17 UNL     1      -7.038   1.819  -0.064  1.00  0.00     0.001 A 
HETATM   47  C18 UNL     1      -7.120   2.014   1.277  1.00  0.00     0.000 A 
HETATM   48  C19 UNL     1      -6.074   2.591   1.948  1.00  0.00     0.001 A 
HETATM   49  C20 UNL     1      -4.921   2.979   1.253  1.00  0.00     0.007 A 
ENDBRANCH  43  44
ENDBRANCH  15  43
TORSDOF 12
