REMARK  13 active torsions:
REMARK  status: ('A' for Active; 'I' for Inactive)
REMARK    1  A    between atoms: O1_2  and  C2_3 
REMARK    2  A    between atoms: C7_8  and  C8_9 
REMARK    3  A    between atoms: C8_9  and  N1_10 
REMARK    4  A    between atoms: N1_10  and  C9_12 
REMARK    5  A    between atoms: C10_15  and  N3_16 
REMARK    6  A    between atoms: N3_16  and  C11_18 
REMARK    7  A    between atoms: C11_18  and  C12_19 
REMARK    8  A    between atoms: C14_21  and  S1_22 
REMARK    9  A    between atoms: S1_22  and  N4_25 
REMARK   10  A    between atoms: N4_25  and  C15_27 
REMARK   11  A    between atoms: C15_27  and  C16_28 
REMARK   12  A    between atoms: C19_31  and  C20_32 
REMARK   13  A    between atoms: C20_32  and  N5_33 
ROOT
HETATM    1  C12 UNL     1       0.989  -0.100   0.216  1.00  0.00    -0.018 A 
HETATM    2  C13 UNL     1       1.693  -1.091  -0.422  1.00  0.00     0.035 A 
HETATM    3  C14 UNL     1       2.709  -1.799   0.197  1.00  0.00     0.080 A 
HETATM    4  C23 UNL     1       2.997  -1.476   1.518  1.00  0.00     0.027 A 
HETATM    5  C24 UNL     1       2.309  -0.491   2.169  1.00  0.00     0.025 A 
HETATM    6  C25 UNL     1       1.309   0.217   1.562  1.00  0.00     0.052 A 
HETATM    7  C26 UNL     1       0.596   1.244   2.266  1.00  0.00     0.100 C 
HETATM    8  N6  UNL     1      -0.000   2.061   2.832  1.00  0.00    -0.191 NA
ENDROOT
BRANCH   1   9
HETATM    9  C11 UNL     1      -0.003   0.825  -0.374  1.00  0.00     0.178 C 
BRANCH   9  10
HETATM   10  N3  UNL     1      -1.323   0.237  -0.575  1.00  0.00    -0.222 N 
ATOM     11  H3  UNL     1      -1.443  -0.750  -0.803  1.00  0.00     0.178 HD
BRANCH  10  12
HETATM   12  C10 UNL     1      -2.367   1.063  -0.444  1.00  0.00     0.680 A 
HETATM   13  N2  UNL     1      -3.617   0.602  -0.588  1.00  0.00    -0.176 N 
HETATM   14  C9  UNL     1      -4.721   1.388  -0.482  1.00  0.00     0.133 A 
ATOM     15  H2  UNL     1      -3.747  -0.390  -0.787  1.00  0.00     0.186 HD
HETATM   16  C32 UNL     1      -4.503   2.758  -0.213  1.00  0.00     0.036 A 
HETATM   17  C27 UNL     1      -3.234   3.250  -0.065  1.00  0.00     0.063 A 
HETATM   18  C31 UNL     1      -5.586   3.622  -0.095  1.00  0.00     0.017 A 
HETATM   19  N7  UNL     1      -2.206   2.356  -0.190  1.00  0.00    -0.191 N 
HETATM   20  C28 UNL     1      -2.963   4.598   0.201  1.00  0.00     0.031 A 
ATOM     21  H7  UNL     1      -1.254   2.706  -0.081  1.00  0.00     0.184 HD
HETATM   22  C29 UNL     1      -4.051   5.439   0.316  1.00  0.00     0.002 A 
HETATM   23  C30 UNL     1      -5.345   4.977   0.173  1.00  0.00     0.001 A 
BRANCH  14  24
HETATM   24  N1  UNL     1      -5.932   1.004  -0.533  1.00  0.00    -0.350 N 
ATOM     25  H1  UNL     1      -6.651   1.721  -0.441  1.00  0.00     0.166 HD
BRANCH  24  26
HETATM   26  C8  UNL     1      -6.365  -0.315  -0.704  1.00  0.00     0.104 C 
BRANCH  26  27
HETATM   27  C7  UNL     1      -7.530  -0.720   0.122  1.00  0.00     0.013 A 
HETATM   28  C2  UNL     1      -7.955  -2.056  -0.050  1.00  0.00     0.079 A 
HETATM   29  C3  UNL     1      -9.027  -2.559   0.656  1.00  0.00     0.037 A 
HETATM   30  C4  UNL     1      -9.708  -1.771   1.545  1.00  0.00     0.003 A 
HETATM   31  C5  UNL     1      -9.307  -0.452   1.734  1.00  0.00     0.001 A 
HETATM   32  C6  UNL     1      -8.219   0.042   1.009  1.00  0.00     0.015 A 
BRANCH  28  33
HETATM   33  O1  UNL     1      -7.243  -2.796  -0.942  1.00  0.00    -0.355 OA
HETATM   34  C1  UNL     1      -7.336  -4.094  -1.379  1.00  0.00     0.210 C 
ENDBRANCH  28  33
ENDBRANCH  26  27
ENDBRANCH  24  26
ENDBRANCH  14  24
ENDBRANCH  10  12
ENDBRANCH   9  10
ENDBRANCH   1   9
BRANCH   3  35
HETATM   35  S1  UNL     1       3.722  -2.923  -0.643  1.00  0.00     0.259 S 
HETATM   36  O2  UNL     1       3.179  -3.243  -2.011  1.00  0.00    -0.201 OA
HETATM   37  O3  UNL     1       3.987  -4.181   0.141  1.00  0.00    -0.201 OA
BRANCH  35  38
HETATM   38  N4  UNL     1       5.283  -2.183  -0.914  1.00  0.00    -0.311 N 
ATOM     39  H4  UNL     1       5.674  -2.011  -1.840  1.00  0.00     0.172 HD
BRANCH  38  40
HETATM   40  C15 UNL     1       5.944  -1.849   0.290  1.00  0.00     0.170 C 
BRANCH  40  41
HETATM   41  C16 UNL     1       7.279  -1.226   0.119  1.00  0.00    -0.040 A 
HETATM   42  C17 UNL     1       8.126  -1.309  -0.934  1.00  0.00     0.009 A 
HETATM   43  C18 UNL     1       9.351  -0.644  -0.986  1.00  0.00     0.009 A 
HETATM   44  C19 UNL     1       9.778   0.153   0.046  1.00  0.00    -0.033 A 
HETATM   45  C21 UNL     1       8.912   0.254   1.156  1.00  0.00     0.009 A 
HETATM   46  C22 UNL     1       7.729  -0.401   1.186  1.00  0.00     0.009 A 
BRANCH  44  47
HETATM   47  C20 UNL     1      11.042   0.926   0.065  1.00  0.00     0.268 C 
BRANCH  47  48
HETATM   48  N5  UNL     1      11.588   1.185  -1.244  1.00  0.00    -0.075 N 
ATOM     49  H53 UNL     1      11.708   0.314  -1.761  1.00  0.00     0.274 HD
ATOM     50  H52 UNL     1      10.896   1.643  -1.837  1.00  0.00     0.274 HD
ATOM     51  H51 UNL     1      12.458   1.717  -1.231  1.00  0.00     0.274 HD
ENDBRANCH  47  48
ENDBRANCH  44  47
ENDBRANCH  40  41
ENDBRANCH  38  40
ENDBRANCH  35  38
ENDBRANCH   3  35
TORSDOF 13
