REMARK  10 active torsions:
REMARK  status: ('A' for Active; 'I' for Inactive)
REMARK    1  A    between atoms: S1_2  and  C1_4 
REMARK    2  A    between atoms: S1_2  and  N1_11 
REMARK    3  A    between atoms: C1_4  and  C2_5 
REMARK    4  A    between atoms: N1_11  and  C8_13 
REMARK    5  A    between atoms: C8_13  and  C9_14 
REMARK    6  A    between atoms: C9_14  and  N2_15 
REMARK    7  A    between atoms: N2_15  and  C10_17 
REMARK    8  A    between atoms: N4_21  and  C12_23 
REMARK    9  A    between atoms: N6_32  and  C19_34 
REMARK   10  A    between atoms: C21_36  and  C22_37 
ROOT
HETATM    1  C10 UNL     1       0.675   0.688  -0.390  1.00  0.00     0.711 A 
HETATM    2  N3  UNL     1       0.444  -0.624  -0.385  1.00  0.00    -0.021 N 
ATOM      3  H3  UNL     1       1.234  -1.254  -0.524  1.00  0.00     0.203 HD
HETATM    4  C11 UNL     1      -0.796  -1.171  -0.204  1.00  0.00     0.711 A 
HETATM    5  N4  UNL     1      -0.988  -2.383  -0.079  1.00  0.00    -0.191 N 
ATOM      6  H4  UNL     1      -1.992  -2.523   0.032  1.00  0.00     0.184 HD
HETATM    7  N5  UNL     1      -1.862  -0.307  -0.018  1.00  0.00    -0.021 N 
ATOM      8  H5  UNL     1      -2.800  -0.687   0.112  1.00  0.00     0.203 HD
HETATM    9  C18 UNL     1      -1.683   0.998  -0.007  1.00  0.00     0.711 A 
HETATM   10  N6  UNL     1      -2.647   1.850   0.122  1.00  0.00    -0.191 N 
ATOM     11  H6  UNL     1      -2.412   2.842   0.120  1.00  0.00     0.184 HD
HETATM   12  N9  UNL     1      -0.413   1.513  -0.189  1.00  0.00    -0.021 N 
ATOM     13  H9  UNL     1      -0.277   2.524  -0.174  1.00  0.00     0.203 HD
ENDROOT
BRANCH  10  14
HETATM   14  C19 UNL     1      -3.986   1.497   0.263  1.00  0.00     0.051 A 
HETATM   15  C20 UNL     1      -4.985   2.007  -0.612  1.00  0.00     0.045 A 
HETATM   16  C21 UNL     1      -6.286   1.588  -0.550  1.00  0.00     0.009 A 
HETATM   17  C25 UNL     1      -6.673   0.622   0.397  1.00  0.00     0.054 A 
HETATM   18  N8  UNL     1      -7.971   0.243   0.443  1.00  0.00    -0.365 N 
HETATM   19  C29 UNL     1      -5.730   0.120   1.260  1.00  0.00    -0.006 A 
HETATM   20  C26 UNL     1      -8.420  -0.633   1.327  1.00  0.00     0.088 A 
ATOM     21  H8  UNL     1      -8.626   0.646  -0.227  1.00  0.00     0.165 HD
HETATM   22  C27 UNL     1      -7.503  -1.160   2.218  1.00  0.00     0.018 A 
HETATM   23  C28 UNL     1      -6.154  -0.786   2.189  1.00  0.00     0.015 A 
HETATM   24  C30 UNL     1      -4.431   0.558   1.180  1.00  0.00     0.043 A 
BRANCH  16  25
HETATM   25  C22 UNL     1      -7.346   1.949  -1.559  1.00  0.00     0.099 C 
HETATM   26  N7  UNL     1      -7.899   3.141  -1.280  1.00  0.00    -0.386 N 
HETATM   27  C23 UNL     1      -8.998   3.870  -1.791  1.00  0.00     0.142 A 
HETATM   28  C24 UNL     1      -7.774   4.500  -1.110  1.00  0.00     0.142 A 
ENDBRANCH  16  25
ENDBRANCH  10  14
BRANCH   1  29
HETATM   29  N2  UNL     1       1.748   1.261  -0.869  1.00  0.00    -0.203 N 
ATOM     30  H2  UNL     1       1.824   2.276  -0.800  1.00  0.00     0.183 HD
BRANCH  29  31
HETATM   31  C9  UNL     1       2.787   0.566  -1.465  1.00  0.00     0.099 C 
BRANCH  31  32
HETATM   32  C8  UNL     1       4.181   0.422  -1.080  1.00  0.00     0.176 C 
BRANCH  32  33
HETATM   33  N1  UNL     1       4.412  -0.216   0.178  1.00  0.00    -0.315 N 
ATOM     34  H1  UNL     1       3.702  -0.544   0.833  1.00  0.00     0.172 HD
BRANCH  33  35
HETATM   35  S1  UNL     1       6.154  -0.327   0.380  1.00  0.00     0.230 S 
HETATM   36  O1  UNL     1       6.464  -1.178   1.566  1.00  0.00    -0.206 OA
HETATM   37  O2  UNL     1       6.616  -1.082  -0.875  1.00  0.00    -0.206 OA
BRANCH  35  38
HETATM   38  C1  UNL     1       6.915   1.249   0.405  1.00  0.00     0.201 C 
BRANCH  38  39
HETATM   39  C2  UNL     1       8.367   1.124   0.562  1.00  0.00    -0.043 A 
HETATM   40  C3  UNL     1       8.977   1.087   1.768  1.00  0.00     0.008 A 
HETATM   41  C4  UNL     1      10.369   0.988   1.873  1.00  0.00     0.001 A 
HETATM   42  C5  UNL     1      11.108   0.925   0.698  1.00  0.00     0.000 A 
HETATM   43  C6  UNL     1      10.528   0.960  -0.543  1.00  0.00     0.001 A 
HETATM   44  C7  UNL     1       9.141   1.061  -0.598  1.00  0.00     0.008 A 
ENDBRANCH  38  39
ENDBRANCH  35  38
ENDBRANCH  33  35
ENDBRANCH  32  33
ENDBRANCH  31  32
ENDBRANCH  29  31
ENDBRANCH   1  29
BRANCH   5  45
HETATM   45  C12 UNL     1      -0.399  -3.605  -0.030  1.00  0.00     0.049 A 
HETATM   46  C13 UNL     1       0.588  -4.051  -0.882  1.00  0.00     0.030 A 
HETATM   47  C14 UNL     1       1.108  -5.331  -0.697  1.00  0.00     0.002 A 
HETATM   48  C15 UNL     1       0.682  -6.158   0.296  1.00  0.00     0.000 A 
HETATM   49  C16 UNL     1      -0.323  -5.693   1.158  1.00  0.00     0.002 A 
HETATM   50  C17 UNL     1      -0.849  -4.465   1.006  1.00  0.00     0.030 A 
ENDBRANCH   5  45
TORSDOF 10
