REMARK  11 active torsions:
REMARK  status: ('A' for Active; 'I' for Inactive)
REMARK    1  A    between atoms: C2_2  and  N1_4 
REMARK       I    between atoms: N2_7  and  C6_8 
REMARK    2  A    between atoms: C6_8  and  C7_10 
REMARK    3  A    between atoms: C7_10  and  C8_11 
REMARK    4  A    between atoms: C8_11  and  C9_12 
REMARK    5  A    between atoms: C9_12  and  C10_13 
REMARK    6  A    between atoms: C10_13  and  C11_14 
REMARK    7  A    between atoms: C11_14  and  C12_15 
REMARK    8  A    between atoms: C14_20  and  C15_21 
REMARK    9  A    between atoms: C15_21  and  O3_22 
REMARK   10  A    between atoms: C19_31  and  C20_32 
REMARK   11  A    between atoms: C20_32  and  C21_33 
ROOT
HETATM    1  C12 UNL     1      -2.083  -1.151  -0.067  1.00  0.00     0.176 C 
HETATM    2  N3  UNL     1      -1.936  -2.591  -0.052  1.00  0.00    -0.346 N 
ATOM      3  H3  UNL     1      -1.503  -3.004   0.774  1.00  0.00     0.163 HD
HETATM    4  C13 UNL     1      -2.336  -3.474  -1.074  1.00  0.00     0.243 C 
HETATM    5  O2  UNL     1      -1.649  -4.512  -1.374  1.00  0.00    -0.271 OA
HETATM    6  C14 UNL     1      -3.567  -3.297  -1.892  1.00  0.00     0.200 C 
HETATM    7  N4  UNL     1      -4.515  -4.340  -1.556  1.00  0.00    -0.337 N 
ATOM      8  H4  UNL     1      -4.434  -5.239  -2.031  1.00  0.00     0.164 HD
HETATM    9  C16 UNL     1      -5.548  -4.175  -0.603  1.00  0.00     0.280 C 
HETATM   10  O4  UNL     1      -6.681  -4.640  -0.868  1.00  0.00    -0.260 OA
HETATM   11  S1  UNL     1      -5.300  -3.345   0.936  1.00  0.00    -0.069 SA
HETATM   12  C17 UNL     1      -6.608  -2.181   1.361  1.00  0.00     0.086 C 
HETATM   13  C18 UNL     1      -5.945  -0.953   1.949  1.00  0.00     0.036 C 
HETATM   14  C19 UNL     1      -4.924  -0.431   0.999  1.00  0.00     0.085 C 
HETATM   15  N5  UNL     1      -3.690  -0.223   1.714  1.00  0.00    -0.355 N 
ATOM     16  H5  UNL     1      -3.718   0.363   2.548  1.00  0.00     0.162 HD
HETATM   17  C27 UNL     1      -2.445  -0.774   1.340  1.00  0.00     0.240 C 
HETATM   18  O5  UNL     1      -1.528  -0.990   2.199  1.00  0.00    -0.271 OA
ENDROOT
BRANCH   1  19
HETATM   19  C11 UNL     1      -0.678  -0.557  -0.254  1.00  0.00     0.035 C 
BRANCH  19  20
HETATM   20  C10 UNL     1      -0.063  -1.020  -1.537  1.00  0.00     0.002 C 
BRANCH  20  21
HETATM   21  C9  UNL     1       1.321  -0.461  -1.746  1.00  0.00     0.001 C 
BRANCH  21  22
HETATM   22  C8  UNL     1       2.260  -0.872  -0.631  1.00  0.00     0.009 C 
BRANCH  22  23
HETATM   23  C7  UNL     1       3.650  -0.318  -0.837  1.00  0.00     0.103 C 
BRANCH  23  24
HETATM   24  C6  UNL     1       4.534  -0.728   0.268  1.00  0.00     0.220 C 
HETATM   25  N2  UNL     1       5.913  -0.420   0.265  1.00  0.00    -0.346 N 
HETATM   26  C5  UNL     1       6.479   0.301  -0.839  1.00  0.00     0.146 C 
HETATM   27  C28 UNL     1       6.767  -0.819   1.351  1.00  0.00     0.169 C 
HETATM   28  C4  UNL     1       7.390   1.360  -0.316  1.00  0.00     0.142 C 
HETATM   29  N1  UNL     1       8.398   0.845   0.529  1.00  0.00    -0.386 N 
HETATM   30  C29 UNL     1       8.181  -0.384   1.178  1.00  0.00     0.078 C 
HETATM   31  O1  UNL     1       4.017  -1.377   1.243  1.00  0.00    -0.273 OA
BRANCH  29  32
HETATM   32  C2  UNL     1       9.288   1.775   1.117  1.00  0.00     0.075 C 
HETATM   33  C1  UNL     1      10.347   1.160   1.985  1.00  0.00     0.032 C 
HETATM   34  C3  UNL     1       9.928   2.578  -0.002  1.00  0.00     0.032 C 
ENDBRANCH  29  32
ENDBRANCH  23  24
ENDBRANCH  22  23
ENDBRANCH  21  22
ENDBRANCH  20  21
ENDBRANCH  19  20
ENDBRANCH   1  19
BRANCH   6  35
HETATM   35  C15 UNL     1      -3.244  -3.509  -3.381  1.00  0.00     0.199 C 
BRANCH  35  36
HETATM   36  O3  UNL     1      -2.350  -2.588  -3.866  1.00  0.00    -0.398 OA
ATOM     37  H3  UNL     1      -2.151  -2.719  -4.786  1.00  0.00     0.209 HD
ENDBRANCH  35  36
ENDBRANCH   6  35
BRANCH  14  38
HETATM   38  C20 UNL     1      -5.299   0.681   0.142  1.00  0.00     0.029 C 
BRANCH  38  39
HETATM   39  C21 UNL     1      -5.743   1.978   0.704  1.00  0.00    -0.013 C 
HETATM   40  C22 UNL     1      -6.039   2.843  -0.538  1.00  0.00     0.005 C 
HETATM   41  C23 UNL     1      -6.366   4.249  -0.187  1.00  0.00     0.000 C 
HETATM   42  C24 UNL     1      -5.059   4.839   0.368  1.00  0.00     0.000 C 
HETATM   43  C25 UNL     1      -4.858   4.152   1.670  1.00  0.00     0.000 C 
HETATM   44  C26 UNL     1      -4.767   2.649   1.601  1.00  0.00     0.005 C 
ENDBRANCH  38  39
ENDBRANCH  14  38
TORSDOF 11
