REMARK  10 active torsions:
REMARK  status: ('A' for Active; 'I' for Inactive)
REMARK    1  A    between atoms: N3_4  and  C2_6 
REMARK    2  A    between atoms: C2_6  and  C3_7 
REMARK    3  A    between atoms: C3_7  and  C4_8 
REMARK    4  A    between atoms: C4_8  and  C5_9 
REMARK    5  A    between atoms: C15_23  and  O3_24 
REMARK    6  A    between atoms: O3_24  and  C16_25 
REMARK    7  A    between atoms: C16_25  and  C17_26 
REMARK    8  A    between atoms: C17_26  and  C18_27 
REMARK    9  A    between atoms: C18_27  and  N5_28 
REMARK   10  A    between atoms: N6_31  and  C21_32 
ROOT
HETATM    1  C5  UNL     1      -4.866   0.572   0.297  1.00  0.00     0.177 C 
HETATM    2  N4  UNL     1      -3.559   0.142  -0.088  1.00  0.00    -0.344 N 
ATOM      3  H4  UNL     1      -3.184   0.461  -0.981  1.00  0.00     0.163 HD
HETATM    4  C6  UNL     1      -2.747  -0.723   0.731  1.00  0.00     0.255 C 
HETATM    5  O1  UNL     1      -2.157  -1.741   0.224  1.00  0.00    -0.268 OA
HETATM    6  C7  UNL     1      -2.536  -0.517   2.171  1.00  0.00     0.065 A 
HETATM    7  C8  UNL     1      -2.784  -1.633   2.987  1.00  0.00     0.020 A 
HETATM    8  C9  UNL     1      -2.669  -1.610   4.351  1.00  0.00     0.001 A 
HETATM    9  C10 UNL     1      -2.291  -0.429   4.941  1.00  0.00     0.003 A 
HETATM   10  C11 UNL     1      -2.045   0.661   4.161  1.00  0.00     0.038 A 
HETATM   11  C12 UNL     1      -2.156   0.658   2.753  1.00  0.00     0.091 A 
HETATM   12  O2  UNL     1      -1.864   1.823   2.145  1.00  0.00    -0.307 OA
HETATM   13  C13 UNL     1      -1.599   2.406   0.977  1.00  0.00     0.105 A 
HETATM   14  C14 UNL     1      -0.317   2.528   0.415  1.00  0.00     0.076 A 
HETATM   15  C15 UNL     1      -0.007   3.122  -0.780  1.00  0.00     0.071 A 
HETATM   16  C29 UNL     1      -1.080   3.657  -1.497  1.00  0.00     0.039 A 
HETATM   17  C30 UNL     1      -2.345   3.565  -0.993  1.00  0.00     0.035 A 
HETATM   18  C31 UNL     1      -2.645   2.961   0.212  1.00  0.00     0.069 A 
HETATM   19  N7  UNL     1      -4.010   2.970   0.586  1.00  0.00    -0.323 N 
ATOM     20  H7  UNL     1      -4.486   3.869   0.517  1.00  0.00     0.169 HD
HETATM   21  C32 UNL     1      -4.799   1.882   1.045  1.00  0.00     0.245 C 
HETATM   22  O4  UNL     1      -5.470   1.998   2.108  1.00  0.00    -0.271 OA
ENDROOT
BRANCH  15  23
HETATM   23  O3  UNL     1       1.270   3.215  -1.303  1.00  0.00    -0.351 OA
BRANCH  23  24
HETATM   24  C16 UNL     1       2.405   2.691  -0.741  1.00  0.00     0.177 C 
BRANCH  24  25
HETATM   25  C17 UNL     1       2.529   1.204  -0.668  1.00  0.00     0.046 C 
BRANCH  25  26
HETATM   26  C18 UNL     1       3.852   0.849   0.025  1.00  0.00     0.119 C 
BRANCH  26  27
HETATM   27  N5  UNL     1       4.052  -0.553   0.130  1.00  0.00    -0.409 N 
HETATM   28  C19 UNL     1       4.300  -1.238  -1.087  1.00  0.00     0.136 C 
HETATM   29  C20 UNL     1       5.667  -1.876  -1.161  1.00  0.00     0.142 C 
HETATM   30  N6  UNL     1       6.642  -1.292  -0.287  1.00  0.00    -0.378 N 
HETATM   31  C27 UNL     1       6.289  -0.553   0.907  1.00  0.00     0.142 C 
HETATM   32  C28 UNL     1       4.853  -0.953   1.252  1.00  0.00     0.136 C 
BRANCH  30  33
HETATM   33  C21 UNL     1       8.017  -1.452  -0.608  1.00  0.00     0.030 A 
HETATM   34  C22 UNL     1       8.439  -2.228  -1.659  1.00  0.00     0.029 A 
HETATM   35  C23 UNL     1       9.786  -2.357  -1.943  1.00  0.00     0.002 A 
HETATM   36  C24 UNL     1      10.742  -1.723  -1.197  1.00  0.00     0.000 A 
HETATM   37  C25 UNL     1      10.347  -0.942  -0.141  1.00  0.00     0.002 A 
HETATM   38  C26 UNL     1       8.992  -0.817   0.140  1.00  0.00     0.029 A 
ENDBRANCH  30  33
ENDBRANCH  26  27
ENDBRANCH  25  26
ENDBRANCH  24  25
ENDBRANCH  23  24
ENDBRANCH  15  23
BRANCH   1  39
HETATM   39  C4  UNL     1      -5.792   0.794  -0.888  1.00  0.00     0.036 C 
BRANCH  39  40
HETATM   40  C3  UNL     1      -5.980  -0.462  -1.694  1.00  0.00     0.022 C 
BRANCH  40  41
HETATM   41  C2  UNL     1      -6.570  -1.585  -0.908  1.00  0.00     0.122 C 
BRANCH  41  42
HETATM   42  N3  UNL     1      -7.872  -1.302  -0.357  1.00  0.00    -0.367 N 
HETATM   43  C1  UNL     1      -8.968  -1.536  -0.992  1.00  0.00     0.196 C 
HETATM   44  N1  UNL     1      -8.892  -2.097  -2.292  1.00  0.00    -0.067 NA
HETATM   45  N2  UNL     1     -10.226  -1.243  -0.409  1.00  0.00    -0.067 NA
ATOM     46  H3  UNL     1      -7.928  -0.898   0.578  1.00  0.00     0.161 HD
ENDBRANCH  41  42
ENDBRANCH  40  41
ENDBRANCH  39  40
ENDBRANCH   1  39
TORSDOF 10
