REMARK  11 active torsions:
REMARK  status: ('A' for Active; 'I' for Inactive)
REMARK    1  A    between atoms: C2_2  and  C3_3 
REMARK    2  A    between atoms: C3_3  and  C5_5 
REMARK    3  A    between atoms: C6_8  and  O1_9 
REMARK    4  A    between atoms: C7_11  and  C8_12 
REMARK    5  A    between atoms: C8_12  and  C9_13 
REMARK    6  A    between atoms: C18_23  and  C19_24 
REMARK    7  A    between atoms: C19_24  and  O3_25 
REMARK    8  A    between atoms: C23_30  and  C24_31 
REMARK    9  A    between atoms: C25_36  and  O5_37 
REMARK   10  A    between atoms: C26_39  and  C27_40 
REMARK   11  A    between atoms: C27_40  and  C28_41 
ROOT
HETATM    1  C5  UNL     1      -3.083   0.333   1.921  1.00  0.00     0.083 C 
HETATM    2  N1  UNL     1      -2.652  -0.974   2.267  1.00  0.00    -0.337 N 
ATOM      3  H1  UNL     1      -2.483  -1.048   3.270  1.00  0.00     0.167 HD
HETATM    4  C6  UNL     1      -2.396  -2.175   1.634  1.00  0.00     0.149 C 
HETATM    5  C7  UNL     1      -1.329  -2.706   0.759  1.00  0.00     0.218 C 
HETATM    6  O2  UNL     1      -0.229  -3.030   1.488  1.00  0.00    -0.374 OA
HETATM    7  C12 UNL     1       0.860  -3.504   0.806  1.00  0.00     0.169 C 
HETATM    8  C13 UNL     1       1.196  -2.838  -0.488  1.00  0.00     0.026 C 
HETATM    9  C14 UNL     1       1.977  -3.835  -1.376  1.00  0.00     0.002 C 
HETATM   10  C15 UNL     1       3.381  -3.968  -0.913  1.00  0.00     0.000 C 
HETATM   11  C16 UNL     1       4.220  -3.026  -1.774  1.00  0.00     0.001 C 
HETATM   12  C17 UNL     1       5.374  -2.549  -0.934  1.00  0.00     0.017 C 
HETATM   13  C18 UNL     1       5.106  -1.138  -0.493  1.00  0.00     0.071 C 
HETATM   14  S1  UNL     1       4.587  -0.102  -1.884  1.00  0.00    -0.162 SA
HETATM   15  C21 UNL     1       4.022   1.475  -1.128  1.00  0.00     0.080 C 
HETATM   16  C22 UNL     1       2.525   1.534  -1.180  1.00  0.00     0.073 C 
HETATM   17  C23 UNL     1       1.928   2.746  -0.620  1.00  0.00     0.077 C 
HETATM   18  N3  UNL     1       1.243   2.659   0.654  1.00  0.00    -0.338 N 
ATOM     19  H3  UNL     1       1.690   2.007   1.299  1.00  0.00     0.167 HD
HETATM   20  C25 UNL     1       0.128   3.256   1.190  1.00  0.00     0.139 C 
HETATM   21  C26 UNL     1      -1.331   3.022   0.962  1.00  0.00     0.160 C 
HETATM   22  N4  UNL     1      -1.632   1.762   0.338  1.00  0.00    -0.344 N 
ATOM     23  H4  UNL     1      -0.991   1.437  -0.386  1.00  0.00     0.163 HD
HETATM   24  C31 UNL     1      -2.757   0.919   0.644  1.00  0.00     0.265 C 
HETATM   25  O6  UNL     1      -3.554   0.679  -0.333  1.00  0.00    -0.266 OA
ENDROOT
BRANCH   1  26
HETATM   26  C3  UNL     1      -4.533   0.530   2.368  1.00  0.00     0.037 C 
HETATM   27  C4  UNL     1      -5.036   1.874   1.851  1.00  0.00     0.016 C 
BRANCH  26  28
HETATM   28  C2  UNL     1      -5.479  -0.475   1.780  1.00  0.00     0.006 C 
HETATM   29  C1  UNL     1      -6.890  -0.108   2.188  1.00  0.00     0.006 C 
ENDBRANCH  26  28
ENDBRANCH   1  26
BRANCH   4  30
HETATM   30  O1  UNL     1      -3.297  -3.129   1.847  1.00  0.00    -0.347 OA
ATOM     31  H1  UNL     1      -3.121  -3.955   1.412  1.00  0.00     0.219 HD
ENDBRANCH   4  30
BRANCH   5  32
HETATM   32  C8  UNL     1      -1.794  -3.851  -0.068  1.00  0.00     0.015 C 
BRANCH  32  33
HETATM   33  C9  UNL     1      -2.734  -3.738  -1.164  1.00  0.00    -0.088 C 
HETATM   34  C10 UNL     1      -4.048  -3.117  -1.115  1.00  0.00     0.042 C 
HETATM   35  C11 UNL     1      -2.102  -3.587  -2.549  1.00  0.00     0.042 C 
ENDBRANCH  32  33
ENDBRANCH   5  32
BRANCH  21  36
HETATM   36  C27 UNL     1      -2.054   4.199   0.419  1.00  0.00     0.037 C 
BRANCH  36  37
HETATM   37  C28 UNL     1      -1.677   4.723  -0.902  1.00  0.00    -0.020 C 
HETATM   38  C29 UNL     1      -1.861   3.773  -2.061  1.00  0.00     0.009 C 
HETATM   39  C30 UNL     1      -2.466   5.991  -1.162  1.00  0.00     0.009 C 
ENDBRANCH  36  37
ENDBRANCH  21  36
BRANCH  20  40
HETATM   40  O5  UNL     1       0.269   4.224   2.073  1.00  0.00    -0.348 OA
ATOM     41  H5  UNL     1      -0.502   4.637   2.444  1.00  0.00     0.219 HD
ENDBRANCH  20  40
BRANCH  17  42
HETATM   42  C24 UNL     1       2.741   3.971  -0.699  1.00  0.00     0.277 C 
HETATM   43  N2  UNL     1       3.818   4.235   0.196  1.00  0.00    -0.056 NA
HETATM   44  O4  UNL     1       2.523   4.892  -1.572  1.00  0.00    -0.270 OA
ENDBRANCH  17  42
BRANCH  13  45
HETATM   45  C19 UNL     1       6.373  -0.517   0.081  1.00  0.00     0.182 C 
BRANCH  45  46
HETATM   46  O3  UNL     1       6.815  -1.247   1.185  1.00  0.00    -0.395 OA
HETATM   47  C20 UNL     1       8.017  -0.653   1.607  1.00  0.00     0.201 C 
ENDBRANCH  45  46
ENDBRANCH  13  45
TORSDOF 11
