REMARK  12 active torsions:
REMARK  status: ('A' for Active; 'I' for Inactive)
REMARK    1  A    between atoms: C2_2  and  C3_3 
REMARK    2  A    between atoms: C3_3  and  C4_4 
REMARK    3  A    between atoms: C4_4  and  N1_5 
REMARK       I    between atoms: N1_5  and  C5_7 
REMARK       I    between atoms: C5_7  and  N2_9 
REMARK    4  A    between atoms: N2_9  and  C6_10 
REMARK    5  A    between atoms: C7_11  and  O2_12 
REMARK    6  A    between atoms: C8_15  and  C9_16 
REMARK    7  A    between atoms: C9_16  and  C10_17 
REMARK    8  A    between atoms: C15_22  and  O4_23 
REMARK    9  A    between atoms: C17_27  and  C18_28 
REMARK   10  A    between atoms: C22_35  and  C23_36 
REMARK   11  A    between atoms: C23_36  and  C24_37 
REMARK   12  A    between atoms: C28_44  and  C29_45 
ROOT
HETATM    1  C6  UNL     1       1.767  -0.241   0.445  1.00  0.00     0.294 C 
HETATM    2  C7  UNL     1       1.186  -1.591   0.847  1.00  0.00     0.300 C 
HETATM    3  O3  UNL     1       0.339  -2.367   0.278  1.00  0.00    -0.352 OA
HETATM    4  C8  UNL     1      -0.588  -2.808  -0.575  1.00  0.00     0.136 C 
HETATM    5  C13 UNL     1      -2.068  -2.609  -0.197  1.00  0.00     0.085 C 
HETATM    6  C14 UNL     1      -2.791  -2.260  -1.431  1.00  0.00     0.021 C 
HETATM    7  C15 UNL     1      -2.231  -1.860   1.028  1.00  0.00     0.120 C 
HETATM    8  N3  UNL     1      -2.768  -0.697   1.530  1.00  0.00    -0.356 N 
HETATM    9  C16 UNL     1      -1.852  -0.019   2.531  1.00  0.00     0.152 C 
HETATM   10  C17 UNL     1      -4.005   0.007   1.368  1.00  0.00     0.181 C 
HETATM   11  C21 UNL     1      -4.339   0.650   0.128  1.00  0.00     0.241 C 
HETATM   12  O5  UNL     1      -5.292   0.103  -0.562  1.00  0.00    -0.271 OA
HETATM   13  N4  UNL     1      -3.813   1.803  -0.503  1.00  0.00    -0.346 N 
ATOM     14  H4  UNL     1      -4.507   2.414  -0.935  1.00  0.00     0.163 HD
HETATM   15  C22 UNL     1      -2.470   2.239  -0.627  1.00  0.00     0.177 C 
HETATM   16  C27 UNL     1      -1.803   1.707  -1.852  1.00  0.00     0.241 C 
HETATM   17  O6  UNL     1      -2.436   1.967  -2.935  1.00  0.00    -0.271 OA
HETATM   18  N5  UNL     1      -0.619   0.990  -1.942  1.00  0.00    -0.347 N 
ATOM     19  H5  UNL     1      -0.674   0.125  -2.479  1.00  0.00     0.163 HD
HETATM   20  C28 UNL     1       0.665   1.286  -1.393  1.00  0.00     0.161 C 
HETATM   21  C32 UNL     1       1.469   0.098  -0.981  1.00  0.00     0.190 C 
HETATM   22  O7  UNL     1       1.916  -0.645  -1.841  1.00  0.00    -0.292 OA
ENDROOT
BRANCH   1  23
HETATM   23  N2  UNL     1       3.112  -0.155   0.778  1.00  0.00    -0.378 NA
HETATM   24  C5  UNL     1       4.416  -0.073   1.100  1.00  0.00     0.389 C 
HETATM   25  N1  UNL     1       5.394  -0.563   0.143  1.00  0.00    -0.331 N 
HETATM   26  O1  UNL     1       4.933   0.378   2.134  1.00  0.00    -0.231 OA
ATOM     27  H1  UNL     1       5.056  -0.939  -0.743  1.00  0.00     0.165 HD
BRANCH  25  28
HETATM   28  C4  UNL     1       6.803  -0.546   0.376  1.00  0.00     0.125 C 
BRANCH  28  29
HETATM   29  C3  UNL     1       7.412   0.796   0.610  1.00  0.00     0.019 C 
BRANCH  29  30
HETATM   30  C2  UNL     1       8.914   0.553   0.824  1.00  0.00    -0.003 C 
HETATM   31  C1  UNL     1       9.643   1.835   1.083  1.00  0.00     0.005 C 
ENDBRANCH  29  30
ENDBRANCH  28  29
ENDBRANCH  25  28
ENDBRANCH   1  23
BRANCH   2  32
HETATM   32  O2  UNL     1       1.697  -1.960   1.992  1.00  0.00    -0.368 OA
ATOM     33  H2  UNL     1       1.335  -2.802   2.243  1.00  0.00     0.212 HD
ENDBRANCH   2  32
BRANCH  20  34
HETATM   34  C29 UNL     1       1.407   2.059  -2.501  1.00  0.00     0.008 C 
HETATM   35  C30 UNL     1       1.556   1.257  -3.756  1.00  0.00     0.012 C 
HETATM   36  C31 UNL     1       2.705   2.625  -2.001  1.00  0.00     0.012 C 
ENDBRANCH  20  34
BRANCH   4  37
HETATM   37  C9  UNL     1      -0.273  -4.053  -1.324  1.00  0.00     0.037 C 
BRANCH  37  38
HETATM   38  C10 UNL     1       0.053  -5.302  -0.623  1.00  0.00    -0.020 C 
HETATM   39  C11 UNL     1      -1.022  -5.844   0.269  1.00  0.00     0.009 C 
HETATM   40  C12 UNL     1       0.296  -6.379  -1.696  1.00  0.00     0.009 C 
ENDBRANCH  37  38
ENDBRANCH   4  37
BRANCH   7  41
HETATM   41  O4  UNL     1      -1.637  -2.588   1.976  1.00  0.00    -0.349 OA
ATOM     42  H4  UNL     1      -1.744  -2.096   2.781  1.00  0.00     0.219 HD
ENDBRANCH   7  41
BRANCH  15  43
HETATM   43  C23 UNL     1      -2.323   3.732  -0.715  1.00  0.00     0.038 C 
BRANCH  43  44
HETATM   44  C24 UNL     1      -2.795   4.531   0.443  1.00  0.00    -0.020 C 
HETATM   45  C25 UNL     1      -4.244   4.442   0.777  1.00  0.00     0.009 C 
HETATM   46  C26 UNL     1      -2.384   5.978   0.176  1.00  0.00     0.009 C 
ENDBRANCH  43  44
ENDBRANCH  15  43
BRANCH  10  47
HETATM   47  C18 UNL     1      -5.202  -0.806   1.895  1.00  0.00     0.009 C 
HETATM   48  C19 UNL     1      -5.030  -1.135   3.354  1.00  0.00     0.012 C 
HETATM   49  C20 UNL     1      -6.399   0.142   1.835  1.00  0.00     0.012 C 
ENDBRANCH  10  47
TORSDOF 12
