REMARK  10 active torsions:
REMARK  status: ('A' for Active; 'I' for Inactive)
REMARK    1  A    between atoms: C2_2  and  C3_3 
REMARK    2  A    between atoms: C3_3  and  C4_4 
REMARK    3  A    between atoms: C11_16  and  C12_17 
REMARK    4  A    between atoms: C12_17  and  C13_18 
REMARK    5  A    between atoms: C15_25  and  C16_26 
REMARK    6  A    between atoms: C16_26  and  C17_27 
REMARK    7  A    between atoms: C20_32  and  C21_33 
REMARK    8  A    between atoms: C21_33  and  O6_35 
REMARK    9  A    between atoms: O6_35  and  C23_36 
REMARK   10  A    between atoms: C23_36  and  C24_37 
ROOT
HETATM    1  C4  UNL     1      -2.420   1.960   0.426  1.00  0.00     0.177 C 
HETATM    2  N1  UNL     1      -3.723   1.347   0.336  1.00  0.00    -0.346 N 
ATOM      3  H1  UNL     1      -4.277   1.308   1.191  1.00  0.00     0.163 HD
HETATM    4  C5  UNL     1      -4.301   0.795  -0.830  1.00  0.00     0.241 C 
HETATM    5  O1  UNL     1      -5.411   0.232  -0.686  1.00  0.00    -0.271 OA
HETATM    6  C6  UNL     1      -3.680   0.862  -2.112  1.00  0.00     0.179 C 
HETATM    7  C7  UNL     1      -4.678   0.636  -3.270  1.00  0.00     0.037 C 
HETATM    8  C8  UNL     1      -3.774   0.327  -4.444  1.00  0.00     0.022 C 
HETATM    9  C9  UNL     1      -2.379   0.499  -3.886  1.00  0.00     0.127 C 
HETATM   10  N2  UNL     1      -2.626  -0.000  -2.488  1.00  0.00    -0.337 N 
HETATM   11  C10 UNL     1      -1.969  -1.024  -1.777  1.00  0.00     0.243 C 
HETATM   12  O2  UNL     1      -0.723  -1.103  -1.963  1.00  0.00    -0.271 OA
HETATM   13  C11 UNL     1      -2.545  -2.014  -0.845  1.00  0.00     0.186 C 
HETATM   14  N3  UNL     1      -1.524  -2.810  -0.208  1.00  0.00    -0.346 N 
ATOM     15  H3  UNL     1      -0.972  -3.376  -0.853  1.00  0.00     0.163 HD
HETATM   16  C14 UNL     1      -1.159  -2.944   1.119  1.00  0.00     0.241 C 
HETATM   17  O5  UNL     1      -0.926  -4.075   1.631  1.00  0.00    -0.271 OA
HETATM   18  C15 UNL     1      -0.981  -1.810   2.146  1.00  0.00     0.175 C 
HETATM   19  N4  UNL     1       0.069  -0.982   1.772  1.00  0.00    -0.364 N 
ATOM     20  H4  UNL     1       0.876  -1.525   1.466  1.00  0.00     0.161 HD
HETATM   21  C20 UNL     1       0.299   0.248   1.706  1.00  0.00     0.109 C 
HETATM   22  N5  UNL     1      -0.534   1.329   2.080  1.00  0.00    -0.313 N 
ATOM     23  H5  UNL     1      -0.086   2.017   2.686  1.00  0.00     0.170 HD
HETATM   24  C32 UNL     1      -1.859   1.616   1.764  1.00  0.00     0.245 C 
HETATM   25  O7  UNL     1      -2.733   1.595   2.706  1.00  0.00    -0.271 OA
ENDROOT
BRANCH  21  26
HETATM   26  C21 UNL     1       1.687   0.683   1.194  1.00  0.00     0.184 C 
HETATM   27  C22 UNL     1       2.148   1.688   2.265  1.00  0.00     0.048 C 
BRANCH  26  28
HETATM   28  O6  UNL     1       1.623   1.250  -0.007  1.00  0.00    -0.378 OA
BRANCH  28  29
HETATM   29  C23 UNL     1       2.326   0.804  -1.054  1.00  0.00     0.177 C 
BRANCH  29  30
HETATM   30  C24 UNL     1       3.805   0.825  -1.060  1.00  0.00    -0.022 C 
HETATM   31  C25 UNL     1       4.265   2.262  -0.861  1.00  0.00     0.017 C 
HETATM   32  C26 UNL     1       4.535  -0.063  -0.125  1.00  0.00     0.011 C 
HETATM   33  C27 UNL     1       5.977  -0.325  -0.601  1.00  0.00     0.001 C 
HETATM   34  C28 UNL     1       6.075  -1.637  -1.313  1.00  0.00     0.000 C 
HETATM   35  C29 UNL     1       5.614  -1.547  -2.748  1.00  0.00     0.000 C 
HETATM   36  C30 UNL     1       4.187  -1.021  -2.732  1.00  0.00     0.001 C 
HETATM   37  C31 UNL     1       4.205   0.452  -2.520  1.00  0.00     0.011 C 
ENDBRANCH  29  30
ENDBRANCH  28  29
ENDBRANCH  26  28
ENDBRANCH  21  26
BRANCH  18  38
HETATM   38  C16 UNL     1      -0.855  -2.473   3.469  1.00  0.00     0.038 C 
BRANCH  38  39
HETATM   39  C17 UNL     1      -0.670  -1.762   4.720  1.00  0.00    -0.020 C 
HETATM   40  C18 UNL     1       0.601  -0.981   4.832  1.00  0.00     0.009 C 
HETATM   41  C19 UNL     1      -0.622  -2.804   5.871  1.00  0.00     0.009 C 
ENDBRANCH  38  39
ENDBRANCH  18  38
BRANCH   1  42
HETATM   42  C3  UNL     1      -2.622   3.462   0.298  1.00  0.00     0.034 C 
BRANCH  42  43
HETATM   43  C2  UNL     1      -1.310   4.207   0.380  1.00  0.00    -0.002 C 
HETATM   44  C1  UNL     1      -1.520   5.700   0.251  1.00  0.00     0.005 C 
ENDBRANCH  42  43
ENDBRANCH   1  42
BRANCH  13  45
HETATM   45  C12 UNL     1      -3.397  -2.920  -1.761  1.00  0.00     0.147 C 
BRANCH  45  46
HETATM   46  C13 UNL     1      -4.064  -3.976  -0.974  1.00  0.00     0.175 C 
HETATM   47  O3  UNL     1      -3.993  -4.117   0.263  1.00  0.00    -0.648 OA
HETATM   48  O4  UNL     1      -4.846  -4.903  -1.678  1.00  0.00    -0.648 OA
ENDBRANCH  45  46
ENDBRANCH  13  45
TORSDOF 10
