REMARK  8 active torsions:
REMARK  status: ('A' for Active; 'I' for Inactive)
REMARK    1  A    between atoms: C3_5  and  C4_6 
REMARK    2  A    between atoms: C4_6  and  C5_7 
REMARK    3  A    between atoms: C5_7  and  C6_8 
REMARK    4  A    between atoms: C6_8  and  N2_9 
REMARK    5  A    between atoms: N3_12  and  C9_13 
REMARK    6  A    between atoms: C9_13  and  C10_14 
REMARK    7  A    between atoms: C20_32  and  C21_33 
REMARK    8  A    between atoms: N7_39  and  C27_40 
ROOT
HETATM    1  N2  UNL     1       0.484  -0.191  -0.780  1.00  0.00    -0.390 N 
HETATM    2  C7  UNL     1       0.944  -1.344  -0.125  1.00  0.00     0.152 C 
HETATM    3  C8  UNL     1       2.472  -1.400  -0.009  1.00  0.00     0.292 C 
HETATM    4  N3  UNL     1       3.012  -0.207   0.544  1.00  0.00     0.095 N 
HETATM    5  C18 UNL     1       2.065   0.869   0.659  1.00  0.00     0.292 C 
HETATM    6  C19 UNL     1       1.172   1.026  -0.548  1.00  0.00     0.152 C 
ENDROOT
BRANCH   1   7
HETATM    7  C6  UNL     1      -0.833  -0.146  -1.245  1.00  0.00     0.058 C 
BRANCH   7   8
HETATM    8  C5  UNL     1      -1.182  -1.052  -2.378  1.00  0.00     0.049 C 
BRANCH   8   9
HETATM    9  C4  UNL     1      -2.654  -0.860  -2.740  1.00  0.00     0.052 C 
BRANCH   9  10
HETATM   10  C3  UNL     1      -3.545  -1.161  -1.642  1.00  0.00     0.041 A 
HETATM   11  C2  UNL     1      -3.833  -2.435  -1.188  1.00  0.00     0.270 A 
HETATM   12  N1  UNL     1      -4.624  -2.341  -0.135  1.00  0.00    -0.254 N 
HETATM   13  O1  UNL     1      -3.398  -3.474  -1.716  1.00  0.00    -0.266 OA
HETATM   14  C1  UNL     1      -5.168  -3.468   0.640  1.00  0.00     0.182 C 
HETATM   15  N7  UNL     1      -4.874  -1.043   0.128  1.00  0.00    -0.251 N 
HETATM   16  C20 UNL     1      -4.209  -0.297  -0.806  1.00  0.00     0.079 A 
BRANCH  15  17
HETATM   17  C27 UNL     1      -5.723  -0.647   1.189  1.00  0.00     0.057 A 
HETATM   18  C28 UNL     1      -6.957  -0.031   0.968  1.00  0.00     0.031 A 
HETATM   19  C29 UNL     1      -7.800   0.329   1.995  1.00  0.00     0.002 A 
HETATM   20  C30 UNL     1      -7.460   0.094   3.308  1.00  0.00     0.000 A 
HETATM   21  C31 UNL     1      -6.248  -0.513   3.557  1.00  0.00     0.002 A 
HETATM   22  C32 UNL     1      -5.404  -0.873   2.526  1.00  0.00     0.031 A 
ENDBRANCH  15  17
BRANCH  16  23
HETATM   23  C21 UNL     1      -4.396   1.153  -0.900  1.00  0.00    -0.007 A 
HETATM   24  C22 UNL     1      -4.437   1.787  -2.116  1.00  0.00     0.014 A 
HETATM   25  C23 UNL     1      -4.504   3.167  -2.277  1.00  0.00     0.001 A 
HETATM   26  C24 UNL     1      -4.534   3.967  -1.168  1.00  0.00     0.000 A 
HETATM   27  C25 UNL     1      -4.498   3.390   0.076  1.00  0.00     0.001 A 
HETATM   28  C26 UNL     1      -4.429   1.995   0.205  1.00  0.00     0.014 A 
ENDBRANCH  16  23
ENDBRANCH   9  10
ENDBRANCH   8   9
ENDBRANCH   7   8
ENDBRANCH   1   7
BRANCH   4  29
HETATM   29  C9  UNL     1       4.072   0.273  -0.384  1.00  0.00     0.302 C 
BRANCH  29  30
HETATM   30  C10 UNL     1       5.207  -0.593  -0.410  1.00  0.00     0.033 C 
HETATM   31  C11 UNL     1       6.472  -0.605  -0.132  1.00  0.00     0.046 A 
HETATM   32  N4  UNL     1       7.235  -1.833  -0.369  1.00  0.00    -0.332 N 
HETATM   33  C17 UNL     1       7.249   0.505   0.426  1.00  0.00     0.035 A 
HETATM   34  C12 UNL     1       8.601  -1.904  -0.076  1.00  0.00     0.177 A 
ATOM     35  H4  UNL     1       6.762  -2.650  -0.754  1.00  0.00     0.168 HD
HETATM   36  S1  UNL     1       9.384  -3.322  -0.374  1.00  0.00    -0.040 SA
HETATM   37  N5  UNL     1       9.329  -0.822   0.458  1.00  0.00    -0.318 N 
HETATM   38  C13 UNL     1       8.599   0.399   0.702  1.00  0.00     0.122 A 
ATOM     39  H5  UNL     1      10.325  -0.898   0.663  1.00  0.00     0.170 HD
HETATM   40  N6  UNL     1       9.301   1.427   1.233  1.00  0.00    -0.309 N 
HETATM   41  C14 UNL     1       8.734   2.597   1.520  1.00  0.00     0.246 A 
ATOM     42  H6  UNL     1      10.296   1.301   1.419  1.00  0.00     0.170 HD
HETATM   43  O2  UNL     1       9.397   3.535   2.009  1.00  0.00    -0.268 OA
HETATM   44  C15 UNL     1       7.395   2.740   1.262  1.00  0.00     0.075 A 
HETATM   45  C16 UNL     1       6.663   1.704   0.722  1.00  0.00     0.023 A 
ENDBRANCH  29  30
ENDBRANCH   4  29
TORSDOF 8
