REMARK  11 active torsions:
REMARK  status: ('A' for Active; 'I' for Inactive)
REMARK    1  A    between atoms: C4_4  and  N1_5 
REMARK    2  A    between atoms: N1_5  and  C5_7 
REMARK    3  A    between atoms: C6_10  and  N3_11 
REMARK    4  A    between atoms: N3_11  and  C7_13 
REMARK    5  A    between atoms: C16_22  and  C17_23 
REMARK    6  A    between atoms: C22_32  and  N6_33 
REMARK    7  A    between atoms: N6_33  and  C23_35 
REMARK    8  A    between atoms: C23_35  and  C24_36 
REMARK    9  A    between atoms: C24_36  and  C25_37 
REMARK   10  A    between atoms: C25_37  and  C26_38 
REMARK   11  A    between atoms: C26_38  and  N7_39 
ROOT
HETATM    1  C5  UNL     1      -1.960   2.669   0.877  1.00  0.00     0.713 A 
HETATM    2  N2  UNL     1      -2.893   1.810   0.442  1.00  0.00    -0.021 N 
ATOM      3  H2  UNL     1      -3.877   2.069   0.510  1.00  0.00     0.203 HD
HETATM    4  C6  UNL     1      -2.558   0.594  -0.091  1.00  0.00     0.707 A 
HETATM    5  N5  UNL     1      -1.268   0.302  -0.158  1.00  0.00    -0.022 N 
ATOM      6  H5  UNL     1      -1.001  -0.600  -0.553  1.00  0.00     0.203 HD
HETATM    7  C22 UNL     1      -0.271   1.138   0.271  1.00  0.00     0.707 A 
HETATM    8  N9  UNL     1      -0.666   2.317   0.783  1.00  0.00    -0.021 N 
ATOM      9  H9  UNL     1       0.044   2.970   1.113  1.00  0.00     0.203 HD
ENDROOT
BRANCH   4  10
HETATM   10  N3  UNL     1      -3.521  -0.128  -0.467  1.00  0.00    -0.219 N 
ATOM     11  H3  UNL     1      -4.441   0.289  -0.324  1.00  0.00     0.178 HD
BRANCH  10  12
HETATM   12  C7  UNL     1      -3.549  -1.418  -1.053  1.00  0.00     0.114 C 
HETATM   13  C8  UNL     1      -4.117  -1.377  -2.470  1.00  0.00     0.031 C 
HETATM   14  C9  UNL     1      -4.051  -2.739  -3.077  1.00  0.00     0.041 C 
HETATM   15  C10 UNL     1      -4.744  -3.707  -2.200  1.00  0.00    -0.051 A 
HETATM   16  C11 UNL     1      -5.338  -4.801  -2.848  1.00  0.00     0.007 A 
HETATM   17  C15 UNL     1      -4.804  -3.552  -0.853  1.00  0.00    -0.040 A 
HETATM   18  C12 UNL     1      -6.008  -5.761  -2.121  1.00  0.00     0.001 A 
HETATM   19  C13 UNL     1      -6.078  -5.618  -0.754  1.00  0.00     0.001 A 
HETATM   20  C14 UNL     1      -5.482  -4.527  -0.134  1.00  0.00     0.008 A 
HETATM   21  C16 UNL     1      -4.183  -2.417  -0.161  1.00  0.00     0.092 C 
BRANCH  21  22
HETATM   22  C17 UNL     1      -5.056  -1.840   0.890  1.00  0.00     0.019 A 
HETATM   23  C18 UNL     1      -5.963  -0.878   0.579  1.00  0.00     0.026 A 
HETATM   24  C19 UNL     1      -6.804  -0.304   1.526  1.00  0.00     0.003 A 
HETATM   25  C20 UNL     1      -6.704  -0.737   2.831  1.00  0.00     0.017 A 
HETATM   26  C21 UNL     1      -5.778  -1.716   3.134  1.00  0.00     0.088 A 
HETATM   27  N4  UNL     1      -4.993  -2.232   2.174  1.00  0.00    -0.369 N 
ATOM     28  H4  UNL     1      -4.319  -2.953   2.431  1.00  0.00     0.165 HD
ENDBRANCH  21  22
ENDBRANCH  10  12
ENDBRANCH   4  10
BRANCH   1  29
HETATM   29  N1  UNL     1      -2.281   3.935   1.434  1.00  0.00    -0.174 N 
ATOM     30  H1  UNL     1      -2.559   4.010   2.413  1.00  0.00     0.186 HD
BRANCH  29  31
HETATM   31  C4  UNL     1      -2.219   4.991   0.693  1.00  0.00     0.137 A 
HETATM   32  C3  UNL     1      -2.519   6.275   1.161  1.00  0.00     0.076 A 
HETATM   33  C2  UNL     1      -2.353   7.174   0.127  1.00  0.00     0.025 A 
HETATM   34  C1  UNL     1      -2.570   8.655   0.198  1.00  0.00     0.070 C 
HETATM   35  N11 UNL     1      -1.963   6.441  -0.935  1.00  0.00    -0.304 N 
HETATM   36  N10 UNL     1      -1.887   5.149  -0.586  1.00  0.00    -0.285 N 
ATOM     37  H11 UNL     1      -1.757   6.813  -1.862  1.00  0.00     0.186 HD
ATOM     38  H10 UNL     1      -1.613   4.393  -1.213  1.00  0.00     0.188 HD
ENDBRANCH  29  31
ENDBRANCH   1  29
BRANCH   7  39
HETATM   39  N6  UNL     1       0.951   0.765   0.166  1.00  0.00    -0.225 N 
ATOM     40  H6  UNL     1       1.135  -0.153  -0.239  1.00  0.00     0.177 HD
BRANCH  39  41
HETATM   41  C23 UNL     1       2.075   1.551   0.579  1.00  0.00     0.138 C 
BRANCH  41  42
HETATM   42  C24 UNL     1       3.170   0.551   0.973  1.00  0.00     0.022 C 
BRANCH  42  43
HETATM   43  C25 UNL     1       4.353   1.340   1.395  1.00  0.00     0.021 C 
BRANCH  43  44
HETATM   44  C26 UNL     1       5.542   0.583   1.868  1.00  0.00     0.117 C 
BRANCH  44  45
HETATM   45  N7  UNL     1       6.156  -0.328   0.983  1.00  0.00    -0.411 N 
HETATM   46  C27 UNL     1       5.474  -1.515   0.655  1.00  0.00     0.118 C 
HETATM   47  C28 UNL     1       6.320  -2.771   0.923  1.00  0.00     0.050 C 
HETATM   48  C29 UNL     1       7.272  -2.841  -0.264  1.00  0.00     0.273 C 
HETATM   49  N8  UNL     1       8.154  -1.695  -0.117  1.00  0.00     0.085 N 
HETATM   50  C30 UNL     1       9.535  -2.037  -0.263  1.00  0.00     0.309 C 
HETATM   51  C31 UNL     1       7.712  -0.577  -0.897  1.00  0.00     0.291 C 
HETATM   52  C32 UNL     1       6.855   0.342  -0.059  1.00  0.00     0.147 C 
ENDBRANCH  44  45
ENDBRANCH  43  44
ENDBRANCH  42  43
ENDBRANCH  41  42
ENDBRANCH  39  41
ENDBRANCH   7  39
TORSDOF 11
