REMARK  11 active torsions:
REMARK  status: ('A' for Active; 'I' for Inactive)
REMARK    1  A    between atoms: C2_2  and  N1_3 
REMARK    2  A    between atoms: N1_3  and  C3_4 
REMARK    3  A    between atoms: N1_3  and  C30_42 
REMARK    4  A    between atoms: C3_4  and  C4_5 
REMARK       I    between atoms: C4_5  and  N2_7 
REMARK    5  A    between atoms: N2_7  and  C5_9 
REMARK    6  A    between atoms: C9_13  and  C10_14 
REMARK    7  A    between atoms: C12_16  and  O2_17 
REMARK    8  A    between atoms: C13_19  and  O3_20 
REMARK    9  A    between atoms: C14_22  and  N3_23 
REMARK   10  A    between atoms: C23_33  and  O5_34 
REMARK   11  A    between atoms: C30_42  and  C31_43 
ROOT
HETATM    1  C5  UNL     1       1.778   0.304   0.783  1.00  0.00     0.084 C 
HETATM    2  C6  UNL     1       0.763  -0.677   1.316  1.00  0.00     0.025 C 
HETATM    3  C7  UNL     1      -0.236  -1.132   0.306  1.00  0.00     0.007 C 
HETATM    4  C8  UNL     1      -0.929   0.001  -0.395  1.00  0.00    -0.005 C 
HETATM    5  C9  UNL     1      -1.731   0.853   0.551  1.00  0.00    -0.005 C 
HETATM    6  C20 UNL     1      -2.178   2.128  -0.046  1.00  0.00     0.011 C 
HETATM    7  C21 UNL     1      -1.810   2.363  -1.466  1.00  0.00    -0.003 C 
HETATM    8  C22 UNL     1      -1.973   3.870  -1.720  1.00  0.00     0.037 C 
HETATM    9  C23 UNL     1      -1.393   4.243  -3.068  1.00  0.00     0.118 C 
HETATM   10  C24 UNL     1       0.102   4.145  -2.947  1.00  0.00     0.032 C 
HETATM   11  C25 UNL     1       0.536   3.105  -1.933  1.00  0.00     0.012 C 
HETATM   12  C26 UNL     1      -0.436   1.949  -1.874  1.00  0.00    -0.036 C 
HETATM   13  C27 UNL     1      -0.499   1.379  -3.293  1.00  0.00     0.016 C 
HETATM   14  C28 UNL     1       0.148   0.865  -0.996  1.00  0.00     0.000 C 
HETATM   15  C29 UNL     1       1.072   1.413   0.063  1.00  0.00     0.031 C 
ENDROOT
BRANCH   5  16
HETATM   16  C10 UNL     1      -2.892   0.040   1.156  1.00  0.00    -0.006 C 
HETATM   17  C11 UNL     1      -3.689   0.852   2.086  1.00  0.00     0.039 C 
HETATM   18  C12 UNL     1      -5.155   0.814   1.972  1.00  0.00     0.149 C 
HETATM   19  C13 UNL     1      -5.760   0.039   0.884  1.00  0.00     0.180 C 
HETATM   20  C14 UNL     1      -4.987  -1.061   0.263  1.00  0.00     0.254 C 
HETATM   21  C19 UNL     1      -3.588  -0.597   0.018  1.00  0.00     0.043 C 
BRANCH  18  22
HETATM   22  O2  UNL     1      -5.684   2.131   1.912  1.00  0.00    -0.393 OA
ATOM     23  H2  UNL     1      -6.631   2.106   1.838  1.00  0.00     0.210 HD
ENDBRANCH  18  22
BRANCH  19  24
HETATM   24  O3  UNL     1      -6.127   0.936  -0.152  1.00  0.00    -0.391 OA
ATOM     25  H3  UNL     1      -6.519   0.434  -0.857  1.00  0.00     0.210 HD
ENDBRANCH  19  24
BRANCH  20  26
HETATM   26  N3  UNL     1      -5.097  -2.356   0.837  1.00  0.00     0.099 N 
HETATM   27  C15 UNL     1      -4.674  -2.577   2.156  1.00  0.00     0.299 C 
HETATM   28  C16 UNL     1      -5.278  -3.925   2.600  1.00  0.00     0.198 C 
HETATM   29  O4  UNL     1      -5.313  -4.831   1.566  1.00  0.00    -0.388 OA
HETATM   30  C17 UNL     1      -6.275  -4.474   0.632  1.00  0.00     0.198 C 
HETATM   31  C18 UNL     1      -6.395  -2.969   0.634  1.00  0.00     0.299 C 
ENDBRANCH  20  26
ENDBRANCH   5  16
BRANCH   1  32
HETATM   32  N2  UNL     1       2.769  -0.335  -0.048  1.00  0.00    -0.355 N 
HETATM   33  C4  UNL     1       4.127  -0.491   0.366  1.00  0.00     0.246 C 
HETATM   34  O1  UNL     1       4.444  -0.046   1.498  1.00  0.00    -0.272 OA
ATOM     35  H2  UNL     1       2.490  -0.688  -0.963  1.00  0.00     0.162 HD
BRANCH  33  36
HETATM   36  C3  UNL     1       5.077  -1.144  -0.514  1.00  0.00     0.375 C 
BRANCH  36  37
HETATM   37  N1  UNL     1       6.425  -1.260  -0.066  1.00  0.00     0.102 N 
BRANCH  37  38
HETATM   38  C2  UNL     1       7.231  -2.070  -0.980  1.00  0.00     0.269 C 
HETATM   39  C1  UNL     1       6.737  -3.492  -0.882  1.00  0.00     0.037 C 
ENDBRANCH  37  38
BRANCH  37  40
HETATM   40  C30 UNL     1       7.088   0.017   0.160  1.00  0.00     0.337 C 
BRANCH  40  41
HETATM   41  C31 UNL     1       8.408  -0.269   0.778  1.00  0.00     0.080 A 
HETATM   42  C32 UNL     1       8.547  -0.636   2.120  1.00  0.00     0.036 A 
HETATM   43  C33 UNL     1       9.882  -0.831   2.390  1.00  0.00     0.027 A 
HETATM   44  C34 UNL     1      10.515  -0.567   1.171  1.00  0.00     0.142 A 
HETATM   45  O6  UNL     1       9.607  -0.247   0.276  1.00  0.00    -0.325 OA
ENDBRANCH  40  41
ENDBRANCH  37  40
ENDBRANCH  36  37
ENDBRANCH  33  36
ENDBRANCH   1  32
BRANCH   9  46
HETATM   46  O5  UNL     1      -1.787   5.579  -3.302  1.00  0.00    -0.396 OA
ATOM     47  H5  UNL     1      -1.423   5.813  -4.148  1.00  0.00     0.210 HD
ENDBRANCH   9  46
TORSDOF 11
