REMARK  10 active torsions:
REMARK  status: ('A' for Active; 'I' for Inactive)
REMARK    1  A    between atoms: C2_2  and  C3_3 
REMARK    2  A    between atoms: C3_3  and  C4_4 
REMARK    3  A    between atoms: C4_4  and  N1_5 
REMARK    4  A    between atoms: C4_4  and  C13_18 
REMARK       I    between atoms: N1_5  and  C5_7 
REMARK    5  A    between atoms: C5_7  and  C6_9 
REMARK    6  A    between atoms: C13_18  and  C14_20 
REMARK    7  A    between atoms: C14_20  and  C15_23 
REMARK       I    between atoms: C15_23  and  N2_25 
REMARK    8  A    between atoms: N2_25  and  C16_27 
REMARK    9  A    between atoms: C16_27  and  C18_29 
REMARK       I    between atoms: C18_29  and  N3_31 
REMARK   10  A    between atoms: N4_34  and  C21_35 
ROOT
HETATM    1  C14 UNL     1      -0.961   1.360  -2.737  1.00  0.00     0.383 C 
HETATM    2  F1  UNL     1      -0.792   2.711  -3.087  1.00  0.00    -0.186 F 
HETATM    3  F2  UNL     1      -0.502   0.661  -3.833  1.00  0.00    -0.186 F 
ENDROOT
BRANCH   1   4
HETATM    4  C13 UNL     1      -2.343   1.105  -2.340  1.00  0.00     0.230 C 
HETATM    5  O2  UNL     1      -3.124   2.083  -2.337  1.00  0.00    -0.288 OA
BRANCH   4   6
HETATM    6  C4  UNL     1      -2.934  -0.164  -1.930  1.00  0.00     0.161 C 
BRANCH   6   7
HETATM    7  C3  UNL     1      -2.888  -1.260  -2.938  1.00  0.00     0.033 C 
BRANCH   7   8
HETATM    8  C2  UNL     1      -3.845  -1.200  -4.062  1.00  0.00    -0.002 C 
HETATM    9  C1  UNL     1      -3.837  -0.050  -4.985  1.00  0.00     0.005 C 
ENDBRANCH   7   8
ENDBRANCH   6   7
BRANCH   6  10
HETATM   10  N1  UNL     1      -4.281  -0.055  -1.364  1.00  0.00    -0.349 N 
HETATM   11  C5  UNL     1      -4.592  -0.277  -0.007  1.00  0.00     0.225 C 
HETATM   12  O1  UNL     1      -3.561  -0.597   0.701  1.00  0.00    -0.273 OA
ATOM     13  H1  UNL     1      -5.043   0.198  -1.993  1.00  0.00     0.163 HD
BRANCH  11  14
HETATM   14  C6  UNL     1      -5.922  -0.176   0.627  1.00  0.00     0.115 C 
HETATM   15  C7  UNL     1      -5.901  -0.773   2.010  1.00  0.00     0.025 C 
HETATM   16  C8  UNL     1      -5.137  -0.093   3.051  1.00  0.00     0.028 C 
HETATM   17  C9  UNL     1      -5.416  -2.197   1.887  1.00  0.00     0.028 C 
HETATM   18  S1  UNL     1      -7.693  -0.895   2.415  1.00  0.00    -0.087 SA
HETATM   19  S2  UNL     1      -8.182   0.965   1.426  1.00  0.00    -0.087 SA
HETATM   20  C10 UNL     1      -6.521   1.167   0.655  1.00  0.00     0.025 C 
HETATM   21  C11 UNL     1      -5.753   2.266   1.279  1.00  0.00     0.028 C 
HETATM   22  C12 UNL     1      -6.836   1.599  -0.778  1.00  0.00     0.028 C 
ENDBRANCH  11  14
ENDBRANCH   6  10
ENDBRANCH   4   6
ENDBRANCH   1   4
BRANCH   1  23
HETATM   23  C15 UNL     1       0.019   1.099  -1.635  1.00  0.00     0.299 C 
HETATM   24  O3  UNL     1       0.603   2.082  -1.071  1.00  0.00    -0.266 OA
HETATM   25  N2  UNL     1       0.356  -0.175  -1.157  1.00  0.00    -0.343 N 
ATOM     26  H2  UNL     1      -0.087  -0.989  -1.582  1.00  0.00     0.163 HD
BRANCH  25  27
HETATM   27  C16 UNL     1       1.314  -0.386  -0.077  1.00  0.00     0.172 C 
HETATM   28  C17 UNL     1       0.590  -1.294   0.919  1.00  0.00     0.042 C 
BRANCH  27  29
HETATM   29  C18 UNL     1       2.468  -1.137  -0.597  1.00  0.00     0.242 C 
HETATM   30  O4  UNL     1       2.482  -1.570  -1.786  1.00  0.00    -0.271 OA
HETATM   31  N3  UNL     1       3.589  -1.387   0.226  1.00  0.00    -0.347 N 
HETATM   32  C19 UNL     1       3.662  -0.908   1.568  1.00  0.00     0.145 C 
HETATM   33  C27 UNL     1       4.736  -2.164  -0.278  1.00  0.00     0.145 C 
HETATM   34  C20 UNL     1       4.848   0.070   1.678  1.00  0.00     0.137 C 
HETATM   35  N4  UNL     1       5.893  -0.389   0.834  1.00  0.00    -0.405 N 
HETATM   36  C26 UNL     1       5.931  -1.787   0.567  1.00  0.00     0.137 C 
BRANCH  35  37
HETATM   37  C21 UNL     1       7.135   0.288   0.921  1.00  0.00     0.083 C 
HETATM   38  C22 UNL     1       7.814   0.202   2.271  1.00  0.00     0.051 C 
HETATM   39  C23 UNL     1       8.922   1.226   2.343  1.00  0.00     0.169 C 
HETATM   40  O5  UNL     1       9.407   1.539   1.081  1.00  0.00    -0.391 OA
HETATM   41  C24 UNL     1       8.489   2.233   0.317  1.00  0.00     0.169 C 
HETATM   42  C25 UNL     1       7.071   1.745   0.526  1.00  0.00     0.051 C 
ENDBRANCH  35  37
ENDBRANCH  27  29
ENDBRANCH  25  27
ENDBRANCH   1  23
TORSDOF 10
