REMARK  14 active torsions:
REMARK  status: ('A' for Active; 'I' for Inactive)
REMARK    1  A    between atoms: N1_2  and  C2_4 
REMARK    2  A    between atoms: C2_4  and  C3_5 
REMARK    3  A    between atoms: C2_4  and  N5_18 
REMARK    4  A    between atoms: C3_5  and  N2_6 
REMARK    5  A    between atoms: C5_8  and  C6_9 
REMARK    6  A    between atoms: N5_18  and  C12_20 
REMARK    7  A    between atoms: C13_25  and  C14_26 
REMARK    8  A    between atoms: C14_26  and  C15_27 
REMARK    9  A    between atoms: C15_27  and  C16_28 
REMARK   10  A    between atoms: C16_28  and  C17_29 
REMARK   11  A    between atoms: C17_29  and  C18_30 
REMARK   12  A    between atoms: C21_33  and  N8_34 
REMARK       I    between atoms: N8_34  and  C22_36 
REMARK   13  A    between atoms: C22_36  and  C23_38 
REMARK   14  A    between atoms: C23_38  and  C24_39 
ROOT
HETATM    1  C12 UNL     1      -3.858  -1.382  -1.694  1.00  0.00     0.166 A 
HETATM    2  N6  UNL     1      -3.468  -2.664  -1.680  1.00  0.00    -0.279 N 
ATOM      3  H6  UNL     1      -4.111  -3.405  -1.958  1.00  0.00     0.189 HD
HETATM    4  N7  UNL     1      -2.288  -2.938  -1.316  1.00  0.00    -0.296 N 
ATOM      5  H7  UNL     1      -1.975  -3.909  -1.301  1.00  0.00     0.187 HD
HETATM    6  C13 UNL     1      -1.456  -1.975  -0.954  1.00  0.00     0.069 A 
HETATM    7  S1  UNL     1      -2.437  -0.590  -1.154  1.00  0.00    -0.038 SA
ENDROOT
BRANCH   6   8
HETATM    8  C14 UNL     1      -0.037  -2.150  -0.498  1.00  0.00     0.066 C 
BRANCH   8   9
HETATM    9  C15 UNL     1       0.494  -0.742  -0.190  1.00  0.00     0.007 C 
BRANCH   9  10
HETATM   10  C16 UNL     1       1.920  -0.840   0.297  1.00  0.00     0.006 C 
BRANCH  10  11
HETATM   11  C17 UNL     1       2.420   0.560   0.601  1.00  0.00     0.058 C 
BRANCH  11  12
HETATM   12  C18 UNL     1       3.801   0.549   1.107  1.00  0.00     0.026 A 
HETATM   13  C19 UNL     1       3.992   0.441   2.467  1.00  0.00     0.030 A 
HETATM   14  C20 UNL     1       5.254   0.426   3.014  1.00  0.00     0.052 A 
HETATM   15  C21 UNL     1       6.330   0.527   2.105  1.00  0.00     0.122 A 
HETATM   16  N9  UNL     1       6.119   0.631   0.786  1.00  0.00    -0.285 N 
HETATM   17  N10 UNL     1       4.874   0.640   0.308  1.00  0.00    -0.303 N 
ATOM     18  H9  UNL     1       6.911   0.703   0.147  1.00  0.00     0.188 HD
ATOM     19  H10 UNL     1       4.733   0.719  -0.699  1.00  0.00     0.186 HD
BRANCH  15  20
HETATM   20  N8  UNL     1       7.496   0.513   2.610  1.00  0.00    -0.312 N 
HETATM   21  C22 UNL     1       8.686   0.602   1.878  1.00  0.00     0.227 C 
HETATM   22  O1  UNL     1       9.270   1.737   1.876  1.00  0.00    -0.273 OA
ATOM     23  H8  UNL     1       7.570   0.431   3.624  1.00  0.00     0.170 HD
BRANCH  21  24
HETATM   24  C23 UNL     1       9.294  -0.532   1.124  1.00  0.00     0.141 C 
BRANCH  24  25
HETATM   25  C24 UNL     1      10.581  -0.110   0.513  1.00  0.00    -0.044 A 
HETATM   26  C25 UNL     1      11.787  -0.266   1.198  1.00  0.00     0.050 A 
HETATM   27  C26 UNL     1      12.956   0.142   0.596  1.00  0.00     0.119 A 
HETATM   28  F1  UNL     1      14.143   0.010   1.230  1.00  0.00    -0.206 F 
HETATM   29  C27 UNL     1      12.956   0.702  -0.670  1.00  0.00     0.084 A 
HETATM   30  C28 UNL     1      11.754   0.852  -1.340  1.00  0.00     0.119 A 
HETATM   31  F2  UNL     1      11.752   1.404  -2.589  1.00  0.00    -0.206 F 
HETATM   32  C29 UNL     1      10.567   0.444  -0.745  1.00  0.00     0.050 A 
ENDBRANCH  24  25
ENDBRANCH  21  24
ENDBRANCH  15  20
ENDBRANCH  11  12
ENDBRANCH  10  11
ENDBRANCH   9  10
ENDBRANCH   8   9
ENDBRANCH   6   8
BRANCH   1  33
HETATM   33  N5  UNL     1      -5.036  -0.912  -2.037  1.00  0.00    -0.324 N 
ATOM     34  H5  UNL     1      -5.783  -1.539  -2.336  1.00  0.00     0.169 HD
BRANCH  33  35
HETATM   35  C2  UNL     1      -5.242   0.491  -1.980  1.00  0.00     0.098 C 
BRANCH  35  36
HETATM   36  N1  UNL     1      -5.243   1.177  -3.082  1.00  0.00    -0.383 N 
HETATM   37  C1  UNL     1      -5.044   0.575  -4.377  1.00  0.00     0.147 C 
ATOM     38  H1  UNL     1      -5.391   2.185  -3.030  1.00  0.00     0.160 HD
ENDBRANCH  35  36
BRANCH  35  39
HETATM   39  C3  UNL     1      -5.455   1.187  -0.686  1.00  0.00     0.222 C 
BRANCH  39  40
HETATM   40  N2  UNL     1      -6.633   0.569  -0.071  1.00  0.00    -0.278 N 
HETATM   41  C4  UNL     1      -7.919   0.920  -0.204  1.00  0.00     0.139 A 
HETATM   42  C5  UNL     1      -8.725   0.090   0.539  1.00  0.00     0.073 A 
HETATM   43  N3  UNL     1      -7.875  -0.775   1.125  1.00  0.00    -0.282 N 
HETATM   44  N4  UNL     1      -6.640  -0.482   0.756  1.00  0.00    -0.020 NA
ATOM     45  H3  UNL     1      -8.141  -1.534   1.752  1.00  0.00     0.184 HD
BRANCH  42  46
HETATM   46  C6  UNL     1     -10.166   0.091   0.701  1.00  0.00    -0.007 A 
HETATM   47  C7  UNL     1     -10.930   1.025   0.034  1.00  0.00     0.014 A 
HETATM   48  C8  UNL     1     -12.307   1.064   0.158  1.00  0.00     0.001 A 
HETATM   49  C9  UNL     1     -12.949   0.155   0.967  1.00  0.00     0.000 A 
HETATM   50  C10 UNL     1     -12.211  -0.789   1.647  1.00  0.00     0.001 A 
HETATM   51  C11 UNL     1     -10.833  -0.808   1.506  1.00  0.00     0.014 A 
ENDBRANCH  42  46
ENDBRANCH  39  40
ENDBRANCH  35  39
ENDBRANCH  33  35
ENDBRANCH   1  33
TORSDOF 14
