REMARK  14 active torsions:
REMARK  status: ('A' for Active; 'I' for Inactive)
REMARK    1  A    between atoms: C3_3  and  C4_4 
REMARK    2  A    between atoms: C4_4  and  O2_6 
REMARK    3  A    between atoms: O2_6  and  C5_7 
REMARK    4  A    between atoms: C5_7  and  C6_8 
REMARK    5  A    between atoms: C5_7  and  C9_13 
REMARK    6  A    between atoms: C6_8  and  O3_9 
REMARK    7  A    between atoms: O3_9  and  C7_10 
REMARK    8  A    between atoms: C11_15  and  O5_16 
REMARK    9  A    between atoms: O5_16  and  C12_17 
REMARK   10  A    between atoms: C12_17  and  C16_21 
REMARK   11  A    between atoms: C13_18  and  C14_19 
REMARK   12  A    between atoms: C16_21  and  O6_22 
REMARK   13  A    between atoms: C21_30  and  O7_31 
REMARK   14  A    between atoms: C23_33  and  O8_34 
ROOT
HETATM    1  C9  UNL     1      -0.646   1.514   0.533  1.00  0.00     0.056 C 
HETATM    2  C10 UNL     1       0.703   0.872   0.548  1.00  0.00     0.030 C 
HETATM    3  C11 UNL     1       0.899   0.112  -0.778  1.00  0.00     0.141 C 
HETATM    4  C17 UNL     1       1.356   1.404  -1.350  1.00  0.00     0.060 C 
HETATM    5  C18 UNL     1       1.772   1.796   0.045  1.00  0.00     0.018 C 
HETATM    6  C19 UNL     1       1.524   3.268   0.105  1.00  0.00     0.080 C 
HETATM    7 BR1  UNL     1       3.285   4.125   0.124  1.00  0.00    -0.089 Br
HETATM    8  C20 UNL     1       0.805   3.652  -1.172  1.00  0.00     0.110 C 
HETATM    9 BR2  UNL     1      -0.396   5.068  -0.771  1.00  0.00    -0.087 Br
HETATM   10  C21 UNL     1       0.192   2.366  -1.629  1.00  0.00     0.107 C 
HETATM   11  C23 UNL     1      -1.010   1.938  -0.843  1.00  0.00     0.161 C 
ENDROOT
BRANCH   1  12
HETATM   12  C5  UNL     1      -1.733   0.656   1.143  1.00  0.00     0.163 C 
BRANCH  12  13
HETATM   13  O2  UNL     1      -1.883  -0.570   0.469  1.00  0.00    -0.310 OA
BRANCH  13  14
HETATM   14  C4  UNL     1      -3.065  -0.897  -0.219  1.00  0.00     0.283 C 
HETATM   15  O1  UNL     1      -3.983  -0.039  -0.202  1.00  0.00    -0.260 OA
BRANCH  14  16
HETATM   16  C3  UNL     1      -3.227  -2.154  -0.914  1.00  0.00     0.077 C 
HETATM   17  C2  UNL     1      -2.288  -3.079  -0.955  1.00  0.00    -0.025 C 
HETATM   18  C1  UNL     1      -2.473  -4.350  -1.668  1.00  0.00     0.036 C 
ENDBRANCH  14  16
ENDBRANCH  13  14
ENDBRANCH  12  13
BRANCH  12  19
HETATM   19  C6  UNL     1      -1.480   0.479   2.611  1.00  0.00     0.211 C 
BRANCH  19  20
HETATM   20  O3  UNL     1      -2.485  -0.196   3.308  1.00  0.00    -0.319 OA
BRANCH  20  21
HETATM   21  C7  UNL     1      -3.777   0.240   3.435  1.00  0.00     0.254 C 
HETATM   22  C8  UNL     1      -4.818  -0.536   4.196  1.00  0.00     0.126 C 
HETATM   23  O4  UNL     1      -4.133   1.316   2.911  1.00  0.00    -0.266 OA
ENDBRANCH  20  21
ENDBRANCH  19  20
ENDBRANCH  12  19
ENDBRANCH   1  12
BRANCH  11  24
HETATM   24  O8  UNL     1      -1.975   2.947  -0.780  1.00  0.00    -0.392 OA
ATOM     25  H8  UNL     1      -2.208   3.218  -1.660  1.00  0.00     0.210 HD
ENDBRANCH  11  24
BRANCH   3  26
HETATM   26  O5  UNL     1       1.827  -0.889  -0.794  1.00  0.00    -0.347 OA
BRANCH  26  27
HETATM   27  C12 UNL     1       3.141  -1.033  -0.576  1.00  0.00     0.066 C 
HETATM   28  C13 UNL     1       3.648  -1.678   0.496  1.00  0.00     0.007 C 
BRANCH  28  29
HETATM   29  C14 UNL     1       2.792  -2.290   1.540  1.00  0.00     0.025 C 
HETATM   30  C15 UNL     1       3.108  -3.768   1.573  1.00  0.00     0.009 C 
ENDBRANCH  28  29
BRANCH  27  31
HETATM   31  C16 UNL     1       4.158  -0.484  -1.527  1.00  0.00     0.228 C 
BRANCH  31  32
HETATM   32  O6  UNL     1       3.918  -1.095  -2.761  1.00  0.00    -0.394 OA
ATOM     33  H6  UNL     1       4.564  -0.747  -3.365  1.00  0.00     0.209 HD
ENDBRANCH  31  32
ENDBRANCH  27  31
ENDBRANCH  26  27
ENDBRANCH   3  26
BRANCH  10  34
HETATM   34  O7  UNL     1      -0.113   2.281  -2.937  1.00  0.00    -0.381 OA
HETATM   35  C22 UNL     1       0.759   2.576  -3.908  1.00  0.00     0.202 C 
ENDBRANCH  10  34
TORSDOF 14
