REMARK  15 active torsions:
REMARK  status: ('A' for Active; 'I' for Inactive)
REMARK    1  A    between atoms: C2_2  and  O1_3 
REMARK    2  A    between atoms: O1_3  and  C3_4 
REMARK       I    between atoms: C3_4  and  N1_6 
REMARK    3  A    between atoms: N2_9  and  C6_10 
REMARK    4  A    between atoms: C6_10  and  O3_11 
REMARK    5  A    between atoms: C6_10  and  C7_13 
REMARK    6  A    between atoms: C7_13  and  N3_14 
REMARK    7  A    between atoms: C7_13  and  C19_33 
REMARK       I    between atoms: N3_14  and  C8_16 
REMARK    8  A    between atoms: C8_16  and  C9_18 
REMARK    9  A    between atoms: C10_21  and  C11_22 
REMARK   10  A    between atoms: C17_29  and  C18_30 
REMARK   11  A    between atoms: C22_36  and  N6_37 
REMARK   12  A    between atoms: N6_37  and  C24_39 
REMARK   13  A    between atoms: C24_39  and  C25_40 
REMARK   14  A    between atoms: C25_40  and  N7_41 
REMARK   15  A    between atoms: C25_40  and  O5_45 
ROOT
HETATM    1  C7  UNL     1       0.549   0.517  -1.266  1.00  0.00     0.067 C 
ENDROOT
BRANCH   1   2
HETATM    2  C6  UNL     1       1.612  -0.375  -1.672  1.00  0.00     0.161 C 
BRANCH   2   3
HETATM    3  N2  UNL     1       2.608  -1.071  -0.982  1.00  0.00    -0.357 N 
HETATM    4  C5  UNL     1       2.749  -1.048   0.433  1.00  0.00     0.145 C 
HETATM    5  C4  UNL     1       3.495  -2.229   1.022  1.00  0.00     0.148 C 
HETATM    6  N1  UNL     1       4.292  -2.961   0.107  1.00  0.00    -0.325 N 
HETATM    7  C3  UNL     1       5.664  -3.247   0.199  1.00  0.00     0.362 C 
HETATM    8  C29 UNL     1       3.556  -3.304  -1.150  1.00  0.00     0.148 C 
HETATM    9  O2  UNL     1       6.119  -4.102  -0.636  1.00  0.00    -0.238 OA
HETATM   10  C28 UNL     1       3.514  -1.912  -1.805  1.00  0.00     0.145 C 
BRANCH   7  11
HETATM   11  O1  UNL     1       6.560  -2.706   1.068  1.00  0.00    -0.304 OA
BRANCH  11  12
HETATM   12  C2  UNL     1       7.917  -3.031   1.147  1.00  0.00     0.176 C 
HETATM   13  C1  UNL     1       8.632  -3.082  -0.196  1.00  0.00     0.034 C 
ENDBRANCH  11  12
ENDBRANCH   7  11
ENDBRANCH   2   3
BRANCH   2  14
HETATM   14  O3  UNL     1       1.663  -0.616  -2.973  1.00  0.00    -0.345 OA
ATOM     15  H3  UNL     1       0.986  -0.143  -3.442  1.00  0.00     0.219 HD
ENDBRANCH   2  14
ENDBRANCH   1   2
BRANCH   1  16
HETATM   16  N3  UNL     1      -0.592  -0.223  -0.764  1.00  0.00    -0.321 N 
HETATM   17  C8  UNL     1      -1.678  -0.765  -1.360  1.00  0.00     0.274 C 
HETATM   18  O4  UNL     1      -1.872  -0.672  -2.598  1.00  0.00    -0.266 OA
ATOM     19  H3  UNL     1      -0.571  -0.364   0.246  1.00  0.00     0.169 HD
BRANCH  17  20
HETATM   20  C9  UNL     1      -2.710  -1.494  -0.575  1.00  0.00     0.131 A 
HETATM   21  N4  UNL     1      -4.031  -1.504  -0.808  1.00  0.00    -0.339 N 
HETATM   22  C10 UNL     1      -4.658  -2.219   0.101  1.00  0.00     0.088 A 
ATOM     23  H4  UNL     1      -4.487  -1.023  -1.584  1.00  0.00     0.167 HD
HETATM   24  N5  UNL     1      -3.722  -2.684   0.934  1.00  0.00    -0.338 N 
HETATM   25  C16 UNL     1      -3.893  -3.549   2.117  1.00  0.00     0.157 C 
HETATM   26  C17 UNL     1      -2.474  -2.253   0.544  1.00  0.00     0.110 A 
BRANCH  22  27
HETATM   27  C11 UNL     1      -6.119  -2.523   0.303  1.00  0.00     0.053 C 
HETATM   28  C12 UNL     1      -6.335  -4.028   0.180  1.00  0.00     0.012 C 
HETATM   29  C13 UNL     1      -7.290  -4.229  -0.947  1.00  0.00     0.001 C 
HETATM   30  C14 UNL     1      -7.160  -3.001  -1.791  1.00  0.00     0.001 C 
HETATM   31  C15 UNL     1      -6.947  -1.901  -0.753  1.00  0.00     0.012 C 
ENDBRANCH  22  27
BRANCH  26  32
HETATM   32  C18 UNL     1      -1.214  -2.681   1.210  1.00  0.00     0.405 C 
HETATM   33  F1  UNL     1      -1.125  -2.140   2.508  1.00  0.00    -0.207 F 
HETATM   34  F2  UNL     1      -1.200  -4.049   1.407  1.00  0.00    -0.207 F 
ENDBRANCH  26  32
ENDBRANCH  17  20
ENDBRANCH   1  16
BRANCH   1  35
HETATM   35  C19 UNL     1       0.592   1.806  -0.634  1.00  0.00     0.040 C 
HETATM   36  C20 UNL     1       1.105   2.119   0.697  1.00  0.00     0.013 C 
HETATM   37  C21 UNL     1       0.417   3.454   1.117  1.00  0.00     0.036 C 
HETATM   38  C22 UNL     1       0.862   4.547   0.210  1.00  0.00     0.222 C 
HETATM   39  C26 UNL     1       0.493   4.179  -1.256  1.00  0.00     0.036 C 
HETATM   40  C27 UNL     1       1.246   2.899  -1.556  1.00  0.00     0.013 C 
BRANCH  38  41
HETATM   41  N6  UNL     1       0.150   5.784   0.478  1.00  0.00     0.093 N 
HETATM   42  C23 UNL     1      -1.210   5.707   0.077  1.00  0.00     0.310 C 
BRANCH  41  43
HETATM   43  C24 UNL     1       0.862   6.846  -0.133  1.00  0.00     0.332 C 
BRANCH  43  44
HETATM   44  C25 UNL     1       0.489   8.225   0.162  1.00  0.00     0.344 C 
BRANCH  44  45
HETATM   45  N7  UNL     1      -0.476   8.756   1.017  1.00  0.00    -0.051 N 
ATOM     46  H73 UNL     1      -1.347   8.309   0.731  1.00  0.00     0.277 HD
ATOM     47  H72 UNL     1      -0.268   8.345   1.927  1.00  0.00     0.277 HD
ATOM     48  H71 UNL     1      -0.737   9.720   1.223  1.00  0.00     0.277 HD
ENDBRANCH  44  45
BRANCH  44  49
HETATM   49  O5  UNL     1       1.184   9.148  -0.482  1.00  0.00    -0.369 OA
ATOM     50  H5  UNL     1       0.941  10.046  -0.290  1.00  0.00     0.212 HD
ENDBRANCH  44  49
ENDBRANCH  43  44
ENDBRANCH  41  43
ENDBRANCH  38  41
ENDBRANCH   1  35
TORSDOF 15
