REMARK  12 active torsions:
REMARK  status: ('A' for Active; 'I' for Inactive)
REMARK    1  A    between atoms: C6_8  and  N2_9 
REMARK    2  A    between atoms: N2_9  and  C7_11 
REMARK    3  A    between atoms: C7_11  and  C8_12 
REMARK    4  A    between atoms: C8_12  and  C9_14 
REMARK    5  A    between atoms: C9_14  and  N3_15 
REMARK    6  A    between atoms: C9_14  and  C18_28 
REMARK       I    between atoms: N3_15  and  C10_16 
REMARK    7  A    between atoms: C10_16  and  C11_18 
REMARK    8  A    between atoms: C11_18  and  C13_21 
REMARK    9  A    between atoms: C13_21  and  C14_22 
REMARK   10  A    between atoms: C18_28  and  C19_30 
REMARK       I    between atoms: C19_30  and  N4_32 
REMARK   11  A    between atoms: N4_32  and  C20_34 
REMARK   12  A    between atoms: C20_34  and  C21_35 
ROOT
HETATM    1  C9  UNL     1      -0.047  -0.004   0.680  1.00  0.00     0.213 C 
ENDROOT
BRANCH   1   2
HETATM    2  C8  UNL     1      -0.615  -1.345   0.977  1.00  0.00     0.212 C 
HETATM    3  O1  UNL     1      -1.421  -1.500   1.915  1.00  0.00    -0.288 OA
BRANCH   2   4
HETATM    4  C7  UNL     1      -0.221  -2.502   0.157  1.00  0.00     0.224 C 
BRANCH   4   5
HETATM    5  N2  UNL     1      -0.893  -3.698   0.547  1.00  0.00    -0.219 N 
ATOM      6  H2  UNL     1      -0.395  -4.381   1.118  1.00  0.00     0.178 HD
BRANCH   5   7
HETATM    7  C6  UNL     1      -2.102  -3.941   0.203  1.00  0.00     0.678 A 
HETATM    8  N1  UNL     1      -2.775  -3.065  -0.542  1.00  0.00    -0.196 N 
HETATM    9  C4  UNL     1      -4.052  -3.376  -0.888  1.00  0.00     0.024 A 
ATOM     10  H1  UNL     1      -2.346  -2.190  -0.843  1.00  0.00     0.184 HD
HETATM   11  C3  UNL     1      -4.649  -4.545  -0.494  1.00  0.00     0.050 A 
HETATM   12  C5  UNL     1      -4.821  -2.408  -1.721  1.00  0.00     0.068 C 
HETATM   13  C2  UNL     1      -3.899  -5.402   0.272  1.00  0.00     0.024 A 
HETATM   14  C1  UNL     1      -4.536  -6.681   0.706  1.00  0.00     0.068 C 
HETATM   15  N6  UNL     1      -2.646  -5.116   0.621  1.00  0.00    -0.196 N 
ATOM     16  H6  UNL     1      -2.104  -5.766   1.191  1.00  0.00     0.184 HD
ENDBRANCH   5   7
ENDBRANCH   4   5
ENDBRANCH   2   4
ENDBRANCH   1   2
BRANCH   1  17
HETATM   17  N3  UNL     1       0.725   0.099  -0.231  1.00  0.00    -0.360 NA
HETATM   18  C10 UNL     1       1.582   0.489  -1.160  1.00  0.00     0.332 C 
HETATM   19  O2  UNL     1       1.163   1.115  -2.219  1.00  0.00    -0.253 OA
BRANCH  18  20
HETATM   20  C11 UNL     1       3.069   0.280  -1.134  1.00  0.00     0.198 C 
HETATM   21  C12 UNL     1       3.744   0.943   0.018  1.00  0.00     0.064 C 
HETATM   22  F1  UNL     1       3.630   0.737  -2.298  1.00  0.00    -0.231 F 
BRANCH  20  23
HETATM   23  C13 UNL     1       3.370  -1.222  -1.095  1.00  0.00     0.100 C 
BRANCH  23  24
HETATM   24  C14 UNL     1       4.857  -1.368  -1.080  1.00  0.00    -0.013 A 
HETATM   25  C15 UNL     1       5.709  -1.440  -0.008  1.00  0.00     0.034 A 
HETATM   26  C16 UNL     1       7.005  -1.571  -0.248  1.00  0.00     0.018 A 
HETATM   27 BR1  UNL     1       8.357  -1.689   1.142  1.00  0.00    -0.051 Br
HETATM   28  C17 UNL     1       7.410  -1.626  -1.552  1.00  0.00     0.069 A 
HETATM   29  S1  UNL     1       5.936  -1.490  -2.417  1.00  0.00    -0.105 SA
ENDBRANCH  23  24
ENDBRANCH  20  23
ENDBRANCH  18  20
ENDBRANCH   1  17
BRANCH   1  30
HETATM   30  C18 UNL     1      -0.493   1.084   1.527  1.00  0.00     0.283 C 
HETATM   31  O3  UNL     1      -1.316   0.805   2.462  1.00  0.00    -0.279 OA
BRANCH  30  32
HETATM   32  C19 UNL     1      -0.090   2.468   1.411  1.00  0.00     0.295 C 
HETATM   33  O4  UNL     1       0.693   2.923   0.546  1.00  0.00    -0.264 OA
HETATM   34  N4  UNL     1      -0.588   3.468   2.331  1.00  0.00    -0.350 N 
ATOM     35  H4  UNL     1      -1.233   3.173   3.064  1.00  0.00     0.163 HD
BRANCH  34  36
HETATM   36  C20 UNL     1      -0.222   4.848   2.264  1.00  0.00     0.162 C 
BRANCH  36  37
HETATM   37  C21 UNL     1      -0.943   5.542   1.151  1.00  0.00    -0.025 A 
HETATM   38  C22 UNL     1      -0.623   6.810   0.731  1.00  0.00     0.011 A 
HETATM   39  C23 UNL     1      -1.307   7.425  -0.293  1.00  0.00     0.018 A 
HETATM   40  C24 UNL     1      -2.326   6.747  -0.900  1.00  0.00     0.087 A 
HETATM   41  N5  UNL     1      -2.651   5.511  -0.504  1.00  0.00    -0.375 N 
HETATM   42  C25 UNL     1      -1.983   4.892   0.508  1.00  0.00     0.096 A 
ATOM     43  H5  UNL     1      -3.415   5.022  -0.970  1.00  0.00     0.164 HD
ENDBRANCH  36  37
ENDBRANCH  34  36
ENDBRANCH  30  32
ENDBRANCH   1  30
TORSDOF 12
