REMARK  13 active torsions:
REMARK  status: ('A' for Active; 'I' for Inactive)
REMARK       I    between atoms: N1_2  and  C3_4 
REMARK    1  A    between atoms: C3_4  and  C4_6 
REMARK    2  A    between atoms: C4_6  and  O2_7 
REMARK    3  A    between atoms: O2_7  and  C5_8 
REMARK    4  A    between atoms: C8_11  and  C9_12 
REMARK    5  A    between atoms: C9_12  and  C10_13 
REMARK    6  A    between atoms: C11_14  and  C12_15 
REMARK    7  A    between atoms: C15_20  and  N3_21 
REMARK    8  A    between atoms: N3_21  and  C16_23 
REMARK    9  A    between atoms: C22_35  and  N6_36 
REMARK   10  A    between atoms: N6_36  and  C23_38 
REMARK   11  A    between atoms: C23_38  and  C24_39 
REMARK   12  A    between atoms: C24_39  and  C25_40 
REMARK   13  A    between atoms: N9_49  and  O3_50 
ROOT
HETATM    1  C10 UNL     1      -0.988  -0.250  -1.898  1.00  0.00     0.093 A 
HETATM    2  C11 UNL     1      -2.055  -0.030  -1.077  1.00  0.00     0.103 A 
HETATM    3  N5  UNL     1      -2.916  -1.055  -0.858  1.00  0.00    -0.186 N 
ATOM      4  H5  UNL     1      -3.714  -0.901  -0.241  1.00  0.00     0.184 HD
HETATM    5  C22 UNL     1      -2.761  -2.257  -1.417  1.00  0.00     0.695 A 
HETATM    6  N8  UNL     1      -1.713  -2.461  -2.225  1.00  0.00    -0.106 N 
ATOM      7  H8  UNL     1      -1.585  -3.376  -2.658  1.00  0.00     0.208 HD
HETATM    8  N9  UNL     1      -0.849  -1.507  -2.469  1.00  0.00    -0.151 N 
ENDROOT
BRANCH   2   9
HETATM    9  C12 UNL     1      -2.372   1.288  -0.478  1.00  0.00     0.080 A 
HETATM   10  C13 UNL     1      -3.496   1.482   0.295  1.00  0.00     0.050 A 
HETATM   11  C14 UNL     1      -3.800   2.731   0.863  1.00  0.00     0.108 A 
HETATM   12  N2  UNL     1      -2.996   3.773   0.663  1.00  0.00    -0.202 N 
HETATM   13  C15 UNL     1      -1.902   3.578  -0.092  1.00  0.00     0.683 A 
ATOM     14  H2  UNL     1      -3.203   4.686   1.068  1.00  0.00     0.183 HD
HETATM   15  N4  UNL     1      -1.622   2.386  -0.627  1.00  0.00    -0.189 N 
ATOM     16  H4  UNL     1      -0.775   2.307  -1.190  1.00  0.00     0.184 HD
BRANCH  13  17
HETATM   17  N3  UNL     1      -1.122   4.616  -0.276  1.00  0.00    -0.189 N 
ATOM     18  H3  UNL     1      -0.282   4.507  -0.844  1.00  0.00     0.184 HD
BRANCH  17  19
HETATM   19  C16 UNL     1      -1.405   5.871   0.282  1.00  0.00     0.087 A 
HETATM   20  C17 UNL     1      -1.036   6.263   1.567  1.00  0.00     0.036 A 
HETATM   21  C18 UNL     1      -1.326   7.496   2.093  1.00  0.00     0.044 A 
HETATM   22  C19 UNL     1      -2.016   8.407   1.323  1.00  0.00     0.119 A 
HETATM   23  F1  UNL     1      -2.296   9.626   1.861  1.00  0.00    -0.206 F 
HETATM   24  C20 UNL     1      -2.394   8.056   0.054  1.00  0.00     0.086 A 
HETATM   25  C21 UNL     1      -2.093   6.807  -0.460  1.00  0.00     0.146 A 
HETATM   26  F2  UNL     1      -2.474   6.469  -1.723  1.00  0.00    -0.204 F 
ENDBRANCH  17  19
ENDBRANCH  13  17
ENDBRANCH   2   9
BRANCH   1  27
HETATM   27  C9  UNL     1       0.123   0.680  -2.136  1.00  0.00     0.102 C 
BRANCH  27  28
HETATM   28  C8  UNL     1       1.317   0.452  -1.279  1.00  0.00    -0.052 A 
HETATM   29  C7  UNL     1       1.385   0.529   0.078  1.00  0.00     0.010 A 
HETATM   30  C6  UNL     1       2.571   0.322   0.768  1.00  0.00     0.037 A 
HETATM   31  C5  UNL     1       3.723   0.029   0.087  1.00  0.00     0.069 A 
HETATM   32  C31 UNL     1       3.698  -0.058  -1.269  1.00  0.00     0.037 A 
HETATM   33  C30 UNL     1       2.516   0.148  -1.961  1.00  0.00     0.010 A 
BRANCH  31  34
HETATM   34  O2  UNL     1       4.896  -0.173   0.787  1.00  0.00    -0.342 OA
BRANCH  34  35
HETATM   35  C4  UNL     1       6.110  -0.476   0.130  1.00  0.00     0.278 C 
BRANCH  35  36
HETATM   36  C3  UNL     1       7.194  -0.635   1.129  1.00  0.00     0.243 C 
HETATM   37  N1  UNL     1       8.502  -0.933   0.700  1.00  0.00    -0.359 N 
HETATM   38  C1  UNL     1       8.805  -1.088  -0.709  1.00  0.00     0.152 C 
HETATM   39  C2  UNL     1       9.551  -1.083   1.684  1.00  0.00     0.152 C 
HETATM   40  O1  UNL     1       6.932  -0.502   2.358  1.00  0.00    -0.271 OA
ENDBRANCH  35  36
ENDBRANCH  34  35
ENDBRANCH  31  34
ENDBRANCH  27  28
ENDBRANCH   1  27
BRANCH   8  41
HETATM   41  O3  UNL     1       0.214  -1.761  -3.306  1.00  0.00    -0.267 OA
ATOM     42  H3  UNL     1       0.309  -2.622  -3.697  1.00  0.00     0.247 HD
ENDBRANCH   8  41
BRANCH   5  43
HETATM   43  N6  UNL     1      -3.623  -3.214  -1.184  1.00  0.00    -0.224 N 
ATOM     44  H6  UNL     1      -3.499  -4.131  -1.613  1.00  0.00     0.177 HD
BRANCH  43  45
HETATM   45  C23 UNL     1      -4.739  -2.966  -0.325  1.00  0.00     0.144 C 
BRANCH  45  46
HETATM   46  C24 UNL     1      -5.728  -4.067  -0.230  1.00  0.00     0.077 C 
BRANCH  46  47
HETATM   47  C25 UNL     1      -5.219  -5.344   0.303  1.00  0.00     0.010 A 
HETATM   48  C26 UNL     1      -3.954  -5.586   0.762  1.00  0.00     0.025 A 
HETATM   49  C27 UNL     1      -3.614  -6.847   1.226  1.00  0.00     0.003 A 
HETATM   50  C28 UNL     1      -4.562  -7.842   1.217  1.00  0.00     0.017 A 
HETATM   51  C29 UNL     1      -5.834  -7.595   0.754  1.00  0.00     0.088 A 
HETATM   52  N7  UNL     1      -6.129  -6.365   0.313  1.00  0.00    -0.369 N 
ATOM     53  H7  UNL     1      -7.072  -6.182  -0.030  1.00  0.00     0.165 HD
ENDBRANCH  46  47
ENDBRANCH  45  46
ENDBRANCH  43  45
ENDBRANCH   5  43
TORSDOF 13
