REMARK  14 active torsions:
REMARK  status: ('A' for Active; 'I' for Inactive)
REMARK    1  A    between atoms: N1_2  and  C2_4 
REMARK    2  A    between atoms: C2_4  and  O1_5 
REMARK    3  A    between atoms: C2_4  and  C3_7 
REMARK    4  A    between atoms: C3_7  and  C4_8 
REMARK    5  A    between atoms: C4_8  and  C5_9 
REMARK    6  A    between atoms: C4_8  and  C27_43 
REMARK    7  A    between atoms: C5_9  and  N2_10 
REMARK    8  A    between atoms: C9_16  and  N4_17 
REMARK    9  A    between atoms: C15_25  and  N6_26 
REMARK   10  A    between atoms: N6_26  and  C17_28 
REMARK   11  A    between atoms: C20_31  and  C21_32 
REMARK   12  A    between atoms: C21_32  and  S1_33 
REMARK   13  A    between atoms: S1_33  and  N7_36 
REMARK   14  A    between atoms: C27_43  and  C28_44 
ROOT
HETATM    1  N2  UNL     1       3.153  -0.489   0.591  1.00  0.00    -0.385 N 
HETATM    2  C6  UNL     1       3.955   0.599   0.762  1.00  0.00     0.128 C 
HETATM    3  C7  UNL     1       3.666   1.764  -0.199  1.00  0.00     0.078 C 
HETATM    4  C8  UNL     1       2.246   2.144   0.101  1.00  0.00     0.040 A 
HETATM    5  N3  UNL     1       1.824   3.391   0.280  1.00  0.00    -0.195 N 
ATOM      6  H3  UNL     1       2.501   4.151   0.212  1.00  0.00     0.184 HD
HETATM    7  C9  UNL     1       0.537   3.693   0.548  1.00  0.00     0.682 A 
HETATM    8  N5  UNL     1      -0.333   2.671   0.630  1.00  0.00    -0.176 N 
ATOM      9  H5  UNL     1      -1.312   2.873   0.831  1.00  0.00     0.186 HD
HETATM   10  C15 UNL     1       0.053   1.362   0.452  1.00  0.00     0.129 A 
HETATM   11  C25 UNL     1       1.362   1.093   0.184  1.00  0.00     0.027 A 
HETATM   12  C26 UNL     1       1.848  -0.260  -0.021  1.00  0.00     0.166 C 
ENDROOT
BRANCH  10  13
HETATM   13  N6  UNL     1      -0.990   0.403   0.580  1.00  0.00    -0.366 N 
HETATM   14  C16 UNL     1      -0.901  -0.545   1.667  1.00  0.00     0.151 C 
BRANCH  13  15
HETATM   15  C17 UNL     1      -2.104   0.419  -0.356  1.00  0.00     0.085 C 
HETATM   16  C18 UNL     1      -3.403   0.715   0.285  1.00  0.00     0.026 C 
HETATM   17  C19 UNL     1      -4.326  -0.449   0.516  1.00  0.00     0.007 C 
HETATM   18  C20 UNL     1      -4.400  -1.286  -0.725  1.00  0.00     0.001 C 
HETATM   19  C23 UNL     1      -2.986  -1.888  -0.873  1.00  0.00     0.007 C 
HETATM   20  C24 UNL     1      -2.064  -0.788  -1.223  1.00  0.00     0.026 C 
BRANCH  18  21
HETATM   21  C21 UNL     1      -5.427  -2.357  -0.745  1.00  0.00     0.167 C 
BRANCH  21  22
HETATM   22  S1  UNL     1      -7.080  -1.773  -0.575  1.00  0.00     0.226 S 
HETATM   23  O2  UNL     1      -7.347  -1.154   0.789  1.00  0.00    -0.206 OA
HETATM   24  O3  UNL     1      -7.453  -0.754  -1.604  1.00  0.00    -0.206 OA
BRANCH  22  25
HETATM   25  N7  UNL     1      -8.191  -3.119  -0.653  1.00  0.00    -0.324 N 
HETATM   26  C22 UNL     1      -7.948  -4.046   0.425  1.00  0.00     0.159 C 
ATOM     27  H7  UNL     1      -8.913  -3.234  -1.364  1.00  0.00     0.171 HD
ENDBRANCH  22  25
ENDBRANCH  21  22
ENDBRANCH  18  21
ENDBRANCH  13  15
ENDBRANCH  10  13
BRANCH   7  28
HETATM   28  N4  UNL     1       0.102   5.023   0.741  1.00  0.00    -0.218 N 
HETATM   29  C10 UNL     1       1.034   6.120   0.746  1.00  0.00     0.141 C 
HETATM   30  C11 UNL     1       0.711   7.102  -0.351  1.00  0.00     0.020 C 
HETATM   31  C12 UNL     1      -0.725   7.044  -0.763  1.00  0.00     0.003 C 
HETATM   32  C13 UNL     1      -1.675   6.648   0.342  1.00  0.00     0.020 C 
HETATM   33  C14 UNL     1      -1.301   5.300   0.935  1.00  0.00     0.141 C 
ENDBRANCH   7  28
BRANCH   1  34
HETATM   34  C5  UNL     1       3.443  -1.759   1.003  1.00  0.00     0.093 C 
BRANCH  34  35
HETATM   35  C4  UNL     1       4.463  -2.580   0.253  1.00  0.00    -0.030 C 
BRANCH  35  36
HETATM   36  C3  UNL     1       3.954  -3.664  -0.327  1.00  0.00     0.064 C 
BRANCH  36  37
HETATM   37  C2  UNL     1       4.420  -4.739  -1.110  1.00  0.00     0.135 C 
BRANCH  37  38
HETATM   38  N1  UNL     1       5.666  -5.141  -1.588  1.00  0.00    -0.375 N 
HETATM   39  C1  UNL     1       5.792  -6.372  -2.430  1.00  0.00     0.148 C 
ATOM     40  H1  UNL     1       6.496  -4.593  -1.363  1.00  0.00     0.161 HD
ENDBRANCH  37  38
BRANCH  37  41
HETATM   41  O1  UNL     1       3.466  -5.602  -1.510  1.00  0.00    -0.346 OA
ATOM     42  H1  UNL     1       2.617  -5.328  -1.184  1.00  0.00     0.219 HD
ENDBRANCH  37  41
ENDBRANCH  36  37
ENDBRANCH  35  36
BRANCH  35  43
HETATM   43  C27 UNL     1       5.866  -2.246   0.098  1.00  0.00     0.157 C 
BRANCH  43  44
HETATM   44  C28 UNL     1       6.716  -2.288   1.332  1.00  0.00     0.391 C 
HETATM   45  F1  UNL     1       8.039  -1.937   1.010  1.00  0.00    -0.171 F 
HETATM   46  F2  UNL     1       6.823  -3.618   1.767  1.00  0.00    -0.171 F 
HETATM   47  F3  UNL     1       6.257  -1.559   2.374  1.00  0.00    -0.171 F 
ENDBRANCH  43  44
ENDBRANCH  35  43
ENDBRANCH  34  35
ENDBRANCH   1  34
TORSDOF 14
