REMARK  14 active torsions:
REMARK  status: ('A' for Active; 'I' for Inactive)
REMARK    1  A    between atoms: C2_2  and  C4_4 
REMARK    2  A    between atoms: C4_4  and  N1_5 
REMARK    3  A    between atoms: C4_4  and  C18_29 
REMARK       I    between atoms: N1_5  and  C5_7 
REMARK    4  A    between atoms: C5_7  and  C6_9 
REMARK    5  A    between atoms: C6_9  and  N2_10 
REMARK    6  A    between atoms: C6_9  and  C15_26 
REMARK       I    between atoms: N2_10  and  C7_12 
REMARK    7  A    between atoms: C7_12  and  C8_14 
REMARK    8  A    between atoms: C8_14  and  S1_15 
REMARK    9  A    between atoms: S1_15  and  S2_16 
REMARK   10  A    between atoms: S2_16  and  C9_17 
REMARK   11  A    between atoms: C9_17  and  C10_18 
REMARK       I    between atoms: C10_18  and  N3_20 
REMARK   12  A    between atoms: C18_29  and  O5_30 
REMARK   13  A    between atoms: C18_29  and  N4_32 
REMARK   14  A    between atoms: N4_32  and  C19_34 
ROOT
HETATM    1  N1  UNL     1       1.805  -0.168   0.920  1.00  0.00    -0.347 N 
ATOM      2  H1  UNL     1       2.090   0.026   1.880  1.00  0.00     0.163 HD
HETATM    3  C5  UNL     1       0.465  -0.443   0.672  1.00  0.00     0.241 C 
HETATM    4  O1  UNL     1       0.165  -0.672  -0.558  1.00  0.00    -0.271 OA
ENDROOT
BRANCH   3   5
HETATM    5  C6  UNL     1      -0.636  -0.504   1.621  1.00  0.00     0.180 C 
BRANCH   5   6
HETATM    6  N2  UNL     1      -1.806   0.165   1.140  1.00  0.00    -0.347 N 
HETATM    7  C7  UNL     1      -1.946   1.212   0.242  1.00  0.00     0.228 C 
HETATM    8  O2  UNL     1      -0.952   1.748  -0.298  1.00  0.00    -0.273 OA
ATOM      9  H2  UNL     1      -2.684  -0.187   1.522  1.00  0.00     0.163 HD
BRANCH   7  10
HETATM   10  C8  UNL     1      -3.266   1.765  -0.138  1.00  0.00     0.188 C 
BRANCH  10  11
HETATM   11  S1  UNL     1      -4.370   2.125   1.209  1.00  0.00    -0.088 SA
BRANCH  11  12
HETATM   12  S2  UNL     1      -5.128   0.482   2.244  1.00  0.00    -0.088 SA
BRANCH  12  13
HETATM   13  C9  UNL     1      -6.666  -0.169   1.627  1.00  0.00     0.189 C 
BRANCH  13  14
HETATM   14  C10 UNL     1      -6.649  -0.753   0.290  1.00  0.00     0.230 C 
HETATM   15  O3  UNL     1      -5.844  -1.664  -0.002  1.00  0.00    -0.273 OA
HETATM   16  N3  UNL     1      -7.555  -0.293  -0.710  1.00  0.00    -0.347 N 
HETATM   17  C11 UNL     1      -8.493   0.799  -0.401  1.00  0.00     0.152 C 
HETATM   18  C14 UNL     1      -7.633  -0.842  -2.044  1.00  0.00     0.152 C 
HETATM   19  C12 UNL     1      -9.402   0.939  -1.611  1.00  0.00     0.187 C 
HETATM   20  O4  UNL     1      -9.978  -0.262  -1.966  1.00  0.00    -0.388 OA
HETATM   21  C13 UNL     1      -9.065  -1.227  -2.322  1.00  0.00     0.187 C 
ENDBRANCH  13  14
ENDBRANCH  12  13
ENDBRANCH  11  12
ENDBRANCH  10  11
ENDBRANCH   7  10
ENDBRANCH   5   6
BRANCH   5  22
HETATM   22  C15 UNL     1      -0.294  -0.244   3.031  1.00  0.00     0.009 C 
HETATM   23  C16 UNL     1       0.671  -1.270   3.557  1.00  0.00     0.012 C 
HETATM   24  C17 UNL     1      -1.537  -0.280   3.910  1.00  0.00     0.012 C 
ENDBRANCH   5  22
ENDBRANCH   3   5
BRANCH   1  25
HETATM   25  C4  UNL     1       2.834  -0.143  -0.132  1.00  0.00     0.162 C 
BRANCH  25  26
HETATM   26  C2  UNL     1       3.662   1.098  -0.036  1.00  0.00     0.008 C 
HETATM   27  C1  UNL     1       2.769   2.314  -0.165  1.00  0.00     0.012 C 
HETATM   28  C3  UNL     1       4.538   1.127   1.192  1.00  0.00     0.012 C 
ENDBRANCH  25  26
BRANCH  25  29
HETATM   29  C18 UNL     1       3.667  -1.401  -0.016  1.00  0.00     0.140 C 
BRANCH  29  30
HETATM   30  O5  UNL     1       3.313  -2.214   0.959  1.00  0.00    -0.348 OA
ATOM     31  H5  UNL     1       3.836  -3.004   1.032  1.00  0.00     0.219 HD
ENDBRANCH  29  30
BRANCH  29  32
HETATM   32  N4  UNL     1       4.705  -1.816  -0.748  1.00  0.00    -0.337 N 
ATOM     33  H4  UNL     1       4.883  -2.756  -0.394  1.00  0.00     0.168 HD
BRANCH  32  34
HETATM   34  C19 UNL     1       5.556  -1.674  -1.614  1.00  0.00     0.054 C 
HETATM   35  C20 UNL     1       6.101  -0.716  -2.645  1.00  0.00     0.114 C 
HETATM   36  C21 UNL     1       7.480  -1.071  -2.141  1.00  0.00     0.126 C 
HETATM   37  C22 UNL     1       8.604  -0.729  -3.057  1.00  0.00     0.059 C 
HETATM   38  O6  UNL     1       7.788  -0.732  -0.862  1.00  0.00    -0.303 OA
HETATM   39  S3  UNL     1       6.898  -2.788  -2.241  1.00  0.00    -0.077 SA
HETATM   40  C23 UNL     1       9.507   0.113  -2.178  1.00  0.00     0.116 C 
HETATM   41  C24 UNL     1       8.900   0.059  -0.803  1.00  0.00     0.356 C 
HETATM   42  F1  UNL     1       8.593   1.316  -0.309  1.00  0.00    -0.176 F 
HETATM   43  F2  UNL     1       9.768  -0.525   0.118  1.00  0.00    -0.176 F 
ENDBRANCH  32  34
ENDBRANCH  29  32
ENDBRANCH  25  29
ENDBRANCH   1  25
TORSDOF 14
