REMARK  7 active torsions:
REMARK  status: ('A' for Active; 'I' for Inactive)
REMARK    1  A    between atoms: C3_3  and  N1_4 
REMARK    2  A    between atoms: N1_4  and  C4_7 
REMARK    3  A    between atoms: C4_7  and  C5_8 
REMARK    4  A    between atoms: C8_11  and  C9_12 
REMARK    5  A    between atoms: C9_12  and  N2_13 
REMARK    6  A    between atoms: C12_16  and  C13_17 
REMARK    7  A    between atoms: N3_18  and  O1_20 
ROOT
HETATM    1  C1  UNL     1      -6.525   1.449   1.892  1.00  0.00     0.013 C 
HETATM    2  C2  UNL     1      -5.822   0.483   2.041  1.00  0.00    -0.090 C 
HETATM    3  C3  UNL     1      -4.987  -0.699   2.211  1.00  0.00     0.325 C 
ENDROOT
BRANCH   3   4
HETATM    4  N1  UNL     1      -4.051  -0.803   1.107  1.00  0.00    -0.060 N 
ATOM      5  H12 UNL     1      -3.613  -1.724   1.075  1.00  0.00     0.278 HD
ATOM      6  H11 UNL     1      -4.535  -0.827   0.209  1.00  0.00     0.278 HD
BRANCH   4   7
HETATM    7  C4  UNL     1      -3.061   0.253   1.147  1.00  0.00     0.289 C 
BRANCH   7   8
HETATM    8  C5  UNL     1      -2.123   0.118   0.002  1.00  0.00     0.035 A 
HETATM    9  C6  UNL     1      -2.146   0.815  -1.183  1.00  0.00     0.028 A 
HETATM   10  C7  UNL     1      -1.102   0.388  -1.983  1.00  0.00     0.028 A 
HETATM   11  C8  UNL     1      -0.437  -0.589  -1.261  1.00  0.00     0.028 A 
HETATM   12  N4  UNL     1      -1.073  -0.713  -0.099  1.00  0.00    -0.360 N 
ATOM     13  H4  UNL     1      -0.794  -1.366   0.633  1.00  0.00     0.165 HD
BRANCH  11  14
HETATM   14  C9  UNL     1       0.760  -1.371  -1.671  1.00  0.00     0.184 C 
BRANCH  14  15
HETATM   15  N2  UNL     1       2.006  -0.733  -1.267  1.00  0.00    -0.361 N 
HETATM   16  C10 UNL     1       2.588  -0.975  -0.105  1.00  0.00     0.091 A 
HETATM   17  C11 UNL     1       3.782  -0.373   0.294  1.00  0.00     0.030 A 
HETATM   18  C12 UNL     1       4.366   0.509  -0.571  1.00  0.00    -0.016 A 
HETATM   19  C14 UNL     1       3.726   0.738  -1.780  1.00  0.00     0.030 A 
HETATM   20  C15 UNL     1       2.551   0.124  -2.134  1.00  0.00     0.091 A 
BRANCH  18  21
HETATM   21  C13 UNL     1       5.590   1.177  -0.255  1.00  0.00     0.125 C 
HETATM   22  N3  UNL     1       6.255   1.047   0.796  1.00  0.00    -0.280 N 
ATOM     23  H3  UNL     1       7.090   1.633   0.780  1.00  0.00     0.193 HD
BRANCH  22  24
HETATM   24  O1  UNL     1       6.174   0.361   1.920  1.00  0.00    -0.290 OA
ATOM     25  H1  UNL     1       6.679   0.262   2.718  1.00  0.00     0.244 HD
ENDBRANCH  22  24
ENDBRANCH  18  21
ENDBRANCH  14  15
ENDBRANCH  11  14
ENDBRANCH   7   8
ENDBRANCH   4   7
ENDBRANCH   3   4
TORSDOF 7
