REMARK  6 active torsions:
REMARK  status: ('A' for Active; 'I' for Inactive)
REMARK    1  A    between atoms: N2_8  and  C6_10 
REMARK    2  A    between atoms: C6_10  and  C7_11 
REMARK    3  A    between atoms: C7_11  and  N3_12 
REMARK    4  A    between atoms: N3_12  and  C8_15 
REMARK    5  A    between atoms: C8_15  and  C9_16 
REMARK    6  A    between atoms: C9_16  and  N4_17 
ROOT
HETATM    1  N3  UNL     1       1.312  -0.853  -0.646  1.00  0.00    -0.069 N 
ATOM      2  H31 UNL     1       1.148  -0.656  -1.633  1.00  0.00     0.277 HD
ATOM      3  H32 UNL     1       1.164  -1.862  -0.648  1.00  0.00     0.277 HD
ENDROOT
BRANCH   1   4
HETATM    4  C7  UNL     1       0.335  -0.200   0.169  1.00  0.00     0.252 C 
BRANCH   4   5
HETATM    5  C6  UNL     1      -1.039  -0.644  -0.343  1.00  0.00     0.148 C 
BRANCH   5   6
HETATM    6  N2  UNL     1      -2.097  -0.042   0.408  1.00  0.00    -0.375 N 
HETATM    7  C5  UNL     1      -3.301   0.022  -0.047  1.00  0.00     0.101 A 
HETATM    8  N1  UNL     1      -3.659  -0.469  -1.259  1.00  0.00    -0.353 N 
HETATM    9  C13 UNL     1      -4.314   0.613   0.694  1.00  0.00     0.054 A 
HETATM   10  C4  UNL     1      -4.941  -0.384  -1.716  1.00  0.00     0.090 A 
ATOM     11  H1  UNL     1      -2.951  -0.913  -1.844  1.00  0.00     0.166 HD
HETATM   12  C3  UNL     1      -5.940   0.200  -0.983  1.00  0.00     0.024 A 
HETATM   13  C2  UNL     1      -5.615   0.708   0.247  1.00  0.00    -0.057 A 
HETATM   14  C1  UNL     1      -6.685   1.350   1.065  1.00  0.00     0.048 C 
ATOM     15  H2  UNL     1      -1.893   0.347   1.329  1.00  0.00     0.161 HD
ENDBRANCH   5   6
ENDBRANCH   4   5
ENDBRANCH   1   4
BRANCH   1  16
HETATM   16  C8  UNL     1       2.677  -0.535  -0.279  1.00  0.00     0.276 C 
BRANCH  16  17
HETATM   17  C9  UNL     1       3.055   0.876  -0.555  1.00  0.00     0.089 C 
BRANCH  17  18
HETATM   18  N4  UNL     1       4.343   1.201  -0.200  1.00  0.00    -0.361 N 
HETATM   19  C10 UNL     1       5.421   0.692   0.230  1.00  0.00     0.091 A 
HETATM   20  C11 UNL     1       5.811  -0.576   0.568  1.00  0.00     0.056 A 
HETATM   21  S1  UNL     1       6.903   1.575   0.552  1.00  0.00     0.003 SA
HETATM   22  C12 UNL     1       7.073  -0.753   0.999  1.00  0.00     0.099 A 
HETATM   23  N5  UNL     1       7.865   0.313   1.071  1.00  0.00    -0.335 N 
ATOM     24  H5  UNL     1       8.838   0.351   1.374  1.00  0.00     0.173 HD
ATOM     25  H4  UNL     1       4.478   2.204  -0.328  1.00  0.00     0.165 HD
ENDBRANCH  17  18
ENDBRANCH  16  17
ENDBRANCH   1  16
TORSDOF 6
