REMARK  8 active torsions:
REMARK  status: ('A' for Active; 'I' for Inactive)
REMARK    1  A    between atoms: N2_3  and  C2_5 
REMARK    2  A    between atoms: C2_5  and  C3_6 
REMARK    3  A    between atoms: C3_6  and  C4_7 
REMARK    4  A    between atoms: C4_7  and  N3_8 
REMARK    5  A    between atoms: N3_8  and  C5_10 
REMARK    6  A    between atoms: C8_15  and  N5_16 
REMARK    7  A    between atoms: N5_16  and  C9_18 
REMARK    8  A    between atoms: C9_18  and  C10_19 
ROOT
HETATM    1  N1  UNL     1       8.069   0.859   1.391  1.00  0.00    -0.172 NA
HETATM    2  C1  UNL     1       7.334   1.119   0.530  1.00  0.00     0.177 C 
HETATM    3  N2  UNL     1       6.471   1.435  -0.518  1.00  0.00    -0.329 N 
ATOM      4  H2  UNL     1       6.849   1.611  -1.449  1.00  0.00     0.171 HD
ENDROOT
BRANCH   3   5
HETATM    5  C2  UNL     1       5.049   1.515  -0.297  1.00  0.00     0.133 C 
BRANCH   5   6
HETATM    6  C3  UNL     1       4.559   0.104  -0.002  1.00  0.00     0.040 C 
BRANCH   6   7
HETATM    7  C4  UNL     1       3.071   0.084   0.245  1.00  0.00     0.139 C 
BRANCH   7   8
HETATM    8  N3  UNL     1       2.654  -1.256   0.518  1.00  0.00    -0.226 N 
ATOM      9  H3  UNL     1       3.366  -1.964   0.695  1.00  0.00     0.177 HD
BRANCH   8  10
HETATM   10  C5  UNL     1       1.410  -1.605   0.549  1.00  0.00     0.679 A 
HETATM   11  N4  UNL     1       1.097  -2.905   0.817  1.00  0.00    -0.202 N 
HETATM   12  C6  UNL     1      -0.167  -3.334   0.863  1.00  0.00     0.110 A 
ATOM     13  H4  UNL     1       1.851  -3.570   0.988  1.00  0.00     0.183 HD
HETATM   14  C7  UNL     1      -1.176  -2.429   0.631  1.00  0.00     0.066 A 
HETATM   15  C8  UNL     1      -0.899  -1.092   0.354  1.00  0.00     0.118 A 
HETATM   16  N6  UNL     1       0.398  -0.751   0.328  1.00  0.00    -0.177 N 
ATOM     17  H6  UNL     1       0.631   0.222   0.127  1.00  0.00     0.185 HD
BRANCH  15  18
HETATM   18  N5  UNL     1      -1.825  -0.229   0.131  1.00  0.00    -0.372 N 
ATOM     19  H5  UNL     1      -1.598   0.745  -0.070  1.00  0.00     0.161 HD
BRANCH  18  20
HETATM   20  C9  UNL     1      -3.191  -0.677   0.174  1.00  0.00     0.159 C 
BRANCH  20  21
HETATM   21  C10 UNL     1      -4.169   0.361  -0.165  1.00  0.00    -0.041 A 
HETATM   22  C11 UNL     1      -4.475   0.523  -1.519  1.00  0.00     0.009 A 
HETATM   23  C12 UNL     1      -5.365   1.448  -1.976  1.00  0.00     0.001 A 
HETATM   24  C13 UNL     1      -5.989   2.260  -1.050  1.00  0.00     0.000 A 
HETATM   25  C14 UNL     1      -5.705   2.121   0.282  1.00  0.00     0.001 A 
HETATM   26  C15 UNL     1      -4.801   1.180   0.745  1.00  0.00     0.009 A 
ENDBRANCH  20  21
ENDBRANCH  18  20
ENDBRANCH  15  18
ENDBRANCH   8  10
ENDBRANCH   7   8
ENDBRANCH   6   7
ENDBRANCH   5   6
ENDBRANCH   3   5
TORSDOF 8
