REMARK  10 active torsions:
REMARK  status: ('A' for Active; 'I' for Inactive)
REMARK    1  A    between atoms: C4_4  and  O1_5 
REMARK    2  A    between atoms: O1_5  and  C5_6 
REMARK    3  A    between atoms: C9_10  and  O2_12 
REMARK    4  A    between atoms: C11_14  and  C12_15 
REMARK    5  A    between atoms: C17_20  and  O3_21 
REMARK    6  A    between atoms: C17_20  and  C18_23 
REMARK    7  A    between atoms: C19_24  and  C20_25 
REMARK    8  A    between atoms: C20_25  and  C21_26 
REMARK    9  A    between atoms: C21_26  and  C22_27 
REMARK   10  A    between atoms: C22_27  and  C23_28 
ROOT
HETATM    1  C23 UNL     1       7.229   0.043  -0.212  1.00  0.00     0.124 C 
HETATM    2  C24 UNL     1       7.073  -0.721   1.038  1.00  0.00     0.059 C 
HETATM    3  N1  UNL     1       6.948  -1.329   2.008  1.00  0.00    -0.197 NA
ENDROOT
BRANCH   1   4
HETATM    4  C22 UNL     1       6.407   1.305  -0.182  1.00  0.00     0.015 C 
BRANCH   4   5
HETATM    5  C21 UNL     1       4.926   0.998  -0.008  1.00  0.00     0.013 C 
BRANCH   5   6
HETATM    6  C20 UNL     1       4.472   0.155  -1.154  1.00  0.00     0.094 C 
BRANCH   6   7
HETATM    7  C19 UNL     1       3.050  -0.127  -0.968  1.00  0.00    -0.103 C 
HETATM    8  C18 UNL     1       1.870  -0.361  -0.834  1.00  0.00    -0.067 C 
BRANCH   8   9
HETATM    9  C17 UNL     1       0.411  -0.631  -0.650  1.00  0.00     0.131 C 
HETATM   10  C2  UNL     1       0.347  -2.035  -0.149  1.00  0.00     0.031 C 
HETATM   11  C1  UNL     1       1.508  -2.336   0.790  1.00  0.00     0.014 C 
HETATM   12  C3  UNL     1      -0.985  -2.458   0.426  1.00  0.00     0.043 C 
HETATM   13  C4  UNL     1      -1.966  -1.262   0.439  1.00  0.00     0.157 C 
HETATM   14  C9  UNL     1      -1.265  -0.086   1.078  1.00  0.00     0.088 C 
HETATM   15  C10 UNL     1      -2.257   0.801   1.690  1.00  0.00     0.049 C 
HETATM   16  C11 UNL     1      -0.124   0.416   0.311  1.00  0.00     0.073 C 
BRANCH  13  17
HETATM   17  O1  UNL     1      -3.128  -1.504   0.962  1.00  0.00    -0.373 OA
BRANCH  17  18
HETATM   18  C5  UNL     1      -4.297  -1.683   0.400  1.00  0.00     0.051 C 
HETATM   19  C6  UNL     1      -4.642  -0.472  -0.440  1.00  0.00     0.045 C 
HETATM   20  C7  UNL     1      -5.475  -1.780   1.392  1.00  0.00     0.045 C 
HETATM   21  C8  UNL     1      -4.451  -2.856  -0.546  1.00  0.00     0.045 C 
ENDBRANCH  17  18
ENDBRANCH  13  17
BRANCH  14  22
HETATM   22  O2  UNL     1      -0.689  -0.747   2.236  1.00  0.00    -0.387 OA
ATOM     23  H2  UNL     1      -0.248  -0.008   2.638  1.00  0.00     0.210 HD
ENDBRANCH  14  22
BRANCH  16  24
HETATM   24  C12 UNL     1      -0.106   1.725  -0.367  1.00  0.00    -0.004 C 
HETATM   25  C13 UNL     1      -0.211   2.943   0.493  1.00  0.00     0.005 C 
HETATM   26  C14 UNL     1      -1.191   3.896  -0.148  1.00  0.00     0.000 C 
HETATM   27  C15 UNL     1      -1.563   3.329  -1.476  1.00  0.00     0.000 C 
HETATM   28  C16 UNL     1      -1.044   1.899  -1.525  1.00  0.00     0.005 C 
ENDBRANCH  16  24
BRANCH   9  29
HETATM   29  O3  UNL     1      -0.105  -0.508  -1.939  1.00  0.00    -0.377 OA
ATOM     30  H3  UNL     1      -0.064   0.386  -2.258  1.00  0.00     0.211 HD
ENDBRANCH   9  29
ENDBRANCH   8   9
ENDBRANCH   6   7
ENDBRANCH   5   6
ENDBRANCH   4   5
ENDBRANCH   1   4
TORSDOF 10
