REMARK  6 active torsions:
REMARK  status: ('A' for Active; 'I' for Inactive)
REMARK    1  A    between atoms: C6_6  and  C8_8 
REMARK    2  A    between atoms: C8_8  and  C9_9 
REMARK    3  A    between atoms: C9_9  and  O1_11 
REMARK    4  A    between atoms: C9_9  and  C11_13 
REMARK    5  A    between atoms: C22_26  and  C24_28 
REMARK    6  A    between atoms: C24_28  and  O4_29 
ROOT
HETATM    1  C1  UNL     1      -2.447   3.076   0.062  1.00  0.00     0.020 C 
HETATM    2  C2  UNL     1      -2.030   1.991  -0.555  1.00  0.00    -0.055 C 
HETATM    3  C3  UNL     1      -0.785   2.215  -1.305  1.00  0.00     0.003 C 
HETATM    4  C4  UNL     1       0.127   1.161  -1.664  1.00  0.00    -0.020 C 
HETATM    5  C5  UNL     1       0.215  -0.145  -0.926  1.00  0.00     0.028 C 
HETATM    6  C6  UNL     1       0.951  -0.061   0.347  1.00  0.00    -0.034 C 
HETATM    7  C7  UNL     1       1.045  -1.335   1.157  1.00  0.00     0.016 C 
HETATM    8  C13 UNL     1       0.091   0.843   1.273  1.00  0.00     0.011 C 
HETATM    9  C14 UNL     1      -1.275   0.376   1.368  1.00  0.00     0.017 C 
HETATM   10  C15 UNL     1      -1.964  -0.306   0.200  1.00  0.00     0.014 C 
HETATM   11  C16 UNL     1      -2.935  -1.197   0.872  1.00  0.00    -0.009 A 
HETATM   12  C17 UNL     1      -3.150  -2.444   1.476  1.00  0.00     0.150 A 
HETATM   13  O2  UNL     1      -4.370  -2.486   1.906  1.00  0.00    -0.333 OA
HETATM   14  C18 UNL     1      -5.015  -1.391   1.659  1.00  0.00     0.157 A 
HETATM   15  C19 UNL     1      -4.127  -0.548   1.002  1.00  0.00     0.042 A 
HETATM   16  C20 UNL     1      -4.021   0.808   0.435  1.00  0.00     0.171 C 
HETATM   17  O3  UNL     1      -4.871   1.679   0.737  1.00  0.00    -0.291 OA
HETATM   18  C21 UNL     1      -2.855   0.786  -0.410  1.00  0.00     0.107 C 
HETATM   19  C22 UNL     1      -1.151  -0.826  -0.895  1.00  0.00    -0.002 C 
HETATM   20  C23 UNL     1      -1.765  -0.573  -2.283  1.00  0.00     0.019 C 
ENDROOT
BRANCH   6  21
HETATM   21  C8  UNL     1       2.277   0.566   0.360  1.00  0.00     0.047 C 
BRANCH  21  22
HETATM   22  C9  UNL     1       3.433   0.098  -0.371  1.00  0.00     0.054 C 
HETATM   23  C10 UNL     1       3.942  -1.307  -0.036  1.00  0.00     0.045 C 
BRANCH  22  24
HETATM   24  O1  UNL     1       3.454   0.138  -1.751  1.00  0.00    -0.390 OA
ATOM     25  H1  UNL     1       4.214  -0.170  -2.231  1.00  0.00     0.210 HD
ENDBRANCH  22  24
BRANCH  22  26
HETATM   26  C11 UNL     1       4.623   0.988   0.062  1.00  0.00     0.033 C 
HETATM   27  C12 UNL     1       4.872   0.886   1.543  1.00  0.00     0.008 C 
ENDBRANCH  22  26
ENDBRANCH  21  22
ENDBRANCH   6  21
BRANCH  19  28
HETATM   28  C24 UNL     1      -0.994  -2.339  -1.030  1.00  0.00     0.175 C 
BRANCH  28  29
HETATM   29  O4  UNL     1      -2.248  -2.989  -1.144  1.00  0.00    -0.400 OA
ATOM     30  H4  UNL     1      -2.150  -3.930  -1.228  1.00  0.00     0.209 HD
ENDBRANCH  28  29
ENDBRANCH  19  28
TORSDOF 6
