REMARK  7 active torsions:
REMARK  status: ('A' for Active; 'I' for Inactive)
REMARK    1  A    between atoms: C5_5  and  O1_6 
REMARK    2  A    between atoms: C8_11  and  C9_12 
REMARK    3  A    between atoms: C15_19  and  C16_20 
REMARK    4  A    between atoms: C16_20  and  C17_21 
REMARK    5  A    between atoms: C17_21  and  C18_22 
REMARK    6  A    between atoms: C18_22  and  C19_23 
REMARK    7  A    between atoms: C19_23  and  O4_24 
ROOT
HETATM    1  C1  UNL     1       1.463  -1.398   1.866  1.00  0.00     0.016 C 
HETATM    2  C2  UNL     1       1.539  -1.202   0.355  1.00  0.00    -0.026 C 
HETATM    3  C3  UNL     1       1.182  -2.483  -0.304  1.00  0.00     0.040 C 
HETATM    4  C4  UNL     1       2.238  -3.503  -0.379  1.00  0.00     0.014 C 
HETATM    5  C5  UNL     1       3.485  -3.221  -0.092  1.00  0.00     0.108 C 
HETATM    6  C6  UNL     1       3.862  -1.888   0.311  1.00  0.00     0.187 C 
HETATM    7  O2  UNL     1       4.979  -1.766   0.899  1.00  0.00    -0.290 OA
HETATM    8  C7  UNL     1       2.961  -0.771   0.030  1.00  0.00     0.080 C 
HETATM    9  C8  UNL     1       3.339   0.496   0.732  1.00  0.00     0.033 C 
HETATM   10  C13 UNL     1       2.259   1.266   1.372  1.00  0.00     0.010 C 
HETATM   11  C14 UNL     1       0.897   1.135   0.799  1.00  0.00     0.006 C 
HETATM   12  C15 UNL     1       0.678  -0.038  -0.092  1.00  0.00    -0.005 C 
ENDROOT
BRANCH  12  13
HETATM   13  C16 UNL     1      -0.780  -0.439  -0.180  1.00  0.00     0.006 C 
BRANCH  13  14
HETATM   14  C17 UNL     1      -1.664   0.666  -0.611  1.00  0.00     0.012 C 
BRANCH  14  15
HETATM   15  C18 UNL     1      -3.123   0.340  -0.692  1.00  0.00    -0.019 C 
HETATM   16  C20 UNL     1      -3.799   1.621  -1.213  1.00  0.00     0.011 C 
HETATM   17  C21 UNL     1      -4.358   2.436  -0.070  1.00  0.00     0.001 C 
HETATM   18  C22 UNL     1      -5.510   1.646   0.514  1.00  0.00     0.000 C 
HETATM   19  C23 UNL     1      -5.073   0.253   0.890  1.00  0.00     0.001 C 
HETATM   20  C24 UNL     1      -3.595   0.116   0.732  1.00  0.00     0.011 C 
BRANCH  15  21
HETATM   21  C19 UNL     1      -3.513  -0.736  -1.620  1.00  0.00     0.173 C 
BRANCH  21  22
HETATM   22  O4  UNL     1      -3.032  -1.983  -1.446  1.00  0.00    -0.400 OA
ATOM     23  H4  UNL     1      -3.283  -2.677  -2.044  1.00  0.00     0.209 HD
ENDBRANCH  21  22
ENDBRANCH  15  21
ENDBRANCH  14  15
ENDBRANCH  13  14
ENDBRANCH  12  13
BRANCH   9  24
HETATM   24  C9  UNL     1       4.132   1.329  -0.211  1.00  0.00    -0.029 A 
HETATM   25  C10 UNL     1       3.631   1.946  -1.353  1.00  0.00     0.034 A 
HETATM   26  C11 UNL     1       4.702   2.602  -1.914  1.00  0.00     0.142 A 
HETATM   27  O3  UNL     1       5.787   2.423  -1.202  1.00  0.00    -0.334 OA
HETATM   28  C12 UNL     1       5.462   1.666  -0.183  1.00  0.00     0.148 A 
ENDBRANCH   9  24
BRANCH   5  29
HETATM   29  O1  UNL     1       4.490  -4.206  -0.167  1.00  0.00    -0.357 OA
ATOM     30  H1  UNL     1       5.394  -4.002   0.041  1.00  0.00     0.217 HD
ENDBRANCH   5  29
TORSDOF 7
