REMARK  7 active torsions:
REMARK  status: ('A' for Active; 'I' for Inactive)
REMARK    1  A    between atoms: S1_2  and  C2_3 
REMARK    2  A    between atoms: C2_3  and  C3_4 
REMARK    3  A    between atoms: C3_4  and  C4_5 
REMARK    4  A    between atoms: C4_5  and  O1_6 
REMARK    5  A    between atoms: O1_6  and  C5_7 
REMARK    6  A    between atoms: C13_15  and  O2_16 
REMARK    7  A    between atoms: C23_27  and  O3_28 
ROOT
HETATM    1  C5  UNL     1       2.527   0.787  -0.426  1.00  0.00     0.151 C 
HETATM    2  C6  UNL     1       1.521   0.323   0.642  1.00  0.00     0.040 C 
HETATM    3  C7  UNL     1       0.281   0.322  -0.145  1.00  0.00     0.003 C 
HETATM    4  C8  UNL     1      -0.990  -0.100   0.469  1.00  0.00    -0.001 C 
HETATM    5  C9  UNL     1      -1.479   0.604   1.654  1.00  0.00     0.033 C 
HETATM    6  C10 UNL     1      -2.952   0.555   1.742  1.00  0.00    -0.023 C 
HETATM    7  C11 UNL     1      -3.786  -0.047   0.940  1.00  0.00    -0.072 C 
HETATM    8  C12 UNL     1      -5.263  -0.039   1.112  1.00  0.00     0.066 C 
HETATM    9  C13 UNL     1      -5.981  -1.181   0.496  1.00  0.00     0.122 C 
HETATM   10  C14 UNL     1      -5.477  -1.658  -0.819  1.00  0.00     0.033 C 
HETATM   11  C15 UNL     1      -4.232  -0.975  -1.302  1.00  0.00     0.016 C 
HETATM   12  C16 UNL     1      -3.229  -0.780  -0.216  1.00  0.00    -0.017 C 
HETATM   13  C17 UNL     1      -2.811  -2.165   0.278  1.00  0.00     0.020 C 
HETATM   14  C18 UNL     1      -1.986  -0.107  -0.676  1.00  0.00     0.003 C 
HETATM   15  C19 UNL     1      -2.128   1.270  -1.200  1.00  0.00     0.007 C 
HETATM   16  C20 UNL     1      -0.802   1.688  -1.840  1.00  0.00     0.012 C 
HETATM   17  C21 UNL     1       0.313   1.647  -0.828  1.00  0.00    -0.011 C 
HETATM   18  C22 UNL     1       0.421   2.856   0.007  1.00  0.00     0.018 C 
HETATM   19  C23 UNL     1       1.685   1.482  -1.508  1.00  0.00     0.155 C 
ENDROOT
BRANCH   1  20
HETATM   20  O1  UNL     1       3.477   1.616   0.092  1.00  0.00    -0.383 OA
BRANCH  20  21
HETATM   21  C4  UNL     1       4.760   1.113  -0.063  1.00  0.00     0.169 C 
BRANCH  21  22
HETATM   22  C3  UNL     1       4.982  -0.211   0.623  1.00  0.00     0.036 C 
BRANCH  22  23
HETATM   23  C2  UNL     1       6.422  -0.681   0.398  1.00  0.00     0.075 C 
BRANCH  23  24
HETATM   24  S1  UNL     1       6.718  -2.266   1.209  1.00  0.00    -0.173 SA
HETATM   25  C1  UNL     1       8.439  -2.737   0.887  1.00  0.00     0.089 C 
ENDBRANCH  23  24
ENDBRANCH  22  23
ENDBRANCH  21  22
ENDBRANCH  20  21
ENDBRANCH   1  20
BRANCH  19  26
HETATM   26  O3  UNL     1       2.225   2.693  -1.869  1.00  0.00    -0.392 OA
ATOM     27  H3  UNL     1       1.705   3.123  -2.538  1.00  0.00     0.210 HD
ENDBRANCH  19  26
BRANCH   9  28
HETATM   28  O2  UNL     1      -6.078  -2.242   1.429  1.00  0.00    -0.395 OA
ATOM     29  H2  UNL     1      -6.538  -2.974   1.034  1.00  0.00     0.210 HD
ENDBRANCH   9  28
TORSDOF 7
