REMARK  1 active torsions:
REMARK  status: ('A' for Active; 'I' for Inactive)
REMARK    1  A    between atoms: N1_1  and  C1_5 
ROOT
HETATM    1  C1  UNL     1      -1.115   0.146   0.276  1.00  0.00     0.282 C 
HETATM    2  C2  UNL     1      -0.689  -1.040  -0.584  1.00  0.00     0.060 C 
HETATM    3  C3  UNL     1       0.779  -1.123  -0.239  1.00  0.00     0.061 C 
HETATM    4  C4  UNL     1       1.154   0.295   0.021  1.00  0.00     0.017 C 
HETATM    5  C5  UNL     1       2.386   0.744   0.218  1.00  0.00     0.109 C 
HETATM    6 CL1  UNL     1       3.782  -0.297   0.199  1.00  0.00    -0.095 Cl
HETATM    7  N2  UNL     1      -0.037   1.072   0.020  1.00  0.00    -0.365 N 
ATOM      8  H2  UNL     1      -0.114   2.078  -0.131  1.00  0.00     0.161 HD
ENDROOT
BRANCH   1   9
HETATM    9  N1  UNL     1      -2.406   0.639  -0.064  1.00  0.00    -0.058 N 
ATOM     10  H13 UNL     1      -2.459   0.870  -1.056  1.00  0.00     0.276 HD
ATOM     11  H12 UNL     1      -3.102  -0.106  -0.029  1.00  0.00     0.276 HD
ATOM     12  H11 UNL     1      -2.691   1.432   0.511  1.00  0.00     0.276 HD
ENDBRANCH   1   9
TORSDOF 1
