REMARK  1 active torsions:
REMARK  status: ('A' for Active; 'I' for Inactive)
REMARK    1  A    between atoms: C4_7  and  N2_8 
ROOT
HETATM    1  N1  UNL     1       2.620   0.361   0.046  1.00  0.00    -0.404 N 
ATOM      2  H11 UNL     1       3.050   1.285   0.018  1.00  0.00     0.155 HD
ATOM      3  H12 UNL     1       3.373  -0.290   0.269  1.00  0.00     0.155 HD
HETATM    4  C1  UNL     1       1.403   0.092  -0.155  1.00  0.00     0.000 C 
HETATM    5  C2  UNL     1       0.779  -1.248  -0.114  1.00  0.00     0.055 C 
HETATM    6  C3  UNL     1      -0.547  -0.894   0.529  1.00  0.00     0.040 C 
HETATM    7  C4  UNL     1      -0.972   0.229  -0.429  1.00  0.00     0.207 C 
HETATM    8  C5  UNL     1       0.311   1.037  -0.478  1.00  0.00     0.157 C 
HETATM    9 CL1  UNL     1       0.269   2.438   0.585  1.00  0.00    -0.117 Cl
ENDROOT
BRANCH   7  10
HETATM   10  N2  UNL     1      -2.082   0.978   0.066  1.00  0.00    -0.073 N 
ATOM     11  H23 UNL     1      -2.868   0.367   0.287  1.00  0.00     0.274 HD
ATOM     12  H22 UNL     1      -1.891   1.344   0.999  1.00  0.00     0.274 HD
ATOM     13  H21 UNL     1      -2.364   1.724  -0.570  1.00  0.00     0.274 HD
ENDBRANCH   7  10
TORSDOF 1
