REMARK  6 active torsions:
REMARK  status: ('A' for Active; 'I' for Inactive)
REMARK    1  A    between atoms: C2_2  and  C3_3 
REMARK    2  A    between atoms: C5_5  and  C6_6 
REMARK    3  A    between atoms: C9_9  and  O1_10 
REMARK    4  A    between atoms: C11_13  and  O2_14 
REMARK    5  A    between atoms: C14_18  and  C16_20 
REMARK    6  A    between atoms: C16_20  and  O4_22 
ROOT
HETATM    1  C3  UNL     1       0.950  -1.818  -0.569  1.00  0.00     0.023 A 
HETATM    2  C4  UNL     1       0.459  -0.461  -0.779  1.00  0.00    -0.069 A 
HETATM    3  C5  UNL     1      -0.748   0.073  -0.847  1.00  0.00     0.004 C 
HETATM    4  C13 UNL     1       1.822   0.014  -0.928  1.00  0.00     0.042 A 
HETATM    5  C14 UNL     1       2.390   1.078  -0.085  1.00  0.00     0.052 C 
HETATM    6  C15 UNL     1       2.292   2.374  -0.940  1.00  0.00     0.027 C 
HETATM    7  C18 UNL     1       3.899   0.932   0.128  1.00  0.00     0.020 C 
HETATM    8  C19 UNL     1       4.326  -0.428   0.532  1.00  0.00     0.002 C 
HETATM    9  C20 UNL     1       3.168  -1.431   0.591  1.00  0.00     0.010 C 
HETATM   10  C21 UNL     1       2.351  -1.354  -0.684  1.00  0.00    -0.028 A 
HETATM   11  C22 UNL     1       3.126  -1.956  -1.856  1.00  0.00     0.016 C 
ENDROOT
BRANCH   1  12
HETATM   12  C2  UNL     1       0.586  -2.536   0.708  1.00  0.00     0.005 C 
HETATM   13  C1  UNL     1       1.266  -3.913   0.615  1.00  0.00     0.006 C 
ENDBRANCH   1  12
BRANCH   3  14
HETATM   14  C6  UNL     1      -1.990  -0.651  -0.717  1.00  0.00     0.003 C 
HETATM   15  C7  UNL     1      -3.150  -0.008  -0.797  1.00  0.00    -0.075 C 
HETATM   16  C8  UNL     1      -4.389  -0.785  -0.659  1.00  0.00     0.066 C 
HETATM   17  C12 UNL     1      -3.115   1.457  -1.020  1.00  0.00     0.066 C 
HETATM   18  C9  UNL     1      -5.484  -0.044   0.059  1.00  0.00     0.124 C 
HETATM   19  C10 UNL     1      -5.218   1.426   0.203  1.00  0.00     0.064 C 
HETATM   20  C11 UNL     1      -4.547   1.950  -1.037  1.00  0.00     0.124 C 
BRANCH  18  21
HETATM   21  O1  UNL     1      -5.549  -0.570   1.370  1.00  0.00    -0.395 OA
ATOM     22  H1  UNL     1      -6.240  -0.102   1.823  1.00  0.00     0.210 HD
ENDBRANCH  18  21
BRANCH  20  23
HETATM   23  O2  UNL     1      -4.618   3.333  -1.049  1.00  0.00    -0.395 OA
ATOM     24  H2  UNL     1      -4.194   3.664  -1.832  1.00  0.00     0.210 HD
ENDBRANCH  20  23
ENDBRANCH   3  14
BRANCH   5  25
HETATM   25  C16 UNL     1       1.765   1.396   1.182  1.00  0.00     0.267 C 
HETATM   26  O3  UNL     1       0.727   0.934   1.694  1.00  0.00    -0.264 OA
BRANCH  25  27
HETATM   27  O4  UNL     1       2.413   2.375   1.968  1.00  0.00    -0.326 OA
HETATM   28  C17 UNL     1       1.919   2.778   3.211  1.00  0.00     0.213 C 
ENDBRANCH  25  27
ENDBRANCH   5  25
TORSDOF 6
