REMARK  4 active torsions:
REMARK  status: ('A' for Active; 'I' for Inactive)
REMARK    1  A    between atoms: C6_6  and  O1_7 
REMARK    2  A    between atoms: C12_14  and  C13_15 
REMARK    3  A    between atoms: C13_15  and  O2_16 
REMARK    4  A    between atoms: O2_16  and  S1_17 
ROOT
HETATM    1  C1  UNL     1      -2.776  -1.977   1.424  1.00  0.00     0.015 C 
HETATM    2  C2  UNL     1      -2.686  -0.741   0.535  1.00  0.00    -0.043 C 
HETATM    3  C3  UNL     1      -3.883   0.126   0.906  1.00  0.00     0.015 C 
HETATM    4  C4  UNL     1      -2.896  -1.187  -0.875  1.00  0.00     0.011 C 
HETATM    5  C5  UNL     1      -1.618  -1.380  -1.632  1.00  0.00     0.033 C 
HETATM    6  C6  UNL     1      -0.906  -0.064  -1.704  1.00  0.00     0.127 C 
HETATM    7  C7  UNL     1      -0.835   0.682  -0.408  1.00  0.00    -0.009 C 
HETATM    8  C8  UNL     1      -1.747   1.900  -0.591  1.00  0.00     0.018 C 
HETATM    9  C9  UNL     1      -1.386  -0.034   0.780  1.00  0.00     0.004 C 
HETATM   10  C10 UNL     1      -0.404  -0.928   1.485  1.00  0.00     0.007 C 
HETATM   11  C11 UNL     1       0.778  -0.100   1.907  1.00  0.00     0.012 C 
HETATM   12  C12 UNL     1       1.456   0.370   0.636  1.00  0.00    -0.013 C 
HETATM   13  C14 UNL     1       2.643   1.220   1.067  1.00  0.00     0.012 C 
HETATM   14  C15 UNL     1       2.536   2.648   0.614  1.00  0.00     0.001 C 
HETATM   15  C16 UNL     1       2.224   2.798  -0.848  1.00  0.00     0.000 C 
HETATM   16  C17 UNL     1       1.230   1.763  -1.344  1.00  0.00     0.006 C 
HETATM   17  C18 UNL     1       0.523   1.235  -0.110  1.00  0.00     0.007 C 
ENDROOT
BRANCH  12  18
HETATM   18  C13 UNL     1       2.007  -0.816  -0.069  1.00  0.00     0.202 C 
BRANCH  18  19
HETATM   19  O2  UNL     1       2.737  -1.541   0.889  1.00  0.00    -0.256 OA
BRANCH  19  20
HETATM   20  S1  UNL     1       3.624  -2.775   0.207  1.00  0.00     0.251 S 
HETATM   21  O3  UNL     1       2.787  -3.942  -0.209  1.00  0.00    -0.572 OA
HETATM   22  O4  UNL     1       4.574  -3.282   1.269  1.00  0.00    -0.572 OA
HETATM   23  O5  UNL     1       4.586  -2.197  -1.041  1.00  0.00    -0.572 OA
ENDBRANCH  19  20
ENDBRANCH  18  19
ENDBRANCH  12  18
BRANCH   6  24
HETATM   24  O1  UNL     1      -1.552   0.669  -2.717  1.00  0.00    -0.395 OA
ATOM     25  H1  UNL     1      -1.100   1.504  -2.763  1.00  0.00     0.210 HD
ENDBRANCH   6  24
TORSDOF 4
