REMARK  7 active torsions:
REMARK  status: ('A' for Active; 'I' for Inactive)
REMARK    1  A    between atoms: N1_1  and  C1_5 
REMARK    2  A    between atoms: C3_7  and  N2_8 
REMARK    3  A    between atoms: C6_11  and  N3_12 
REMARK       I    between atoms: N3_12  and  C7_14 
REMARK    4  A    between atoms: C7_14  and  C8_16 
REMARK    5  A    between atoms: C8_16  and  N4_17 
REMARK    6  A    between atoms: C8_16  and  C9_21 
REMARK    7  A    between atoms: C15_27  and  N5_28 
ROOT
HETATM    1  N2  UNL     1       2.223  -0.817   1.255  1.00  0.00     0.097 N 
HETATM    2  C4  UNL     1       1.707  -0.171   2.425  1.00  0.00     0.275 C 
HETATM    3  C5  UNL     1       0.909   0.973   1.851  1.00  0.00     0.057 C 
HETATM    4  C6  UNL     1       0.540   0.552   0.445  1.00  0.00     0.114 C 
HETATM    5  C14 UNL     1       1.048  -0.873   0.405  1.00  0.00     0.298 C 
ENDROOT
BRANCH   4   6
HETATM    6  N3  UNL     1      -0.903   0.612   0.337  1.00  0.00    -0.353 N 
HETATM    7  C7  UNL     1      -1.595   1.270  -0.690  1.00  0.00     0.249 C 
HETATM    8  O1  UNL     1      -0.932   1.855  -1.576  1.00  0.00    -0.271 OA
ATOM      9  H3  UNL     1      -1.453   0.144   1.057  1.00  0.00     0.163 HD
BRANCH   7  10
HETATM   10  C8  UNL     1      -3.067   1.277  -0.728  1.00  0.00     0.278 C 
BRANCH  10  11
HETATM   11  N4  UNL     1      -3.427   2.405  -1.634  1.00  0.00    -0.066 N 
ATOM     12  H43 UNL     1      -3.017   3.299  -1.363  1.00  0.00     0.275 HD
ATOM     13  H42 UNL     1      -2.991   2.350  -2.554  1.00  0.00     0.275 HD
ATOM     14  H41 UNL     1      -4.447   2.410  -1.660  1.00  0.00     0.275 HD
ENDBRANCH  10  11
BRANCH  10  15
HETATM   15  C9  UNL     1      -3.678   0.037  -1.329  1.00  0.00     0.025 C 
HETATM   16  C10 UNL     1      -5.202   0.203  -1.293  1.00  0.00     0.007 C 
HETATM   17  C11 UNL     1      -5.526  -0.065   0.138  1.00  0.00     0.000 C 
HETATM   18  C12 UNL     1      -4.582  -1.172   0.538  1.00  0.00     0.000 C 
HETATM   19  C13 UNL     1      -3.519  -1.217  -0.549  1.00  0.00     0.007 C 
ENDBRANCH  10  15
ENDBRANCH   7  10
ENDBRANCH   4   6
BRANCH   1  20
HETATM   20  C3  UNL     1       3.322  -0.145   0.633  1.00  0.00     0.257 C 
HETATM   21  C2  UNL     1       4.577   0.016   1.394  1.00  0.00     0.073 C 
HETATM   22  C1  UNL     1       5.342  -0.347   0.119  1.00  0.00     0.218 C 
HETATM   23  C15 UNL     1       4.036  -0.939  -0.408  1.00  0.00     0.246 C 
BRANCH  22  24
HETATM   24  N1  UNL     1       6.316  -1.389   0.276  1.00  0.00    -0.073 N 
ATOM     25  H13 UNL     1       6.968  -1.153   1.024  1.00  0.00     0.274 HD
ATOM     26  H12 UNL     1       5.882  -2.221   0.676  1.00  0.00     0.274 HD
ATOM     27  H11 UNL     1       6.826  -1.631  -0.574  1.00  0.00     0.274 HD
ENDBRANCH  22  24
BRANCH  23  28
HETATM   28  N5  UNL     1       3.847  -0.500  -1.776  1.00  0.00    -0.071 N 
ATOM     29  H53 UNL     1       3.881   0.515  -1.869  1.00  0.00     0.274 HD
ATOM     30  H52 UNL     1       4.645  -0.722  -2.371  1.00  0.00     0.274 HD
ATOM     31  H51 UNL     1       2.975  -0.895  -2.128  1.00  0.00     0.274 HD
ENDBRANCH  23  28
ENDBRANCH   1  20
TORSDOF 7
