REMARK  6 active torsions:
REMARK  status: ('A' for Active; 'I' for Inactive)
REMARK       I    between atoms: C2_2  and  N1_4 
REMARK    1  A    between atoms: N1_4  and  C3_6 
REMARK    2  A    between atoms: C3_6  and  C4_7 
REMARK    3  A    between atoms: C3_6  and  C11_22 
REMARK       I    between atoms: C4_7  and  N2_9 
REMARK    4  A    between atoms: N2_9  and  C5_11 
REMARK    5  A    between atoms: C9_16  and  O4_17 
REMARK    6  A    between atoms: C10_19  and  O5_20 
ROOT
HETATM    1  C4  UNL     1       0.923   0.714   0.127  1.00  0.00     0.242 C 
HETATM    2  O2  UNL     1       0.916   1.440   1.154  1.00  0.00    -0.271 OA
HETATM    3  N2  UNL     1      -0.306   0.144  -0.257  1.00  0.00    -0.331 N 
ATOM      4  H2  UNL     1      -0.333  -0.446  -1.089  1.00  0.00     0.165 HD
ENDROOT
BRANCH   3   5
HETATM    5  C5  UNL     1      -1.541   0.362   0.484  1.00  0.00     0.255 C 
HETATM    6  O3  UNL     1      -1.981  -0.841   0.999  1.00  0.00    -0.351 OA
HETATM    7  C6  UNL     1      -3.351  -0.891   0.883  1.00  0.00     0.085 C 
HETATM    8  C7  UNL     1      -3.756  -2.322   0.616  1.00  0.00     0.048 C 
HETATM    9  C8  UNL     1      -4.013  -0.388   2.124  1.00  0.00     0.048 C 
HETATM   10  C9  UNL     1      -3.748  -0.033  -0.286  1.00  0.00     0.185 C 
HETATM   11  C10 UNL     1      -2.592   0.931  -0.389  1.00  0.00     0.198 C 
BRANCH  10  12
HETATM   12  O4  UNL     1      -3.929  -0.786  -1.427  1.00  0.00    -0.390 OA
ATOM     13  H4  UNL     1      -4.180  -0.244  -2.166  1.00  0.00     0.210 HD
ENDBRANCH  10  12
BRANCH  11  14
HETATM   14  O5  UNL     1      -2.957   2.218  -0.001  1.00  0.00    -0.388 OA
ATOM     15  H5  UNL     1      -3.632   2.583  -0.561  1.00  0.00     0.210 HD
ENDBRANCH  11  14
ENDBRANCH   3   5
BRANCH   1  16
HETATM   16  C3  UNL     1       2.148   0.487  -0.616  1.00  0.00     0.180 C 
BRANCH  16  17
HETATM   17  N1  UNL     1       3.267   1.282  -0.082  1.00  0.00    -0.348 N 
HETATM   18  C2  UNL     1       4.052   2.136  -0.865  1.00  0.00     0.214 C 
HETATM   19  C1  UNL     1       5.155   2.891  -0.221  1.00  0.00     0.117 C 
HETATM   20  O1  UNL     1       3.883   2.311  -2.096  1.00  0.00    -0.274 OA
ATOM     21  H1  UNL     1       3.481   1.206   0.912  1.00  0.00     0.163 HD
ENDBRANCH  16  17
BRANCH  16  22
HETATM   22  C11 UNL     1       2.686  -0.945  -0.535  1.00  0.00     0.009 C 
HETATM   23  C12 UNL     1       1.750  -1.984  -1.027  1.00  0.00     0.012 C 
HETATM   24  C13 UNL     1       3.247  -1.238   0.834  1.00  0.00     0.012 C 
ENDBRANCH  16  22
ENDBRANCH   1  16
TORSDOF 6
