REMARK  8 active torsions:
REMARK  status: ('A' for Active; 'I' for Inactive)
REMARK    1  A    between atoms: N1_2  and  C2_4 
REMARK    2  A    between atoms: C2_4  and  N2_6 
REMARK    3  A    between atoms: N2_6  and  N3_8 
REMARK    4  A    between atoms: C3_10  and  C4_11 
REMARK    5  A    between atoms: C3_10  and  C7_20 
REMARK       I    between atoms: C4_11  and  N4_13 
REMARK    6  A    between atoms: N4_13  and  N5_15 
REMARK    7  A    between atoms: N5_15  and  C5_16 
REMARK    8  A    between atoms: C5_16  and  O2_18 
ROOT
HETATM    1  N3  UNL     1      -1.427  -0.290  -0.462  1.00  0.00    -0.293 N 
ATOM      2  H3  UNL     1      -1.309  -1.214  -0.877  1.00  0.00     0.187 HD
HETATM    3  C3  UNL     1      -0.311   0.342  -0.249  1.00  0.00     0.128 C 
ENDROOT
BRANCH   3   4
HETATM    4  C4  UNL     1       0.898  -0.336  -0.618  1.00  0.00     0.299 C 
HETATM    5  O1  UNL     1       0.763  -1.432  -1.290  1.00  0.00    -0.263 OA
HETATM    6  N4  UNL     1       2.255   0.068  -0.305  1.00  0.00    -0.195 N 
ATOM      7  H4  UNL     1       2.414   0.904   0.258  1.00  0.00     0.205 HD
BRANCH   6   8
HETATM    8  N5  UNL     1       3.281  -0.626  -0.735  1.00  0.00    -0.302 NA
BRANCH   8   9
HETATM    9  C5  UNL     1       4.348  -1.314  -1.178  1.00  0.00     0.210 C 
HETATM   10  C6  UNL     1       4.452  -2.820  -1.371  1.00  0.00     0.117 C 
BRANCH   9  11
HETATM   11  O2  UNL     1       5.485  -0.739  -1.513  1.00  0.00    -0.338 OA
ATOM     12  H2  UNL     1       6.239  -1.225  -1.826  1.00  0.00     0.220 HD
ENDBRANCH   9  11
ENDBRANCH   8   9
ENDBRANCH   6   8
ENDBRANCH   3   4
BRANCH   3  13
HETATM   13  C7  UNL     1      -0.349   1.697   0.265  1.00  0.00    -0.002 A 
HETATM   14  C8  UNL     1       0.632   2.583  -0.262  1.00  0.00     0.014 A 
HETATM   15  C9  UNL     1       0.728   3.872   0.188  1.00  0.00     0.001 A 
HETATM   16  C10 UNL     1      -0.139   4.363   1.184  1.00  0.00     0.000 A 
HETATM   17  C11 UNL     1      -1.076   3.520   1.701  1.00  0.00     0.001 A 
HETATM   18  C12 UNL     1      -1.162   2.196   1.226  1.00  0.00     0.014 A 
ENDBRANCH   3  13
BRANCH   1  19
HETATM   19  N2  UNL     1      -2.685   0.044  -0.240  1.00  0.00    -0.276 N 
ATOM     20  H2  UNL     1      -2.956   1.022  -0.141  1.00  0.00     0.189 HD
BRANCH  19  21
HETATM   21  C2  UNL     1      -3.672  -1.015  -0.140  1.00  0.00     0.186 C 
HETATM   22  S1  UNL     1      -5.185  -0.677   0.269  1.00  0.00    -0.040 SA
BRANCH  21  23
HETATM   23  N1  UNL     1      -3.219  -2.369  -0.350  1.00  0.00    -0.370 N 
HETATM   24  C1  UNL     1      -4.072  -3.516  -0.267  1.00  0.00     0.148 C 
ATOM     25  H1  UNL     1      -2.234  -2.517  -0.570  1.00  0.00     0.161 HD
ENDBRANCH  21  23
ENDBRANCH  19  21
ENDBRANCH   1  19
TORSDOF 8
