REMARK  4 active torsions:
REMARK  status: ('A' for Active; 'I' for Inactive)
REMARK       I    between atoms: C2_2  and  N1_4 
REMARK    1  A    between atoms: C6_8  and  C7_9 
REMARK       I    between atoms: C7_9  and  N2_11 
REMARK    2  A    between atoms: N2_11  and  N3_13 
REMARK       I    between atoms: N3_13  and  C8_15 
REMARK       I    between atoms: C8_15  and  N5_19 
REMARK    3  A    between atoms: N5_19  and  N6_21 
REMARK    4  A    between atoms: C9_23  and  C10_24 
ROOT
HETATM    1  N3  UNL     1       0.043   1.843   0.576  1.00  0.00    -0.129 N 
ATOM      2  H3  UNL     1       0.080   2.646   1.204  1.00  0.00     0.205 HD
HETATM    3  C8  UNL     1       1.257   1.427  -0.054  1.00  0.00     0.705 C 
HETATM    4  N4  UNL     1       1.398   1.690  -1.297  1.00  0.00    -0.232 N 
ATOM      5  H41 UNL     1       2.264   1.393  -1.746  1.00  0.00     0.174 HD
ATOM      6  H42 UNL     1       0.656   2.176  -1.801  1.00  0.00     0.174 HD
HETATM    7  N5  UNL     1       2.284   0.755   0.643  1.00  0.00    -0.132 N 
ATOM      8  H5  UNL     1       2.250   0.703   1.661  1.00  0.00     0.205 HD
ENDROOT
BRANCH   1   9
HETATM    9  N2  UNL     1      -1.185   1.219   0.385  1.00  0.00    -0.254 N 
HETATM   10  C7  UNL     1      -1.250  -0.075  -0.118  1.00  0.00     0.259 C 
HETATM   11  O2  UNL     1      -0.157  -0.684  -0.393  1.00  0.00    -0.269 OA
ATOM     12  H2  UNL     1      -2.046   1.715   0.616  1.00  0.00     0.190 HD
BRANCH  10  13
HETATM   13  C6  UNL     1      -2.472  -0.879  -0.390  1.00  0.00     0.181 C 
HETATM   14  N1  UNL     1      -3.689  -0.163  -0.414  1.00  0.00    -0.339 N 
HETATM   15  C2  UNL     1      -4.004   0.996  -1.216  1.00  0.00     0.216 C 
HETATM   16  C3  UNL     1      -4.650  -0.738   0.473  1.00  0.00     0.127 C 
HETATM   17  C1  UNL     1      -5.337   1.632  -1.134  1.00  0.00     0.117 C 
HETATM   18  O1  UNL     1      -3.142   1.447  -1.974  1.00  0.00    -0.274 OA
HETATM   19  C4  UNL     1      -3.879  -1.700   1.311  1.00  0.00     0.022 C 
HETATM   20  C5  UNL     1      -2.622  -2.006   0.564  1.00  0.00     0.037 C 
ENDBRANCH  10  13
ENDBRANCH   1   9
BRANCH   7  21
HETATM   21  N6  UNL     1       3.345   0.161  -0.041  1.00  0.00    -0.299 N 
HETATM   22  C9  UNL     1       4.512   0.656  -0.121  1.00  0.00     0.112 C 
ATOM     23  H6  UNL     1       3.172  -0.729  -0.508  1.00  0.00     0.186 HD
BRANCH  22  24
HETATM   24  C10 UNL     1       5.558  -0.061  -0.873  1.00  0.00     0.163 C 
HETATM   25  C11 UNL     1       5.723  -1.464  -0.295  1.00  0.00     0.063 C 
HETATM   26  C12 UNL     1       6.624  -0.676   0.629  1.00  0.00     0.171 C 
HETATM   27  O3  UNL     1       6.853   0.206  -0.433  1.00  0.00    -0.380 OA
ENDBRANCH  22  24
ENDBRANCH   7  21
TORSDOF 4
