REMARK  4 active torsions:
REMARK  status: ('A' for Active; 'I' for Inactive)
REMARK       I    between atoms: N1_2  and  C2_4 
REMARK       I    between atoms: C2_4  and  N2_6 
REMARK    1  A    between atoms: N2_6  and  N3_8 
REMARK       I    between atoms: N3_8  and  C3_10 
REMARK    2  A    between atoms: C3_10  and  C4_12 
REMARK    3  A    between atoms: C9_17  and  N4_18 
REMARK    4  A    between atoms: N4_18  and  S1_20 
ROOT
HETATM    1  C4  UNL     1      -0.708   0.120  -1.096  1.00  0.00     0.060 A 
HETATM    2  C5  UNL     1      -0.444  -0.567  -2.284  1.00  0.00     0.019 A 
HETATM    3  C6  UNL     1      -1.377  -0.632  -3.317  1.00  0.00     0.001 A 
HETATM    4  C7  UNL     1      -2.599  -0.019  -3.205  1.00  0.00     0.002 A 
HETATM    5  C8  UNL     1      -2.862   0.660  -2.036  1.00  0.00     0.031 A 
HETATM    6  C9  UNL     1      -1.930   0.731  -0.992  1.00  0.00     0.058 A 
ENDROOT
BRANCH   1   7
HETATM    7  C3  UNL     1       0.232   0.150   0.002  1.00  0.00     0.272 C 
HETATM    8  N3  UNL     1       1.537  -0.462  -0.135  1.00  0.00    -0.262 N 
ATOM      9  H3  UNL     1       1.797  -0.914  -1.012  1.00  0.00     0.190 HD
HETATM   10  O2  UNL     1       0.014   0.685   1.123  1.00  0.00    -0.266 OA
BRANCH   8  11
HETATM   11  N2  UNL     1       2.450  -0.435   0.940  1.00  0.00    -0.249 N 
HETATM   12  C2  UNL     1       3.833  -0.545   0.660  1.00  0.00     0.334 C 
HETATM   13  N1  UNL     1       4.762  -0.526   1.765  1.00  0.00    -0.346 N 
HETATM   14  O1  UNL     1       4.232  -0.656  -0.499  1.00  0.00    -0.246 OA
HETATM   15  C1  UNL     1       6.195  -0.640   1.489  1.00  0.00     0.151 C 
ATOM     16  H1  UNL     1       4.425  -0.435   2.723  1.00  0.00     0.163 HD
ATOM     17  H2  UNL     1       2.120  -0.338   1.900  1.00  0.00     0.192 HD
ENDBRANCH   8  11
ENDBRANCH   1   7
BRANCH   6  18
HETATM   18  N4  UNL     1      -2.260   1.489   0.160  1.00  0.00    -0.284 N 
ATOM     19  H4  UNL     1      -1.557   2.103   0.571  1.00  0.00     0.178 HD
BRANCH  18  20
HETATM   20  S1  UNL     1      -3.819   1.395   0.878  1.00  0.00     0.227 S 
HETATM   21  C10 UNL     1      -4.187  -0.274   1.432  1.00  0.00     0.186 C 
HETATM   22  O3  UNL     1      -4.935   1.812  -0.025  1.00  0.00    -0.206 OA
HETATM   23  O4  UNL     1      -3.830   2.285   2.127  1.00  0.00    -0.206 OA
ENDBRANCH  18  20
ENDBRANCH   6  18
TORSDOF 4
