REMARK  7 active torsions:
REMARK  status: ('A' for Active; 'I' for Inactive)
REMARK    1  A    between atoms: C6_6  and  C7_7 
REMARK    2  A    between atoms: C7_7  and  N1_8 
REMARK    3  A    between atoms: N1_8  and  N2_9 
REMARK       I    between atoms: N2_9  and  C8_11 
REMARK       I    between atoms: C8_11  and  N3_13 
REMARK    4  A    between atoms: N3_13  and  N4_15 
REMARK    5  A    between atoms: N4_15  and  C9_17 
REMARK    6  A    between atoms: C9_17  and  C10_21 
REMARK    7  A    between atoms: C10_21  and  N6_22 
ROOT
HETATM    1  C1  UNL     1       8.047   1.231   0.558  1.00  0.00     0.018 C 
HETATM    2  C2  UNL     1       6.971   0.741   0.325  1.00  0.00    -0.078 C 
HETATM    3  C3  UNL     1       5.673   0.184   0.037  1.00  0.00     0.017 A 
HETATM    4  C4  UNL     1       5.457  -0.800  -0.901  1.00  0.00     0.021 A 
HETATM    5  C5  UNL     1       4.202  -1.320  -1.169  1.00  0.00     0.015 A 
HETATM    6  C6  UNL     1       3.110  -0.856  -0.490  1.00  0.00    -0.005 A 
HETATM    7  C11 UNL     1       3.296   0.128   0.454  1.00  0.00     0.015 A 
HETATM    8  C12 UNL     1       4.543   0.646   0.723  1.00  0.00     0.021 A 
ENDROOT
BRANCH   6   9
HETATM    9  C7  UNL     1       1.764  -1.394  -0.778  1.00  0.00     0.220 C 
BRANCH   9  10
HETATM   10  N1  UNL     1       0.805  -1.042  -0.169  1.00  0.00    -0.334 NA
BRANCH  10  11
HETATM   11  N2  UNL     1      -0.351  -0.798   0.367  1.00  0.00    -0.184 N 
HETATM   12  C8  UNL     1      -1.620  -0.607  -0.300  1.00  0.00     0.363 C 
HETATM   13  O1  UNL     1      -1.628  -0.687  -1.538  1.00  0.00    -0.243 OA
HETATM   14  N3  UNL     1      -2.761  -0.343   0.451  1.00  0.00    -0.248 N 
ATOM     15  H3  UNL     1      -2.678  -0.292   1.466  1.00  0.00     0.192 HD
ATOM     16  H2  UNL     1      -0.367  -0.733   1.385  1.00  0.00     0.207 HD
BRANCH  14  17
HETATM   17  N4  UNL     1      -4.030  -0.143  -0.136  1.00  0.00    -0.284 N 
ATOM     18  H4  UNL     1      -4.191  -0.406  -1.108  1.00  0.00     0.188 HD
BRANCH  17  19
HETATM   19  C9  UNL     1      -5.081   0.425   0.630  1.00  0.00     0.114 C 
HETATM   20  N5  UNL     1      -5.317  -0.128   1.796  1.00  0.00    -0.386 N 
ATOM     21  H52 UNL     1      -4.727  -0.916   2.064  1.00  0.00     0.157 HD
ATOM     22  H51 UNL     1      -6.072   0.280   2.347  1.00  0.00     0.157 HD
BRANCH  19  23
HETATM   23  C10 UNL     1      -5.933   1.563   0.243  1.00  0.00     0.278 C 
BRANCH  23  24
HETATM   24  N6  UNL     1      -6.931   1.119  -0.694  1.00  0.00    -0.148 N 
HETATM   25  O2  UNL     1      -8.137   1.229  -0.392  1.00  0.00    -0.536 OA
HETATM   26  O3  UNL     1      -6.570   0.585  -1.882  1.00  0.00    -0.536 OA
ENDBRANCH  23  24
ENDBRANCH  19  23
ENDBRANCH  17  19
ENDBRANCH  14  17
ENDBRANCH  10  11
ENDBRANCH   9  10
ENDBRANCH   6   9
TORSDOF 7
