REMARK  6 active torsions:
REMARK  status: ('A' for Active; 'I' for Inactive)
REMARK    1  A    between atoms: C2_2  and  C3_3 
REMARK       I    between atoms: C3_3  and  N1_5 
REMARK    2  A    between atoms: N1_5  and  N2_7 
REMARK       I    between atoms: N2_7  and  C4_9 
REMARK    3  A    between atoms: C4_9  and  C5_11 
REMARK    4  A    between atoms: C8_14  and  N3_15 
REMARK       I    between atoms: N3_15  and  C9_17 
REMARK    5  A    between atoms: C9_17  and  C10_19 
REMARK    6  A    between atoms: C10_19  and  O5_21 
ROOT
HETATM    1  C5  UNL     1       0.935   0.566   0.407  1.00  0.00     0.033 A 
HETATM    2  C6  UNL     1      -0.069   1.442   0.808  1.00  0.00     0.019 A 
HETATM    3  C7  UNL     1      -1.419   1.113   0.728  1.00  0.00     0.030 A 
HETATM    4  C8  UNL     1      -1.842  -0.094   0.249  1.00  0.00     0.035 A 
HETATM    5  C12 UNL     1      -0.820  -0.967  -0.152  1.00  0.00     0.030 A 
HETATM    6  C13 UNL     1       0.516  -0.650  -0.075  1.00  0.00     0.019 A 
ENDROOT
BRANCH   1   7
HETATM    7  C4  UNL     1       2.335   0.958   0.510  1.00  0.00     0.270 C 
HETATM    8  N2  UNL     1       3.327   0.188  -0.108  1.00  0.00    -0.263 N 
ATOM      9  H2  UNL     1       3.067  -0.649  -0.629  1.00  0.00     0.190 HD
HETATM   10  O2  UNL     1       2.660   1.985   1.150  1.00  0.00    -0.266 OA
BRANCH   8  11
HETATM   11  N1  UNL     1       4.670   0.558  -0.016  1.00  0.00    -0.264 N 
HETATM   12  C3  UNL     1       5.658  -0.310  -0.508  1.00  0.00     0.258 C 
HETATM   13  O1  UNL     1       5.291  -1.409  -1.024  1.00  0.00    -0.267 OA
ATOM     14  H1  UNL     1       4.931   1.450   0.404  1.00  0.00     0.190 HD
BRANCH  12  15
HETATM   15  C2  UNL     1       7.066   0.055  -0.422  1.00  0.00     0.065 C 
HETATM   16  C1  UNL     1       7.958  -0.774  -0.891  1.00  0.00     0.017 C 
ENDBRANCH  12  15
ENDBRANCH   8  11
ENDBRANCH   1   7
BRANCH   4  17
HETATM   17  N3  UNL     1      -3.182  -0.516   0.112  1.00  0.00    -0.319 N 
HETATM   18  C9  UNL     1      -4.335   0.252   0.235  1.00  0.00     0.321 C 
HETATM   19  O3  UNL     1      -4.321   1.463   0.491  1.00  0.00    -0.261 OA
ATOM     20  H3  UNL     1      -3.322  -1.503  -0.103  1.00  0.00     0.169 HD
BRANCH  18  21
HETATM   21  C10 UNL     1      -5.639  -0.367   0.059  1.00  0.00     0.351 C 
HETATM   22  O4  UNL     1      -5.726  -1.614  -0.203  1.00  0.00    -0.254 OA
BRANCH  21  23
HETATM   23  O5  UNL     1      -6.813   0.353   0.168  1.00  0.00    -0.319 OA
HETATM   24  C11 UNL     1      -8.053  -0.316  -0.016  1.00  0.00     0.213 C 
ENDBRANCH  21  23
ENDBRANCH  18  21
ENDBRANCH   4  17
TORSDOF 6
