REMARK  7 active torsions:
REMARK  status: ('A' for Active; 'I' for Inactive)
REMARK    1  A    between atoms: C1_2  and  O2_4 
REMARK    2  A    between atoms: O2_4  and  C2_5 
REMARK    3  A    between atoms: C5_8  and  C6_9 
REMARK    4  A    between atoms: C7_10  and  N2_11 
REMARK    5  A    between atoms: C7_10  and  C8_19 
REMARK    6  A    between atoms: N2_11  and  S1_13 
REMARK    7  A    between atoms: S1_13  and  N3_14 
ROOT
HETATM    1  C6  UNL     1       0.661   1.436   1.554  1.00  0.00     0.048 C 
HETATM    2  C7  UNL     1       1.721   0.736   1.851  1.00  0.00     0.121 C 
ENDROOT
BRANCH   2   3
HETATM    3  N2  UNL     1       2.023  -0.477   1.202  1.00  0.00    -0.261 N 
ATOM      4  H2  UNL     1       1.297  -1.193   1.204  1.00  0.00     0.180 HD
BRANCH   3   5
HETATM    5  S1  UNL     1       3.471  -0.861   0.420  1.00  0.00     0.317 S 
HETATM    6  O3  UNL     1       3.970  -2.177   0.964  1.00  0.00    -0.183 OA
HETATM    7  O4  UNL     1       4.553   0.170   0.619  1.00  0.00    -0.183 OA
BRANCH   5   8
HETATM    8  N3  UNL     1       3.289  -1.047  -1.278  1.00  0.00    -0.311 N 
ATOM      9  H32 UNL     1       2.392  -0.934  -1.751  1.00  0.00     0.170 HD
ATOM     10  H31 UNL     1       4.163  -1.279  -1.750  1.00  0.00     0.170 HD
ENDBRANCH   5   8
ENDBRANCH   3   5
ENDBRANCH   2   3
BRANCH   2  11
HETATM   11  C8  UNL     1       2.621   1.210   2.922  1.00  0.00     0.227 C 
HETATM   12  O5  UNL     1       2.358   2.297   3.535  1.00  0.00    -0.643 OA
HETATM   13  O6  UNL     1       3.718   0.492   3.253  1.00  0.00    -0.643 OA
ENDBRANCH   2  11
BRANCH   1  14
HETATM   14  C5  UNL     1      -0.346   1.131   0.573  1.00  0.00    -0.034 A 
HETATM   15  C4  UNL     1      -0.112   0.692  -0.708  1.00  0.00     0.014 A 
HETATM   16  C3  UNL     1      -1.141   0.400  -1.595  1.00  0.00     0.038 A 
HETATM   17  C2  UNL     1      -2.451   0.537  -1.231  1.00  0.00     0.080 A 
HETATM   18  C10 UNL     1      -2.692   0.978   0.052  1.00  0.00     0.038 A 
HETATM   19  C9  UNL     1      -1.686   1.270   0.939  1.00  0.00     0.014 A 
BRANCH  17  20
HETATM   20  O2  UNL     1      -3.499   0.255  -2.086  1.00  0.00    -0.264 OA
BRANCH  20  21
HETATM   21  C1  UNL     1      -4.144  -0.961  -2.170  1.00  0.00     0.378 C 
HETATM   22  N1  UNL     1      -5.219  -1.243  -3.047  1.00  0.00    -0.032 NA
HETATM   23  O1  UNL     1      -3.748  -1.881  -1.412  1.00  0.00    -0.242 OA
ENDBRANCH  20  21
ENDBRANCH  17  20
ENDBRANCH   1  14
TORSDOF 7
