REMARK  7 active torsions:
REMARK  status: ('A' for Active; 'I' for Inactive)
REMARK    1  A    between atoms: N1_1  and  C1_5 
REMARK    2  A    between atoms: C1_5  and  C2_6 
REMARK    3  A    between atoms: C1_5  and  C14_22 
REMARK       I    between atoms: C2_6  and  N2_8 
REMARK    4  A    between atoms: N2_8  and  C3_10 
REMARK    5  A    between atoms: C8_15  and  C9_16 
REMARK    6  A    between atoms: C14_22  and  O3_23 
REMARK    7  A    between atoms: C14_22  and  O4_25 
ROOT
HETATM    1  C2  UNL     1       2.519   0.866   0.773  1.00  0.00     0.253 C 
HETATM    2  O1  UNL     1       2.246   0.742   1.994  1.00  0.00    -0.271 OA
HETATM    3  N2  UNL     1       1.636   0.288  -0.165  1.00  0.00    -0.355 N 
ATOM      4  H2  UNL     1       1.841   0.380  -1.160  1.00  0.00     0.162 HD
ENDROOT
BRANCH   3   5
HETATM    5  C3  UNL     1       0.446  -0.432   0.244  1.00  0.00     0.084 C 
HETATM    6  C4  UNL     1       0.605  -1.860  -0.190  1.00  0.00     0.025 C 
HETATM    7  C5  UNL     1      -0.018  -2.835   0.815  1.00  0.00     0.002 C 
HETATM    8  C6  UNL     1      -1.475  -2.972   0.388  1.00  0.00     0.000 C 
HETATM    9  C7  UNL     1      -2.126  -1.639   0.686  1.00  0.00     0.005 C 
HETATM   10  C8  UNL     1      -1.958  -0.654  -0.454  1.00  0.00    -0.006 C 
HETATM   11  C13 UNL     1      -0.773   0.232  -0.328  1.00  0.00     0.030 C 
BRANCH  10  12
HETATM   12  C9  UNL     1      -3.231   0.130  -0.544  1.00  0.00     0.015 C 
HETATM   13  C10 UNL     1      -3.257   1.163  -1.610  1.00  0.00     0.033 C 
HETATM   14  C11 UNL     1      -4.253   2.151  -1.032  1.00  0.00     0.168 C 
HETATM   15  O2  UNL     1      -4.013   2.158   0.337  1.00  0.00    -0.391 OA
HETATM   16  C12 UNL     1      -3.601   0.882   0.686  1.00  0.00     0.172 C 
ENDBRANCH  10  12
ENDBRANCH   3   5
BRANCH   1  17
HETATM   17  C1  UNL     1       3.748   1.611   0.350  1.00  0.00     0.328 C 
BRANCH  17  18
HETATM   18  N1  UNL     1       3.867   1.632  -1.092  1.00  0.00    -0.062 N 
ATOM     19  H13 UNL     1       3.842   0.692  -1.486  1.00  0.00     0.275 HD
ATOM     20  H12 UNL     1       3.028   2.007  -1.534  1.00  0.00     0.275 HD
ATOM     21  H11 UNL     1       4.704   2.139  -1.380  1.00  0.00     0.275 HD
ENDBRANCH  17  18
BRANCH  17  22
HETATM   22  C14 UNL     1       4.946   0.816   0.873  1.00  0.00     0.293 C 
BRANCH  22  23
HETATM   23  O3  UNL     1       4.847   0.785   2.259  1.00  0.00    -0.369 OA
ATOM     24  H3  UNL     1       5.591   0.291   2.584  1.00  0.00     0.212 HD
ENDBRANCH  22  23
BRANCH  22  25
HETATM   25  O4  UNL     1       6.145   1.362   0.458  1.00  0.00    -0.369 OA
ATOM     26  H4  UNL     1       6.889   0.868   0.783  1.00  0.00     0.212 HD
ENDBRANCH  22  25
ENDBRANCH  17  22
ENDBRANCH   1  17
TORSDOF 7
