REMARK  4 active torsions:
REMARK  status: ('A' for Active; 'I' for Inactive)
REMARK    1  A    between atoms: C3_3  and  C4_4 
REMARK    2  A    between atoms: C7_7  and  C8_8 
REMARK    3  A    between atoms: N1_9  and  N2_11 
REMARK       I    between atoms: N2_11  and  C9_13 
REMARK       I    between atoms: C9_13  and  N7_21 
REMARK    4  A    between atoms: N3_14  and  N4_16 
ROOT
HETATM    1  C1  UNL     1       5.913   2.493   0.923  1.00  0.00     0.012 C 
HETATM    2  C2  UNL     1       5.831   1.409   0.390  1.00  0.00    -0.112 C 
HETATM    3  C3  UNL     1       5.751   0.091  -0.265  1.00  0.00     0.139 C 
ENDROOT
BRANCH   3   4
HETATM    4  C4  UNL     1       4.320  -0.334  -0.175  1.00  0.00    -0.006 A 
HETATM    5  C5  UNL     1       3.305  -0.103  -1.053  1.00  0.00     0.017 A 
HETATM    6  C6  UNL     1       2.096  -0.588  -0.756  1.00  0.00     0.021 A 
HETATM    7  C7  UNL     1       1.948  -1.286   0.412  1.00  0.00     0.022 A 
HETATM    8  S1  UNL     1       3.564  -1.227   1.056  1.00  0.00    -0.093 SA
BRANCH   7   9
HETATM    9  C8  UNL     1       0.790  -1.931   1.017  1.00  0.00     0.126 C 
HETATM   10  N1  UNL     1      -0.341  -1.955   0.536  1.00  0.00    -0.296 N 
ATOM     11  H1  UNL     1      -1.000  -2.461   1.127  1.00  0.00     0.186 HD
BRANCH  10  12
HETATM   12  N2  UNL     1      -0.930  -1.470  -0.595  1.00  0.00    -0.130 N 
HETATM   13  C9  UNL     1      -1.810  -0.359  -0.496  1.00  0.00     0.720 C 
HETATM   14  N3  UNL     1      -3.030  -0.513  -0.881  1.00  0.00    -0.128 N 
HETATM   15  N7  UNL     1      -1.341   0.872   0.015  1.00  0.00    -0.123 N 
ATOM     16  H3  UNL     1      -3.332  -1.417  -1.244  1.00  0.00     0.205 HD
HETATM   17  C11 UNL     1      -1.762   1.321   1.261  1.00  0.00     0.196 C 
ATOM     18  H7  UNL     1      -0.690   1.434  -0.533  1.00  0.00     0.197 HD
HETATM   19  N8  UNL     1      -2.114   1.677   2.311  1.00  0.00    -0.171 NA
ATOM     20  H2  UNL     1      -0.741  -1.900  -1.501  1.00  0.00     0.205 HD
BRANCH  14  21
HETATM   21  N4  UNL     1      -3.939   0.532  -0.809  1.00  0.00    -0.262 N 
HETATM   22  C10 UNL     1      -5.123   0.297  -0.386  1.00  0.00     0.216 C 
HETATM   23  N5  UNL     1      -5.511  -1.004   0.005  1.00  0.00    -0.065 NA
HETATM   24  N6  UNL     1      -6.051   1.364  -0.313  1.00  0.00    -0.065 NA
ATOM     25  H4  UNL     1      -3.667   1.474  -1.089  1.00  0.00     0.190 HD
ENDBRANCH  14  21
ENDBRANCH  10  12
ENDBRANCH   7   9
ENDBRANCH   3   4
TORSDOF 4
