REMARK  12 active torsions:
REMARK  status: ('A' for Active; 'I' for Inactive)
REMARK    1  A    between atoms: C2_2  and  C3_3 
REMARK    2  A    between atoms: C2_2  and  C4_8 
REMARK    3  A    between atoms: C3_3  and  O1_4 
REMARK    4  A    between atoms: C3_3  and  O2_6 
REMARK    5  A    between atoms: C4_8  and  O3_9 
REMARK    6  A    between atoms: C4_8  and  C5_11 
REMARK    7  A    between atoms: C4_8  and  N2_21 
REMARK    8  A    between atoms: C6_12  and  C7_13 
REMARK    9  A    between atoms: C10_16  and  C11_17 
REMARK       I    between atoms: N2_21  and  C12_23 
REMARK   10  A    between atoms: C12_23  and  C13_25 
REMARK   11  A    between atoms: C13_25  and  O6_27 
REMARK   12  A    between atoms: O6_27  and  C15_28 
ROOT
HETATM    1  C4  UNL     1      -0.514   0.662   1.336  1.00  0.00     0.182 C 
ENDROOT
BRANCH   1   2
HETATM    2  C2  UNL     1      -0.316   2.116   1.157  1.00  0.00     0.023 C 
HETATM    3  C1  UNL     1      -0.858   2.726   0.119  1.00  0.00     0.025 C 
BRANCH   2   4
HETATM    4  C3  UNL     1       0.490   2.876   2.148  1.00  0.00     0.288 C 
BRANCH   4   5
HETATM    5  O1  UNL     1       1.794   2.401   2.232  1.00  0.00    -0.367 OA
ATOM      6  H1  UNL     1       2.309   2.887   2.865  1.00  0.00     0.213 HD
ENDBRANCH   4   5
BRANCH   4   7
HETATM    7  O2  UNL     1       0.535   4.235   1.845  1.00  0.00    -0.367 OA
ATOM      8  H2  UNL     1       1.050   4.721   2.478  1.00  0.00     0.213 HD
ENDBRANCH   4   7
ENDBRANCH   2   4
ENDBRANCH   1   2
BRANCH   1   9
HETATM    9  O3  UNL     1      -1.193   0.370   2.520  1.00  0.00    -0.363 OA
ATOM     10  H3  UNL     1      -1.320  -0.564   2.635  1.00  0.00     0.213 HD
ENDBRANCH   1   9
BRANCH   1  11
HETATM   11  C5  UNL     1      -1.336   0.151   0.222  1.00  0.00     0.041 C 
HETATM   12  C6  UNL     1      -2.477  -0.476   0.432  1.00  0.00     0.030 C 
BRANCH  12  13
HETATM   13  C7  UNL     1      -3.234  -0.952  -0.719  1.00  0.00     0.032 A 
HETATM   14  C8  UNL     1      -2.927  -0.843  -2.051  1.00  0.00     0.032 A 
HETATM   15  C9  UNL     1      -3.954  -1.449  -2.761  1.00  0.00     0.035 A 
HETATM   16  C10 UNL     1      -4.878  -1.923  -1.858  1.00  0.00     0.070 A 
HETATM   17  N1  UNL     1      -4.412  -1.606  -0.651  1.00  0.00    -0.354 N 
ATOM     18  H1  UNL     1      -4.890  -1.831   0.222  1.00  0.00     0.166 HD
BRANCH  16  19
HETATM   19  C11 UNL     1      -6.130  -2.636  -2.175  1.00  0.00     0.288 C 
HETATM   20  O4  UNL     1      -6.423  -2.855  -3.366  1.00  0.00    -0.300 OA
ENDBRANCH  16  19
ENDBRANCH  12  13
ENDBRANCH   1  11
BRANCH   1  21
HETATM   21  N2  UNL     1       0.756  -0.059   1.345  1.00  0.00    -0.320 N 
HETATM   22  C12 UNL     1       1.669  -0.041   0.274  1.00  0.00     0.249 C 
HETATM   23  O5  UNL     1       1.403   0.620  -0.751  1.00  0.00    -0.271 OA
ATOM     24  H2  UNL     1       0.994  -0.605   2.173  1.00  0.00     0.166 HD
BRANCH  22  25
HETATM   25  C13 UNL     1       2.927  -0.798   0.365  1.00  0.00     0.219 C 
HETATM   26  C14 UNL     1       2.534  -2.265   0.516  1.00  0.00     0.050 C 
BRANCH  25  27
HETATM   27  O6  UNL     1       3.728  -0.686  -0.767  1.00  0.00    -0.307 OA
BRANCH  27  28
HETATM   28  C15 UNL     1       5.023  -0.216  -0.640  1.00  0.00     0.255 C 
HETATM   29  C16 UNL     1       5.937  -0.069  -1.803  1.00  0.00     0.126 C 
HETATM   30  O7  UNL     1       5.483   0.114   0.502  1.00  0.00    -0.266 OA
ENDBRANCH  27  28
ENDBRANCH  25  27
ENDBRANCH  22  25
ENDBRANCH   1  21
TORSDOF 12
