REMARK  14 active torsions:
REMARK  status: ('A' for Active; 'I' for Inactive)
REMARK    1  A    between atoms: O1_2  and  C2_3 
REMARK       I    between atoms: C2_3  and  N1_5 
REMARK    2  A    between atoms: N1_5  and  C3_7 
REMARK    3  A    between atoms: C3_7  and  C4_8 
REMARK    4  A    between atoms: C3_7  and  C13_30 
REMARK    5  A    between atoms: C4_8  and  O3_9 
REMARK    6  A    between atoms: C4_8  and  N2_11 
REMARK    7  A    between atoms: N2_11  and  C5_13 
REMARK    8  A    between atoms: C5_13  and  O4_14 
REMARK    9  A    between atoms: C5_13  and  C6_16 
REMARK   10  A    between atoms: C6_16  and  C7_17 
REMARK   11  A    between atoms: C6_16  and  N3_21 
REMARK   12  A    between atoms: C7_17  and  C8_18 
REMARK       I    between atoms: N3_21  and  C11_23 
REMARK   13  A    between atoms: C11_23  and  C12_25 
REMARK   14  A    between atoms: C12_25  and  N4_26 
ROOT
HETATM    1  C5  UNL     1      -0.904  -0.647   0.476  1.00  0.00     0.242 C 
ENDROOT
BRANCH   1   2
HETATM    2  N2  UNL     1       0.333  -0.214  -0.147  1.00  0.00    -0.341 N 
ATOM      3  H2  UNL     1       0.315   0.529  -0.846  1.00  0.00     0.164 HD
BRANCH   2   4
HETATM    4  C4  UNL     1       1.566  -0.817   0.209  1.00  0.00     0.162 C 
BRANCH   4   5
HETATM    5  C3  UNL     1       2.906  -0.485  -0.275  1.00  0.00     0.072 C 
BRANCH   5   6
HETATM    6  N1  UNL     1       3.286   0.865   0.100  1.00  0.00    -0.302 N 
HETATM    7  C2  UNL     1       3.895   1.339   1.256  1.00  0.00     0.364 C 
HETATM    8  O2  UNL     1       4.224   0.597   2.198  1.00  0.00    -0.238 OA
ATOM      9  H1  UNL     1       3.072   1.580  -0.596  1.00  0.00     0.171 HD
BRANCH   7  10
HETATM   10  O1  UNL     1       4.161   2.719   1.403  1.00  0.00    -0.309 OA
HETATM   11  C1  UNL     1       4.763   3.171   2.578  1.00  0.00     0.215 C 
ENDBRANCH   7  10
ENDBRANCH   5   6
BRANCH   5  12
HETATM   12  C13 UNL     1       3.446  -1.000  -1.533  1.00  0.00    -0.004 C 
HETATM   13  C14 UNL     1       2.955  -2.384  -1.885  1.00  0.00     0.021 C 
HETATM   14  C15 UNL     1       3.396  -0.108  -2.735  1.00  0.00     0.021 C 
HETATM   15  C16 UNL     1       5.000  -1.241  -1.309  1.00  0.00     0.021 C 
ENDBRANCH   5  12
ENDBRANCH   4   5
BRANCH   4  16
HETATM   16  O3  UNL     1       1.489  -1.771   1.101  1.00  0.00    -0.345 OA
ATOM     17  H3  UNL     1       0.619  -1.987   1.415  1.00  0.00     0.219 HD
ENDBRANCH   4  16
ENDBRANCH   2   4
ENDBRANCH   1   2
BRANCH   1  18
HETATM   18  O4  UNL     1      -0.832  -0.199   1.869  1.00  0.00    -0.375 OA
ATOM     19  H4  UNL     1      -1.642  -0.482   2.277  1.00  0.00     0.212 HD
ENDBRANCH   1  18
BRANCH   1  20
HETATM   20  C6  UNL     1      -2.158  -0.159  -0.085  1.00  0.00     0.133 C 
BRANCH  20  21
HETATM   21  C7  UNL     1      -3.284  -0.447   0.964  1.00  0.00     0.033 C 
BRANCH  21  22
HETATM   22  C8  UNL     1      -3.525  -1.824   1.349  1.00  0.00    -0.021 C 
HETATM   23  C9  UNL     1      -3.884  -2.735   0.184  1.00  0.00     0.009 C 
HETATM   24  C10 UNL     1      -4.842  -1.790   2.189  1.00  0.00     0.009 C 
ENDBRANCH  21  22
ENDBRANCH  20  21
BRANCH  20  25
HETATM   25  N3  UNL     1      -2.328   1.316  -0.092  1.00  0.00    -0.351 N 
HETATM   26  C11 UNL     1      -3.372   1.804  -0.931  1.00  0.00     0.243 C 
HETATM   27  O5  UNL     1      -4.044   1.031  -1.653  1.00  0.00    -0.272 OA
ATOM     28  H3  UNL     1      -1.739   1.936   0.464  1.00  0.00     0.163 HD
BRANCH  26  29
HETATM   29  C12 UNL     1      -3.702   3.258  -0.956  1.00  0.00     0.332 C 
BRANCH  29  30
HETATM   30  N4  UNL     1      -4.729   3.492  -1.930  1.00  0.00    -0.071 N 
ATOM     31  H43 UNL     1      -4.476   3.136  -2.852  1.00  0.00     0.274 HD
ATOM     32  H42 UNL     1      -5.552   2.911  -1.772  1.00  0.00     0.274 HD
ATOM     33  H41 UNL     1      -4.955   4.487  -1.947  1.00  0.00     0.274 HD
ENDBRANCH  29  30
ENDBRANCH  26  29
ENDBRANCH  20  25
ENDBRANCH   1  20
TORSDOF 14
