REMARK  11 active torsions:
REMARK  status: ('A' for Active; 'I' for Inactive)
REMARK    1  A    between atoms: C2_2  and  N1_3 
REMARK       I    between atoms: N1_3  and  C3_5 
REMARK    2  A    between atoms: C3_5  and  C4_7 
REMARK    3  A    between atoms: C4_7  and  N2_8 
REMARK    4  A    between atoms: C4_7  and  C14_24 
REMARK       I    between atoms: N2_8  and  C5_10 
REMARK       I    between atoms: C5_10  and  N3_12 
REMARK    5  A    between atoms: N3_12  and  C6_14 
REMARK    6  A    between atoms: C6_14  and  C7_15 
REMARK    7  A    between atoms: C6_14  and  C8_18 
REMARK    8  A    between atoms: C14_24  and  C15_26 
REMARK    9  A    between atoms: C15_26  and  O6_27 
REMARK   10  A    between atoms: C15_26  and  C16_29 
REMARK   11  A    between atoms: C16_29  and  C17_30 
ROOT
HETATM    1  N2  UNL     1      -0.620  -0.900   0.261  1.00  0.00    -0.323 N 
ATOM      2  H2  UNL     1      -0.322  -1.854   0.057  1.00  0.00     0.165 HD
HETATM    3  C5  UNL     1       0.334   0.073   0.626  1.00  0.00     0.317 C 
HETATM    4  O2  UNL     1      -0.057   1.254   0.873  1.00  0.00    -0.247 OA
HETATM    5  N3  UNL     1       1.718  -0.202   0.733  1.00  0.00    -0.328 N 
ATOM      6  H3  UNL     1       2.080  -1.137   0.544  1.00  0.00     0.165 HD
ENDROOT
BRANCH   1   7
HETATM    7  C4  UNL     1      -2.039  -0.543   0.174  1.00  0.00     0.251 C 
BRANCH   7   8
HETATM    8  C3  UNL     1      -2.525  -0.634  -1.205  1.00  0.00     0.248 C 
HETATM    9  N1  UNL     1      -3.770  -0.082  -1.604  1.00  0.00    -0.359 N 
ATOM     10  H1  UNL     1      -4.347   0.391  -0.908  1.00  0.00     0.162 HD
HETATM   11  O1  UNL     1      -1.841  -1.214  -2.125  1.00  0.00    -0.271 OA
BRANCH   9  12
HETATM   12  C2  UNL     1      -4.248  -0.170  -2.975  1.00  0.00     0.118 C 
HETATM   13  C1  UNL     1      -5.581   0.493  -3.100  1.00  0.00     0.026 C 
ENDBRANCH   9  12
ENDBRANCH   7   8
BRANCH   7  14
HETATM   14  C14 UNL     1      -2.809  -1.282   1.174  1.00  0.00     0.187 C 
HETATM   15  O5  UNL     1      -2.086  -1.958   1.968  1.00  0.00    -0.292 OA
BRANCH  14  16
HETATM   16  C15 UNL     1      -4.242  -1.369   1.410  1.00  0.00     0.196 C 
BRANCH  16  17
HETATM   17  O6  UNL     1      -4.423  -1.695   2.792  1.00  0.00    -0.388 OA
ATOM     18  H6  UNL     1      -5.359  -1.752   2.946  1.00  0.00     0.210 HD
ENDBRANCH  16  17
BRANCH  16  19
HETATM   19  C16 UNL     1      -4.943  -2.501   0.669  1.00  0.00     0.108 C 
BRANCH  19  20
HETATM   20  C17 UNL     1      -6.386  -2.437   1.022  1.00  0.00     0.234 C 
HETATM   21  O7  UNL     1      -6.779  -1.580   1.780  1.00  0.00    -0.307 OA
ENDBRANCH  19  20
ENDBRANCH  16  19
ENDBRANCH  14  16
ENDBRANCH   7  14
ENDBRANCH   1   7
BRANCH   5  22
HETATM   22  C6  UNL     1       2.614   0.878   1.119  1.00  0.00     0.191 C 
BRANCH  22  23
HETATM   23  C7  UNL     1       3.401   0.458   2.311  1.00  0.00     0.197 C 
HETATM   24  O3  UNL     1       3.215  -0.729   2.764  1.00  0.00    -0.646 OA
HETATM   25  O4  UNL     1       4.309   1.207   2.986  1.00  0.00    -0.646 OA
ENDBRANCH  22  23
BRANCH  22  26
HETATM   26  C8  UNL     1       3.491   1.304  -0.052  1.00  0.00     0.019 C 
HETATM   27  C9  UNL     1       4.342   2.430   0.328  1.00  0.00     0.007 C 
HETATM   28  C10 UNL     1       5.819   2.304   0.173  1.00  0.00     0.000 C 
HETATM   29  C11 UNL     1       6.197   1.374  -0.975  1.00  0.00     0.000 C 
HETATM   30  C12 UNL     1       5.643   0.038  -0.533  1.00  0.00     0.000 C 
HETATM   31  C13 UNL     1       4.148   0.103  -0.624  1.00  0.00     0.007 C 
ENDBRANCH  22  26
ENDBRANCH   5  22
TORSDOF 11
