REMARK  13 active torsions:
REMARK  status: ('A' for Active; 'I' for Inactive)
REMARK    1  A    between atoms: C2_2  and  C3_4 
REMARK    2  A    between atoms: C3_4  and  C4_5 
REMARK    3  A    between atoms: C3_4  and  C15_22 
REMARK    4  A    between atoms: C4_5  and  C5_7 
REMARK       I    between atoms: C5_7  and  N1_9 
REMARK    5  A    between atoms: N1_9  and  C6_11 
REMARK    6  A    between atoms: C6_11  and  C7_12 
REMARK    7  A    between atoms: C6_11  and  C9_16 
REMARK    8  A    between atoms: C7_12  and  C8_13 
REMARK    9  A    between atoms: C15_22  and  O6_23 
REMARK   10  A    between atoms: C15_22  and  C16_25 
REMARK   11  A    between atoms: C16_25  and  O7_26 
REMARK   12  A    between atoms: C16_25  and  C17_28 
REMARK   13  A    between atoms: C17_28  and  O8_30 
ROOT
HETATM    1  C4  UNL     1      -0.233   0.866   0.601  1.00  0.00     0.230 C 
HETATM    2  O2  UNL     1       0.455   1.955   0.584  1.00  0.00    -0.286 OA
ENDROOT
BRANCH   1   3
HETATM    3  C3  UNL     1      -1.504   0.855   1.353  1.00  0.00     0.166 C 
BRANCH   3   4
HETATM    4  C2  UNL     1      -1.668   2.107   2.129  1.00  0.00     0.137 C 
HETATM    5  C1  UNL     1      -0.700   2.385   3.225  1.00  0.00     0.091 C 
HETATM    6  O1  UNL     1      -2.543   2.903   1.908  1.00  0.00    -0.297 OA
ENDBRANCH   3   4
BRANCH   3   7
HETATM    7  C15 UNL     1      -2.663   0.530   0.456  1.00  0.00     0.168 C 
BRANCH   7   8
HETATM    8  O6  UNL     1      -2.951   1.525  -0.472  1.00  0.00    -0.392 OA
ATOM      9  H6  UNL     1      -3.684   1.319  -1.040  1.00  0.00     0.210 HD
ENDBRANCH   7   8
BRANCH   7  10
HETATM   10  C16 UNL     1      -3.795  -0.204   1.039  1.00  0.00     0.176 C 
BRANCH  10  11
HETATM   11  O7  UNL     1      -4.501  -0.872   0.006  1.00  0.00    -0.390 OA
ATOM     12  H7  UNL     1      -5.233  -1.346   0.383  1.00  0.00     0.210 HD
ENDBRANCH  10  11
BRANCH  10  13
HETATM   13  C17 UNL     1      -4.742   0.438   1.952  1.00  0.00     0.145 C 
HETATM   14  C18 UNL     1      -5.739   1.375   1.325  1.00  0.00     0.042 C 
BRANCH  13  15
HETATM   15  O8  UNL     1      -5.548  -0.617   2.487  1.00  0.00    -0.393 OA
ATOM     16  H8  UNL     1      -6.163  -0.200   3.080  1.00  0.00     0.210 HD
ENDBRANCH  13  15
ENDBRANCH  10  13
ENDBRANCH   7  10
ENDBRANCH   3   7
ENDBRANCH   1   3
BRANCH   1  17
HETATM   17  C5  UNL     1       0.342  -0.229  -0.138  1.00  0.00     0.288 C 
HETATM   18  O3  UNL     1      -0.140  -1.396  -0.221  1.00  0.00    -0.264 OA
HETATM   19  N1  UNL     1       1.574  -0.064  -0.877  1.00  0.00    -0.345 N 
ATOM     20  H1  UNL     1       2.031   0.848  -0.865  1.00  0.00     0.163 HD
BRANCH  19  21
HETATM   21  C6  UNL     1       2.178  -1.120  -1.622  1.00  0.00     0.128 C 
BRANCH  21  22
HETATM   22  C7  UNL     1       2.259  -0.878  -3.091  1.00  0.00     0.143 C 
BRANCH  22  23
HETATM   23  C8  UNL     1       3.027   0.303  -3.493  1.00  0.00     0.174 C 
HETATM   24  O4  UNL     1       3.604   1.083  -2.706  1.00  0.00    -0.648 OA
HETATM   25  O5  UNL     1       3.142   0.608  -4.855  1.00  0.00    -0.648 OA
ENDBRANCH  22  23
ENDBRANCH  21  22
BRANCH  21  26
HETATM   26  C9  UNL     1       3.460  -1.482  -0.988  1.00  0.00    -0.035 A 
HETATM   27  C10 UNL     1       3.465  -1.586   0.391  1.00  0.00     0.009 A 
HETATM   28  C11 UNL     1       4.626  -1.923   1.056  1.00  0.00     0.001 A 
HETATM   29  C12 UNL     1       5.792  -2.163   0.384  1.00  0.00     0.000 A 
HETATM   30  C13 UNL     1       5.787  -2.061  -0.980  1.00  0.00     0.001 A 
HETATM   31  C14 UNL     1       4.632  -1.726  -1.635  1.00  0.00     0.009 A 
ENDBRANCH  21  26
ENDBRANCH  19  21
ENDBRANCH   1  17
TORSDOF 13
