REMARK  13 active torsions:
REMARK  status: ('A' for Active; 'I' for Inactive)
REMARK    1  A    between atoms: C3_3  and  C4_4 
REMARK    2  A    between atoms: C4_4  and  N1_5 
REMARK    3  A    between atoms: N1_5  and  N2_6 
REMARK       I    between atoms: N1_5  and  C5_10 
REMARK    4  A    between atoms: N2_6  and  O1_8 
REMARK       I    between atoms: C5_10  and  N3_12 
REMARK    5  A    between atoms: N3_12  and  C6_14 
REMARK    6  A    between atoms: C6_14  and  C7_15 
REMARK    7  A    between atoms: C7_15  and  C8_16 
REMARK    8  A    between atoms: C8_16  and  C9_17 
REMARK    9  A    between atoms: C9_17  and  N4_18 
REMARK   10  A    between atoms: C9_17  and  C12_23 
REMARK       I    between atoms: N4_18  and  C10_20 
REMARK   11  A    between atoms: C12_23  and  N6_26 
REMARK   12  A    between atoms: N6_26  and  N7_27 
REMARK   13  A    between atoms: N7_27  and  C14_29 
ROOT
HETATM    1  C1  UNL     1       3.704   0.207  -1.539  1.00  0.00     0.012 C 
HETATM    2  C2  UNL     1       4.269  -0.574  -0.808  1.00  0.00    -0.116 C 
HETATM    3  C3  UNL     1       4.962  -1.523   0.035  1.00  0.00     0.115 C 
ENDROOT
BRANCH   3   4
HETATM    4  C4  UNL     1       4.741  -1.370   1.505  1.00  0.00     0.168 C 
BRANCH   4   5
HETATM    5  N1  UNL     1       3.394  -1.500   1.955  1.00  0.00    -0.223 N 
HETATM    6  C5  UNL     1       2.501  -0.419   2.093  1.00  0.00     0.338 C 
HETATM    7  O2  UNL     1       2.812   0.761   1.858  1.00  0.00    -0.245 OA
HETATM    8  N3  UNL     1       1.173  -0.662   2.523  1.00  0.00    -0.342 N 
ATOM      9  H3  UNL     1       0.903  -1.625   2.724  1.00  0.00     0.164 HD
BRANCH   5  10
HETATM   10  N2  UNL     1       2.946  -2.799   2.276  1.00  0.00    -0.204 N 
ATOM     11  H2  UNL     1       2.023  -3.135   2.001  1.00  0.00     0.216 HD
BRANCH  10  12
HETATM   12  O1  UNL     1       3.745  -3.513   2.916  1.00  0.00    -0.274 OA
ATOM     13  H1  UNL     1       3.443  -4.388   3.132  1.00  0.00     0.246 HD
ENDBRANCH  10  12
ENDBRANCH   5  10
BRANCH   8  14
HETATM   14  C6  UNL     1       0.189   0.360   2.692  1.00  0.00     0.124 C 
BRANCH  14  15
HETATM   15  C7  UNL     1      -0.063   1.042   1.370  1.00  0.00     0.022 C 
BRANCH  15  16
HETATM   16  C8  UNL     1      -0.550  -0.019   0.407  1.00  0.00     0.029 C 
BRANCH  16  17
HETATM   17  C9  UNL     1      -0.845   0.525  -0.964  1.00  0.00     0.119 C 
BRANCH  17  18
HETATM   18  N4  UNL     1      -1.299  -0.585  -1.778  1.00  0.00    -0.354 N 
HETATM   19  C10 UNL     1      -0.545  -1.007  -2.908  1.00  0.00     0.214 C 
HETATM   20  C11 UNL     1      -0.963  -2.133  -3.771  1.00  0.00     0.117 C 
HETATM   21  O3  UNL     1       0.527  -0.422  -3.215  1.00  0.00    -0.274 OA
ATOM     22  H4  UNL     1      -2.165  -1.067  -1.539  1.00  0.00     0.162 HD
ENDBRANCH  17  18
BRANCH  17  23
HETATM   23  C12 UNL     1      -1.813   1.662  -0.973  1.00  0.00     0.228 C 
HETATM   24  C13 UNL     1      -2.000   2.082  -2.363  1.00  0.00     0.084 C 
HETATM   25  N5  UNL     1      -2.149   2.420  -3.466  1.00  0.00    -0.195 NA
BRANCH  23  26
HETATM   26  N6  UNL     1      -3.100   1.355  -0.429  1.00  0.00    -0.118 NA
BRANCH  26  27
HETATM   27  N7  UNL     1      -3.988   2.394  -0.437  1.00  0.00    -0.281 N 
ATOM     28  H7  UNL     1      -3.814   3.206  -1.029  1.00  0.00     0.184 HD
BRANCH  27  29
HETATM   29  C14 UNL     1      -5.145   2.347   0.371  1.00  0.00     0.196 C 
HETATM   30  N8  UNL     1      -5.415   1.238   1.200  1.00  0.00    -0.069 NA
HETATM   31  S1  UNL     1      -6.193   3.582   0.357  1.00  0.00    -0.043 SA
ENDBRANCH  27  29
ENDBRANCH  26  27
ENDBRANCH  23  26
ENDBRANCH  17  23
ENDBRANCH  16  17
ENDBRANCH  15  16
ENDBRANCH  14  15
ENDBRANCH   8  14
ENDBRANCH   4   5
ENDBRANCH   3   4
TORSDOF 13
