REMARK  14 active torsions:
REMARK  status: ('A' for Active; 'I' for Inactive)
REMARK    1  A    between atoms: C2_2  and  C3_4 
REMARK    2  A    between atoms: C3_4  and  N1_5 
REMARK    3  A    between atoms: C3_4  and  C9_17 
REMARK       I    between atoms: N1_5  and  C4_7 
REMARK    4  A    between atoms: C4_7  and  C5_9 
REMARK    5  A    between atoms: C5_9  and  N2_10 
REMARK    6  A    between atoms: C5_9  and  C6_14 
REMARK    7  A    between atoms: C9_17  and  C10_19 
REMARK    8  A    between atoms: C10_19  and  N3_20 
REMARK    9  A    between atoms: C10_19  and  C17_33 
REMARK       I    between atoms: N3_20  and  C11_22 
REMARK   10  A    between atoms: C11_22  and  C12_24 
REMARK   11  A    between atoms: C12_24  and  N4_25 
REMARK   12  A    between atoms: C12_24  and  C13_29 
REMARK   13  A    between atoms: C13_29  and  C14_30 
REMARK   14  A    between atoms: C17_33  and  O5_35 
ROOT
HETATM    1  C9  UNL     1       0.333  -0.493  -0.650  1.00  0.00     0.181 C 
HETATM    2  O3  UNL     1       0.721  -0.349   0.552  1.00  0.00    -0.293 OA
ENDROOT
BRANCH   1   3
HETATM    3  C3  UNL     1       1.018   0.416  -1.579  1.00  0.00     0.225 C 
BRANCH   3   4
HETATM    4  C2  UNL     1       0.875   0.189  -3.000  1.00  0.00     0.153 C 
HETATM    5  C1  UNL     1      -0.425   0.202  -3.712  1.00  0.00     0.093 C 
HETATM    6  O1  UNL     1       1.855  -0.028  -3.709  1.00  0.00    -0.296 OA
ENDBRANCH   3   4
BRANCH   3   7
HETATM    7  N1  UNL     1       2.426   0.521  -1.167  1.00  0.00    -0.341 N 
HETATM    8  C4  UNL     1       2.980   1.668  -0.589  1.00  0.00     0.249 C 
HETATM    9  O2  UNL     1       2.175   2.654  -0.436  1.00  0.00    -0.271 OA
ATOM     10  H1  UNL     1       3.032  -0.287  -1.311  1.00  0.00     0.163 HD
BRANCH   8  11
HETATM   11  C5  UNL     1       4.361   1.885  -0.142  1.00  0.00     0.278 C 
BRANCH  11  12
HETATM   12  N2  UNL     1       4.610   3.287   0.180  1.00  0.00    -0.066 N 
ATOM     13  H23 UNL     1       4.372   3.896  -0.603  1.00  0.00     0.275 HD
ATOM     14  H22 UNL     1       3.938   3.637   0.864  1.00  0.00     0.275 HD
ATOM     15  H21 UNL     1       5.570   3.438   0.491  1.00  0.00     0.275 HD
ENDBRANCH  11  12
BRANCH  11  16
HETATM   16  C6  UNL     1       4.714   1.080   1.061  1.00  0.00     0.017 C 
HETATM   17  C7  UNL     1       4.585  -0.389   0.791  1.00  0.00     0.012 C 
HETATM   18  C8  UNL     1       6.144   1.342   1.479  1.00  0.00     0.012 C 
ENDBRANCH  11  16
ENDBRANCH   8  11
ENDBRANCH   3   7
ENDBRANCH   1   3
BRANCH   1  19
HETATM   19  C10 UNL     1      -0.691  -1.494  -0.907  1.00  0.00     0.185 C 
BRANCH  19  20
HETATM   20  N3  UNL     1      -1.697  -1.490   0.194  1.00  0.00    -0.345 N 
HETATM   21  C11 UNL     1      -3.064  -1.330  -0.133  1.00  0.00     0.249 C 
HETATM   22  O4  UNL     1      -3.412  -1.194  -1.335  1.00  0.00    -0.271 OA
ATOM     23  H3  UNL     1      -1.405  -1.601   1.165  1.00  0.00     0.163 HD
BRANCH  21  24
HETATM   24  C12 UNL     1      -4.130  -1.314   0.892  1.00  0.00     0.275 C 
BRANCH  24  25
HETATM   25  N4  UNL     1      -5.439  -1.158   0.296  1.00  0.00    -0.066 N 
ATOM     26  H43 UNL     1      -5.481  -0.330  -0.299  1.00  0.00     0.275 HD
ATOM     27  H42 UNL     1      -5.613  -1.871  -0.412  1.00  0.00     0.275 HD
ATOM     28  H41 UNL     1      -6.174  -1.147   1.003  1.00  0.00     0.275 HD
ENDBRANCH  24  25
BRANCH  24  29
HETATM   29  C13 UNL     1      -3.931  -0.261   1.933  1.00  0.00     0.046 C 
BRANCH  29  30
HETATM   30  C14 UNL     1      -3.888   1.145   1.422  1.00  0.00    -0.020 C 
HETATM   31  C15 UNL     1      -3.676   2.038   2.654  1.00  0.00     0.009 C 
HETATM   32  C16 UNL     1      -5.121   1.592   0.709  1.00  0.00     0.009 C 
ENDBRANCH  29  30
ENDBRANCH  24  29
ENDBRANCH  21  24
ENDBRANCH  19  20
BRANCH  19  33
HETATM   33  C17 UNL     1      -0.143  -2.915  -0.912  1.00  0.00     0.144 C 
HETATM   34  C18 UNL     1       0.628  -3.190  -2.145  1.00  0.00     0.042 C 
BRANCH  33  35
HETATM   35  O5  UNL     1       0.457  -3.263   0.274  1.00  0.00    -0.393 OA
ATOM     36  H5  UNL     1       0.799  -4.149   0.271  1.00  0.00     0.210 HD
ENDBRANCH  33  35
ENDBRANCH  19  33
ENDBRANCH   1  19
TORSDOF 14
