REMARK  12 active torsions:
REMARK  status: ('A' for Active; 'I' for Inactive)
REMARK    1  A    between atoms: C2_2  and  C4_4 
REMARK    2  A    between atoms: C4_4  and  N1_5 
REMARK    3  A    between atoms: C4_4  and  C9_11 
REMARK    4  A    between atoms: N1_5  and  C5_7 
REMARK       I    between atoms: C9_11  and  N2_13 
REMARK    5  A    between atoms: N2_13  and  C10_15 
REMARK    6  A    between atoms: C10_15  and  C11_16 
REMARK    7  A    between atoms: C10_15  and  C16_28 
REMARK       I    between atoms: C11_16  and  N3_18 
REMARK    8  A    between atoms: N3_18  and  C12_20 
REMARK    9  A    between atoms: C12_20  and  C13_21 
REMARK   10  A    between atoms: C13_21  and  O3_22 
REMARK   11  A    between atoms: C13_21  and  N4_24 
REMARK   12  A    between atoms: N4_24  and  N5_25 
ROOT
HETATM    1  C10 UNL     1       0.570  -1.387  -0.472  1.00  0.00     0.208 C 
ENDROOT
BRANCH   1   2
HETATM    2  N2  UNL     1      -0.603  -0.605  -0.845  1.00  0.00    -0.344 N 
HETATM    3  C9  UNL     1      -1.517  -0.092   0.062  1.00  0.00     0.241 C 
HETATM    4  O1  UNL     1      -1.446  -0.230   1.315  1.00  0.00    -0.271 OA
ATOM      5  H2  UNL     1      -0.761  -0.424  -1.836  1.00  0.00     0.163 HD
BRANCH   3   6
HETATM    6  C4  UNL     1      -2.699   0.705  -0.472  1.00  0.00     0.173 C 
BRANCH   6   7
HETATM    7  C2  UNL     1      -3.415  -0.235  -1.395  1.00  0.00     0.009 C 
HETATM    8  C1  UNL     1      -3.963  -1.391  -0.579  1.00  0.00     0.012 C 
HETATM    9  C3  UNL     1      -4.348   0.351  -2.380  1.00  0.00     0.012 C 
ENDBRANCH   6   7
BRANCH   6  10
HETATM   10  N1  UNL     1      -3.419   1.258   0.561  1.00  0.00    -0.401 N 
ATOM     11  H1  UNL     1      -3.118   0.963   1.490  1.00  0.00     0.154 HD
BRANCH  10  12
HETATM   12  C5  UNL     1      -4.469   2.135   0.560  1.00  0.00     0.015 C 
HETATM   13  C6  UNL     1      -4.163   3.493  -0.099  1.00  0.00     0.037 C 
HETATM   14  C7  UNL     1      -4.576   2.591   2.084  1.00  0.00     0.037 C 
HETATM   15  C8  UNL     1      -5.850   1.746   0.215  1.00  0.00     0.037 C 
ENDBRANCH  10  12
ENDBRANCH   6  10
ENDBRANCH   3   6
ENDBRANCH   1   2
BRANCH   1  16
HETATM   16  C11 UNL     1       1.770  -0.602  -0.850  1.00  0.00     0.246 C 
HETATM   17  O2  UNL     1       1.641   0.476  -1.507  1.00  0.00    -0.271 OA
HETATM   18  N3  UNL     1       3.079  -1.015  -0.497  1.00  0.00    -0.335 N 
ATOM     19  H3  UNL     1       3.141  -1.890   0.023  1.00  0.00     0.168 HD
BRANCH  18  20
HETATM   20  C12 UNL     1       4.304  -0.378  -0.769  1.00  0.00     0.113 C 
BRANCH  20  21
HETATM   21  C13 UNL     1       4.591   0.954  -0.192  1.00  0.00     0.264 C 
BRANCH  21  22
HETATM   22  O3  UNL     1       3.711   1.929  -0.593  1.00  0.00    -0.374 OA
ATOM     23  H3  UNL     1       3.895   2.784  -0.223  1.00  0.00     0.212 HD
ENDBRANCH  21  22
BRANCH  21  24
HETATM   24  N4  UNL     1       4.600   0.952   1.263  1.00  0.00    -0.128 NA
BRANCH  24  25
HETATM   25  N5  UNL     1       5.561   0.091   1.803  1.00  0.00    -0.240 NA
HETATM   26  C14 UNL     1       5.570   0.345   3.239  1.00  0.00     0.131 C 
HETATM   27  C15 UNL     1       6.876   0.339   1.296  1.00  0.00     0.131 C 
ENDBRANCH  24  25
ENDBRANCH  21  24
ENDBRANCH  20  21
ENDBRANCH  18  20
ENDBRANCH   1  16
BRANCH   1  28
HETATM   28  C16 UNL     1       0.536  -2.759  -1.010  1.00  0.00     0.182 A 
HETATM   29  O4  UNL     1       0.440  -3.026  -2.372  1.00  0.00    -0.373 OA
HETATM   30  C17 UNL     1       1.709  -3.326  -1.698  1.00  0.00     0.149 A 
HETATM   31  C18 UNL     1       1.930  -4.838  -1.680  1.00  0.00     0.042 C 
ENDBRANCH   1  28
TORSDOF 12
