REMARK  10 active torsions:
REMARK  status: ('A' for Active; 'I' for Inactive)
REMARK    1  A    between atoms: C2_2  and  O1_4 
REMARK    2  A    between atoms: C2_2  and  C4_6 
REMARK    3  A    between atoms: C4_6  and  N1_7 
REMARK       I    between atoms: N1_7  and  C5_9 
REMARK    4  A    between atoms: C5_9  and  C6_11 
REMARK    5  A    between atoms: C6_11  and  N2_12 
REMARK    6  A    between atoms: N2_12  and  C7_13 
REMARK    7  A    between atoms: C7_13  and  O3_14 
REMARK    8  A    between atoms: C7_13  and  C8_16 
REMARK    9  A    between atoms: C9_18  and  N3_19 
REMARK       I    between atoms: N3_19  and  C10_21 
REMARK       I    between atoms: C10_21  and  N4_23 
REMARK   10  A    between atoms: N4_23  and  C11_24 
ROOT
HETATM    1  C8  UNL     1       1.699  -0.992  -1.035  1.00  0.00     0.093 A 
HETATM    2  S1  UNL     1       0.542  -0.478   0.151  1.00  0.00    -0.065 SA
HETATM    3  C9  UNL     1      -0.906  -0.752  -0.671  1.00  0.00     0.081 A 
HETATM    4  C21 UNL     1      -0.446  -1.251  -1.878  1.00  0.00     0.062 A 
HETATM    5  C22 UNL     1       0.880  -1.372  -2.061  1.00  0.00     0.059 A 
HETATM    6 CL1  UNL     1       1.517  -2.064  -3.605  1.00  0.00    -0.083 Cl
ENDROOT
BRANCH   1   7
HETATM    7  C7  UNL     1       3.157  -1.148  -0.849  1.00  0.00     0.229 C 
BRANCH   7   8
HETATM    8  N2  UNL     1       4.100  -1.367  -1.729  1.00  0.00    -0.402 NA
BRANCH   8   9
HETATM    9  C6  UNL     1       5.355  -1.652  -2.293  1.00  0.00     0.176 A 
HETATM   10  C23 UNL     1       5.546  -3.047  -2.829  1.00  0.00     0.060 A 
HETATM   11  C24 UNL     1       5.441  -1.912  -3.812  1.00  0.00     0.060 A 
BRANCH   9  12
HETATM   12  C5  UNL     1       6.539  -0.934  -1.802  1.00  0.00     0.259 C 
HETATM   13  N1  UNL     1       6.636  -0.007  -0.734  1.00  0.00    -0.355 N 
ATOM     14  H1  UNL     1       5.822   0.272  -0.186  1.00  0.00     0.162 HD
HETATM   15  O2  UNL     1       7.628  -1.207  -2.432  1.00  0.00    -0.269 OA
BRANCH  13  16
HETATM   16  C4  UNL     1       7.937   0.512  -0.470  1.00  0.00     0.159 C 
BRANCH  16  17
HETATM   17  C2  UNL     1       8.149   1.376   0.721  1.00  0.00     0.066 C 
HETATM   18  C1  UNL     1       7.938   0.598   2.016  1.00  0.00     0.047 C 
HETATM   19  C3  UNL     1       7.420   2.676   0.666  1.00  0.00     0.047 C 
BRANCH  17  20
HETATM   20  O1  UNL     1       9.553   1.687   0.705  1.00  0.00    -0.389 OA
ATOM     21  H1  UNL     1       9.684   2.172  -0.102  1.00  0.00     0.210 HD
ENDBRANCH  17  20
ENDBRANCH  16  17
ENDBRANCH  13  16
ENDBRANCH   9  12
ENDBRANCH   8   9
ENDBRANCH   7   8
BRANCH   7  22
HETATM   22  O3  UNL     1       3.433  -1.036   0.472  1.00  0.00    -0.335 OA
ATOM     23  H3  UNL     1       2.748  -0.877   1.111  1.00  0.00     0.220 HD
ENDBRANCH   7  22
ENDBRANCH   1   7
BRANCH   3  24
HETATM   24  N3  UNL     1      -2.277  -0.530  -0.381  1.00  0.00    -0.291 N 
HETATM   25  C10 UNL     1      -2.688   0.256   0.756  1.00  0.00     0.394 C 
HETATM   26  O4  UNL     1      -1.817   0.745   1.460  1.00  0.00    -0.230 OA
HETATM   27  N4  UNL     1      -4.080   0.340   0.868  1.00  0.00    -0.385 NA
ATOM     28  H3  UNL     1      -2.988  -0.935  -0.990  1.00  0.00     0.172 HD
BRANCH  27  29
HETATM   29  C11 UNL     1      -5.415   0.429   0.987  1.00  0.00     0.100 C 
HETATM   30  C12 UNL     1      -6.058  -0.562  -0.043  1.00  0.00     0.050 C 
HETATM   31  C13 UNL     1      -7.519  -0.414  -0.018  1.00  0.00    -0.010 C 
HETATM   32  C14 UNL     1      -8.089  -0.821   1.316  1.00  0.00     0.009 C 
HETATM   33  C18 UNL     1      -7.976   0.982  -0.383  1.00  0.00     0.009 C 
HETATM   34  C15 UNL     1      -7.447   0.066   2.371  1.00  0.00    -0.010 C 
HETATM   35  C16 UNL     1      -7.911   1.496   2.072  1.00  0.00     0.009 C 
HETATM   36  C20 UNL     1      -5.964   0.028   2.341  1.00  0.00     0.050 C 
HETATM   37  C17 UNL     1      -7.419   1.887   0.699  1.00  0.00    -0.010 C 
HETATM   38  C19 UNL     1      -5.928   1.826   0.685  1.00  0.00     0.050 C 
ENDBRANCH  27  29
ENDBRANCH   3  24
TORSDOF 10
