REMARK  10 active torsions:
REMARK  status: ('A' for Active; 'I' for Inactive)
REMARK    1  A    between atoms: C10_10  and  O1_11 
REMARK    2  A    between atoms: C18_21  and  O2_22 
REMARK    3  A    between atoms: C19_24  and  C20_25 
REMARK    4  A    between atoms: C20_25  and  C22_27 
REMARK    5  A    between atoms: C20_25  and  C25_37 
REMARK    6  A    between atoms: C22_27  and  N1_28 
REMARK    7  A    between atoms: N1_28  and  C23_31 
REMARK    8  A    between atoms: C23_31  and  C24_32 
REMARK    9  A    between atoms: C24_32  and  N2_33 
REMARK   10  A    between atoms: C28_40  and  O3_41 
ROOT
HETATM    1  C1  UNL     1       0.238   0.698  -1.255  1.00  0.00     0.020 C 
HETATM    2  C2  UNL     1       0.011  -0.179  -0.040  1.00  0.00    -0.014 C 
HETATM    3  C3  UNL     1       0.452   0.630   1.123  1.00  0.00     0.014 C 
HETATM    4  C4  UNL     1       1.873   1.067   1.153  1.00  0.00     0.009 C 
HETATM    5  C5  UNL     1       2.811   0.014   1.671  1.00  0.00     0.030 C 
HETATM    6  C6  UNL     1       4.032   0.615   2.263  1.00  0.00     0.009 C 
HETATM    7  C7  UNL     1       5.328   0.256   1.597  1.00  0.00     0.005 C 
HETATM    8  C8  UNL     1       5.060   0.258   0.104  1.00  0.00    -0.004 C 
HETATM    9  C9  UNL     1       6.383   0.187  -0.659  1.00  0.00     0.037 C 
HETATM   10  C10 UNL     1       6.136  -0.011  -2.127  1.00  0.00     0.118 C 
HETATM   11  C11 UNL     1       4.650  -0.015  -2.409  1.00  0.00     0.032 C 
HETATM   12  C12 UNL     1       3.952  -1.102  -1.614  1.00  0.00     0.011 C 
HETATM   13  C13 UNL     1       4.262  -0.998  -0.159  1.00  0.00     0.034 C 
HETATM   14  C14 UNL     1       3.074  -1.132   0.765  1.00  0.00     0.129 C 
HETATM   15  F1  UNL     1       3.533  -2.111   1.706  1.00  0.00    -0.238 F 
HETATM   16  C15 UNL     1       1.927  -1.780   0.149  1.00  0.00     0.020 C 
HETATM   17  C16 UNL     1       0.696  -1.491  -0.204  1.00  0.00    -0.069 C 
HETATM   18  C17 UNL     1      -0.296  -2.438  -0.832  1.00  0.00     0.067 C 
HETATM   19  C18 UNL     1      -1.481  -2.073   0.049  1.00  0.00     0.128 C 
HETATM   20  C19 UNL     1      -1.428  -0.585   0.189  1.00  0.00     0.041 C 
ENDROOT
BRANCH  20  21
HETATM   21  C20 UNL     1      -2.520   0.209  -0.364  1.00  0.00     0.014 C 
HETATM   22  C21 UNL     1      -2.601   0.387  -1.841  1.00  0.00     0.023 C 
BRANCH  21  23
HETATM   23  C22 UNL     1      -3.845  -0.590  -0.080  1.00  0.00     0.246 C 
BRANCH  23  24
HETATM   24  N1  UNL     1      -4.949   0.161  -0.581  1.00  0.00    -0.072 N 
ATOM     25  H12 UNL     1      -4.858   1.144  -0.326  1.00  0.00     0.277 HD
ATOM     26  H11 UNL     1      -4.896   0.240  -1.597  1.00  0.00     0.277 HD
BRANCH  24  27
HETATM   27  C23 UNL     1      -6.208  -0.336  -0.189  1.00  0.00     0.259 C 
BRANCH  27  28
HETATM   28  C24 UNL     1      -6.621  -1.655  -0.772  1.00  0.00     0.257 C 
BRANCH  28  29
HETATM   29  N2  UNL     1      -5.816  -2.780  -0.441  1.00  0.00    -0.078 N 
ATOM     30  H23 UNL     1      -4.844  -2.588  -0.683  1.00  0.00     0.274 HD
ATOM     31  H22 UNL     1      -5.743  -2.862   0.573  1.00  0.00     0.274 HD
ATOM     32  H21 UNL     1      -6.097  -3.677  -0.837  1.00  0.00     0.274 HD
ENDBRANCH  28  29
ENDBRANCH  27  28
ENDBRANCH  24  27
ENDBRANCH  23  24
ENDBRANCH  21  23
BRANCH  21  33
HETATM   33  C25 UNL     1      -2.828   1.444   0.413  1.00  0.00    -0.048 A 
HETATM   34  C26 UNL     1      -2.823   2.718  -0.113  1.00  0.00     0.011 A 
HETATM   35  C27 UNL     1      -3.130   3.824   0.666  1.00  0.00     0.037 A 
HETATM   36  C28 UNL     1      -3.454   3.707   1.996  1.00  0.00     0.065 A 
HETATM   37  C29 UNL     1      -3.455   2.424   2.508  1.00  0.00     0.037 A 
HETATM   38  C30 UNL     1      -3.153   1.311   1.755  1.00  0.00     0.011 A 
BRANCH  36  39
HETATM   39  O3  UNL     1      -3.770   4.783   2.812  1.00  0.00    -0.361 OA
ATOM     40  H3  UNL     1      -3.994   4.702   3.732  1.00  0.00     0.217 HD
ENDBRANCH  36  39
ENDBRANCH  21  33
ENDBRANCH  20  21
BRANCH  19  41
HETATM   41  O2  UNL     1      -1.242  -2.737   1.294  1.00  0.00    -0.395 OA
ATOM     42  H2  UNL     1      -1.982  -2.509   1.844  1.00  0.00     0.210 HD
ENDBRANCH  19  41
BRANCH  10  43
HETATM   43  O1  UNL     1       6.723  -1.183  -2.596  1.00  0.00    -0.396 OA
ATOM     44  H1  UNL     1       6.567  -1.308  -3.525  1.00  0.00     0.210 HD
ENDBRANCH  10  43
TORSDOF 10
