REMARK  11 active torsions:
REMARK  status: ('A' for Active; 'I' for Inactive)
REMARK    1  A    between atoms: C2_2  and  O1_4 
REMARK    2  A    between atoms: O1_4  and  C4_5 
REMARK    3  A    between atoms: C4_5  and  N2_9 
REMARK    4  A    between atoms: N2_9  and  C5_11 
REMARK    5  A    between atoms: C5_11  and  C6_12 
REMARK    6  A    between atoms: C6_12  and  C7_13 
REMARK    7  A    between atoms: C6_12  and  C9_17 
REMARK    8  A    between atoms: C7_13  and  C8_15 
REMARK    9  A    between atoms: C14_22  and  O3_23 
REMARK   10  A    between atoms: C18_28  and  O4_29 
REMARK   11  A    between atoms: C24_36  and  O5_37 
ROOT
HETATM    1  C9  UNL     1      -1.519  -0.907   0.422  1.00  0.00     0.007 C 
HETATM    2  C10 UNL     1      -1.371  -1.376  -1.028  1.00  0.00     0.007 C 
HETATM    3  C11 UNL     1      -0.401  -0.247  -1.508  1.00  0.00     0.006 C 
HETATM    4  C12 UNL     1       0.591  -0.441  -0.401  1.00  0.00     0.001 C 
HETATM    5  C13 UNL     1       1.859   0.209  -0.467  1.00  0.00     0.026 C 
HETATM    6  C14 UNL     1       2.036   1.556  -1.070  1.00  0.00     0.123 C 
HETATM    7  C15 UNL     1       3.550   1.675  -1.351  1.00  0.00     0.037 C 
HETATM    8  C16 UNL     1       4.300   1.616  -0.047  1.00  0.00    -0.001 C 
HETATM    9  C17 UNL     1       5.751   1.839  -0.275  1.00  0.00     0.037 C 
HETATM   10  C18 UNL     1       6.593   0.626  -0.426  1.00  0.00     0.118 C 
HETATM   11  C19 UNL     1       6.186  -0.555   0.389  1.00  0.00     0.032 C 
HETATM   12  C20 UNL     1       4.693  -0.777   0.191  1.00  0.00     0.012 C 
HETATM   13  C21 UNL     1       3.991   0.396   0.789  1.00  0.00    -0.034 C 
HETATM   14  C22 UNL     1       4.578   0.672   2.164  1.00  0.00     0.016 C 
HETATM   15  C23 UNL     1       2.526   0.281   0.914  1.00  0.00     0.030 C 
HETATM   16  C24 UNL     1       2.004  -0.888   1.668  1.00  0.00     0.124 C 
HETATM   17  C25 UNL     1       0.516  -0.606   1.991  1.00  0.00     0.042 C 
HETATM   18  C26 UNL     1      -0.296  -0.239   0.847  1.00  0.00    -0.033 C 
HETATM   19  C27 UNL     1      -0.601   1.286   0.963  1.00  0.00     0.016 C 
ENDROOT
BRANCH   1  20
HETATM   20  C6  UNL     1      -2.349  -1.785   1.239  1.00  0.00     0.084 C 
BRANCH  20  21
HETATM   21  C5  UNL     1      -3.813  -1.861   0.755  1.00  0.00     0.136 C 
BRANCH  21  22
HETATM   22  N2  UNL     1      -4.351  -0.515   0.760  1.00  0.00    -0.356 N 
ATOM     23  H2  UNL     1      -3.785   0.252   1.123  1.00  0.00     0.163 HD
BRANCH  22  24
HETATM   24  C4  UNL     1      -5.669  -0.246   0.261  1.00  0.00     0.212 C 
HETATM   25  N1  UNL     1      -6.319  -1.218  -0.259  1.00  0.00    -0.365 N 
ATOM     26  H12 UNL     1      -7.256  -1.027  -0.614  1.00  0.00     0.159 HD
ATOM     27  H11 UNL     1      -5.890  -2.142  -0.304  1.00  0.00     0.159 HD
BRANCH  24  28
HETATM   28  O1  UNL     1      -6.249   1.003   0.322  1.00  0.00    -0.318 OA
BRANCH  28  29
HETATM   29  C2  UNL     1      -7.292   1.407  -0.535  1.00  0.00     0.123 C 
HETATM   30  C1  UNL     1      -7.720   2.845  -0.219  1.00  0.00     0.040 C 
HETATM   31  C3  UNL     1      -6.878   1.404  -1.986  1.00  0.00     0.040 C 
ENDBRANCH  28  29
ENDBRANCH  24  28
ENDBRANCH  22  24
ENDBRANCH  21  22
ENDBRANCH  20  21
BRANCH  20  32
HETATM   32  C7  UNL     1      -1.924  -3.210   1.282  1.00  0.00     0.182 C 
HETATM   33  O2  UNL     1      -1.395  -3.544   2.384  1.00  0.00    -0.290 OA
BRANCH  32  34
HETATM   34  C8  UNL     1      -1.992  -4.282   0.319  1.00  0.00     0.238 C 
HETATM   35  F1  UNL     1      -2.713  -4.155  -0.812  1.00  0.00    -0.216 F 
ENDBRANCH  32  34
ENDBRANCH  20  32
ENDBRANCH   1  20
BRANCH  16  36
HETATM   36  O5  UNL     1       2.612  -1.086   2.906  1.00  0.00    -0.395 OA
ATOM     37  H5  UNL     1       2.278  -1.833   3.388  1.00  0.00     0.210 HD
ENDBRANCH  16  36
BRANCH   6  38
HETATM   38  O3  UNL     1       1.373   1.761  -2.260  1.00  0.00    -0.395 OA
ATOM     39  H3  UNL     1       1.486   2.622  -2.645  1.00  0.00     0.210 HD
ENDBRANCH   6  38
BRANCH  10  40
HETATM   40  O4  UNL     1       6.770   0.238  -1.772  1.00  0.00    -0.396 OA
ATOM     41  H4  UNL     1       7.309  -0.538  -1.869  1.00  0.00     0.210 HD
ENDBRANCH  10  40
TORSDOF 11
