REMARK  15 active torsions:
REMARK  status: ('A' for Active; 'I' for Inactive)
REMARK    1  A    between atoms: C3_10  and  C4_11 
REMARK    2  A    between atoms: C6_15  and  C7_16 
REMARK    3  A    between atoms: C7_16  and  N5_17 
REMARK    4  A    between atoms: N5_17  and  C8_19 
REMARK    5  A    between atoms: C8_19  and  C9_20 
REMARK    6  A    between atoms: C9_20  and  O1_21 
REMARK    7  A    between atoms: C9_20  and  C10_23 
REMARK    8  A    between atoms: C10_23  and  O2_24 
REMARK    9  A    between atoms: C10_23  and  C11_26 
REMARK   10  A    between atoms: C11_26  and  O3_27 
REMARK   11  A    between atoms: C11_26  and  C12_29 
REMARK   12  A    between atoms: C12_29  and  O4_30 
REMARK   13  A    between atoms: C13_37  and  C14_38 
REMARK   14  A    between atoms: C15_43  and  N11_44 
REMARK   15  A    between atoms: N14_51  and  O5_52 
ROOT
HETATM    1  N1  UNL     1      -6.746   3.886   0.228  1.00  0.00    -0.233 N 
ATOM      2  H11 UNL     1      -7.661   3.721  -0.190  1.00  0.00     0.174 HD
ATOM      3  H12 UNL     1      -6.595   4.688   0.839  1.00  0.00     0.174 HD
HETATM    4  C1  UNL     1      -5.772   3.085  -0.009  1.00  0.00     0.703 C 
HETATM    5  N2  UNL     1      -4.490   3.316   0.577  1.00  0.00    -0.158 N 
ATOM      6  H2  UNL     1      -4.331   4.121   1.183  1.00  0.00     0.187 HD
HETATM    7  C2  UNL     1      -3.553   2.498   0.328  1.00  0.00     0.219 A 
HETATM    8  N3  UNL     1      -2.188   2.462   0.742  1.00  0.00    -0.309 N 
ATOM      9  H3  UNL     1      -1.698   3.158   1.304  1.00  0.00     0.170 HD
HETATM   10  C3  UNL     1      -1.652   1.260   0.213  1.00  0.00     0.151 A 
HETATM   11  N7  UNL     1      -2.545   0.625  -0.440  1.00  0.00    -0.276 N 
ATOM     12  H7  UNL     1      -2.397  -0.267  -0.912  1.00  0.00     0.189 HD
HETATM   13  N8  UNL     1      -3.733   1.311  -0.417  1.00  0.00    -0.227 N 
HETATM   14  C13 UNL     1      -5.050   0.915  -0.971  1.00  0.00     0.312 C 
HETATM   15  N14 UNL     1      -5.986   1.950  -0.874  1.00  0.00    -0.058 N 
ENDROOT
BRANCH  10  16
HETATM   16  C4  UNL     1      -0.272   0.825   0.398  1.00  0.00     0.095 A 
HETATM   17  C5  UNL     1       0.558   1.087   1.468  1.00  0.00     0.123 A 
HETATM   18  N4  UNL     1       1.721   0.497   1.214  1.00  0.00    -0.349 N 
HETATM   19  C6  UNL     1       1.670  -0.126   0.037  1.00  0.00     0.121 A 
ATOM     20  H4  UNL     1       2.534   0.518   1.830  1.00  0.00     0.167 HD
HETATM   21  N6  UNL     1       0.430   0.092  -0.446  1.00  0.00    -0.337 N 
ATOM     22  H6  UNL     1       0.083  -0.260  -1.338  1.00  0.00     0.167 HD
BRANCH  19  23
HETATM   23  C7  UNL     1       2.695  -0.898  -0.647  1.00  0.00     0.132 C 
BRANCH  23  24
HETATM   24  N5  UNL     1       3.829  -1.066  -0.148  1.00  0.00    -0.393 N 
ATOM     25  H5  UNL     1       4.463  -1.624  -0.719  1.00  0.00     0.159 HD
BRANCH  24  26
HETATM   26  C8  UNL     1       4.387  -0.612   1.080  1.00  0.00     0.153 C 
BRANCH  26  27
HETATM   27  C9  UNL     1       5.742  -1.090   1.429  1.00  0.00     0.167 C 
BRANCH  27  28
HETATM   28  O1  UNL     1       5.833  -2.470   1.498  1.00  0.00    -0.391 OA
ATOM     29  H1  UNL     1       6.704  -2.777   1.722  1.00  0.00     0.210 HD
ENDBRANCH  27  28
BRANCH  27  30
HETATM   30  C10 UNL     1       6.935  -0.414   0.905  1.00  0.00     0.179 C 
BRANCH  30  31
HETATM   31  O2  UNL     1       7.969  -0.725   1.878  1.00  0.00    -0.390 OA
ATOM     32  H2  UNL     1       8.741  -0.288   1.539  1.00  0.00     0.210 HD
ENDBRANCH  30  31
BRANCH  30  33
HETATM   33  C11 UNL     1       7.549  -0.902  -0.378  1.00  0.00     0.173 C 
BRANCH  33  34
HETATM   34  O3  UNL     1       8.780  -0.145  -0.447  1.00  0.00    -0.391 OA
ATOM     35  H3  UNL     1       9.168  -0.453  -1.258  1.00  0.00     0.210 HD
ENDBRANCH  33  34
BRANCH  33  36
HETATM   36  C12 UNL     1       6.838  -0.448  -1.635  1.00  0.00     0.198 C 
BRANCH  36  37
HETATM   37  O4  UNL     1       6.573   0.907  -1.563  1.00  0.00    -0.398 OA
ATOM     38  H4  UNL     1       6.127   1.192  -2.352  1.00  0.00     0.209 HD
ENDBRANCH  36  37
ENDBRANCH  33  36
ENDBRANCH  30  33
ENDBRANCH  27  30
ENDBRANCH  26  27
ENDBRANCH  24  26
ENDBRANCH  23  24
ENDBRANCH  19  23
ENDBRANCH  10  16
BRANCH  14  39
HETATM   39  C14 UNL     1      -5.333  -0.388  -0.364  1.00  0.00     0.115 A 
HETATM   40  N9  UNL     1      -4.298  -1.278  -0.431  1.00  0.00    -0.283 N 
HETATM   41  N10 UNL     1      -4.405  -2.479   0.049  1.00  0.00    -0.132 N 
ATOM     42  H9  UNL     1      -3.422  -0.992  -0.868  1.00  0.00     0.187 HD
HETATM   43  C15 UNL     1      -5.521  -2.936   0.638  1.00  0.00     0.691 A 
ATOM     44  H10 UNL     1      -3.603  -3.105  -0.025  1.00  0.00     0.205 HD
HETATM   45  N12 UNL     1      -6.549  -2.101   0.722  1.00  0.00    -0.176 N 
HETATM   46  C16 UNL     1      -6.463  -0.830   0.226  1.00  0.00     0.160 A 
ATOM     47  H12 UNL     1      -7.415  -2.412   1.163  1.00  0.00     0.185 HD
HETATM   48  N13 UNL     1      -7.585  -0.017   0.375  1.00  0.00    -0.080 NA
BRANCH  43  49
HETATM   49  N11 UNL     1      -5.569  -4.141   1.096  1.00  0.00    -0.233 N 
ATOM     50 2H11 UNL     1      -4.779  -4.783   1.031  1.00  0.00     0.174 HD
ATOM     51 1H11 UNL     1      -6.417  -4.488   1.544  1.00  0.00     0.174 HD
ENDBRANCH  43  49
ENDBRANCH  14  39
BRANCH  15  52
HETATM   52  O5  UNL     1      -7.111   1.971  -1.615  1.00  0.00    -0.272 OA
ATOM     53  H5  UNL     1      -7.252   1.224  -2.184  1.00  0.00     0.245 HD
ENDBRANCH  15  52
TORSDOF 15
