REMARK  14 active torsions:
REMARK  status: ('A' for Active; 'I' for Inactive)
REMARK    1  A    between atoms: O1_2  and  N1_3 
REMARK       I    between atoms: N1_3  and  C2_5 
REMARK    2  A    between atoms: C2_5  and  C3_7 
REMARK    3  A    between atoms: C4_12  and  C5_13 
REMARK    4  A    between atoms: C5_13  and  N4_14 
REMARK    5  A    between atoms: C5_13  and  C14_44 
REMARK    6  A    between atoms: N4_14  and  C6_16 
REMARK    7  A    between atoms: C8_20  and  N6_21 
REMARK    8  A    between atoms: C9_26  and  N8_27 
REMARK    9  A    between atoms: N10_33  and  C11_34 
REMARK   10  A    between atoms: C11_34  and  C12_35 
REMARK   11  A    between atoms: C12_35  and  O3_36 
REMARK   12  A    between atoms: C12_35  and  O4_38 
REMARK   13  A    between atoms: C13_40  and  N11_41 
REMARK   14  A    between atoms: C15_47  and  O7_48 
ROOT
HETATM    1  C6  UNL     1      -1.017  -0.798  -1.171  1.00  0.00     0.147 A 
HETATM    2  N5  UNL     1      -0.799   0.351  -0.465  1.00  0.00    -0.334 N 
ATOM      3  H5  UNL     1       0.103   0.818  -0.564  1.00  0.00     0.168 HD
HETATM    4  C7  UNL     1      -1.715   0.896   0.353  1.00  0.00     0.123 A 
HETATM    5  C8  UNL     1      -1.472   2.060   1.056  1.00  0.00     0.145 A 
HETATM    6  N7  UNL     1      -2.385   2.610   1.875  1.00  0.00    -0.175 N 
ATOM      7  H7  UNL     1      -2.181   3.470   2.384  1.00  0.00     0.186 HD
HETATM    8  C9  UNL     1      -3.571   1.999   2.006  1.00  0.00     0.679 A 
HETATM    9  N9  UNL     1      -3.836   0.868   1.336  1.00  0.00    -0.174 N 
ATOM     10  H9  UNL     1      -4.747   0.426   1.455  1.00  0.00     0.186 HD
HETATM   11  C10 UNL     1      -2.935   0.295   0.508  1.00  0.00     0.155 A 
HETATM   12  N10 UNL     1      -3.192  -0.832  -0.164  1.00  0.00    -0.309 N 
HETATM   13  C13 UNL     1      -2.245  -1.376  -0.996  1.00  0.00     0.147 A 
ENDROOT
BRANCH   1  14
HETATM   14  N4  UNL     1      -0.055  -1.351  -2.006  1.00  0.00    -0.354 N 
ATOM     15  H4  UNL     1      -0.333  -2.213  -2.475  1.00  0.00     0.162 HD
BRANCH  14  16
HETATM   16  C5  UNL     1       1.272  -0.894  -2.309  1.00  0.00     0.241 C 
BRANCH  16  17
HETATM   17  C4  UNL     1       2.210  -0.839  -1.172  1.00  0.00     0.110 A 
HETATM   18  N3  UNL     1       3.276   0.005  -1.248  1.00  0.00    -0.296 N 
HETATM   19  N2  UNL     1       4.158   0.161  -0.313  1.00  0.00    -0.281 N 
ATOM     20  H3  UNL     1       3.387   0.553  -2.101  1.00  0.00     0.187 HD
HETATM   21  C3  UNL     1       4.074  -0.526   0.833  1.00  0.00     0.193 A 
ATOM     22  H2  UNL     1       4.927   0.816  -0.451  1.00  0.00     0.188 HD
HETATM   23  N12 UNL     1       3.042  -1.371   0.955  1.00  0.00    -0.316 N 
HETATM   24  C15 UNL     1       2.098  -1.558  -0.010  1.00  0.00     0.169 A 
ATOM     25  H12 UNL     1       2.958  -1.905   1.820  1.00  0.00     0.169 HD
BRANCH  21  26
HETATM   26  C2  UNL     1       5.082  -0.342   1.859  1.00  0.00     0.310 C 
HETATM   27  N1  UNL     1       6.168   0.531   1.624  1.00  0.00    -0.229 N 
ATOM     28  H1  UNL     1       6.225   1.022   0.732  1.00  0.00     0.198 HD
HETATM   29  O2  UNL     1       5.020  -0.942   2.962  1.00  0.00    -0.262 OA
BRANCH  27  30
HETATM   30  O1  UNL     1       7.123   0.732   2.538  1.00  0.00    -0.282 OA
HETATM   31  C1  UNL     1       8.334   0.304   2.004  1.00  0.00     0.237 C 
ENDBRANCH  27  30
ENDBRANCH  21  26
BRANCH  24  32
HETATM   32  O7  UNL     1       1.061  -2.469   0.212  1.00  0.00    -0.344 OA
ATOM     33  H7  UNL     1       0.983  -2.967   1.017  1.00  0.00     0.219 HD
ENDBRANCH  24  32
ENDBRANCH  16  17
BRANCH  16  34
HETATM   34  C14 UNL     1       1.131   0.480  -2.869  1.00  0.00     0.203 C 
HETATM   35  O5  UNL     1       0.046   1.024  -3.091  1.00  0.00    -0.646 OA
HETATM   36  O6  UNL     1       2.311   1.193  -3.160  1.00  0.00    -0.646 OA
ENDBRANCH  16  34
ENDBRANCH  14  16
ENDBRANCH   1  14
BRANCH  13  37
HETATM   37  N11 UNL     1      -2.564  -2.443  -1.588  1.00  0.00    -0.382 N 
ATOM     38 2H11 UNL     1      -1.860  -2.847  -2.206  1.00  0.00     0.157 HD
ATOM     39 1H11 UNL     1      -3.479  -2.874  -1.458  1.00  0.00     0.157 HD
ENDBRANCH  13  37
BRANCH  12  40
HETATM   40  C11 UNL     1      -4.461  -1.505  -0.001  1.00  0.00     0.192 C 
BRANCH  40  41
HETATM   41  C12 UNL     1      -5.537  -1.037  -0.932  1.00  0.00     0.272 C 
BRANCH  41  42
HETATM   42  O3  UNL     1      -5.198  -1.221  -2.247  1.00  0.00    -0.370 OA
ATOM     43  H3  UNL     1      -5.880  -0.924  -2.837  1.00  0.00     0.212 HD
ENDBRANCH  41  42
BRANCH  41  44
HETATM   44  O4  UNL     1      -6.734  -1.709  -0.599  1.00  0.00    -0.370 OA
ATOM     45  H4  UNL     1      -7.416  -1.412  -1.189  1.00  0.00     0.212 HD
ENDBRANCH  41  44
ENDBRANCH  40  41
ENDBRANCH  12  40
BRANCH   5  46
HETATM   46  N6  UNL     1      -0.337   2.665   0.944  1.00  0.00    -0.383 N 
ATOM     47  H62 UNL     1       0.356   2.248   0.323  1.00  0.00     0.157 HD
ATOM     48  H61 UNL     1      -0.158   3.525   1.463  1.00  0.00     0.157 HD
ENDBRANCH   5  46
BRANCH   8  49
HETATM   49  N8  UNL     1      -4.483   2.487   2.781  1.00  0.00    -0.234 N 
ATOM     50  H82 UNL     1      -4.281   3.347   3.291  1.00  0.00     0.174 HD
ATOM     51  H81 UNL     1      -5.385   2.022   2.881  1.00  0.00     0.174 HD
ENDBRANCH   8  49
TORSDOF 14
