REMARK  15 active torsions:
REMARK  status: ('A' for Active; 'I' for Inactive)
REMARK    1  A    between atoms: C3_4  and  S1_5 
REMARK    2  A    between atoms: S1_5  and  S2_6 
REMARK    3  A    between atoms: S2_6  and  C4_7 
REMARK    4  A    between atoms: C4_7  and  C5_8 
REMARK    5  A    between atoms: C5_8  and  N1_9 
REMARK    6  A    between atoms: N1_9  and  C6_11 
REMARK    7  A    between atoms: C6_11  and  O2_12 
REMARK    8  A    between atoms: C6_11  and  C7_14 
REMARK    9  A    between atoms: C8_17  and  C9_18 
REMARK   10  A    between atoms: C9_18  and  S3_20 
REMARK   11  A    between atoms: S3_20  and  N3_21 
REMARK   12  A    between atoms: N3_21  and  N4_22 
REMARK   13  A    between atoms: C12_31  and  O4_32 
REMARK   14  A    between atoms: C13_34  and  O5_35 
REMARK   15  A    between atoms: C14_37  and  N6_38 
ROOT
HETATM    1  N1  UNL     1       1.440   0.101  -1.654  1.00  0.00    -0.371 N 
ATOM      2  H1  UNL     1       1.392  -0.119  -2.649  1.00  0.00     0.161 HD
ENDROOT
BRANCH   1   3
HETATM    3  C5  UNL     1       0.589  -0.620  -0.844  1.00  0.00     0.069 C 
BRANCH   3   4
HETATM    4  C4  UNL     1      -0.574   0.158  -0.255  1.00  0.00     0.130 C 
BRANCH   4   5
HETATM    5  S2  UNL     1      -1.569  -0.956   0.776  1.00  0.00    -0.090 SA
BRANCH   5   6
HETATM    6  S1  UNL     1      -3.188   0.138   1.657  1.00  0.00    -0.062 SA
BRANCH   6   7
HETATM    7  C3  UNL     1      -4.591   0.026   0.494  1.00  0.00     0.225 C 
HETATM    8  O1  UNL     1      -5.028  -1.271   0.471  1.00  0.00    -0.365 OA
HETATM    9  C2  UNL     1      -6.179  -1.526  -0.221  1.00  0.00     0.152 C 
HETATM   10  C1  UNL     1      -5.973  -1.687  -1.715  1.00  0.00     0.042 C 
HETATM   11  C14 UNL     1      -7.297  -0.583   0.100  1.00  0.00     0.243 C 
HETATM   12  C13 UNL     1      -6.793   0.830  -0.126  1.00  0.00     0.183 C 
HETATM   13  C12 UNL     1      -5.645   1.051   0.829  1.00  0.00     0.188 C 
BRANCH  11  14
HETATM   14  N6  UNL     1      -7.683  -0.701   1.472  1.00  0.00    -0.070 N 
ATOM     15  H63 UNL     1      -7.919  -1.663   1.716  1.00  0.00     0.274 HD
ATOM     16  H62 UNL     1      -6.889  -0.573   2.100  1.00  0.00     0.274 HD
ATOM     17  H61 UNL     1      -8.445  -0.059   1.691  1.00  0.00     0.274 HD
ENDBRANCH  11  14
BRANCH  12  18
HETATM   18  O5  UNL     1      -7.780   1.783  -0.052  1.00  0.00    -0.391 OA
ATOM     19  H5  UNL     1      -8.502   1.644  -0.653  1.00  0.00     0.210 HD
ENDBRANCH  12  18
BRANCH  13  20
HETATM   20  O4  UNL     1      -6.026   1.015   2.159  1.00  0.00    -0.389 OA
ATOM     21  H4  UNL     1      -6.690   1.661   2.370  1.00  0.00     0.210 HD
ENDBRANCH  13  20
ENDBRANCH   6   7
ENDBRANCH   5   6
ENDBRANCH   4   5
ENDBRANCH   3   4
ENDBRANCH   1   3
BRANCH   1  22
HETATM   22  C6  UNL     1       2.357   1.089  -1.301  1.00  0.00     0.267 C 
BRANCH  22  23
HETATM   23  O2  UNL     1       2.861   1.520  -2.620  1.00  0.00    -0.371 OA
ATOM     24  H2  UNL     1       3.486   2.194  -2.379  1.00  0.00     0.212 HD
ENDBRANCH  22  23
BRANCH  22  25
HETATM   25  C7  UNL     1       3.564   0.731  -0.498  1.00  0.00     0.073 C 
HETATM   26  N2  UNL     1       4.209  -0.433  -1.068  1.00  0.00    -0.377 N 
HETATM   27  C8  UNL     1       5.357  -0.907  -0.395  1.00  0.00     0.190 C 
ATOM     28  H2  UNL     1       3.854  -0.886  -1.910  1.00  0.00     0.160 HD
HETATM   29  C10 UNL     1       5.020  -0.972   1.099  1.00  0.00     0.267 C 
HETATM   30  N5  UNL     1       4.916   0.428   1.494  1.00  0.00    -0.054 N 
HETATM   31  C11 UNL     1       3.661   0.972   0.925  1.00  0.00     0.307 C 
ATOM     32  H52 UNL     1       4.981   0.559   2.503  1.00  0.00     0.279 HD
ATOM     33  H51 UNL     1       5.737   0.974   1.232  1.00  0.00     0.279 HD
HETATM   34  S4  UNL     1       2.361   0.481   2.038  1.00  0.00    -0.056 SA
BRANCH  27  35
HETATM   35  C9  UNL     1       6.588  -0.094  -0.546  1.00  0.00     0.228 C 
HETATM   36  O3  UNL     1       6.709   0.921  -1.173  1.00  0.00    -0.282 OA
BRANCH  35  37
HETATM   37  S3  UNL     1       8.039  -0.722   0.315  1.00  0.00     0.039 SA
BRANCH  37  38
HETATM   38  N3  UNL     1       9.392   0.377   0.074  1.00  0.00    -0.065 NA
BRANCH  38  39
HETATM   39  N4  UNL     1       9.958   0.791   1.307  1.00  0.00    -0.337 N 
ATOM     40  H42 UNL     1       9.611   0.480   2.215  1.00  0.00     0.173 HD
ATOM     41  H41 UNL     1      10.742   1.428   1.167  1.00  0.00     0.173 HD
ENDBRANCH  38  39
ENDBRANCH  37  38
ENDBRANCH  35  37
ENDBRANCH  27  35
ENDBRANCH  22  25
ENDBRANCH   1  22
TORSDOF 15
