REMARK  8 active torsions:
REMARK  status: ('A' for Active; 'I' for Inactive)
REMARK       I    between atoms: C2_2  and  N1_4 
REMARK    1  A    between atoms: N1_4  and  C3_6 
REMARK    2  A    between atoms: C3_6  and  C6_9 
REMARK    3  A    between atoms: C6_9  and  C9_12 
REMARK    4  A    between atoms: C10_13  and  O2_14 
REMARK    5  A    between atoms: C11_16  and  C12_17 
REMARK    6  A    between atoms: C12_17  and  O3_18 
REMARK    7  A    between atoms: C12_17  and  N2_20 
REMARK    8  A    between atoms: N3_27  and  C18_28 
ROOT
HETATM    1  C9  UNL     1      -0.628   1.074   0.162  1.00  0.00     0.056 A 
HETATM    2  C10 UNL     1       0.551   0.806   0.892  1.00  0.00     0.101 A 
HETATM    3  C11 UNL     1       1.642   1.060   0.123  1.00  0.00     0.051 A 
HETATM    4  C17 UNL     1       1.157   1.481  -1.070  1.00  0.00     0.106 A 
HETATM    5  N3  UNL     1      -0.213   1.498  -1.070  1.00  0.00    -0.352 N 
ENDROOT
BRANCH   1   6
HETATM    6  C6  UNL     1      -1.993   0.877   0.565  1.00  0.00     0.022 C 
HETATM    7  C7  UNL     1      -2.140   1.647   1.914  1.00  0.00     0.024 C 
HETATM    8  C8  UNL     1      -2.968   1.486  -0.414  1.00  0.00     0.024 C 
BRANCH   6   9
HETATM    9  C3  UNL     1      -2.501  -0.497   0.861  1.00  0.00     0.038 C 
HETATM   10  C4  UNL     1      -1.943  -1.233   2.026  1.00  0.00     0.039 C 
HETATM   11  C5  UNL     1      -3.998  -0.457   1.094  1.00  0.00     0.039 C 
BRANCH   9  12
HETATM   12  N1  UNL     1      -2.414  -1.324  -0.367  1.00  0.00    -0.352 N 
HETATM   13  C2  UNL     1      -2.981  -2.576  -0.544  1.00  0.00     0.214 C 
HETATM   14  C1  UNL     1      -2.814  -3.288  -1.835  1.00  0.00     0.117 C 
HETATM   15  O1  UNL     1      -3.640  -3.157   0.337  1.00  0.00    -0.274 OA
ATOM     16  H1  UNL     1      -1.890  -0.937  -1.152  1.00  0.00     0.163 HD
ENDBRANCH   9  12
ENDBRANCH   6   9
ENDBRANCH   1   6
BRANCH   2  17
HETATM   17  O2  UNL     1       0.616   0.360   2.185  1.00  0.00    -0.358 OA
ATOM     18  H2  UNL     1       1.409   0.180   2.676  1.00  0.00     0.217 HD
ENDBRANCH   2  17
BRANCH   5  19
HETATM   19  C18 UNL     1      -0.916   1.893  -2.263  1.00  0.00     0.089 A 
HETATM   20  C19 UNL     1      -0.053   2.624  -3.331  1.00  0.00     0.028 A 
HETATM   21  C20 UNL     1      -1.199   3.254  -2.716  1.00  0.00     0.028 A 
ENDBRANCH   5  19
BRANCH   3  22
HETATM   22  C12 UNL     1       3.072   0.894   0.546  1.00  0.00     0.395 C 
BRANCH  22  23
HETATM   23  O3  UNL     1       3.733   2.046   0.108  1.00  0.00    -0.364 OA
ATOM     24  H3  UNL     1       4.638   1.941   0.376  1.00  0.00     0.212 HD
ENDBRANCH  22  23
BRANCH  22  25
HETATM   25  N2  UNL     1       3.667  -0.262  -0.093  1.00  0.00     0.126 N 
HETATM   26  C13 UNL     1       5.032  -0.462   0.275  1.00  0.00     0.302 C 
HETATM   27  C14 UNL     1       5.423  -1.921   0.351  1.00  0.00     0.198 C 
HETATM   28  O4  UNL     1       4.678  -2.620   1.295  1.00  0.00    -0.388 OA
HETATM   29  C15 UNL     1       3.383  -2.111   1.427  1.00  0.00     0.198 C 
HETATM   30  C16 UNL     1       2.939  -1.470   0.121  1.00  0.00     0.302 C 
ENDBRANCH  22  25
ENDBRANCH   3  22
TORSDOF 8
