REMARK  7 active torsions:
REMARK  status: ('A' for Active; 'I' for Inactive)
REMARK       I    between atoms: C2_5  and  N3_6 
REMARK       I    between atoms: C2_5  and  N5_23 
REMARK    1  A    between atoms: N3_6  and  C3_8 
REMARK    2  A    between atoms: C3_8  and  C4_9 
REMARK    3  A    between atoms: C3_8  and  C5_14 
REMARK    4  A    between atoms: N4_10  and  O1_12 
REMARK    5  A    between atoms: C5_14  and  S1_15 
REMARK    6  A    between atoms: S1_15  and  C6_18 
REMARK    7  A    between atoms: N5_23  and  C10_25 
ROOT
HETATM    1  N1  UNL     1       0.896  -3.605   1.549  1.00  0.00    -0.171 NA
HETATM    2  C1  UNL     1       0.597  -2.927   0.669  1.00  0.00     0.196 C 
HETATM    3  N2  UNL     1       0.228  -2.095  -0.406  1.00  0.00    -0.126 N 
ATOM      4  H2  UNL     1      -0.219  -2.479  -1.238  1.00  0.00     0.197 HD
HETATM    5  C2  UNL     1       0.472  -0.836  -0.307  1.00  0.00     0.683 C 
HETATM    6  N3  UNL     1       0.116   0.033  -1.368  1.00  0.00    -0.216 N 
ATOM      7  H3  UNL     1       0.774   0.734  -1.708  1.00  0.00     0.178 HD
HETATM    8  N5  UNL     1       1.092  -0.262   0.833  1.00  0.00    -0.221 N 
ATOM      9  H5  UNL     1       0.604  -0.294   1.728  1.00  0.00     0.178 HD
ENDROOT
BRANCH   6  10
HETATM   10  C3  UNL     1      -1.194  -0.092  -1.958  1.00  0.00     0.154 C 
BRANCH  10  11
HETATM   11  C4  UNL     1      -1.398   0.882  -3.040  1.00  0.00     0.113 C 
HETATM   12  N4  UNL     1      -1.103   0.576  -4.240  1.00  0.00    -0.282 N 
ATOM     13  H4  UNL     1      -1.245   1.251  -4.991  1.00  0.00     0.192 HD
BRANCH  12  14
HETATM   14  O1  UNL     1      -0.596  -0.661  -4.516  1.00  0.00    -0.290 OA
ATOM     15  H1  UNL     1      -0.376  -0.889  -5.411  1.00  0.00     0.244 HD
ENDBRANCH  12  14
ENDBRANCH  10  11
BRANCH  10  16
HETATM   16  C5  UNL     1      -2.203   0.045  -0.846  1.00  0.00     0.177 C 
BRANCH  16  17
HETATM   17  S1  UNL     1      -3.864  -0.092  -1.454  1.00  0.00     0.184 S 
HETATM   18  O2  UNL     1      -4.209   0.995  -2.421  1.00  0.00    -0.222 OA
HETATM   19  O3  UNL     1      -4.096  -1.463  -2.018  1.00  0.00    -0.222 OA
BRANCH  17  20
HETATM   20  C6  UNL     1      -4.966   0.081  -0.081  1.00  0.00     0.099 A 
HETATM   21  C7  UNL     1      -4.640   0.286   1.234  1.00  0.00     0.031 A 
HETATM   22  C8  UNL     1      -5.645   0.388   2.111  1.00  0.00     0.009 A 
HETATM   23  C9  UNL     1      -6.920   0.278   1.618  1.00  0.00     0.051 A 
HETATM   24  S2  UNL     1      -6.669   0.037  -0.049  1.00  0.00    -0.090 SA
ENDBRANCH  17  20
ENDBRANCH  16  17
ENDBRANCH  10  16
ENDBRANCH   6  10
BRANCH   8  25
HETATM   25  C10 UNL     1       2.397   0.369   0.768  1.00  0.00     0.099 C 
HETATM   26  C11 UNL     1       3.380  -0.705   0.293  1.00  0.00     0.026 C 
HETATM   27  C12 UNL     1       4.776  -0.158   0.181  1.00  0.00     0.002 C 
HETATM   28  C13 UNL     1       4.909   1.217   0.768  1.00  0.00     0.000 C 
HETATM   29  C14 UNL     1       4.216   1.386   2.083  1.00  0.00     0.002 C 
HETATM   30  C15 UNL     1       2.848   0.789   2.138  1.00  0.00     0.026 C 
ENDBRANCH   8  25
TORSDOF 7
