REMARK  11 active torsions:
REMARK  status: ('A' for Active; 'I' for Inactive)
REMARK    1  A    between atoms: C2_2  and  C4_4 
REMARK    2  A    between atoms: C5_5  and  C6_6 
REMARK    3  A    between atoms: C6_6  and  C9_9 
REMARK    4  A    between atoms: C10_10  and  O1_11 
REMARK    5  A    between atoms: C11_13  and  C12_14 
REMARK    6  A    between atoms: C12_14  and  O2_15 
REMARK    7  A    between atoms: C12_14  and  C15_19 
REMARK    8  A    between atoms: O2_15  and  C13_16 
REMARK    9  A    between atoms: C15_19  and  O4_21 
REMARK   10  A    between atoms: C17_25  and  C18_26 
REMARK   11  A    between atoms: C18_26  and  O7_29 
ROOT
HETATM    1  C9  UNL     1      -0.641   0.863  -0.544  1.00  0.00     0.064 C 
HETATM    2  C10 UNL     1       0.506  -0.153  -0.327  1.00  0.00     0.160 C 
HETATM    3  C11 UNL     1       1.690   0.483   0.353  1.00  0.00     0.221 C 
HETATM    4  O5  UNL     1       1.401   1.464   1.252  1.00  0.00    -0.230 OA
HETATM    5  O6  UNL     1       0.493   2.321   0.948  1.00  0.00    -0.231 OA
HETATM    6  C17 UNL     1      -0.010   2.167  -0.347  1.00  0.00     0.201 C 
ENDROOT
BRANCH   3   7
HETATM    7  C12 UNL     1       2.411  -0.615   1.112  1.00  0.00     0.194 C 
BRANCH   7   8
HETATM    8  O2  UNL     1       2.745  -1.672   0.234  1.00  0.00    -0.311 OA
BRANCH   8   9
HETATM    9  C13 UNL     1       2.332  -2.978   0.384  1.00  0.00     0.255 C 
HETATM   10  C14 UNL     1       2.715  -4.058  -0.578  1.00  0.00     0.126 C 
HETATM   11  O3  UNL     1       1.605  -3.276   1.366  1.00  0.00    -0.266 OA
ENDBRANCH   8   9
ENDBRANCH   7   8
BRANCH   7  12
HETATM   12  C15 UNL     1       3.656  -0.109   1.790  1.00  0.00     0.146 C 
HETATM   13  C16 UNL     1       4.712   0.358   0.837  1.00  0.00     0.042 C 
BRANCH  12  14
HETATM   14  O4  UNL     1       3.370   0.937   2.666  1.00  0.00    -0.393 OA
ATOM     15  H4  UNL     1       4.156   1.256   3.094  1.00  0.00     0.210 HD
ENDBRANCH  12  14
ENDBRANCH   7  12
ENDBRANCH   3   7
BRANCH   2  16
HETATM   16  O1  UNL     1       0.957  -0.666  -1.547  1.00  0.00    -0.392 OA
ATOM     17  H1  UNL     1       1.661  -1.290  -1.414  1.00  0.00     0.210 HD
ENDBRANCH   2  16
BRANCH   1  18
HETATM   18  C6  UNL     1      -1.769   0.385   0.273  1.00  0.00    -0.021 C 
HETATM   19  C7  UNL     1      -1.522   0.292   1.749  1.00  0.00     0.019 C 
HETATM   20  C8  UNL     1      -3.065   1.188   0.086  1.00  0.00     0.019 C 
BRANCH  18  21
HETATM   21  C5  UNL     1      -2.127  -0.975  -0.194  1.00  0.00    -0.017 C 
HETATM   22  C4  UNL     1      -3.118  -1.650   0.340  1.00  0.00     0.002 C 
BRANCH  22  23
HETATM   23  C2  UNL     1      -3.458  -2.979  -0.126  1.00  0.00    -0.072 C 
HETATM   24  C1  UNL     1      -4.449  -3.639   0.417  1.00  0.00     0.018 C 
HETATM   25  C3  UNL     1      -2.688  -3.602  -1.221  1.00  0.00     0.047 C 
ENDBRANCH  22  23
ENDBRANCH  18  21
ENDBRANCH   1  18
BRANCH   6  26
HETATM   26  C18 UNL     1      -0.597   3.407  -0.902  1.00  0.00     0.080 C 
HETATM   27  C19 UNL     1       0.537   4.458  -0.841  1.00  0.00     0.048 C 
HETATM   28  C20 UNL     1      -0.823   3.226  -2.409  1.00  0.00     0.048 C 
BRANCH  26  29
HETATM   29  O7  UNL     1      -1.635   3.995  -0.265  1.00  0.00    -0.388 OA
ATOM     30  H7  UNL     1      -2.012   4.791  -0.621  1.00  0.00     0.210 HD
ENDBRANCH  26  29
ENDBRANCH   6  26
TORSDOF 11
