REMARK  9 active torsions:
REMARK  status: ('A' for Active; 'I' for Inactive)
REMARK    1  A    between atoms: C11_11  and  O1_12 
REMARK    2  A    between atoms: C11_11  and  C12_14 
REMARK    3  A    between atoms: C12_14  and  N1_15 
REMARK    4  A    between atoms: N1_15  and  C13_16 
REMARK    5  A    between atoms: N1_15  and  S1_20 
REMARK    6  A    between atoms: C13_16  and  C14_17 
REMARK    7  A    between atoms: C14_17  and  O2_18 
REMARK    8  A    between atoms: S1_20  and  C15_21 
REMARK    9  A    between atoms: C15_21  and  C16_22 
ROOT
HETATM    1  C1  UNL     1      -4.972   0.714  -1.871  1.00  0.00     0.014 C 
HETATM    2  C2  UNL     1      -4.533  -0.261  -1.101  1.00  0.00    -0.085 C 
HETATM    3  C3  UNL     1      -5.439  -1.359  -0.680  1.00  0.00     0.034 C 
HETATM    4  C4  UNL     1      -5.246  -1.806   0.730  1.00  0.00     0.005 C 
HETATM    5  C5  UNL     1      -3.804  -1.853   1.167  1.00  0.00     0.009 C 
HETATM    6  C6  UNL     1      -3.182  -0.540   0.874  1.00  0.00     0.032 C 
HETATM    7  C7  UNL     1      -3.153  -0.291  -0.644  1.00  0.00     0.022 C 
HETATM    8  C8  UNL     1      -2.422   1.016  -0.665  1.00  0.00     0.024 C 
HETATM    9  C9  UNL     1      -1.330   0.799   0.391  1.00  0.00     0.086 C 
HETATM   10  C10 UNL     1      -0.054   0.412  -0.250  1.00  0.00     0.122 C 
HETATM   11  C11 UNL     1       0.911   1.227  -0.626  1.00  0.00     0.094 C 
HETATM   12  O4  UNL     1      -0.126  -0.971  -0.350  1.00  0.00    -0.198 OA
HETATM   13  O5  UNL     1      -1.082  -1.477   0.397  1.00  0.00    -0.223 OA
HETATM   14  C17 UNL     1      -1.690  -0.478   1.123  1.00  0.00     0.107 C 
HETATM   15  C18 UNL     1      -1.333  -0.456   2.566  1.00  0.00     0.050 C 
ENDROOT
BRANCH  11  16
HETATM   16  O1  UNL     1       0.740   2.581  -0.413  1.00  0.00    -0.361 OA
ATOM     17  H1  UNL     1       1.436   3.168  -0.684  1.00  0.00     0.217 HD
ENDBRANCH  11  16
BRANCH  11  18
HETATM   18  C12 UNL     1       2.147   0.753  -1.258  1.00  0.00     0.197 C 
BRANCH  18  19
HETATM   19  N1  UNL     1       3.360   1.042  -0.581  1.00  0.00    -0.348 N 
BRANCH  19  20
HETATM   20  C13 UNL     1       3.766   2.403  -0.520  1.00  0.00     0.157 C 
BRANCH  20  21
HETATM   21  C14 UNL     1       5.098   2.438   0.243  1.00  0.00     0.184 C 
BRANCH  21  22
HETATM   22  O2  UNL     1       6.067   1.678  -0.413  1.00  0.00    -0.399 OA
ATOM     23  H2  UNL     1       6.891   1.700   0.059  1.00  0.00     0.209 HD
ENDBRANCH  21  22
ENDBRANCH  20  21
ENDBRANCH  19  20
BRANCH  19  24
HETATM   24  S1  UNL     1       3.639   0.118   0.872  1.00  0.00    -0.049 SA
BRANCH  24  25
HETATM   25  C15 UNL     1       3.895  -1.628   0.463  1.00  0.00     0.196 C 
BRANCH  25  26
HETATM   26  C16 UNL     1       5.130  -1.850  -0.301  1.00  0.00     0.242 C 
HETATM   27  N2  UNL     1       6.347  -2.116   0.372  1.00  0.00    -0.061 NA
HETATM   28  O3  UNL     1       5.135  -1.811  -1.552  1.00  0.00    -0.276 OA
ENDBRANCH  25  26
ENDBRANCH  24  25
ENDBRANCH  19  24
ENDBRANCH  18  19
ENDBRANCH  11  18
TORSDOF 9
