REMARK  3 active torsions:
REMARK  status: ('A' for Active; 'I' for Inactive)
REMARK    1  A    between atoms: N1_1  and  C1_4 
REMARK    2  A    between atoms: C2_7  and  O1_8 
REMARK    3  A    between atoms: C3_10  and  C4_11 
ROOT
HETATM    1  C1  UNL     1      -0.193  -2.278  -0.220  1.00  0.00     0.679 A 
HETATM    2  N2  UNL     1       1.076  -1.883  -0.019  1.00  0.00    -0.170 N 
ATOM      3  H2  UNL     1       1.829  -2.570   0.020  1.00  0.00     0.186 HD
HETATM    4  C2  UNL     1       1.349  -0.555   0.132  1.00  0.00     0.174 A 
HETATM    5  C3  UNL     1       0.357   0.397   0.083  1.00  0.00     0.122 A 
HETATM    6  C5  UNL     1      -0.937  -0.034  -0.125  1.00  0.00     0.151 A 
HETATM    7  N4  UNL     1      -1.980   0.911  -0.181  1.00  0.00    -0.081 NA
HETATM    8  N5  UNL     1      -1.171  -1.355  -0.270  1.00  0.00    -0.178 N 
ATOM      9  H5  UNL     1      -2.130  -1.667  -0.424  1.00  0.00     0.185 HD
ENDROOT
BRANCH   1  10
HETATM   10  N1  UNL     1      -0.484  -3.536  -0.367  1.00  0.00    -0.234 N 
ATOM     11  H12 UNL     1       0.257  -4.236  -0.329  1.00  0.00     0.174 HD
ATOM     12  H11 UNL     1      -1.447  -3.836  -0.520  1.00  0.00     0.174 HD
ENDBRANCH   1  10
BRANCH   4  13
HETATM   13  O1  UNL     1       2.653  -0.113   0.342  1.00  0.00    -0.345 OA
ATOM     14  H1  UNL     1       2.843   0.812   0.447  1.00  0.00     0.219 HD
ENDBRANCH   4  13
BRANCH   5  15
HETATM   15  C4  UNL     1       0.689   1.807   0.249  1.00  0.00     0.272 C 
HETATM   16  N3  UNL     1       2.041   2.191   0.461  1.00  0.00    -0.057 NA
HETATM   17  O2  UNL     1      -0.162   2.720   0.216  1.00  0.00    -0.271 OA
ENDBRANCH   5  15
TORSDOF 3
