REMARK  3 active torsions:
REMARK  status: ('A' for Active; 'I' for Inactive)
REMARK    1  A    between atoms: C3_5  and  N2_6 
REMARK    2  A    between atoms: C4_11  and  N4_12 
REMARK       I    between atoms: N4_12  and  C5_14 
REMARK       I    between atoms: C5_14  and  N5_15 
REMARK       I    between atoms: C5_14  and  N6_19 
REMARK    3  A    between atoms: N7_23  and  N8_24 
ROOT
HETATM    1  C1  UNL     1      -3.249  -0.822  -0.169  1.00  0.00     0.092 C 
HETATM    2  C2  UNL     1      -2.135   0.163  -0.341  1.00  0.00     0.133 A 
HETATM    3  N1  UNL     1      -2.363   1.437  -0.691  1.00  0.00    -0.178 N 
ATOM      4  H1  UNL     1      -3.315   1.767  -0.849  1.00  0.00     0.185 HD
HETATM    5  C3  UNL     1      -1.320   2.274  -0.831  1.00  0.00     0.691 A 
HETATM    6  N3  UNL     1      -0.065   1.844  -0.623  1.00  0.00    -0.021 N 
ATOM      7  H3  UNL     1       0.711   2.497  -0.734  1.00  0.00     0.203 HD
HETATM    8  C4  UNL     1       0.197   0.545  -0.264  1.00  0.00     0.718 A 
HETATM    9  N7  UNL     1      -0.845  -0.244  -0.137  1.00  0.00    -0.080 N 
ENDROOT
BRANCH   8  10
HETATM   10  N4  UNL     1       1.376   0.238  -0.094  1.00  0.00    -0.171 N 
HETATM   11  C5  UNL     1       2.132  -0.882   0.256  1.00  0.00     0.494 C 
HETATM   12  N5  UNL     1       2.122  -0.998   1.726  1.00  0.00    -0.032 N 
HETATM   13  N6  UNL     1       3.573  -0.702  -0.051  1.00  0.00    -0.032 N 
ATOM     14  H53 UNL     1       2.439  -0.147   2.191  1.00  0.00     0.278 HD
ATOM     15  H52 UNL     1       1.179  -1.022   2.113  1.00  0.00     0.278 HD
ATOM     16  H51 UNL     1       2.674  -1.816   1.982  1.00  0.00     0.278 HD
ATOM     17  H63 UNL     1       3.714  -0.453  -1.030  1.00  0.00     0.278 HD
ATOM     18  H62 UNL     1       3.941   0.143   0.386  1.00  0.00     0.278 HD
ATOM     19  H61 UNL     1       4.125  -1.520   0.205  1.00  0.00     0.278 HD
ATOM     20  H4  UNL     1       1.982   1.042  -0.258  1.00  0.00     0.181 HD
ENDBRANCH   8  10
BRANCH   9  21
HETATM   21  N8  UNL     1      -0.657  -1.578   0.225  1.00  0.00    -0.323 N 
ATOM     22  H82 UNL     1      -1.466  -2.191   0.324  1.00  0.00     0.178 HD
ATOM     23  H81 UNL     1       0.305  -1.881   0.377  1.00  0.00     0.178 HD
ENDBRANCH   9  21
BRANCH   5  24
HETATM   24  N2  UNL     1      -1.598   3.490  -1.170  1.00  0.00    -0.234 N 
ATOM     25  H22 UNL     1      -2.551   3.817  -1.328  1.00  0.00     0.174 HD
ATOM     26  H21 UNL     1      -0.807   4.125  -1.276  1.00  0.00     0.174 HD
ENDBRANCH   5  24
TORSDOF 3
