REMARK  7 active torsions:
REMARK  status: ('A' for Active; 'I' for Inactive)
REMARK    1  A    between atoms: C2_2  and  O1_3 
REMARK    2  A    between atoms: O1_3  and  C3_4 
REMARK    3  A    between atoms: C3_4  and  C4_6 
REMARK    4  A    between atoms: C5_7  and  N1_8 
REMARK       I    between atoms: N1_8  and  C6_10 
REMARK    5  A    between atoms: C6_10  and  C7_12 
REMARK    6  A    between atoms: C8_13  and  C9_14 
REMARK    7  A    between atoms: C9_14  and  C10_16 
ROOT
HETATM    1  N1  UNL     1      -0.362  -0.212   0.068  1.00  0.00    -0.303 N 
ATOM      2  H1  UNL     1      -0.563  -0.652  -0.830  1.00  0.00     0.171 HD
HETATM    3  C6  UNL     1       0.980   0.088   0.440  1.00  0.00     0.247 C 
HETATM    4  O3  UNL     1       1.213   0.637   1.561  1.00  0.00    -0.268 OA
ENDROOT
BRANCH   1   5
HETATM    5  C5  UNL     1      -1.422   0.112   0.969  1.00  0.00     0.167 A 
HETATM    6  C4  UNL     1      -2.759  -0.114   0.754  1.00  0.00     0.099 A 
HETATM    7  C16 UNL     1      -3.373   0.375   1.917  1.00  0.00    -0.012 A 
HETATM    8  C14 UNL     1      -2.408   0.861   2.757  1.00  0.00     0.058 A 
HETATM    9  C17 UNL     1      -4.825   0.358   2.170  1.00  0.00     0.052 C 
HETATM   10  O5  UNL     1      -1.260   0.685   2.154  1.00  0.00    -0.297 OA
HETATM   11  C15 UNL     1      -2.580   1.485   4.118  1.00  0.00     0.077 C 
BRANCH   6  12
HETATM   12  C3  UNL     1      -3.459  -0.710  -0.372  1.00  0.00     0.298 C 
HETATM   13  O2  UNL     1      -2.835  -1.123  -1.373  1.00  0.00    -0.259 OA
BRANCH  12  14
HETATM   14  O1  UNL     1      -4.835  -0.856  -0.408  1.00  0.00    -0.318 OA
BRANCH  14  15
HETATM   15  C2  UNL     1      -5.528  -1.433  -1.496  1.00  0.00     0.174 C 
HETATM   16  C1  UNL     1      -5.334  -0.714  -2.787  1.00  0.00     0.034 C 
ENDBRANCH  14  15
ENDBRANCH  12  14
ENDBRANCH   6  12
ENDBRANCH   1   5
BRANCH   3  17
HETATM   17  C7  UNL     1       2.054  -0.240  -0.472  1.00  0.00     0.078 C 
HETATM   18  C8  UNL     1       3.294   0.039  -0.124  1.00  0.00     0.061 C 
BRANCH  18  19
HETATM   19  C9  UNL     1       4.383  -0.286  -1.032  1.00  0.00     0.191 C 
HETATM   20  O4  UNL     1       4.154  -0.819  -2.119  1.00  0.00    -0.287 OA
BRANCH  19  21
HETATM   21  C10 UNL     1       5.778   0.014  -0.673  1.00  0.00     0.078 A 
HETATM   22  S1  UNL     1       6.420   0.738   0.738  1.00  0.00    -0.079 SA
HETATM   23  C11 UNL     1       8.075   0.696   0.317  1.00  0.00     0.139 A 
HETATM   24  N2  UNL     1       8.043   0.129  -0.880  1.00  0.00    -0.362 N 
HETATM   25  C12 UNL     1       6.915  -0.223  -1.403  1.00  0.00     0.026 A 
ATOM     26  H2  UNL     1       8.912  -0.030  -1.390  1.00  0.00     0.165 HD
HETATM   27  C13 UNL     1       6.818  -0.876  -2.771  1.00  0.00     0.070 C 
ENDBRANCH  19  21
ENDBRANCH  18  19
ENDBRANCH   3  17
TORSDOF 7
