REMARK  7 active torsions:
REMARK  status: ('A' for Active; 'I' for Inactive)
REMARK    1  A    between atoms: C4_5  and  C5_6 
REMARK    2  A    between atoms: C5_6  and  N1_7 
REMARK    3  A    between atoms: C8_11  and  C9_12 
REMARK    4  A    between atoms: C9_12  and  O1_13 
REMARK    5  A    between atoms: C9_12  and  N2_15 
REMARK    6  A    between atoms: C14_20  and  C15_21 
REMARK    7  A    between atoms: C15_21  and  C16_22 
ROOT
HETATM    1  N1  UNL     1       2.141   0.694   1.678  1.00  0.00    -0.306 N 
HETATM    2  S2  UNL     1       2.796  -0.316   2.798  1.00  0.00    -0.014 SA
HETATM    3  C6  UNL     1       1.218  -0.929   2.525  1.00  0.00     0.027 A 
HETATM    4  C7  UNL     1       0.588  -2.105   3.198  1.00  0.00     0.060 C 
HETATM    5  C8  UNL     1       0.923   0.038   1.612  1.00  0.00     0.106 A 
ENDROOT
BRANCH   5   6
HETATM    6  C9  UNL     1      -0.208   0.448   0.820  1.00  0.00     0.167 C 
BRANCH   6   7
HETATM    7  O1  UNL     1      -0.140   1.619   0.205  1.00  0.00    -0.344 OA
ATOM      8  H1  UNL     1      -0.886   1.889  -0.317  1.00  0.00     0.219 HD
ENDBRANCH   6   7
BRANCH   6   9
HETATM    9  N2  UNL     1      -1.441  -0.166   0.544  1.00  0.00    -0.355 N 
HETATM   10  C10 UNL     1      -1.795  -1.467   1.004  1.00  0.00     0.125 C 
HETATM   11  C11 UNL     1      -2.968  -2.050   0.195  1.00  0.00     0.020 C 
HETATM   12  C12 UNL     1      -2.759  -1.625  -1.264  1.00  0.00     0.004 C 
HETATM   13  C13 UNL     1      -3.157  -0.168  -1.275  1.00  0.00     0.026 C 
HETATM   14  C14 UNL     1      -2.442   0.584  -0.223  1.00  0.00     0.096 C 
BRANCH  14  15
HETATM   15  C15 UNL     1      -3.419   1.265   0.712  1.00  0.00     0.138 C 
BRANCH  15  16
HETATM   16  C16 UNL     1      -4.408   2.051  -0.053  1.00  0.00     0.174 C 
HETATM   17  O2  UNL     1      -4.324   2.162  -1.302  1.00  0.00    -0.648 OA
HETATM   18  O3  UNL     1      -5.475   2.699   0.596  1.00  0.00    -0.648 OA
ENDBRANCH  15  16
ENDBRANCH  14  15
ENDBRANCH   6   9
ENDBRANCH   5   6
BRANCH   1  19
HETATM   19  C5  UNL     1       2.761   1.867   1.030  1.00  0.00     0.202 C 
BRANCH  19  20
HETATM   20  C4  UNL     1       3.477   1.343  -0.195  1.00  0.00     0.070 A 
HETATM   21  S1  UNL     1       2.915   1.179  -1.811  1.00  0.00    -0.085 SA
HETATM   22  C3  UNL     1       4.335   0.529  -2.510  1.00  0.00     0.076 A 
HETATM   23  C2  UNL     1       5.173   0.478  -1.425  1.00  0.00     0.012 A 
HETATM   24  C1  UNL     1       6.586  -0.052  -1.590  1.00  0.00     0.068 C 
HETATM   25  N3  UNL     1       4.714   0.891  -0.290  1.00  0.00    -0.356 N 
ATOM     26  H3  UNL     1       5.310   0.868   0.537  1.00  0.00     0.166 HD
ENDBRANCH  19  20
ENDBRANCH   1  19
TORSDOF 7
