REMARK  7 active torsions:
REMARK  status: ('A' for Active; 'I' for Inactive)
REMARK    1  A    between atoms: C2_2  and  C3_3 
REMARK    2  A    between atoms: C5_8  and  C6_9 
REMARK    3  A    between atoms: C6_9  and  C8_12 
REMARK    4  A    between atoms: C6_9  and  N3_14 
REMARK    5  A    between atoms: N3_14  and  C10_16 
REMARK    6  A    between atoms: C14_23  and  C15_24 
REMARK    7  A    between atoms: C15_24  and  C16_26 
ROOT
HETATM    1  C6  UNL     1      -1.990   0.342   0.463  1.00  0.00     0.167 C 
HETATM    2  C7  UNL     1      -1.479   1.664   0.850  1.00  0.00     0.098 C 
HETATM    3  N2  UNL     1      -1.053   2.699   1.157  1.00  0.00    -0.194 NA
ENDROOT
BRANCH   1   4
HETATM    4  C5  UNL     1      -0.787  -0.526   0.206  1.00  0.00     0.113 A 
HETATM    5  S1  UNL     1      -0.748  -2.239   0.130  1.00  0.00    -0.034 SA
HETATM    6  C4  UNL     1       0.941  -2.428  -0.167  1.00  0.00     0.173 A 
HETATM    7  N1  UNL     1       1.982  -3.269  -0.371  1.00  0.00    -0.336 N 
HETATM    8  N5  UNL     1       1.341  -1.154  -0.185  1.00  0.00    -0.227 N 
HETATM    9  C3  UNL     1       3.086  -2.520  -0.527  1.00  0.00     0.043 A 
ATOM     10  H1  UNL     1       1.936  -4.288  -0.401  1.00  0.00     0.168 HD
HETATM   11  C14 UNL     1       2.703  -1.206  -0.414  1.00  0.00     0.127 A 
HETATM   12  N4  UNL     1       0.470  -0.245   0.002  1.00  0.00    -0.285 N 
ATOM     13  H4  UNL     1       0.764   0.732  -0.008  1.00  0.00     0.188 HD
BRANCH   9  14
HETATM   14  C2  UNL     1       4.426  -3.109  -0.763  1.00  0.00     0.055 C 
HETATM   15  C1  UNL     1       5.311  -3.102   0.458  1.00  0.00     0.011 C 
ENDBRANCH   9  14
BRANCH  11  16
HETATM   16  C15 UNL     1       3.612  -0.086  -0.526  1.00  0.00     0.184 C 
HETATM   17  O1  UNL     1       4.849  -0.350  -0.744  1.00  0.00    -0.290 OA
BRANCH  16  18
HETATM   18  C16 UNL     1       3.251   1.341  -0.412  1.00  0.00     0.062 A 
HETATM   19  C17 UNL     1       4.243   2.180   0.361  1.00  0.00     0.013 A 
HETATM   20  C18 UNL     1       4.139   2.298  -1.125  1.00  0.00     0.013 A 
ENDBRANCH  16  18
ENDBRANCH  11  16
ENDBRANCH   1   4
BRANCH   1  21
HETATM   21  C8  UNL     1      -2.605  -0.240   1.725  1.00  0.00     0.049 C 
HETATM   22  C9  UNL     1      -1.572  -0.176   2.870  1.00  0.00     0.009 C 
ENDBRANCH   1  21
BRANCH   1  23
HETATM   23  N3  UNL     1      -2.775   0.333  -0.680  1.00  0.00    -0.388 N 
ATOM     24  H3  UNL     1      -2.420  -0.175  -1.491  1.00  0.00     0.156 HD
BRANCH  23  25
HETATM   25  C10 UNL     1      -4.007   0.962  -0.806  1.00  0.00     0.016 C 
HETATM   26  C11 UNL     1      -5.130   0.418   0.081  1.00  0.00     0.037 C 
HETATM   27  C12 UNL     1      -4.010   2.464  -0.577  1.00  0.00     0.037 C 
HETATM   28  C13 UNL     1      -4.504   0.769  -2.238  1.00  0.00     0.037 C 
ENDBRANCH  23  25
ENDBRANCH   1  23
TORSDOF 7
