REMARK  13 active torsions:
REMARK  status: ('A' for Active; 'I' for Inactive)
REMARK    1  A    between atoms: O1_2  and  N1_3 
REMARK    2  A    between atoms: N1_3  and  C2_4 
REMARK    3  A    between atoms: C2_4  and  C3_5 
REMARK    4  A    between atoms: C2_4  and  C14_38 
REMARK       I    between atoms: C3_5  and  N2_7 
REMARK    5  A    between atoms: N2_7  and  C4_9 
REMARK    6  A    between atoms: C4_9  and  C7_20 
REMARK    7  A    between atoms: N3_10  and  N4_12 
REMARK    8  A    between atoms: N4_12  and  C5_14 
REMARK       I    between atoms: C7_20  and  N7_22 
REMARK    9  A    between atoms: N7_22  and  C8_24 
REMARK   10  A    between atoms: C10_26  and  O4_27 
REMARK   11  A    between atoms: C11_29  and  N8_30 
REMARK   12  A    between atoms: C13_34  and  N9_35 
REMARK   13  A    between atoms: C16_41  and  N10_42 
ROOT
HETATM    1  C4  UNL     1      -0.376   0.502  -0.560  1.00  0.00     0.192 C 
HETATM    2  N3  UNL     1      -0.273   1.612  -1.130  1.00  0.00    -0.278 N 
ATOM      3  H3  UNL     1      -1.237   1.942  -1.164  1.00  0.00     0.189 HD
ENDROOT
BRANCH   1   4
HETATM    4  N2  UNL     1      -1.684   0.129  -0.195  1.00  0.00    -0.301 N 
HETATM    5  C3  UNL     1      -2.194  -1.012   0.442  1.00  0.00     0.293 C 
HETATM    6  O2  UNL     1      -1.559  -1.984   0.837  1.00  0.00    -0.264 OA
ATOM      7  H2  UNL     1      -2.395   0.819  -0.440  1.00  0.00     0.171 HD
BRANCH   5   8
HETATM    8  C2  UNL     1      -3.665  -1.031   0.654  1.00  0.00     0.234 C 
BRANCH   8   9
HETATM    9  N1  UNL     1      -4.341  -0.084   0.279  1.00  0.00    -0.274 NA
BRANCH   9  10
HETATM   10  O1  UNL     1      -4.713   1.005  -0.209  1.00  0.00    -0.214 OA
HETATM   11  C1  UNL     1      -5.948   1.657   0.003  1.00  0.00     0.255 C 
ENDBRANCH   9  10
ENDBRANCH   8   9
BRANCH   8  12
HETATM   12  C14 UNL     1      -4.291  -2.234   1.324  1.00  0.00     0.090 A 
HETATM   13  C15 UNL     1      -3.597  -3.302   1.789  1.00  0.00     0.086 A 
HETATM   14  S1  UNL     1      -4.855  -4.318   2.415  1.00  0.00    -0.064 SA
HETATM   15  C16 UNL     1      -6.163  -3.309   2.039  1.00  0.00     0.142 A 
HETATM   16  N11 UNL     1      -5.603  -2.257   1.462  1.00  0.00    -0.334 N 
ATOM     17  H11 UNL     1      -6.175  -1.480   1.131  1.00  0.00     0.168 HD
BRANCH  15  18
HETATM   18  N10 UNL     1      -7.449  -3.513   2.264  1.00  0.00    -0.380 N 
ATOM     19 2H10 UNL     1      -7.880  -4.323   2.708  1.00  0.00     0.158 HD
ATOM     20 1H10 UNL     1      -8.236  -2.906   2.038  1.00  0.00     0.158 HD
ENDBRANCH  15  18
ENDBRANCH   8  12
ENDBRANCH   5   8
ENDBRANCH   1   4
BRANCH   1  21
HETATM   21  C7  UNL     1       0.843  -0.265  -0.337  1.00  0.00     0.291 C 
HETATM   22  O3  UNL     1       0.704  -1.364   0.241  1.00  0.00    -0.264 OA
HETATM   23  N7  UNL     1       2.117   0.185  -0.741  1.00  0.00    -0.318 N 
ATOM     24  H7  UNL     1       2.170   1.094  -1.202  1.00  0.00     0.169 HD
BRANCH  23  25
HETATM   25  C8  UNL     1       3.321  -0.520  -0.559  1.00  0.00     0.071 A 
HETATM   26  C9  UNL     1       3.386  -1.858  -0.227  1.00  0.00     0.071 A 
HETATM   27  C10 UNL     1       4.599  -2.548  -0.124  1.00  0.00     0.101 A 
HETATM   28  C11 UNL     1       5.799  -1.925  -0.351  1.00  0.00     0.138 A 
HETATM   29  C12 UNL     1       5.727  -0.593  -0.681  1.00  0.00     0.077 A 
HETATM   30  C13 UNL     1       4.550   0.119  -0.790  1.00  0.00     0.132 A 
BRANCH  27  31
HETATM   31  O4  UNL     1       4.629  -3.911   0.218  1.00  0.00    -0.358 OA
ATOM     32  H4  UNL     1       5.453  -4.379   0.288  1.00  0.00     0.217 HD
ENDBRANCH  27  31
BRANCH  28  33
HETATM   33  N8  UNL     1       7.036  -2.613  -0.250  1.00  0.00    -0.113 N 
HETATM   34  O5  UNL     1       7.167  -3.535   0.551  1.00  0.00    -0.532 OA
HETATM   35  O6  UNL     1       8.100  -2.261  -1.041  1.00  0.00    -0.532 OA
ENDBRANCH  28  33
BRANCH  30  36
HETATM   36  N9  UNL     1       4.639   1.476  -1.131  1.00  0.00    -0.113 N 
HETATM   37  O7  UNL     1       3.923   2.364  -0.703  1.00  0.00    -0.532 OA
HETATM   38  O8  UNL     1       5.662   1.850  -1.994  1.00  0.00    -0.532 OA
ENDBRANCH  30  36
ENDBRANCH  23  25
ENDBRANCH   1  21
BRANCH   2  39
HETATM   39  N4  UNL     1       0.385   2.575  -1.702  1.00  0.00    -0.270 N 
ATOM     40  H4  UNL     1       0.789   2.377  -2.617  1.00  0.00     0.190 HD
BRANCH  39  41
HETATM   41  C5  UNL     1       0.601   3.907  -1.164  1.00  0.00     0.192 A 
HETATM   42  N5  UNL     1       0.349   5.056  -1.678  1.00  0.00    -0.345 N 
HETATM   43  C6  UNL     1       0.866   5.718  -0.494  1.00  0.00     0.249 A 
ATOM     44  H5  UNL     1      -0.052   5.375  -2.560  1.00  0.00     0.164 HD
HETATM   45  N6  UNL     1       1.129   4.399   0.049  1.00  0.00    -0.345 N 
ATOM     46  H6  UNL     1       1.516   4.008   0.908  1.00  0.00     0.164 HD
ENDBRANCH  39  41
ENDBRANCH   2  39
TORSDOF 13
