REMARK  12 active torsions:
REMARK  status: ('A' for Active; 'I' for Inactive)
REMARK    1  A    between atoms: C2_2  and  N1_3 
REMARK    2  A    between atoms: C2_2  and  C10_23 
REMARK       I    between atoms: N1_3  and  C3_5 
REMARK    3  A    between atoms: C3_5  and  C4_7 
REMARK    4  A    between atoms: C4_7  and  S1_8 
REMARK    5  A    between atoms: S1_8  and  C5_9 
REMARK    6  A    between atoms: C9_17  and  N5_18 
REMARK    7  A    between atoms: C10_23  and  N7_24 
REMARK    8  A    between atoms: C10_23  and  C15_38 
REMARK    9  A    between atoms: C11_26  and  C12_27 
REMARK   10  A    between atoms: C11_26  and  C13_30 
REMARK   11  A    between atoms: C15_38  and  O4_40 
REMARK   12  A    between atoms: O4_40  and  N11_41 
ROOT
HETATM    1  C5  UNL     1       4.249  -0.678  -0.652  1.00  0.00     0.147 A 
HETATM    2  N2  UNL     1       4.371   0.242   0.327  1.00  0.00    -0.324 N 
ATOM      3  H2  UNL     1       4.060   0.047   1.279  1.00  0.00     0.169 HD
HETATM    4  C6  UNL     1       4.919   1.427  -0.000  1.00  0.00     0.142 A 
HETATM    5  N3  UNL     1       5.091   2.449   0.983  1.00  0.00    -0.081 NA
HETATM    6  C7  UNL     1       5.350   1.708  -1.303  1.00  0.00     0.129 A 
HETATM    7  C8  UNL     1       5.936   2.956  -1.637  1.00  0.00     0.106 C 
HETATM    8  N4  UNL     1       6.443   3.982  -1.915  1.00  0.00    -0.191 NA
HETATM    9  C9  UNL     1       5.202   0.731  -2.271  1.00  0.00     0.125 A 
HETATM   10  N6  UNL     1       4.656  -0.438  -1.926  1.00  0.00    -0.322 N 
ATOM     11  H6  UNL     1       4.542  -1.165  -2.633  1.00  0.00     0.169 HD
ENDROOT
BRANCH   9  12
HETATM   12  N5  UNL     1       5.591   0.961  -3.496  1.00  0.00    -0.384 N 
ATOM     13  H52 UNL     1       6.008   1.854  -3.759  1.00  0.00     0.157 HD
ATOM     14  H51 UNL     1       5.482   0.241  -4.210  1.00  0.00     0.157 HD
ENDBRANCH   9  12
BRANCH   1  15
HETATM   15  S1  UNL     1       3.569  -2.284  -0.270  1.00  0.00    -0.085 SA
BRANCH  15  16
HETATM   16  C4  UNL     1       3.009  -2.339   1.473  1.00  0.00     0.185 C 
BRANCH  16  17
HETATM   17  C3  UNL     1       1.814  -1.454   1.646  1.00  0.00     0.227 C 
HETATM   18  N1  UNL     1       0.537  -1.897   1.113  1.00  0.00    -0.351 N 
ATOM     19  H1  UNL     1       0.484  -2.800   0.641  1.00  0.00     0.163 HD
HETATM   20  O1  UNL     1       1.958  -0.372   2.236  1.00  0.00    -0.273 OA
BRANCH  18  21
HETATM   21  C2  UNL     1      -0.658  -1.098   1.231  1.00  0.00     0.136 C 
HETATM   22  C1  UNL     1      -1.415  -1.469   2.481  1.00  0.00     0.039 C 
BRANCH  21  23
HETATM   23  C10 UNL     1      -1.467  -0.938  -0.001  1.00  0.00     0.110 C 
BRANCH  23  24
HETATM   24  N7  UNL     1      -2.426   0.055   0.037  1.00  0.00    -0.346 N 
HETATM   25  C11 UNL     1      -3.591   0.345   0.281  1.00  0.00     0.134 C 
ATOM     26  H7  UNL     1      -1.969   0.914  -0.269  1.00  0.00     0.166 HD
BRANCH  25  27
HETATM   27  C12 UNL     1      -4.709  -0.450   0.746  1.00  0.00     0.284 C 
HETATM   28  N8  UNL     1      -5.981   0.143   0.953  1.00  0.00    -0.056 NA
HETATM   29  O2  UNL     1      -4.648  -1.680   0.996  1.00  0.00    -0.269 OA
ENDBRANCH  25  27
BRANCH  25  30
HETATM   30  C13 UNL     1      -3.929   1.799   0.073  1.00  0.00     0.123 A 
HETATM   31  N9  UNL     1      -3.105   2.766  -0.321  1.00  0.00    -0.290 N 
HETATM   32  N10 UNL     1      -3.540   3.946  -0.465  1.00  0.00    -0.283 N 
ATOM     33  H9  UNL     1      -2.124   2.557  -0.507  1.00  0.00     0.187 HD
HETATM   34  C14 UNL     1      -4.832   4.190  -0.213  1.00  0.00     0.159 A 
ATOM     35  H10 UNL     1      -2.918   4.696  -0.767  1.00  0.00     0.188 HD
HETATM   36  S2  UNL     1      -5.643   5.622  -0.322  1.00  0.00    -0.051 SA
HETATM   37  S3  UNL     1      -5.393   2.640   0.241  1.00  0.00    -0.038 SA
ENDBRANCH  25  30
ENDBRANCH  23  24
BRANCH  23  38
HETATM   38  C15 UNL     1      -1.898  -2.197  -0.663  1.00  0.00     0.329 C 
HETATM   39  O3  UNL     1      -1.538  -3.339  -0.435  1.00  0.00    -0.256 OA
BRANCH  38  40
HETATM   40  O4  UNL     1      -2.854  -2.039  -1.701  1.00  0.00    -0.201 OA
BRANCH  40  41
HETATM   41  N11 UNL     1      -3.312  -3.164  -2.360  1.00  0.00    -0.302 N 
ATOM     42 2H11 UNL     1      -2.960  -4.083  -2.094  1.00  0.00     0.184 HD
ATOM     43 1H11 UNL     1      -3.999  -3.051  -3.106  1.00  0.00     0.184 HD
ENDBRANCH  40  41
ENDBRANCH  38  40
ENDBRANCH  23  38
ENDBRANCH  21  23
ENDBRANCH  18  21
ENDBRANCH  16  17
ENDBRANCH  15  16
ENDBRANCH   1  15
TORSDOF 12
