REMARK  12 active torsions:
REMARK  status: ('A' for Active; 'I' for Inactive)
REMARK    1  A    between atoms: C2_2  and  N1_3 
REMARK    2  A    between atoms: N1_3  and  N2_5 
REMARK    3  A    between atoms: N2_5  and  C4_7 
REMARK    4  A    between atoms: C6_9  and  N3_10 
REMARK    5  A    between atoms: C8_12  and  C9_13 
REMARK       I    between atoms: C9_13  and  N4_15 
REMARK    6  A    between atoms: N4_15  and  C10_17 
REMARK    7  A    between atoms: C12_21  and  C13_22 
REMARK    8  A    between atoms: C13_22  and  N6_23 
REMARK    9  A    between atoms: C13_22  and  O2_27 
REMARK   10  A    between atoms: C16_37  and  O3_38 
REMARK   11  A    between atoms: O3_38  and  C17_39 
REMARK   12  A    between atoms: C19_46  and  C20_47 
ROOT
HETATM    1  C4  UNL     1      -2.132  -0.176  -0.068  1.00  0.00     0.079 A 
HETATM    2  C5  UNL     1      -0.760  -0.070   0.001  1.00  0.00     0.065 A 
HETATM    3  C6  UNL     1      -0.035  -0.212   1.174  1.00  0.00     0.059 A 
HETATM    4  C14 UNL     1      -0.755  -0.470   2.303  1.00  0.00     0.034 A 
HETATM    5  C15 UNL     1      -2.133  -0.582   2.263  1.00  0.00     0.042 A 
HETATM    6  C16 UNL     1      -2.864  -0.447   1.121  1.00  0.00     0.105 A 
ENDROOT
BRANCH   3   7
HETATM    7  N3  UNL     1       1.379  -0.087   1.162  1.00  0.00    -0.251 N 
HETATM    8  C7  UNL     1       2.342  -1.026   1.145  1.00  0.00     0.154 A 
HETATM    9  C8  UNL     1       3.565  -0.393   1.119  1.00  0.00     0.135 A 
HETATM   10  N8  UNL     1       3.308   0.921   1.124  1.00  0.00    -0.279 N 
HETATM   11  N9  UNL     1       2.012   1.087   1.149  1.00  0.00    -0.235 N 
ATOM     12  H8  UNL     1       4.005   1.666   1.111  1.00  0.00     0.189 HD
ATOM     13  H9  UNL     1       1.546   1.994   1.157  1.00  0.00     0.209 HD
BRANCH   9  14
HETATM   14  C9  UNL     1       4.897  -1.039   1.074  1.00  0.00     0.289 C 
HETATM   15  O1  UNL     1       5.040  -2.280   1.085  1.00  0.00    -0.265 OA
HETATM   16  N4  UNL     1       6.036  -0.210   1.016  1.00  0.00    -0.154 N 
ATOM     17  H4  UNL     1       6.106   0.566   1.674  1.00  0.00     0.187 HD
BRANCH  16  18
HETATM   18  C10 UNL     1       6.984  -0.385   0.178  1.00  0.00     0.685 A 
HETATM   19  N5  UNL     1       7.039  -1.353  -0.743  1.00  0.00    -0.200 N 
HETATM   20  C11 UNL     1       8.198  -1.227  -1.462  1.00  0.00     0.136 A 
ATOM     21  H5  UNL     1       6.330  -2.072  -0.887  1.00  0.00     0.183 HD
HETATM   22  C12 UNL     1       8.825  -0.132  -0.913  1.00  0.00     0.098 A 
HETATM   23  N7  UNL     1       8.082   0.378   0.086  1.00  0.00    -0.190 N 
ATOM     24  H7  UNL     1       8.310   1.188   0.662  1.00  0.00     0.184 HD
BRANCH  22  25
HETATM   25  C13 UNL     1      10.152   0.377  -1.404  1.00  0.00     0.369 C 
BRANCH  25  26
HETATM   26  N6  UNL     1      10.047   1.812  -1.582  1.00  0.00    -0.047 N 
ATOM     27  H63 UNL     1       9.273   2.078  -2.191  1.00  0.00     0.277 HD
ATOM     28  H62 UNL     1       9.729   2.291  -0.740  1.00  0.00     0.277 HD
ATOM     29  H61 UNL     1      10.947   2.157  -1.915  1.00  0.00     0.277 HD
ENDBRANCH  25  26
BRANCH  25  30
HETATM   30  O2  UNL     1      11.103   0.124  -0.398  1.00  0.00    -0.365 OA
ATOM     31  H2  UNL     1      11.941   0.446  -0.708  1.00  0.00     0.212 HD
ENDBRANCH  25  30
ENDBRANCH  22  25
ENDBRANCH  16  18
ENDBRANCH   9  14
ENDBRANCH   3   7
BRANCH   1  32
HETATM   32  N2  UNL     1      -2.858  -0.007  -1.269  1.00  0.00    -0.317 N 
ATOM     33  H2  UNL     1      -3.531  -0.732  -1.519  1.00  0.00     0.181 HD
BRANCH  32  34
HETATM   34  N1  UNL     1      -2.728   1.049  -2.118  1.00  0.00    -0.235 NA
HETATM   35  C3  UNL     1      -1.500   1.084  -2.897  1.00  0.00     0.136 C 
BRANCH  34  36
HETATM   36  C2  UNL     1      -2.948   2.359  -1.606  1.00  0.00     0.108 C 
HETATM   37  C1  UNL     1      -4.285   2.454  -0.920  1.00  0.00     0.022 C 
ENDBRANCH  34  36
ENDBRANCH  32  34
ENDBRANCH   1  32
BRANCH   6  38
HETATM   38  O3  UNL     1      -4.230  -0.550   1.041  1.00  0.00    -0.288 OA
BRANCH  38  39
HETATM   39  C17 UNL     1      -5.138  -0.721   2.036  1.00  0.00     0.196 A 
HETATM   40  N10 UNL     1      -5.013  -0.804   3.366  1.00  0.00    -0.263 N 
HETATM   41  N11 UNL     1      -6.197  -0.966   3.893  1.00  0.00    -0.238 N 
ATOM     42  H10 UNL     1      -4.136  -0.750   3.884  1.00  0.00     0.190 HD
HETATM   43  N12 UNL     1      -7.131  -0.996   2.973  1.00  0.00    -0.275 N 
ATOM     44  H11 UNL     1      -6.373  -1.058   4.894  1.00  0.00     0.208 HD
HETATM   45  C18 UNL     1      -8.568  -1.158   3.178  1.00  0.00     0.179 C 
HETATM   46  C19 UNL     1      -6.517  -0.848   1.794  1.00  0.00     0.145 A 
BRANCH  46  47
HETATM   47  C20 UNL     1      -7.186  -0.859   0.494  1.00  0.00     0.143 C 
HETATM   48  N13 UNL     1      -8.465  -0.955   0.423  1.00  0.00    -0.386 N 
ATOM     49 2H13 UNL     1      -8.988  -1.004   1.297  1.00  0.00     0.157 HD
ATOM     50 1H13 UNL     1      -8.932  -0.963  -0.484  1.00  0.00     0.157 HD
HETATM   51  N14 UNL     1      -6.456  -0.791  -0.727  1.00  0.00    -0.081 NA
ENDBRANCH  46  47
ENDBRANCH  38  39
ENDBRANCH   6  38
TORSDOF 12
