REMARK  7 active torsions:
REMARK  status: ('A' for Active; 'I' for Inactive)
REMARK    1  A    between atoms: C1_2  and  C2_3 
REMARK    2  A    between atoms: C2_3  and  O2_4 
REMARK    3  A    between atoms: C2_3  and  C3_6 
REMARK       I    between atoms: C3_6  and  N1_8 
REMARK    4  A    between atoms: N1_8  and  C4_10 
REMARK    5  A    between atoms: C12_19  and  C13_20 
REMARK    6  A    between atoms: C13_20  and  O4_21 
REMARK    7  A    between atoms: C13_20  and  O5_23 
ROOT
HETATM    1  C4  UNL     1       0.118   0.425  -0.372  1.00  0.00     0.069 C 
HETATM    2  C5  UNL     1      -0.327   0.729  -1.781  1.00  0.00     0.034 C 
HETATM    3  C6  UNL     1      -1.454   1.725  -1.705  1.00  0.00     0.007 C 
HETATM    4  C7  UNL     1      -1.731   1.898  -0.229  1.00  0.00    -0.012 C 
HETATM    5  C8  UNL     1      -2.950   1.281   0.274  1.00  0.00     0.012 C 
HETATM    6  C9  UNL     1      -3.154  -0.129   0.440  1.00  0.00     0.043 C 
HETATM    7  C10 UNL     1      -2.303  -0.872   1.410  1.00  0.00     0.279 C 
HETATM    8  N2  UNL     1      -1.543  -1.338   0.283  1.00  0.00     0.101 N 
HETATM    9  C11 UNL     1      -2.616  -1.106  -0.544  1.00  0.00     0.279 C 
HETATM   10  C12 UNL     1      -0.247  -0.894   0.139  1.00  0.00     0.305 C 
HETATM   11  C14 UNL     1      -0.437   1.596   0.393  1.00  0.00     0.038 C 
ENDROOT
BRANCH   1  12
HETATM   12  N1  UNL     1       1.564   0.538  -0.345  1.00  0.00    -0.347 N 
HETATM   13  C3  UNL     1       2.414   0.451   0.752  1.00  0.00     0.254 C 
HETATM   14  O3  UNL     1       1.996   0.259   1.906  1.00  0.00    -0.270 OA
ATOM     15  H1  UNL     1       2.015   0.702  -1.245  1.00  0.00     0.163 HD
BRANCH  13  16
HETATM   16  C2  UNL     1       3.910   0.585   0.622  1.00  0.00     0.270 C 
BRANCH  16  17
HETATM   17  C1  UNL     1       4.487  -0.397  -0.312  1.00  0.00     0.272 C 
HETATM   18  O1  UNL     1       5.355  -1.139   0.038  1.00  0.00    -0.304 OA
ENDBRANCH  16  17
BRANCH  16  19
HETATM   19  O2  UNL     1       4.538   0.459   1.851  1.00  0.00    -0.379 OA
ATOM     20  H2  UNL     1       4.166   1.092   2.453  1.00  0.00     0.211 HD
ENDBRANCH  16  19
ENDBRANCH  13  16
ENDBRANCH   1  12
BRANCH  10  21
HETATM   21  C13 UNL     1       0.591  -1.966  -0.527  1.00  0.00     0.289 C 
BRANCH  21  22
HETATM   22  O4  UNL     1       0.149  -2.343  -1.770  1.00  0.00    -0.369 OA
ATOM     23  H4  UNL     1       0.675  -3.015  -2.188  1.00  0.00     0.212 HD
ENDBRANCH  21  22
BRANCH  21  24
HETATM   24  O5  UNL     1       0.568  -3.141   0.267  1.00  0.00    -0.369 OA
ATOM     25  H5  UNL     1       1.094  -3.813  -0.151  1.00  0.00     0.212 HD
ENDBRANCH  21  24
ENDBRANCH  10  21
TORSDOF 7
