REMARK  6 active torsions:
REMARK  status: ('A' for Active; 'I' for Inactive)
REMARK       I    between atoms: N2_3  and  C2_5 
REMARK    1  A    between atoms: C2_5  and  C3_7 
REMARK       I    between atoms: C3_7  and  N3_9 
REMARK    2  A    between atoms: N3_9  and  C4_11 
REMARK    3  A    between atoms: C4_11  and  C5_12 
REMARK    4  A    between atoms: C5_12  and  O3_13 
REMARK    5  A    between atoms: C5_12  and  N4_15 
REMARK    6  A    between atoms: N4_15  and  C6_17 
ROOT
HETATM    1  N1  UNL     1       7.414   2.527   0.240  1.00  0.00    -0.172 NA
HETATM    2  C1  UNL     1       6.805   1.586   0.410  1.00  0.00     0.184 C 
HETATM    3  N2  UNL     1       6.059   0.417   0.625  1.00  0.00    -0.256 N 
ATOM      4  H2  UNL     1       6.499  -0.419   1.011  1.00  0.00     0.181 HD
HETATM    5  C2  UNL     1       4.677   0.424   0.293  1.00  0.00     0.322 C 
HETATM    6  O1  UNL     1       4.132   1.437  -0.168  1.00  0.00    -0.261 OA
ENDROOT
BRANCH   5   7
HETATM    7  C3  UNL     1       3.882  -0.829   0.522  1.00  0.00     0.310 C 
HETATM    8  O2  UNL     1       4.505  -1.827   0.914  1.00  0.00    -0.262 OA
HETATM    9  N3  UNL     1       2.487  -0.760   0.262  1.00  0.00    -0.349 N 
ATOM     10  H3  UNL     1       2.049   0.116  -0.022  1.00  0.00     0.163 HD
BRANCH   9  11
HETATM   11  C4  UNL     1       1.721  -1.944   0.409  1.00  0.00     0.176 C 
BRANCH  11  12
HETATM   12  C5  UNL     1       0.245  -1.850   0.277  1.00  0.00     0.231 C 
BRANCH  12  13
HETATM   13  O3  UNL     1      -0.243  -3.198   0.342  1.00  0.00    -0.376 OA
ATOM     14  H3  UNL     1      -1.187  -3.138   0.258  1.00  0.00     0.212 HD
ENDBRANCH  12  13
BRANCH  12  15
HETATM   15  N4  UNL     1      -0.252  -1.064  -0.759  1.00  0.00    -0.386 N 
ATOM     16  H4  UNL     1       0.110  -1.170  -1.707  1.00  0.00     0.156 HD
BRANCH  15  17
HETATM   17  C6  UNL     1      -1.284  -0.100  -0.476  1.00  0.00     0.032 C 
HETATM   18  C7  UNL     1      -1.001   1.237  -1.207  1.00  0.00     0.035 C 
HETATM   19  C8  UNL     1      -2.420   1.780  -1.285  1.00  0.00    -0.011 C 
HETATM   20  C9  UNL     1      -2.992   1.985   0.112  1.00  0.00     0.009 C 
HETATM   21  C13 UNL     1      -3.109   0.595  -1.942  1.00  0.00     0.012 C 
HETATM   22  C10 UNL     1      -2.997   0.728   0.914  1.00  0.00    -0.011 C 
HETATM   23  C11 UNL     1      -3.576  -0.433   0.194  1.00  0.00     0.012 C 
HETATM   24  C14 UNL     1      -1.495   0.289   0.940  1.00  0.00     0.035 C 
HETATM   25  C12 UNL     1      -2.631  -0.526  -1.022  1.00  0.00     0.014 C 
ENDBRANCH  15  17
ENDBRANCH  12  15
ENDBRANCH  11  12
ENDBRANCH   9  11
ENDBRANCH   5   7
TORSDOF 6
