REMARK  6 active torsions:
REMARK  status: ('A' for Active; 'I' for Inactive)
REMARK    1  A    between atoms: C2_2  and  C4_4 
REMARK    2  A    between atoms: C4_4  and  N1_5 
REMARK    3  A    between atoms: C5_6  and  S1_7 
REMARK    4  A    between atoms: S1_7  and  C6_8 
REMARK    5  A    between atoms: C6_8  and  C7_9 
REMARK       I    between atoms: C7_9  and  N2_11 
REMARK    6  A    between atoms: C14_22  and  C15_23 
ROOT
HETATM    1  N1  UNL     1      -1.544  -0.799   0.621  1.00  0.00    -0.313 N 
HETATM    2  C5  UNL     1      -0.619  -1.779   0.743  1.00  0.00     0.163 A 
HETATM    3  N3  UNL     1      -0.855  -2.740  -0.218  1.00  0.00    -0.278 N 
ATOM      4  H3  UNL     1      -0.325  -3.598  -0.373  1.00  0.00     0.189 HD
HETATM    5  N4  UNL     1      -1.906  -2.321  -0.894  1.00  0.00    -0.285 N 
ATOM      6  H4  UNL     1      -2.330  -2.817  -1.678  1.00  0.00     0.188 HD
HETATM    7  C14 UNL     1      -2.338  -1.151  -0.405  1.00  0.00     0.134 A 
ENDROOT
BRANCH   2   8
HETATM    8  S1  UNL     1       0.770  -1.920   1.820  1.00  0.00    -0.083 SA
BRANCH   8   9
HETATM    9  C6  UNL     1       2.352  -1.496   1.194  1.00  0.00     0.185 C 
BRANCH   9  10
HETATM   10  C7  UNL     1       2.654  -0.125   0.803  1.00  0.00     0.229 C 
HETATM   11  O1  UNL     1       1.908   0.857   0.756  1.00  0.00    -0.273 OA
HETATM   12  N2  UNL     1       4.041   0.106   0.415  1.00  0.00    -0.351 N 
HETATM   13  C8  UNL     1       5.009  -0.943   0.447  1.00  0.00     0.126 C 
HETATM   14  C13 UNL     1       4.393   1.429   0.003  1.00  0.00     0.126 C 
HETATM   15  C9  UNL     1       5.934  -0.882  -0.718  1.00  0.00     0.024 C 
HETATM   16  C10 UNL     1       6.556   0.498  -0.842  1.00  0.00    -0.015 C 
HETATM   17  C11 UNL     1       7.408   0.872   0.332  1.00  0.00     0.010 C 
HETATM   18  C12 UNL     1       5.438   1.497  -1.059  1.00  0.00     0.024 C 
ENDBRANCH   9  10
ENDBRANCH   8   9
ENDBRANCH   2   8
BRANCH   1  19
HETATM   19  C4  UNL     1      -1.614   0.355   1.466  1.00  0.00     0.136 C 
BRANCH  19  20
HETATM   20  C2  UNL     1      -2.388   0.164   2.743  1.00  0.00    -0.004 C 
HETATM   21  C1  UNL     1      -2.325   1.517   3.469  1.00  0.00     0.011 C 
HETATM   22  C3  UNL     1      -3.799  -0.258   2.602  1.00  0.00     0.011 C 
ENDBRANCH  19  20
ENDBRANCH   1  19
BRANCH   7  23
HETATM   23  C15 UNL     1      -3.488  -0.404  -0.925  1.00  0.00     0.291 C 
HETATM   24  C16 UNL     1      -4.709  -1.340  -0.919  1.00  0.00     0.044 C 
HETATM   25  C17 UNL     1      -5.950  -0.621  -1.350  1.00  0.00     0.004 C 
HETATM   26  C18 UNL     1      -5.705  -0.011  -2.709  1.00  0.00     0.030 C 
HETATM   27  C19 UNL     1      -4.450   0.795  -2.661  1.00  0.00     0.273 C 
HETATM   28  N5  UNL     1      -3.319  -0.100  -2.359  1.00  0.00     0.096 N 
HETATM   29  C20 UNL     1      -2.120   0.663  -2.601  1.00  0.00     0.310 C 
ENDBRANCH   7  23
TORSDOF 6
