REMARK  8 active torsions:
REMARK  status: ('A' for Active; 'I' for Inactive)
REMARK    1  A    between atoms: C2_2  and  O1_3 
REMARK    2  A    between atoms: O1_3  and  C3_4 
REMARK    3  A    between atoms: C3_4  and  C4_6 
REMARK    4  A    between atoms: C9_11  and  C10_12 
REMARK    5  A    between atoms: C10_12  and  O4_14 
REMARK    6  A    between atoms: O4_14  and  C11_15 
REMARK    7  A    between atoms: C11_15  and  C12_16 
REMARK    8  A    between atoms: C12_16  and  C13_18 
ROOT
HETATM    1  C4  UNL     1       4.086   1.005  -0.733  1.00  0.00     0.098 C 
HETATM    2  C5  UNL     1       3.778   0.187  -2.006  1.00  0.00     0.021 C 
HETATM    3  C6  UNL     1       2.826   1.188  -2.656  1.00  0.00     0.008 C 
HETATM    4  C7  UNL     1       2.006   1.727  -1.468  1.00  0.00     0.008 C 
HETATM    5  C8  UNL     1       2.705   1.201  -0.212  1.00  0.00     0.032 C 
HETATM    6  C9  UNL     1       2.109  -0.056   0.322  1.00  0.00     0.183 C 
HETATM    7  N1  UNL     1       2.415  -1.208  -0.460  1.00  0.00    -0.404 N 
ATOM      8  H1  UNL     1       2.110  -2.129  -0.146  1.00  0.00     0.154 HD
HETATM    9  C20 UNL     1       3.130  -1.083  -1.654  1.00  0.00     0.078 C 
HETATM   10  C21 UNL     1       2.195  -1.565  -2.787  1.00  0.00     0.032 C 
ENDROOT
BRANCH   6  11
HETATM   11  C10 UNL     1       0.630   0.010   0.355  1.00  0.00     0.286 C 
HETATM   12  O3  UNL     1      -0.123   0.865  -0.148  1.00  0.00    -0.263 OA
BRANCH  11  13
HETATM   13  O4  UNL     1      -0.125  -1.033   1.021  1.00  0.00    -0.286 OA
BRANCH  13  14
HETATM   14  C11 UNL     1      -1.526  -0.842   0.837  1.00  0.00     0.198 C 
BRANCH  14  15
HETATM   15  C12 UNL     1      -2.100   0.328   1.471  1.00  0.00     0.200 C 
HETATM   16  O5  UNL     1      -1.683   0.845   2.465  1.00  0.00    -0.288 OA
BRANCH  15  17
HETATM   17  C13 UNL     1      -3.320   0.979   0.831  1.00  0.00     0.197 C 
HETATM   18  C14 UNL     1      -4.351   1.427   1.767  1.00  0.00     0.040 C 
HETATM   19  C15 UNL     1      -5.763   1.282   1.165  1.00  0.00     0.010 C 
HETATM   20  C16 UNL     1      -5.820  -0.184   0.752  1.00  0.00     0.010 C 
HETATM   21  C17 UNL     1      -7.192  -0.614   0.394  1.00  0.00     0.012 C 
HETATM   22  C18 UNL     1      -4.853  -0.333  -0.376  1.00  0.00     0.122 C 
HETATM   23  C19 UNL     1      -5.534   0.130  -1.633  1.00  0.00     0.040 C 
HETATM   24  O6  UNL     1      -3.668   0.253  -0.261  1.00  0.00    -0.373 OA
ENDBRANCH  15  17
ENDBRANCH  14  15
ENDBRANCH  13  14
ENDBRANCH  11  13
ENDBRANCH   6  11
BRANCH   1  25
HETATM   25  C3  UNL     1       5.121   0.418   0.059  1.00  0.00     0.263 C 
HETATM   26  O2  UNL     1       5.839  -0.503  -0.509  1.00  0.00    -0.265 OA
BRANCH  25  27
HETATM   27  O1  UNL     1       5.449   0.706   1.360  1.00  0.00    -0.322 OA
BRANCH  27  28
HETATM   28  C2  UNL     1       6.554   0.028   1.990  1.00  0.00     0.174 C 
HETATM   29  C1  UNL     1       6.637   0.325   3.477  1.00  0.00     0.034 C 
ENDBRANCH  27  28
ENDBRANCH  25  27
ENDBRANCH   1  25
TORSDOF 8
