REMARK  6 active torsions:
REMARK  status: ('A' for Active; 'I' for Inactive)
REMARK    1  A    between atoms: C8_8  and  N1_9 
REMARK    2  A    between atoms: N1_9  and  C10_11 
REMARK    3  A    between atoms: C10_11  and  C11_12 
REMARK    4  A    between atoms: C11_12  and  N2_13 
REMARK    5  A    between atoms: C14_16  and  N3_17 
REMARK    6  A    between atoms: N3_17  and  C16_19 
ROOT
HETATM    1  N2  UNL     1       0.123  -0.320  -0.253  1.00  0.00     0.090 N 
HETATM    2  C12 UNL     1       1.154   0.235  -1.164  1.00  0.00     0.274 C 
HETATM    3  C13 UNL     1       2.323   0.753  -0.365  1.00  0.00     0.055 C 
HETATM    4  C14 UNL     1       3.121  -0.467   0.083  1.00  0.00     0.088 C 
HETATM    5  C21 UNL     1       2.108  -1.586   0.178  1.00  0.00     0.055 C 
HETATM    6  C22 UNL     1       0.855  -0.952   0.817  1.00  0.00     0.274 C 
ENDROOT
BRANCH   4   7
HETATM    7  N3  UNL     1       4.231  -0.730  -0.772  1.00  0.00    -0.365 N 
HETATM    8  C15 UNL     1       4.027  -0.936  -2.190  1.00  0.00     0.151 C 
BRANCH   7   9
HETATM    9  C16 UNL     1       5.561  -0.815  -0.297  1.00  0.00     0.135 A 
HETATM   10  N4  UNL     1       6.251  -1.951  -0.499  1.00  0.00    -0.337 N 
HETATM   11  C17 UNL     1       7.537  -2.079  -0.058  1.00  0.00     0.183 A 
ATOM     12  H4  UNL     1       5.808  -2.728  -0.989  1.00  0.00     0.168 HD
HETATM   13  N5  UNL     1       8.158  -1.072   0.594  1.00  0.00    -0.337 N 
HETATM   14  C18 UNL     1       7.513   0.067   0.815  1.00  0.00     0.138 A 
ATOM     15  H5  UNL     1       9.119  -1.186   0.915  1.00  0.00     0.168 HD
HETATM   16  N6  UNL     1       7.862   1.206   1.418  1.00  0.00    -0.337 N 
HETATM   17  C20 UNL     1       6.204   0.205   0.369  1.00  0.00     0.122 A 
HETATM   18  C19 UNL     1       6.814   2.081   1.376  1.00  0.00     0.182 A 
ATOM     19  H6  UNL     1       8.770   1.393   1.844  1.00  0.00     0.168 HD
HETATM   20  N7  UNL     1       5.816   1.445   0.731  1.00  0.00    -0.346 N 
ATOM     21  H7  UNL     1       4.897   1.845   0.543  1.00  0.00     0.167 HD
ENDBRANCH   7   9
ENDBRANCH   4   7
BRANCH   1  22
HETATM   22  C11 UNL     1      -0.703   0.771   0.102  1.00  0.00     0.291 C 
BRANCH  22  23
HETATM   23  C10 UNL     1      -1.917   0.541   0.901  1.00  0.00     0.147 C 
BRANCH  23  24
HETATM   24  N1  UNL     1      -2.943  -0.274   0.380  1.00  0.00    -0.407 N 
HETATM   25  C9  UNL     1      -2.711  -1.675   0.353  1.00  0.00     0.144 C 
BRANCH  24  26
HETATM   26  C8  UNL     1      -3.672   0.205  -0.751  1.00  0.00     0.107 C 
HETATM   27  C2  UNL     1      -5.016  -0.472  -0.754  1.00  0.00    -0.063 C 
HETATM   28  C1  UNL     1      -5.203  -1.576  -1.477  1.00  0.00     0.017 C 
HETATM   29  C3  UNL     1      -6.160   0.055   0.019  1.00  0.00     0.011 C 
HETATM   30  C4  UNL     1      -5.992   0.002   1.503  1.00  0.00     0.015 C 
HETATM   31  C5  UNL     1      -6.290   1.529  -0.397  1.00  0.00     0.009 C 
HETATM   32  C6  UNL     1      -5.025   2.206   0.012  1.00  0.00     0.003 C 
HETATM   33  C7  UNL     1      -3.871   1.677  -0.799  1.00  0.00     0.029 C 
ENDBRANCH  24  26
ENDBRANCH  23  24
ENDBRANCH  22  23
ENDBRANCH   1  22
TORSDOF 6
