REMARK  4 active torsions:
REMARK  status: ('A' for Active; 'I' for Inactive)
REMARK    1  A    between atoms: C3_5  and  C4_6 
REMARK    2  A    between atoms: C4_6  and  C5_7 
REMARK    3  A    between atoms: C5_7  and  N2_8 
REMARK    4  A    between atoms: C6_9  and  N3_10 
ROOT
HETATM    1  N2  UNL     1      -0.625   1.049  -0.068  1.00  0.00    -0.173 N 
HETATM    2  C6  UNL     1      -1.872   0.487  -0.108  1.00  0.00     0.684 A 
HETATM    3  N4  UNL     1      -2.710   1.413  -0.601  1.00  0.00    -0.173 N 
ATOM      4  H4  UNL     1      -3.710   1.270  -0.742  1.00  0.00     0.186 HD
HETATM    5  C11 UNL     1      -2.067   2.538  -0.880  1.00  0.00     0.169 A 
HETATM    6  N5  UNL     1      -2.411   3.740  -1.378  1.00  0.00    -0.174 N 
ATOM      7  H5  UNL     1      -3.387   3.903  -1.624  1.00  0.00     0.186 HD
HETATM    8  C12 UNL     1      -1.526   4.737  -1.566  1.00  0.00     0.680 A 
HETATM    9  N6  UNL     1      -1.914   5.881  -2.052  1.00  0.00    -0.234 N 
ATOM     10  H61 UNL     1      -1.244   6.636  -2.194  1.00  0.00     0.174 HD
ATOM     11  H62 UNL     1      -2.896   6.020  -2.290  1.00  0.00     0.174 HD
HETATM   12  N7  UNL     1      -0.243   4.556  -1.255  1.00  0.00    -0.154 N 
ATOM     13  H7  UNL     1       0.437   5.304  -1.394  1.00  0.00     0.187 HD
HETATM   14  C13 UNL     1       0.144   3.349  -0.746  1.00  0.00     0.291 A 
HETATM   15  O1  UNL     1       1.365   3.180  -0.451  1.00  0.00    -0.265 OA
HETATM   16  C14 UNL     1      -0.730   2.306  -0.539  1.00  0.00     0.165 A 
ENDROOT
BRANCH   1  17
HETATM   17  C5  UNL     1       0.590   0.410   0.390  1.00  0.00     0.154 C 
BRANCH  17  18
HETATM   18  C4  UNL     1       1.320  -0.267  -0.724  1.00  0.00     0.079 C 
BRANCH  18  19
HETATM   19  C3  UNL     1       2.559  -0.929  -0.302  1.00  0.00     0.027 A 
HETATM   20  N1  UNL     1       3.133  -1.022   0.911  1.00  0.00    -0.348 N 
HETATM   21  C2  UNL     1       4.273  -1.722   0.862  1.00  0.00     0.077 A 
ATOM     22  H1  UNL     1       2.748  -0.611   1.761  1.00  0.00     0.167 HD
HETATM   23  C1  UNL     1       5.194  -2.049   1.967  1.00  0.00     0.089 C 
HETATM   24  N8  UNL     1       4.416  -2.079  -0.430  1.00  0.00    -0.354 N 
HETATM   25  C15 UNL     1       3.390  -1.613  -1.167  1.00  0.00     0.114 A 
ATOM     26  H8  UNL     1       5.194  -2.626  -0.798  1.00  0.00     0.166 HD
ENDBRANCH  18  19
ENDBRANCH  17  18
ENDBRANCH   1  17
BRANCH   2  27
HETATM   27  N3  UNL     1      -2.203  -0.833   0.302  1.00  0.00    -0.217 N 
HETATM   28  C7  UNL     1      -2.232  -2.054  -0.482  1.00  0.00     0.141 C 
HETATM   29  C8  UNL     1      -3.080  -3.030   0.298  1.00  0.00     0.022 C 
HETATM   30  C9  UNL     1      -2.915  -2.601   1.718  1.00  0.00     0.022 C 
HETATM   31  C10 UNL     1      -2.585  -1.147   1.668  1.00  0.00     0.141 C 
ENDBRANCH   2  27
TORSDOF 4
