REMARK  8 active torsions:
REMARK  status: ('A' for Active; 'I' for Inactive)
REMARK    1  A    between atoms: C2_2  and  N1_5 
REMARK       I    between atoms: C5_7  and  N3_9 
REMARK    2  A    between atoms: N4_11  and  C6_13 
REMARK    3  A    between atoms: C6_13  and  N5_15 
REMARK    4  A    between atoms: N5_15  and  N6_17 
REMARK       I    between atoms: N6_17  and  C7_19 
REMARK    5  A    between atoms: C7_19  and  C8_21 
REMARK    6  A    between atoms: C8_21  and  C9_22 
REMARK    7  A    between atoms: C9_22  and  C10_23 
REMARK    8  A    between atoms: C10_23  and  C11_24 
ROOT
HETATM    1  N5  UNL     1       0.140  -0.849   0.158  1.00  0.00    -0.272 N 
ATOM      2  H5  UNL     1      -0.344  -1.578   0.682  1.00  0.00     0.189 HD
ENDROOT
BRANCH   1   3
HETATM    3  C6  UNL     1      -0.435  -0.334  -1.013  1.00  0.00     0.205 C 
HETATM    4  S1  UNL     1       0.281   0.815  -1.932  1.00  0.00    -0.038 SA
BRANCH   3   5
HETATM    5  N4  UNL     1      -1.688  -0.828  -1.446  1.00  0.00    -0.273 N 
HETATM    6  N3  UNL     1      -2.747  -0.363  -1.036  1.00  0.00    -0.272 N 
HETATM    7  C5  UNL     1      -3.022   0.671  -0.128  1.00  0.00     0.203 C 
ATOM      8  H3  UNL     1      -3.578  -0.809  -1.426  1.00  0.00     0.189 HD
HETATM    9  N1  UNL     1      -4.244   0.928   0.174  1.00  0.00    -0.355 N 
HETATM   10  N2  UNL     1      -2.024   1.484   0.504  1.00  0.00    -0.062 NA
ATOM     11  H1  UNL     1      -4.367   1.692   0.839  1.00  0.00     0.163 HD
ATOM     12  H4  UNL     1      -1.712  -1.594  -2.119  1.00  0.00     0.189 HD
BRANCH   9  13
HETATM   13  C2  UNL     1      -5.443   0.329  -0.262  1.00  0.00     0.021 C 
HETATM   14  C1  UNL     1      -6.307   0.113   0.996  1.00  0.00     0.037 C 
HETATM   15  C3  UNL     1      -5.338  -0.998  -0.945  1.00  0.00     0.037 C 
HETATM   16  C4  UNL     1      -6.259   1.227  -1.184  1.00  0.00     0.037 C 
ENDBRANCH   9  13
ENDBRANCH   3   5
ENDBRANCH   1   3
BRANCH   1  17
HETATM   17  N6  UNL     1       1.362  -0.373   0.608  1.00  0.00    -0.268 N 
HETATM   18  C7  UNL     1       2.532  -1.127   0.365  1.00  0.00     0.236 C 
HETATM   19  O1  UNL     1       2.462  -2.200  -0.249  1.00  0.00    -0.272 OA
ATOM     20  H6  UNL     1       1.416   0.513   1.110  1.00  0.00     0.190 HD
BRANCH  18  21
HETATM   21  C8  UNL     1       3.843  -0.634   0.842  1.00  0.00     0.105 C 
BRANCH  21  22
HETATM   22  C9  UNL     1       4.928  -1.558   0.408  1.00  0.00     0.017 C 
BRANCH  22  23
HETATM   23  C10 UNL     1       6.296  -1.110   0.883  1.00  0.00     0.080 C 
BRANCH  23  24
HETATM   24  C11 UNL     1       6.648   0.228   0.384  1.00  0.00     0.112 A 
HETATM   25  N7  UNL     1       6.372   1.384   1.013  1.00  0.00    -0.272 N 
HETATM   26  N8  UNL     1       6.824   2.399   0.308  1.00  0.00    -0.227 N 
ATOM     27  H7  UNL     1       5.884   1.463   1.905  1.00  0.00     0.190 HD
HETATM   28  N9  UNL     1       7.388   1.907  -0.769  1.00  0.00    -0.227 N 
ATOM     29  H8  UNL     1       6.749   3.386   0.554  1.00  0.00     0.210 HD
HETATM   30  N10 UNL     1       7.292   0.596  -0.740  1.00  0.00    -0.272 N 
ATOM     31  H9  UNL     1       7.829   2.453  -1.509  1.00  0.00     0.210 HD
ATOM     32  H10 UNL     1       7.648  -0.040  -1.454  1.00  0.00     0.190 HD
ENDBRANCH  23  24
ENDBRANCH  22  23
ENDBRANCH  21  22
ENDBRANCH  18  21
ENDBRANCH   1  17
TORSDOF 8
