REMARK  5 active torsions:
REMARK  status: ('A' for Active; 'I' for Inactive)
REMARK    1  A    between atoms: C2_2  and  C3_3 
REMARK    2  A    between atoms: C3_3  and  C4_4 
REMARK    3  A    between atoms: C4_4  and  N1_5 
REMARK    4  A    between atoms: C9_12  and  N3_13 
REMARK       I    between atoms: N3_13  and  C10_15 
REMARK       I    between atoms: C10_15  and  N4_17 
REMARK    5  A    between atoms: C12_22  and  N6_23 
ROOT
HETATM    1  N1  UNL     1      -1.932  -0.772   0.492  1.00  0.00    -0.301 N 
HETATM    2  C5  UNL     1      -1.367  -0.045   1.442  1.00  0.00     0.128 A 
HETATM    3  N2  UNL     1      -2.072   0.574   2.510  1.00  0.00    -0.082 NA
HETATM    4  C6  UNL     1      -0.004   0.156   1.442  1.00  0.00    -0.002 A 
HETATM    5  C7  UNL     1       0.693   0.959   2.475  1.00  0.00     0.053 C 
HETATM    6  C8  UNL     1       0.769  -0.404   0.446  1.00  0.00     0.037 A 
HETATM    7  S1  UNL     1       2.474  -0.209   0.360  1.00  0.00    -0.052 SA
HETATM    8  C9  UNL     1       3.142  -1.032  -1.000  1.00  0.00     0.154 A 
HETATM    9  N5  UNL     1       2.241  -1.677  -1.756  1.00  0.00    -0.322 N 
ATOM     10  H5  UNL     1       2.608  -2.172  -2.569  1.00  0.00     0.169 HD
HETATM   11  C12 UNL     1       0.935  -1.747  -1.573  1.00  0.00     0.118 A 
HETATM   12  C13 UNL     1       0.208  -1.164  -0.554  1.00  0.00     0.093 A 
HETATM   13  C14 UNL     1      -1.179  -1.316  -0.475  1.00  0.00     0.264 A 
HETATM   14  O2  UNL     1      -1.742  -2.016  -1.384  1.00  0.00    -0.267 OA
ENDROOT
BRANCH   8  15
HETATM   15  N3  UNL     1       4.404  -1.038  -1.286  1.00  0.00    -0.289 N 
HETATM   16  C10 UNL     1       5.361  -0.363  -0.498  1.00  0.00     0.321 C 
HETATM   17  O1  UNL     1       6.343  -0.976   0.044  1.00  0.00    -0.247 OA
HETATM   18  N4  UNL     1       5.243   1.039  -0.292  1.00  0.00    -0.347 N 
HETATM   19  C11 UNL     1       6.222   1.763   0.521  1.00  0.00     0.151 C 
ATOM     20  H4  UNL     1       4.467   1.547  -0.716  1.00  0.00     0.163 HD
ATOM     21  H3  UNL     1       4.719  -1.549  -2.111  1.00  0.00     0.172 HD
ENDBRANCH   8  15
BRANCH  11  22
HETATM   22  N6  UNL     1       0.233  -2.430  -2.428  1.00  0.00    -0.385 N 
ATOM     23  H62 UNL     1       0.770  -2.861  -3.181  1.00  0.00     0.157 HD
ATOM     24  H61 UNL     1      -0.776  -2.484  -2.287  1.00  0.00     0.157 HD
ENDBRANCH  11  22
BRANCH   1  25
HETATM   25  C4  UNL     1      -3.365  -0.949   0.554  1.00  0.00     0.133 C 
BRANCH  25  26
HETATM   26  C3  UNL     1      -4.156   0.099  -0.152  1.00  0.00     0.020 C 
BRANCH  26  27
HETATM   27  C2  UNL     1      -3.900   0.235  -1.615  1.00  0.00    -0.003 C 
HETATM   28  C1  UNL     1      -4.821   1.362  -2.110  1.00  0.00     0.005 C 
ENDBRANCH  26  27
ENDBRANCH  25  26
ENDBRANCH   1  25
TORSDOF 5
