REMARK  5 active torsions:
REMARK  status: ('A' for Active; 'I' for Inactive)
REMARK    1  A    between atoms: C1_4  and  C2_5 
REMARK    2  A    between atoms: C1_4  and  N6_24 
REMARK    3  A    between atoms: C2_5  and  C3_6 
REMARK    4  A    between atoms: C3_6  and  N2_7 
REMARK       I    between atoms: N2_7  and  C4_9 
REMARK    5  A    between atoms: C4_9  and  C5_11 
ROOT
HETATM    1  N2  UNL     1       1.521  -0.856   0.264  1.00  0.00    -0.355 N 
ATOM      2  H2  UNL     1       1.620   0.133   0.034  1.00  0.00     0.162 HD
HETATM    3  C4  UNL     1       2.662  -1.646   0.539  1.00  0.00     0.275 C 
HETATM    4  O1  UNL     1       2.525  -2.879   0.825  1.00  0.00    -0.265 OA
ENDROOT
BRANCH   3   5
HETATM    5  C5  UNL     1       3.991  -1.042   0.494  1.00  0.00     0.145 A 
HETATM    6  N3  UNL     1       4.253   0.219   0.210  1.00  0.00    -0.339 N 
HETATM    7  C6  UNL     1       5.482   0.640   0.201  1.00  0.00     0.136 A 
ATOM      8  H3  UNL     1       3.491   0.863  -0.002  1.00  0.00     0.167 HD
HETATM    9  C7  UNL     1       5.921   1.950  -0.081  1.00  0.00     0.276 A 
HETATM   10  C9  UNL     1       6.469  -0.262   0.492  1.00  0.00     0.109 A 
HETATM   11  O2  UNL     1       5.114   2.872  -0.363  1.00  0.00    -0.266 OA
HETATM   12  N4  UNL     1       7.224   2.204  -0.044  1.00  0.00    -0.318 N 
HETATM   13  C8  UNL     1       8.199   1.326   0.240  1.00  0.00     0.184 A 
ATOM     14  H4  UNL     1       7.512   3.160  -0.252  1.00  0.00     0.169 HD
HETATM   15  N5  UNL     1       7.797   0.065   0.513  1.00  0.00    -0.345 N 
ATOM     16  H5  UNL     1       8.490  -0.649   0.737  1.00  0.00     0.167 HD
HETATM   17  S1  UNL     1       5.546  -1.688   0.765  1.00  0.00    -0.046 SA
ENDBRANCH   3   5
BRANCH   1  18
HETATM   18  C3  UNL     1       0.220  -1.467   0.313  1.00  0.00     0.130 C 
BRANCH  18  19
HETATM   19  C2  UNL     1      -0.887  -0.501  -0.002  1.00  0.00     0.095 C 
BRANCH  19  20
HETATM   20  C1  UNL     1      -2.202  -1.187   0.065  1.00  0.00     0.074 C 
HETATM   21  N1  UNL     1      -2.244  -2.438   0.362  1.00  0.00    -0.389 N 
ATOM     22  H12 UNL     1      -1.364  -2.920   0.544  1.00  0.00     0.157 HD
ATOM     23  H11 UNL     1      -3.147  -2.909   0.408  1.00  0.00     0.157 HD
BRANCH  20  24
HETATM   24  N6  UNL     1      -3.423  -0.518  -0.188  1.00  0.00    -0.371 N 
HETATM   25  C10 UNL     1      -4.317  -0.983  -1.220  1.00  0.00     0.124 C 
HETATM   26  C11 UNL     1      -5.665  -0.316  -0.984  1.00  0.00     0.020 C 
HETATM   27  C12 UNL     1      -5.572   1.179  -1.067  1.00  0.00     0.003 C 
HETATM   28  C13 UNL     1      -4.254   1.693  -0.486  1.00  0.00     0.020 C 
HETATM   29  C14 UNL     1      -3.843   0.659   0.567  1.00  0.00     0.124 C 
ENDBRANCH  20  24
ENDBRANCH  19  20
ENDBRANCH  18  19
ENDBRANCH   1  18
TORSDOF 5
