REMARK  3 active torsions:
REMARK  status: ('A' for Active; 'I' for Inactive)
REMARK    1  A    between atoms: C4_9  and  C5_10 
REMARK    2  A    between atoms: C5_10  and  N3_11 
REMARK    3  A    between atoms: C11_21  and  N5_22 
ROOT
HETATM    1  C1  UNL     1      -1.149   4.967  -0.392  1.00  0.00     0.089 C 
HETATM    2  C2  UNL     1      -0.607   3.618  -0.702  1.00  0.00     0.080 A 
HETATM    3  N1  UNL     1       0.470   3.352  -1.405  1.00  0.00    -0.332 N 
ATOM      4  H1  UNL     1       0.954   4.138  -1.838  1.00  0.00     0.168 HD
HETATM    5  C3  UNL     1       0.998   2.093  -1.604  1.00  0.00     0.111 A 
HETATM    6  N2  UNL     1       2.002   2.032  -2.308  1.00  0.00    -0.385 N 
ATOM      7  H21 UNL     1       2.392   1.101  -2.455  1.00  0.00     0.157 HD
ATOM      8  H22 UNL     1       2.523   2.785  -2.757  1.00  0.00     0.157 HD
HETATM    9  C4  UNL     1       0.286   1.064  -0.991  1.00  0.00     0.047 A 
HETATM   10  C11 UNL     1      -0.853   1.318  -0.268  1.00  0.00     0.116 A 
HETATM   11  N7  UNL     1      -1.288   2.569  -0.122  1.00  0.00    -0.332 N 
ATOM     12  H7  UNL     1      -2.131   2.752   0.423  1.00  0.00     0.168 HD
ENDROOT
BRANCH   9  13
HETATM   13  C5  UNL     1       0.854  -0.335  -0.970  1.00  0.00     0.165 C 
BRANCH  13  14
HETATM   14  N3  UNL     1       2.267  -0.195  -1.237  1.00  0.00    -0.391 N 
HETATM   15  C6  UNL     1       3.286  -0.566  -0.410  1.00  0.00     0.008 C 
HETATM   16  C7  UNL     1       4.267  -1.559  -0.989  1.00  0.00     0.055 C 
HETATM   17  C10 UNL     1       3.049  -0.921   1.012  1.00  0.00     0.284 C 
HETATM   18  C8  UNL     1       5.567  -1.463  -0.211  1.00  0.00     0.033 C 
HETATM   19  C9  UNL     1       5.423  -1.234   1.249  1.00  0.00     0.233 C 
HETATM   20  N4  UNL     1       4.284  -0.535   1.713  1.00  0.00    -0.070 N 
ATOM     21  H42 UNL     1       4.178  -0.640   2.722  1.00  0.00     0.277 HD
ATOM     22  H41 UNL     1       4.430   0.473   1.665  1.00  0.00     0.277 HD
ATOM     23  H3  UNL     1       2.528   0.222  -2.131  1.00  0.00     0.159 HD
ENDBRANCH  13  14
ENDBRANCH   9  13
BRANCH  10  24
HETATM   24  N5  UNL     1      -1.778   0.268   0.082  1.00  0.00    -0.365 N 
HETATM   25  C12 UNL     1      -2.658   0.063  -1.122  1.00  0.00     0.126 C 
HETATM   26  C13 UNL     1      -3.179  -1.312  -1.121  1.00  0.00     0.050 C 
HETATM   27  C14 UNL     1      -4.446  -1.411  -0.279  1.00  0.00     0.273 C 
HETATM   28  N6  UNL     1      -4.035  -1.510   1.103  1.00  0.00     0.085 N 
HETATM   29  C15 UNL     1      -5.178  -1.973   1.908  1.00  0.00     0.309 C 
HETATM   30  C16 UNL     1      -3.419  -0.353   1.638  1.00  0.00     0.291 C 
HETATM   31  C17 UNL     1      -1.903  -0.414   1.304  1.00  0.00     0.154 C 
ENDBRANCH  10  24
TORSDOF 3
