REMARK  8 active torsions:
REMARK  status: ('A' for Active; 'I' for Inactive)
REMARK    1  A    between atoms: C4_7  and  C5_8 
REMARK    2  A    between atoms: N3_11  and  C8_12 
REMARK    3  A    between atoms: C9_15  and  N5_16 
REMARK    4  A    between atoms: C10_21  and  N7_22 
REMARK    5  A    between atoms: N7_22  and  C11_24 
REMARK    6  A    between atoms: C11_24  and  C12_25 
REMARK    7  A    between atoms: C12_25  and  C13_26 
REMARK    8  A    between atoms: C13_26  and  C14_27 
ROOT
HETATM    1  C8  UNL     1       1.158   0.408   0.645  1.00  0.00     0.144 A 
HETATM    2  N4  UNL     1       1.730   1.034   1.696  1.00  0.00    -0.175 N 
ATOM      3  H4  UNL     1       1.164   1.610   2.319  1.00  0.00     0.186 HD
HETATM    4  C9  UNL     1       3.053   0.895   1.919  1.00  0.00     0.679 A 
HETATM    5  N6  UNL     1       3.875   0.156   1.150  1.00  0.00    -0.175 N 
ATOM      6  H6  UNL     1       4.870   0.081   1.360  1.00  0.00     0.186 HD
HETATM    7  C10 UNL     1       3.335  -0.479   0.095  1.00  0.00     0.146 A 
HETATM    8  C15 UNL     1       1.958  -0.343  -0.150  1.00  0.00     0.122 A 
HETATM    9 CL1  UNL     1       1.264  -1.173  -1.519  1.00  0.00    -0.076 Cl
ENDROOT
BRANCH   1  10
HETATM   10  N3  UNL     1      -0.239   0.573   0.448  1.00  0.00    -0.365 N 
HETATM   11  C7  UNL     1      -1.108  -0.447   0.979  1.00  0.00     0.125 C 
HETATM   12  C6  UNL     1      -2.479   0.147   1.210  1.00  0.00     0.032 C 
HETATM   13  C5  UNL     1      -2.894   0.700  -0.168  1.00  0.00     0.056 C 
HETATM   14  C17 UNL     1      -2.136   1.958  -0.356  1.00  0.00     0.032 C 
HETATM   15  C16 UNL     1      -0.668   1.747  -0.266  1.00  0.00     0.125 C 
BRANCH  13  16
HETATM   16  C4  UNL     1      -4.354   0.816  -0.150  1.00  0.00     0.088 A 
HETATM   17  N2  UNL     1      -5.064  -0.162  -0.770  1.00  0.00    -0.342 N 
HETATM   18  C3  UNL     1      -6.382  -0.212  -0.853  1.00  0.00     0.084 A 
ATOM     19  H2  UNL     1      -4.538  -0.919  -1.207  1.00  0.00     0.167 HD
HETATM   20  C2  UNL     1      -7.344  -1.038  -1.388  1.00  0.00     0.141 A 
HETATM   21  C19 UNL     1      -7.109   0.819  -0.260  1.00  0.00     0.144 A 
HETATM   22  N1  UNL     1      -8.579  -0.567  -1.152  1.00  0.00    -0.305 N 
HETATM   23  C1  UNL     1      -9.864  -1.139  -1.546  1.00  0.00     0.177 C 
HETATM   24  N11 UNL     1      -8.405   0.561  -0.465  1.00  0.00    -0.292 N 
ATOM     25  H11 UNL     1      -9.166   1.155  -0.136  1.00  0.00     0.187 HD
HETATM   26  C18 UNL     1      -6.375   1.825   0.377  1.00  0.00     0.277 A 
HETATM   27  N10 UNL     1      -5.033   1.805   0.420  1.00  0.00    -0.311 N 
HETATM   28  O1  UNL     1      -7.027   2.772   0.923  1.00  0.00    -0.266 OA
ATOM     29  H10 UNL     1      -4.531   2.556   0.894  1.00  0.00     0.170 HD
ENDBRANCH  13  16
ENDBRANCH   1  10
BRANCH   4  30
HETATM   30  N5  UNL     1       3.606   1.497   2.933  1.00  0.00    -0.234 N 
ATOM     31  H52 UNL     1       2.983   2.057   3.516  1.00  0.00     0.174 HD
ATOM     32  H51 UNL     1       4.606   1.392   3.102  1.00  0.00     0.174 HD
ENDBRANCH   4  30
BRANCH   7  33
HETATM   33  N7  UNL     1       3.991  -1.205  -0.689  1.00  0.00    -0.354 N 
ATOM     34  H7  UNL     1       3.416  -1.603  -1.431  1.00  0.00     0.166 HD
BRANCH  33  35
HETATM   35  C11 UNL     1       5.333  -1.594  -0.778  1.00  0.00     0.063 C 
BRANCH  35  36
HETATM   36  C12 UNL     1       6.147  -0.572  -1.552  1.00  0.00     0.051 C 
BRANCH  36  37
HETATM   37  C13 UNL     1       7.562  -1.015  -1.722  1.00  0.00     0.077 C 
BRANCH  37  38
HETATM   38  C14 UNL     1       8.223  -1.210  -0.428  1.00  0.00     0.086 C 
HETATM   39  N8  UNL     1       8.237  -2.378   0.119  1.00  0.00    -0.391 N 
ATOM     40  H82 UNL     1       7.814  -3.170  -0.366  1.00  0.00     0.157 HD
ATOM     41  H81 UNL     1       8.697  -2.514   1.019  1.00  0.00     0.157 HD
HETATM   42  N9  UNL     1       8.807  -0.116   0.242  1.00  0.00    -0.088 NA
ENDBRANCH  37  38
ENDBRANCH  36  37
ENDBRANCH  35  36
ENDBRANCH  33  35
ENDBRANCH   7  33
TORSDOF 8
