REMARK  8 active torsions:
REMARK  status: ('A' for Active; 'I' for Inactive)
REMARK    1  A    between atoms: C3_3  and  C4_4 
REMARK    2  A    between atoms: N3_10  and  N4_11 
REMARK    3  A    between atoms: N4_11  and  C7_13 
REMARK    4  A    between atoms: C10_17  and  C11_18 
REMARK    5  A    between atoms: C11_18  and  C12_19 
REMARK    6  A    between atoms: C14_23  and  N6_24 
REMARK    7  A    between atoms: C15_29  and  N8_30 
REMARK    8  A    between atoms: C17_34  and  O1_35 
ROOT
HETATM    1  C1  UNL     1      -3.581   5.348   0.454  1.00  0.00     0.012 C 
HETATM    2  C2  UNL     1      -3.144   4.242   0.257  1.00  0.00    -0.113 C 
HETATM    3  C3  UNL     1      -2.605   2.873   0.009  1.00  0.00     0.137 C 
ENDROOT
BRANCH   3   4
HETATM    4  C4  UNL     1      -3.621   1.909   0.355  1.00  0.00     0.018 A 
HETATM    5  C5  UNL     1      -4.755   2.156   1.096  1.00  0.00     0.119 A 
HETATM    6  N1  UNL     1      -5.465   1.032   1.219  1.00  0.00    -0.306 N 
HETATM    7  N2  UNL     1      -4.823   0.041   0.572  1.00  0.00    -0.256 N 
ATOM      8  H1  UNL     1      -6.348   0.939   1.721  1.00  0.00     0.186 HD
HETATM    9  C6  UNL     1      -3.696   0.558   0.038  1.00  0.00     0.172 A 
HETATM   10  C21 UNL     1      -5.236  -1.341   0.456  1.00  0.00     0.290 A 
HETATM   11  N3  UNL     1      -2.831  -0.295  -0.733  1.00  0.00    -0.068 N 
HETATM   12  C19 UNL     1      -3.168  -1.664  -0.925  1.00  0.00     0.698 A 
HETATM   13  N9  UNL     1      -2.388  -2.444  -1.634  1.00  0.00    -0.229 N 
HETATM   14  N10 UNL     1      -4.359  -2.146  -0.343  1.00  0.00    -0.207 N 
HETATM   15  C20 UNL     1      -2.754  -3.840  -1.819  1.00  0.00     0.165 C 
ATOM     16  H9  UNL     1      -1.533  -2.076  -2.052  1.00  0.00     0.177 HD
ATOM     17  H10 UNL     1      -4.610  -3.122  -0.499  1.00  0.00     0.179 HD
BRANCH  11  18
HETATM   18  N4  UNL     1      -1.709   0.294  -1.264  1.00  0.00    -0.272 N 
ATOM     19  H4  UNL     1      -1.837   0.731  -2.177  1.00  0.00     0.188 HD
BRANCH  18  20
HETATM   20  C7  UNL     1      -0.414   0.382  -0.735  1.00  0.00     0.121 A 
HETATM   21  C8  UNL     1       0.573   1.058  -1.436  1.00  0.00     0.147 A 
HETATM   22  F1  UNL     1       0.307   1.604  -2.620  1.00  0.00    -0.204 F 
HETATM   23  C9  UNL     1       1.880   1.194  -0.945  1.00  0.00     0.052 A 
HETATM   24  C10 UNL     1       2.234   0.663   0.248  1.00  0.00    -0.048 A 
HETATM   25  C16 UNL     1       1.223  -0.025   0.956  1.00  0.00     0.046 A 
HETATM   26  C17 UNL     1      -0.061  -0.157   0.472  1.00  0.00     0.099 A 
BRANCH  24  27
HETATM   27  C11 UNL     1       3.569   0.785   0.868  1.00  0.00     0.082 C 
BRANCH  27  28
HETATM   28  C12 UNL     1       4.683   0.160   0.167  1.00  0.00     0.006 A 
HETATM   29  C13 UNL     1       4.959  -1.180   0.436  1.00  0.00     0.117 A 
HETATM   30  N5  UNL     1       5.925  -1.856  -0.205  1.00  0.00    -0.202 N 
HETATM   31  C14 UNL     1       6.656  -1.206  -1.148  1.00  0.00     0.677 A 
ATOM     32  H5  UNL     1       6.106  -2.836   0.011  1.00  0.00     0.183 HD
HETATM   33  N7  UNL     1       6.448   0.071  -1.455  1.00  0.00    -0.177 N 
HETATM   34  C15 UNL     1       5.466   0.743  -0.797  1.00  0.00     0.122 A 
ATOM     35  H7  UNL     1       7.012   0.535  -2.167  1.00  0.00     0.185 HD
BRANCH  31  36
HETATM   36  N6  UNL     1       7.573  -1.884  -1.743  1.00  0.00    -0.234 N 
ATOM     37  H62 UNL     1       7.733  -2.864  -1.508  1.00  0.00     0.174 HD
ATOM     38  H61 UNL     1       8.122  -1.396  -2.451  1.00  0.00     0.174 HD
ENDBRANCH  31  36
BRANCH  34  39
HETATM   39  N8  UNL     1       5.354   1.989  -1.097  1.00  0.00    -0.385 N 
ATOM     40  H82 UNL     1       4.617   2.493  -0.603  1.00  0.00     0.157 HD
ATOM     41  H81 UNL     1       5.936   2.422  -1.814  1.00  0.00     0.157 HD
ENDBRANCH  34  39
ENDBRANCH  27  28
ENDBRANCH  24  27
BRANCH  26  42
HETATM   42  O1  UNL     1      -1.050  -0.836   1.180  1.00  0.00    -0.353 OA
HETATM   43  C18 UNL     1      -0.824  -1.434   2.436  1.00  0.00     0.210 C 
ENDBRANCH  26  42
ENDBRANCH  18  20
ENDBRANCH  11  18
ENDBRANCH   3   4
TORSDOF 8
