REMARK  10 active torsions:
REMARK  status: ('A' for Active; 'I' for Inactive)
REMARK    1  A    between atoms: C2_2  and  C3_3 
REMARK    2  A    between atoms: C3_3  and  N1_4 
REMARK    3  A    between atoms: N1_4  and  C4_6 
REMARK    4  A    between atoms: C5_9  and  N3_10 
REMARK    5  A    between atoms: C8_16  and  N5_17 
REMARK    6  A    between atoms: N5_17  and  C9_19 
REMARK    7  A    between atoms: C9_19  and  C10_20 
REMARK    8  A    between atoms: C10_20  and  C11_21 
REMARK    9  A    between atoms: C11_21  and  C12_22 
REMARK   10  A    between atoms: C18_37  and  N11_38 
ROOT
HETATM    1  C4  UNL     1       4.553  -1.016   0.804  1.00  0.00     0.680 A 
HETATM    2  N2  UNL     1       4.285   0.232   0.407  1.00  0.00    -0.175 N 
ATOM      3  H2  UNL     1       5.041   0.911   0.319  1.00  0.00     0.186 HD
HETATM    4  C5  UNL     1       3.006   0.601   0.120  1.00  0.00     0.146 A 
HETATM    5  C7  UNL     1       2.035  -0.368   0.262  1.00  0.00     0.124 A 
HETATM    6  N4  UNL     1       0.746  -0.088  -0.001  1.00  0.00    -0.186 N 
ATOM      7  H4  UNL     1       0.509   0.856  -0.306  1.00  0.00     0.184 HD
HETATM    8  C8  UNL     1      -0.244  -0.984   0.117  1.00  0.00     0.680 A 
HETATM    9  N10 UNL     1       0.064  -2.226   0.518  1.00  0.00    -0.175 N 
ATOM     10  H10 UNL     1      -0.688  -2.909   0.608  1.00  0.00     0.186 HD
HETATM   11  C18 UNL     1       1.334  -2.616   0.810  1.00  0.00     0.144 A 
HETATM   12  C19 UNL     1       2.325  -1.672   0.678  1.00  0.00     0.124 A 
HETATM   13  N12 UNL     1       3.586  -1.965   0.941  1.00  0.00    -0.186 N 
ATOM     14  H12 UNL     1       3.836  -2.905   1.248  1.00  0.00     0.184 HD
ENDROOT
BRANCH   8  15
HETATM   15  N5  UNL     1      -1.472  -0.678  -0.145  1.00  0.00    -0.226 N 
ATOM     16  H5  UNL     1      -2.213  -1.372  -0.050  1.00  0.00     0.177 HD
BRANCH  15  17
HETATM   17  C9  UNL     1      -1.770   0.657  -0.572  1.00  0.00     0.138 C 
BRANCH  17  18
HETATM   18  C10 UNL     1      -3.207   0.772  -1.089  1.00  0.00     0.026 C 
BRANCH  18  19
HETATM   19  C11 UNL     1      -4.179   0.387   0.036  1.00  0.00     0.060 C 
BRANCH  19  20
HETATM   20  C12 UNL     1      -5.549   0.510  -0.527  1.00  0.00     0.037 A 
HETATM   21  C13 UNL     1      -5.780   0.915  -1.840  1.00  0.00     0.044 A 
HETATM   22  C14 UNL     1      -7.068   1.010  -2.300  1.00  0.00     0.108 A 
HETATM   23  N6  UNL     1      -8.073   0.709  -1.469  1.00  0.00    -0.201 N 
HETATM   24  C15 UNL     1      -7.867   0.316  -0.199  1.00  0.00     0.691 A 
ATOM     25  H6  UNL     1      -9.031   0.780  -1.811  1.00  0.00     0.183 HD
HETATM   26  N7  UNL     1      -8.705  -0.037   0.810  1.00  0.00    -0.175 N 
HETATM   27  N9  UNL     1      -6.612   0.211   0.287  1.00  0.00    -0.137 N 
HETATM   28  C16 UNL     1      -8.002  -0.359   1.912  1.00  0.00     0.171 A 
ATOM     29  H7  UNL     1      -9.723  -0.055   0.742  1.00  0.00     0.185 HD
HETATM   30  N8  UNL     1      -8.521  -0.780   3.172  1.00  0.00    -0.079 NA
HETATM   31  C17 UNL     1      -6.670  -0.196   1.562  1.00  0.00     0.168 A 
HETATM   32 CL1  UNL     1      -5.298  -0.479   2.609  1.00  0.00    -0.060 Cl
ENDBRANCH  19  20
ENDBRANCH  18  19
ENDBRANCH  17  18
ENDBRANCH  15  17
ENDBRANCH   8  15
BRANCH  11  33
HETATM   33  N11 UNL     1       1.549  -3.803   1.182  1.00  0.00    -0.383 N 
ATOM     34 2H11 UNL     1       0.814  -4.503   1.280  1.00  0.00     0.157 HD
ATOM     35 1H11 UNL     1       2.501  -4.095   1.401  1.00  0.00     0.157 HD
ENDBRANCH  11  33
BRANCH   4  36
HETATM   36  N3  UNL     1       2.676   1.768  -0.263  1.00  0.00    -0.378 N 
HETATM   37  C6  UNL     1       3.613   2.849  -0.441  1.00  0.00     0.147 C 
ATOM     38  H3  UNL     1       1.691   1.950  -0.455  1.00  0.00     0.160 HD
ENDBRANCH   4  36
BRANCH   1  39
HETATM   39  N1  UNL     1       5.761  -1.349   1.071  1.00  0.00    -0.226 N 
ATOM     40  H1  UNL     1       5.957  -2.303   1.374  1.00  0.00     0.177 HD
BRANCH  39  41
HETATM   41  C3  UNL     1       6.845  -0.419   0.956  1.00  0.00     0.137 C 
BRANCH  41  42
HETATM   42  C2  UNL     1       7.332  -0.278  -0.474  1.00  0.00     0.016 C 
HETATM   43  C1  UNL     1       8.468   0.705  -0.568  1.00  0.00     0.006 C 
ENDBRANCH  41  42
ENDBRANCH  39  41
ENDBRANCH   1  39
TORSDOF 10
