REMARK  9 active torsions:
REMARK  status: ('A' for Active; 'I' for Inactive)
REMARK    1  A    between atoms: C4_6  and  N2_7 
REMARK    2  A    between atoms: C7_13  and  N4_14 
REMARK    3  A    between atoms: N5_17  and  C10_18 
REMARK    4  A    between atoms: C10_18  and  C11_19 
REMARK    5  A    between atoms: C11_19  and  N6_20 
REMARK    6  A    between atoms: N6_20  and  C12_22 
REMARK    7  A    between atoms: C12_22  and  O1_23 
REMARK    8  A    between atoms: C12_22  and  C13_25 
REMARK    9  A    between atoms: C14_28  and  C15_29 
ROOT
HETATM    1  C1  UNL     1      -6.081  -1.893  -1.264  1.00  0.00     0.052 C 
HETATM    2  C2  UNL     1      -6.844  -0.768  -0.714  1.00  0.00    -0.018 A 
HETATM    3  C3  UNL     1      -8.196  -0.729  -0.932  1.00  0.00     0.099 A 
HETATM    4  N1  UNL     1      -8.924   0.283  -0.438  1.00  0.00    -0.351 N 
ATOM      5  H1  UNL     1      -9.931   0.317  -0.596  1.00  0.00     0.166 HD
HETATM    6  C4  UNL     1      -8.313   1.257   0.270  1.00  0.00     0.122 A 
HETATM    7  C5  UNL     1      -6.961   1.252   0.508  1.00  0.00     0.115 A 
HETATM    8  C6  UNL     1      -6.355   2.300   1.262  1.00  0.00     0.105 C 
HETATM    9  N3  UNL     1      -5.845   3.146   1.882  1.00  0.00    -0.191 NA
HETATM   10  C7  UNL     1      -6.194   0.218   0.009  1.00  0.00     0.062 A 
ENDROOT
BRANCH   6  11
HETATM   11  N2  UNL     1      -8.995   2.239   0.751  1.00  0.00    -0.384 N 
ATOM     12  H22 UNL     1     -10.000   2.243   0.574  1.00  0.00     0.157 HD
ATOM     13  H21 UNL     1      -8.533   2.975   1.286  1.00  0.00     0.157 HD
ENDBRANCH   6  11
BRANCH  10  14
HETATM   14  N4  UNL     1      -4.803   0.235   0.256  1.00  0.00    -0.376 N 
HETATM   15  C8  UNL     1      -3.965   0.923  -0.687  1.00  0.00     0.153 C 
HETATM   16  C9  UNL     1      -2.508   0.767  -0.502  1.00  0.00     0.292 C 
HETATM   17  N5  UNL     1      -2.029  -0.291   0.305  1.00  0.00     0.096 N 
HETATM   18  C21 UNL     1      -2.985  -1.167   0.888  1.00  0.00     0.292 C 
HETATM   19  C22 UNL     1      -4.167  -0.385   1.385  1.00  0.00     0.153 C 
BRANCH  17  20
HETATM   20  C10 UNL     1      -1.012   0.144   1.256  1.00  0.00     0.316 C 
BRANCH  20  21
HETATM   21  C11 UNL     1       0.243   0.592   0.505  1.00  0.00     0.088 C 
BRANCH  21  22
HETATM   22  N6  UNL     1       0.794  -0.446  -0.272  1.00  0.00    -0.369 N 
ATOM     23  H6  UNL     1       0.442  -1.400  -0.195  1.00  0.00     0.161 HD
BRANCH  22  24
HETATM   24  C12 UNL     1       1.853  -0.130  -1.167  1.00  0.00     0.286 C 
BRANCH  24  25
HETATM   25  O1  UNL     1       1.949  -1.161  -2.161  1.00  0.00    -0.370 OA
ATOM     26  H1  UNL     1       2.656  -0.950  -2.759  1.00  0.00     0.212 HD
ENDBRANCH  24  25
BRANCH  24  27
HETATM   27  C13 UNL     1       3.205  -0.073  -0.544  1.00  0.00     0.131 A 
HETATM   28  N7  UNL     1       4.338  -0.603  -1.136  1.00  0.00    -0.342 N 
HETATM   29  C14 UNL     1       5.409  -0.390  -0.365  1.00  0.00     0.066 A 
ATOM     30  H7  UNL     1       4.354  -1.088  -2.033  1.00  0.00     0.167 HD
HETATM   31  C20 UNL     1       4.988   0.279   0.739  1.00  0.00     0.118 A 
HETATM   32  N9  UNL     1       3.637   0.454   0.591  1.00  0.00    -0.350 N 
ATOM     33  H9  UNL     1       3.041   0.929   1.268  1.00  0.00     0.166 HD
BRANCH  29  34
HETATM   34  C15 UNL     1       6.808  -0.823  -0.719  1.00  0.00     0.149 C 
HETATM   35  F1  UNL     1       6.673  -1.950  -1.516  1.00  0.00    -0.236 F 
HETATM   36  C16 UNL     1       7.438   0.242  -1.587  1.00  0.00     0.069 C 
HETATM   37  C17 UNL     1       8.904   0.359  -1.344  1.00  0.00     0.117 C 
HETATM   38  N8  UNL     1       9.123   0.712   0.033  1.00  0.00    -0.421 N 
HETATM   39  C18 UNL     1       8.567  -0.191   0.981  1.00  0.00     0.117 C 
ATOM     40  H8  UNL     1       9.639   1.548   0.309  1.00  0.00     0.153 HD
HETATM   41  C19 UNL     1       7.621  -1.211   0.464  1.00  0.00     0.069 C 
ENDBRANCH  29  34
ENDBRANCH  24  27
ENDBRANCH  22  24
ENDBRANCH  21  22
ENDBRANCH  20  21
ENDBRANCH  17  20
ENDBRANCH  10  14
TORSDOF 9
