REMARK  9 active torsions:
REMARK  status: ('A' for Active; 'I' for Inactive)
REMARK    1  A    between atoms: N2_5  and  C3_6 
REMARK    2  A    between atoms: C3_6  and  C4_7 
REMARK    3  A    between atoms: C4_7  and  O1_8 
REMARK    4  A    between atoms: C6_11  and  C7_12 
REMARK    5  A    between atoms: C11_17  and  C12_18 
REMARK    6  A    between atoms: C12_18  and  C13_19 
REMARK    7  A    between atoms: C16_24  and  N4_25 
REMARK    8  A    between atoms: C17_30  and  N6_31 
REMARK    9  A    between atoms: C18_34  and  N7_35 
ROOT
HETATM    1  C7  UNL     1      -1.176  -1.040  -0.140  1.00  0.00     0.005 A 
HETATM    2  C8  UNL     1      -0.934  -2.443  -0.083  1.00  0.00     0.018 A 
HETATM    3  C9  UNL     1       0.322  -2.887   0.132  1.00  0.00     0.044 A 
HETATM    4  C10 UNL     1       1.369  -1.986   0.296  1.00  0.00     0.125 A 
HETATM    5  F1  UNL     1       2.589  -2.553   0.552  1.00  0.00    -0.205 F 
HETATM    6  C11 UNL     1       1.132  -0.651   0.239  1.00  0.00     0.013 A 
HETATM    7  C18 UNL     1      -0.188  -0.139   0.015  1.00  0.00     0.058 A 
ENDROOT
BRANCH   6   8
HETATM    8  C12 UNL     1       2.190   0.351   0.322  1.00  0.00     0.088 C 
BRANCH   8   9
HETATM    9  C13 UNL     1       3.576  -0.115   0.371  1.00  0.00     0.013 A 
HETATM   10  C14 UNL     1       4.320  -0.506  -0.726  1.00  0.00     0.033 A 
HETATM   11  C15 UNL     1       3.769  -0.456  -2.112  1.00  0.00     0.069 C 
HETATM   12  N3  UNL     1       5.598  -0.919  -0.535  1.00  0.00    -0.196 N 
HETATM   13  C16 UNL     1       6.168  -0.959   0.680  1.00  0.00     0.677 A 
ATOM     14  H3  UNL     1       6.146  -1.210  -1.344  1.00  0.00     0.184 HD
HETATM   15  N5  UNL     1       5.472  -0.582   1.770  1.00  0.00    -0.177 N 
HETATM   16  C17 UNL     1       4.202  -0.168   1.617  1.00  0.00     0.123 A 
ATOM     17  H5  UNL     1       5.901  -0.610   2.695  1.00  0.00     0.185 HD
BRANCH  13  18
HETATM   18  N4  UNL     1       7.379  -1.354   0.900  1.00  0.00    -0.234 N 
ATOM     19  H42 UNL     1       7.906  -1.639   0.075  1.00  0.00     0.174 HD
ATOM     20  H41 UNL     1       7.812  -1.384   1.823  1.00  0.00     0.174 HD
ENDBRANCH  13  18
BRANCH  16  21
HETATM   21  N6  UNL     1       3.541   0.208   2.685  1.00  0.00    -0.385 N 
ATOM     22  H62 UNL     1       2.578   0.522   2.569  1.00  0.00     0.157 HD
ATOM     23  H61 UNL     1       3.999   0.169   3.596  1.00  0.00     0.157 HD
ENDBRANCH  16  21
ENDBRANCH   8   9
ENDBRANCH   6   8
BRANCH   7  24
HETATM   24  N7  UNL     1      -0.414   1.253   0.042  1.00  0.00    -0.314 N 
HETATM   25  C19 UNL     1      -0.953   1.893   1.260  1.00  0.00     0.160 C 
HETATM   26  C20 UNL     1      -0.270   3.237   1.463  1.00  0.00     0.253 C 
HETATM   27  N8  UNL     1      -0.519   4.054   0.307  1.00  0.00    -0.065 N 
HETATM   28  C21 UNL     1       0.251   3.561  -0.789  1.00  0.00     0.335 C 
ATOM     29  H82 UNL     1      -1.512   4.119   0.085  1.00  0.00     0.277 HD
ATOM     30  H81 UNL     1      -0.347   5.043   0.487  1.00  0.00     0.277 HD
HETATM   31  C22 UNL     1      -0.120   2.128  -1.009  1.00  0.00     0.250 C 
HETATM   32  O2  UNL     1      -0.154   1.744  -2.190  1.00  0.00    -0.271 OA
ENDBRANCH   7  24
BRANCH   1  33
HETATM   33  C6  UNL     1      -2.574  -0.690  -0.324  1.00  0.00     0.017 A 
HETATM   34  C2  UNL     1      -3.248  -0.562  -1.505  1.00  0.00     0.034 A 
HETATM   35  C1  UNL     1      -2.724  -0.623  -2.922  1.00  0.00     0.070 C 
HETATM   36  N1  UNL     1      -4.554  -0.339  -1.212  1.00  0.00    -0.302 N 
HETATM   37  N2  UNL     1      -4.757  -0.315   0.091  1.00  0.00    -0.300 N 
ATOM     38  H1  UNL     1      -5.286  -0.207  -1.910  1.00  0.00     0.186 HD
HETATM   39  C5  UNL     1      -3.554  -0.529   0.654  1.00  0.00     0.124 A 
BRANCH  37  40
HETATM   40  C3  UNL     1      -6.030  -0.123   0.783  1.00  0.00     0.174 C 
BRANCH  40  41
HETATM   41  C4  UNL     1      -6.691  -1.502   1.007  1.00  0.00     0.185 C 
BRANCH  41  42
HETATM   42  O1  UNL     1      -5.845  -2.267   1.789  1.00  0.00    -0.399 OA
ATOM     43  H1  UNL     1      -6.251  -3.115   1.927  1.00  0.00     0.209 HD
ENDBRANCH  41  42
ENDBRANCH  40  41
ENDBRANCH  37  40
ENDBRANCH   1  33
TORSDOF 9
