REMARK  8 active torsions:
REMARK  status: ('A' for Active; 'I' for Inactive)
REMARK    1  A    between atoms: N1_1  and  C1_4 
REMARK    2  A    between atoms: C4_12  and  S1_13 
REMARK    3  A    between atoms: S1_13  and  C5_14 
REMARK    4  A    between atoms: C5_14  and  C6_15 
REMARK    5  A    between atoms: C7_18  and  N5_19 
REMARK    6  A    between atoms: N5_19  and  C8_21 
REMARK    7  A    between atoms: C13_29  and  C14_30 
REMARK    8  A    between atoms: C14_30  and  C15_32 
ROOT
HETATM    1  C6  UNL     1       0.767  -0.585  -0.273  1.00  0.00     0.049 A 
HETATM    2  N4  UNL     1       1.410   0.549   0.015  1.00  0.00    -0.194 N 
ATOM      3  H4  UNL     1       0.870   1.384   0.243  1.00  0.00     0.184 HD
HETATM    4  C7  UNL     1       2.758   0.617   0.012  1.00  0.00     0.678 A 
HETATM    5  N6  UNL     1       3.450  -0.481  -0.288  1.00  0.00    -0.201 N 
ATOM      6  H6  UNL     1       4.468  -0.422  -0.289  1.00  0.00     0.183 HD
HETATM    7  C12 UNL     1       2.876  -1.682  -0.595  1.00  0.00     0.121 A 
HETATM    8  C13 UNL     1       1.497  -1.700  -0.578  1.00  0.00     0.022 A 
ENDROOT
BRANCH   1   9
HETATM    9  C5  UNL     1      -0.725  -0.632  -0.261  1.00  0.00     0.141 C 
BRANCH   9  10
HETATM   10  S1  UNL     1      -1.370   0.981   0.173  1.00  0.00    -0.088 SA
BRANCH  10  11
HETATM   11  C4  UNL     1      -3.164   0.928   0.188  1.00  0.00     0.146 A 
HETATM   12  N3  UNL     1      -3.993   1.950   0.470  1.00  0.00    -0.329 N 
HETATM   13  C3  UNL     1      -5.279   1.560   0.388  1.00  0.00     0.148 A 
ATOM     14  H3  UNL     1      -3.688   2.893   0.713  1.00  0.00     0.168 HD
HETATM   15  C2  UNL     1      -6.503   2.157   0.565  1.00  0.00     0.290 A 
HETATM   16  C16 UNL     1      -5.253   0.228   0.037  1.00  0.00     0.155 A 
HETATM   17  N2  UNL     1      -7.678   1.517   0.415  1.00  0.00    -0.154 N 
HETATM   18  O1  UNL     1      -6.528   3.375   0.885  1.00  0.00    -0.265 OA
HETATM   19  C1  UNL     1      -7.609   0.206   0.069  1.00  0.00     0.680 A 
ATOM     20  H2  UNL     1      -8.571   1.991   0.554  1.00  0.00     0.187 HD
HETATM   21  N8  UNL     1      -6.424  -0.407  -0.111  1.00  0.00    -0.174 N 
ATOM     22  H8  UNL     1      -6.417  -1.393  -0.370  1.00  0.00     0.186 HD
HETATM   23  N7  UNL     1      -3.954  -0.124  -0.076  1.00  0.00    -0.320 N 
ATOM     24  H7  UNL     1      -3.621  -1.055  -0.326  1.00  0.00     0.169 HD
BRANCH  19  25
HETATM   25  N1  UNL     1      -8.734  -0.413  -0.076  1.00  0.00    -0.234 N 
ATOM     26  H12 UNL     1      -9.632   0.051   0.060  1.00  0.00     0.174 HD
ATOM     27  H11 UNL     1      -8.682  -1.398  -0.336  1.00  0.00     0.174 HD
ENDBRANCH  19  25
ENDBRANCH  10  11
ENDBRANCH   9  10
ENDBRANCH   1   9
BRANCH   8  28
HETATM   28  C14 UNL     1       0.811  -2.949  -0.895  1.00  0.00     0.036 C 
HETATM   29  S2  UNL     1       0.193  -3.118  -2.393  1.00  0.00    -0.083 SA
BRANCH  28  30
HETATM   30  C15 UNL     1       0.703  -4.004   0.145  1.00  0.00     0.166 C 
HETATM   31 CL1  UNL     1      -0.173  -5.407  -0.505  1.00  0.00    -0.125 Cl
ENDBRANCH  28  30
ENDBRANCH   8  28
BRANCH   4  32
HETATM   32  N5  UNL     1       3.290   1.728   0.295  1.00  0.00    -0.219 N 
ATOM     33  H5  UNL     1       2.615   2.465   0.498  1.00  0.00     0.178 HD
BRANCH  32  34
HETATM   34  C8  UNL     1       4.634   2.149   0.385  1.00  0.00     0.125 C 
HETATM   35  C9  UNL     1       5.432   1.459   1.454  1.00  0.00     0.054 C 
HETATM   36  C10 UNL     1       6.796   1.297   0.840  1.00  0.00     0.169 C 
HETATM   37  O2  UNL     1       6.655   1.395  -0.517  1.00  0.00    -0.389 OA
HETATM   38  C11 UNL     1       5.469   1.985  -0.844  1.00  0.00     0.193 C 
ENDBRANCH  32  34
ENDBRANCH   4  32
TORSDOF 8
