REMARK  5 active torsions:
REMARK  status: ('A' for Active; 'I' for Inactive)
REMARK    1  A    between atoms: S1_2  and  C2_3 
REMARK       I    between atoms: N3_9  and  C4_11 
REMARK    2  A    between atoms: C4_11  and  C5_13 
REMARK    3  A    between atoms: C5_13  and  S2_14 
REMARK    4  A    between atoms: S2_14  and  C6_15 
REMARK    5  A    between atoms: C9_23  and  C10_24 
ROOT
HETATM    1  C6  UNL     1      -0.759  -0.393  -1.225  1.00  0.00     0.149 A 
HETATM    2  N4  UNL     1      -0.837   0.808  -0.628  1.00  0.00    -0.302 N 
ATOM      3  H4  UNL     1       0.002   1.389  -0.620  1.00  0.00     0.171 HD
HETATM    4  C7  UNL     1      -1.936   1.296  -0.044  1.00  0.00     0.278 A 
HETATM    5  O2  UNL     1      -2.011   2.403   0.507  1.00  0.00    -0.265 OA
HETATM    6  C8  UNL     1      -3.070   0.476  -0.072  1.00  0.00     0.147 A 
HETATM    7  N5  UNL     1      -4.319   0.632   0.400  1.00  0.00    -0.334 N 
ATOM      8  H5  UNL     1      -4.650   1.458   0.899  1.00  0.00     0.168 HD
HETATM    9  C9  UNL     1      -5.072  -0.445   0.126  1.00  0.00     0.120 A 
HETATM   10  N8  UNL     1      -4.257  -1.286  -0.533  1.00  0.00    -0.326 N 
ATOM     11  H8  UNL     1      -4.534  -2.204  -0.881  1.00  0.00     0.169 HD
HETATM   12  C13 UNL     1      -3.039  -0.763  -0.672  1.00  0.00     0.141 A 
HETATM   13  N9  UNL     1      -1.873  -1.152  -1.229  1.00  0.00    -0.321 N 
ATOM     14  H9  UNL     1      -1.833  -2.068  -1.676  1.00  0.00     0.169 HD
ENDROOT
BRANCH   1  15
HETATM   15  S2  UNL     1       0.761  -0.983  -1.994  1.00  0.00    -0.084 SA
BRANCH  15  16
HETATM   16  C5  UNL     1       2.050   0.274  -1.821  1.00  0.00     0.185 C 
BRANCH  16  17
HETATM   17  C4  UNL     1       2.471   0.497  -0.438  1.00  0.00     0.233 C 
HETATM   18  N3  UNL     1       3.476   1.447  -0.144  1.00  0.00    -0.305 N 
HETATM   19  C3  UNL     1       4.700   0.994   0.015  1.00  0.00     0.168 A 
ATOM     20  H3  UNL     1       3.261   2.440  -0.059  1.00  0.00     0.171 HD
HETATM   21  N2  UNL     1       5.146  -0.261  -0.062  1.00  0.00    -0.278 N 
HETATM   22  S3  UNL     1       6.141   1.851   0.372  1.00  0.00    -0.026 SA
HETATM   23  N1  UNL     1       6.379  -0.490   0.125  1.00  0.00    -0.286 N 
ATOM     24  H2  UNL     1       4.504  -1.026  -0.269  1.00  0.00     0.189 HD
HETATM   25  C2  UNL     1       7.211   0.505   0.393  1.00  0.00     0.129 A 
ATOM     26  H1  UNL     1       6.732  -1.445   0.069  1.00  0.00     0.188 HD
HETATM   27  O1  UNL     1       1.939  -0.157   0.486  1.00  0.00    -0.272 OA
BRANCH  25  28
HETATM   28  S1  UNL     1       8.986   0.452   0.696  1.00  0.00    -0.108 SA
HETATM   29  C1  UNL     1       9.202   0.219   2.479  1.00  0.00     0.097 C 
ENDBRANCH  25  28
ENDBRANCH  16  17
ENDBRANCH  15  16
ENDBRANCH   1  15
BRANCH   9  30
HETATM   30  C10 UNL     1      -6.470  -0.700   0.446  1.00  0.00     0.042 A 
HETATM   31  C11 UNL     1      -7.200  -1.828   0.143  1.00  0.00     0.123 A 
HETATM   32  N6  UNL     1      -8.449  -1.644   0.621  1.00  0.00    -0.311 N 
HETATM   33  N7  UNL     1      -8.554  -0.459   1.212  1.00  0.00    -0.311 N 
ATOM     34  H6  UNL     1      -9.207  -2.321   0.540  1.00  0.00     0.186 HD
HETATM   35  C12 UNL     1      -7.345   0.132   1.111  1.00  0.00     0.123 A 
ATOM     36  H7  UNL     1      -9.386  -0.071   1.656  1.00  0.00     0.186 HD
ENDBRANCH   9  30
TORSDOF 5
