REMARK  6 active torsions:
REMARK  status: ('A' for Active; 'I' for Inactive)
REMARK    1  A    between atoms: C3_5  and  C4_6 
REMARK    2  A    between atoms: C11_19  and  N4_20 
REMARK    3  A    between atoms: N4_20  and  N5_22 
REMARK    4  A    between atoms: N5_22  and  C12_23 
REMARK    5  A    between atoms: C12_23  and  C13_24 
REMARK    6  A    between atoms: C12_23  and  C14_27 
ROOT
HETATM    1  C1  UNL     1      -0.568   4.453   1.463  1.00  0.00     0.076 C 
HETATM    2  C2  UNL     1      -0.380   3.121   0.762  1.00  0.00     0.049 A 
HETATM    3  N1  UNL     1       0.724   2.484   0.508  1.00  0.00    -0.349 N 
ATOM      4  H1  UNL     1       1.615   2.888   0.797  1.00  0.00     0.166 HD
HETATM    5  C3  UNL     1       0.710   1.323  -0.118  1.00  0.00     0.113 A 
HETATM    6  C11 UNL     1      -0.515   0.839  -0.477  1.00  0.00     0.118 A 
HETATM    7  S2  UNL     1      -1.564   2.093   0.113  1.00  0.00    -0.056 SA
ENDROOT
BRANCH   5   8
HETATM    8  C4  UNL     1       2.005   0.615  -0.395  1.00  0.00     0.139 A 
HETATM    9  N2  UNL     1       2.067  -0.550  -1.017  1.00  0.00    -0.307 N 
HETATM   10  C5  UNL     1       3.196  -1.218  -1.285  1.00  0.00     0.256 A 
ATOM     11  H2  UNL     1       1.188  -0.972  -1.315  1.00  0.00     0.170 HD
HETATM   12  O1  UNL     1       3.173  -2.331  -1.886  1.00  0.00    -0.268 OA
HETATM   13  C6  UNL     1       4.418  -0.662  -0.889  1.00  0.00     0.044 A 
HETATM   14  C7  UNL     1       4.353   0.522  -0.257  1.00  0.00     0.083 A 
HETATM   15  C10 UNL     1       5.731  -1.254  -1.103  1.00  0.00     0.062 C 
HETATM   16  N3  UNL     1       3.176   1.150  -0.014  1.00  0.00    -0.334 N 
HETATM   17  S1  UNL     1       6.036   1.009   0.143  1.00  0.00    -0.107 SA
ATOM     18  H3  UNL     1       3.180   2.048   0.469  1.00  0.00     0.168 HD
HETATM   19  C8  UNL     1       6.781  -0.603  -0.325  1.00  0.00     0.054 C 
HETATM   20  C9  UNL     1       7.280  -1.345   0.869  1.00  0.00     0.022 C 
ENDBRANCH   5   8
BRANCH   6  21
HETATM   21  N4  UNL     1      -0.925  -0.355  -1.153  1.00  0.00    -0.295 N 
ATOM     22  H4  UNL     1      -0.217  -1.024  -1.455  1.00  0.00     0.183 HD
BRANCH  21  23
HETATM   23  N5  UNL     1      -2.268  -0.625  -1.408  1.00  0.00    -0.124 NA
BRANCH  23  24
HETATM   24  C12 UNL     1      -3.017  -0.960  -0.241  1.00  0.00     0.217 C 
BRANCH  24  25
HETATM   25  C13 UNL     1      -2.443  -2.174   0.390  1.00  0.00     0.254 C 
HETATM   26  N6  UNL     1      -2.992  -2.740   1.582  1.00  0.00    -0.060 NA
HETATM   27  O2  UNL     1      -1.443  -2.722  -0.139  1.00  0.00    -0.275 OA
ENDBRANCH  24  25
BRANCH  24  28
HETATM   28  C14 UNL     1      -4.466  -1.326  -0.590  1.00  0.00     0.151 C 
HETATM   29  C15 UNL     1      -5.202  -0.155  -1.163  1.00  0.00     0.036 C 
HETATM   30  C16 UNL     1      -5.682   0.573   0.057  1.00  0.00     0.029 C 
HETATM   31  C17 UNL     1      -5.600  -0.464   1.134  1.00  0.00     0.168 C 
HETATM   32  O3  UNL     1      -5.180  -1.648   0.538  1.00  0.00    -0.384 OA
ENDBRANCH  24  28
ENDBRANCH  23  24
ENDBRANCH  21  23
ENDBRANCH   6  21
TORSDOF 6
