REMARK  9 active torsions:
REMARK  status: ('A' for Active; 'I' for Inactive)
REMARK    1  A    between atoms: C2_2  and  C3_3 
REMARK    2  A    between atoms: C3_3  and  N1_4 
REMARK    3  A    between atoms: C6_12  and  C7_13 
REMARK    4  A    between atoms: C11_22  and  N7_23 
REMARK    5  A    between atoms: C12_28  and  N9_29 
REMARK    6  A    between atoms: N9_29  and  C13_31 
REMARK    7  A    between atoms: N10_35  and  C17_36 
REMARK    8  A    between atoms: C17_36  and  C18_37 
REMARK    9  A    between atoms: C18_37  and  O2_39 
ROOT
HETATM    1  C7  UNL     1       3.293  -1.067   0.119  1.00  0.00     0.067 A 
HETATM    2  C8  UNL     1       3.468  -2.239   0.894  1.00  0.00     0.109 A 
HETATM    3  N4  UNL     1       4.673  -2.788   1.080  1.00  0.00    -0.343 N 
ATOM      4  H4  UNL     1       4.763  -3.633   1.645  1.00  0.00     0.167 HD
HETATM    5  C9  UNL     1       5.764  -2.237   0.530  1.00  0.00     0.189 A 
HETATM    6  C10 UNL     1       7.044  -2.858   0.755  1.00  0.00     0.137 C 
HETATM    7  N5  UNL     1       8.070  -3.357   0.955  1.00  0.00    -0.188 NA
HETATM    8  N6  UNL     1       5.657  -1.146  -0.203  1.00  0.00    -0.319 N 
ATOM      9  H6  UNL     1       6.494  -0.736  -0.617  1.00  0.00     0.169 HD
HETATM   10  C11 UNL     1       4.432  -0.550  -0.420  1.00  0.00     0.116 A 
ENDROOT
BRANCH  10  11
HETATM   11  N7  UNL     1       4.445   0.423  -1.194  1.00  0.00    -0.385 N 
ATOM     12  H72 UNL     1       3.539   0.864  -1.354  1.00  0.00     0.157 HD
ATOM     13  H71 UNL     1       5.298   0.810  -1.598  1.00  0.00     0.157 HD
ENDBRANCH  10  11
BRANCH   1  14
HETATM   14  C6  UNL     1       1.936  -0.585  -0.036  1.00  0.00     0.123 A 
HETATM   15  N3  UNL     1       0.945  -1.540   0.109  1.00  0.00    -0.325 N 
HETATM   16  C5  UNL     1      -0.347  -1.260  -0.077  1.00  0.00     0.154 A 
ATOM     17  H3  UNL     1       1.211  -2.490   0.367  1.00  0.00     0.169 HD
HETATM   18  N2  UNL     1      -1.474  -2.035   0.010  1.00  0.00    -0.174 N 
HETATM   19  C16 UNL     1      -0.762  -0.006  -0.424  1.00  0.00     0.140 A 
HETATM   20  C4  UNL     1      -2.522  -1.277  -0.272  1.00  0.00     0.687 A 
ATOM     21  H2  UNL     1      -1.501  -3.026   0.251  1.00  0.00     0.186 HD
HETATM   22  N1  UNL     1      -3.757  -1.558  -0.316  1.00  0.00    -0.202 N 
HETATM   23  N10 UNL     1      -2.089   0.013  -0.550  1.00  0.00    -0.166 N 
ATOM     24  H1  UNL     1      -4.345  -0.763  -0.566  1.00  0.00     0.183 HD
HETATM   25  C12 UNL     1       0.216   0.970  -0.574  1.00  0.00     0.135 A 
HETATM   26  N8  UNL     1       1.504   0.624  -0.370  1.00  0.00    -0.326 N 
ATOM     27  H8  UNL     1       2.206   1.355  -0.482  1.00  0.00     0.169 HD
BRANCH  22  28
HETATM   28  C3  UNL     1      -4.469  -2.716  -0.096  1.00  0.00     0.105 C 
BRANCH  28  29
HETATM   29  C2  UNL     1      -3.782  -4.017  -0.082  1.00  0.00     0.007 C 
HETATM   30  C1  UNL     1      -3.832  -4.793   0.993  1.00  0.00     0.012 C 
ENDBRANCH  28  29
ENDBRANCH  22  28
BRANCH  23  31
HETATM   31  C17 UNL     1      -2.924   1.135  -0.903  1.00  0.00     0.259 C 
BRANCH  31  32
HETATM   32  C18 UNL     1      -3.367   1.896   0.297  1.00  0.00     0.277 C 
HETATM   33  O1  UNL     1      -4.103   2.906   0.161  1.00  0.00    -0.263 OA
BRANCH  32  34
HETATM   34  O2  UNL     1      -3.009   1.555   1.594  1.00  0.00    -0.325 OA
HETATM   35  C19 UNL     1      -3.465   2.326   2.717  1.00  0.00     0.213 C 
ENDBRANCH  32  34
ENDBRANCH  31  32
ENDBRANCH  23  31
BRANCH  25  36
HETATM   36  N9  UNL     1      -0.104   2.130  -0.888  1.00  0.00    -0.370 N 
ATOM     37  H9  UNL     1      -1.110   2.249  -1.010  1.00  0.00     0.161 HD
BRANCH  36  38
HETATM   38  C13 UNL     1       0.625   3.317  -1.112  1.00  0.00     0.075 C 
HETATM   39  C14 UNL     1       1.256   3.792   0.169  1.00  0.00     0.031 C 
HETATM   40  C15 UNL     1       1.616   3.249  -2.238  1.00  0.00     0.031 C 
ENDBRANCH  36  38
ENDBRANCH  25  36
ENDBRANCH   1  14
TORSDOF 9
