REMARK  6 active torsions:
REMARK  status: ('A' for Active; 'I' for Inactive)
REMARK    1  A    between atoms: C3_3  and  C4_4 
REMARK       I    between atoms: C4_4  and  N1_6 
REMARK    2  A    between atoms: N1_6  and  N2_8 
REMARK    3  A    between atoms: C11_19  and  C12_20 
REMARK       I    between atoms: C12_20  and  N4_22 
REMARK    4  A    between atoms: N4_22  and  N5_24 
REMARK    5  A    between atoms: C13_26  and  C14_27 
REMARK    6  A    between atoms: C15_28  and  O3_29 
ROOT
HETATM    1  C1  UNL     1       0.446  -0.659   0.455  1.00  0.00     0.052 C 
HETATM    2  C2  UNL     1      -0.012  -1.945  -0.250  1.00  0.00    -0.005 A 
HETATM    3  C3  UNL     1       0.864  -2.969  -0.466  1.00  0.00     0.116 A 
HETATM    4  N3  UNL     1       0.357  -4.096  -0.979  1.00  0.00    -0.321 N 
ATOM      5  H3  UNL     1       0.861  -4.955  -1.200  1.00  0.00     0.174 HD
HETATM    6  S1  UNL     1      -1.256  -3.803  -1.179  1.00  0.00    -0.008 SA
HETATM    7  C11 UNL     1      -1.319  -2.152  -0.581  1.00  0.00     0.099 A 
ENDROOT
BRANCH   7   8
HETATM    8  C12 UNL     1      -2.528  -1.352  -0.524  1.00  0.00     0.278 C 
HETATM    9  O2  UNL     1      -3.615  -1.917  -0.887  1.00  0.00    -0.265 OA
HETATM   10  N4  UNL     1      -2.629  -0.037  -0.118  1.00  0.00    -0.266 N 
ATOM     11  H4  UNL     1      -1.783   0.455   0.168  1.00  0.00     0.190 HD
BRANCH  10  12
HETATM   12  N5  UNL     1      -3.874   0.660  -0.084  1.00  0.00    -0.307 N 
HETATM   13  C13 UNL     1      -4.888   0.128   0.480  1.00  0.00     0.141 C 
ATOM     14  H5  UNL     1      -3.953   1.583  -0.510  1.00  0.00     0.186 HD
BRANCH  13  15
HETATM   15  C14 UNL     1      -6.189   0.811   0.538  1.00  0.00     0.106 A 
HETATM   16  C15 UNL     1      -7.352   0.346   1.110  1.00  0.00     0.173 A 
HETATM   17  N6  UNL     1      -8.270   1.310   0.920  1.00  0.00    -0.287 N 
HETATM   18  C16 UNL     1      -7.688   2.327   0.256  1.00  0.00     0.328 A 
ATOM     19  H6  UNL     1      -9.242   1.277   1.227  1.00  0.00     0.172 HD
HETATM   20  O4  UNL     1      -8.259   3.412  -0.096  1.00  0.00    -0.246 OA
HETATM   21  N7  UNL     1      -6.400   2.037   0.010  1.00  0.00    -0.299 N 
HETATM   22  C17 UNL     1      -5.443   2.881  -0.682  1.00  0.00     0.161 C 
BRANCH  16  23
HETATM   23  O3  UNL     1      -7.525  -0.884   1.754  1.00  0.00    -0.344 OA
ATOM     24  H3  UNL     1      -8.327  -1.205   2.149  1.00  0.00     0.219 HD
ENDBRANCH  16  23
ENDBRANCH  13  15
ENDBRANCH  10  12
ENDBRANCH   7   8
BRANCH   3  25
HETATM   25  C4  UNL     1       2.357  -2.934  -0.304  1.00  0.00     0.287 C 
HETATM   26  O1  UNL     1       2.964  -3.934   0.125  1.00  0.00    -0.264 OA
HETATM   27  N1  UNL     1       3.041  -1.758  -0.654  1.00  0.00    -0.265 N 
ATOM     28  H1  UNL     1       2.540  -0.947  -1.016  1.00  0.00     0.190 HD
BRANCH  27  29
HETATM   29  N2  UNL     1       4.431  -1.732  -0.491  1.00  0.00    -0.306 N 
HETATM   30  C5  UNL     1       5.192  -0.729  -0.583  1.00  0.00     0.004 C 
HETATM   31  C6  UNL     1       6.650  -0.964  -0.363  1.00  0.00     0.054 C 
HETATM   32  C10 UNL     1       4.740   0.639  -0.886  1.00  0.00     0.054 C 
HETATM   33  C7  UNL     1       7.332   0.373  -0.283  1.00  0.00     0.006 C 
HETATM   34  C8  UNL     1       6.589   1.245   0.709  1.00  0.00     0.001 C 
HETATM   35  C9  UNL     1       5.203   1.561   0.240  1.00  0.00     0.006 C 
ATOM     36  H2  UNL     1       4.879  -2.622  -0.274  1.00  0.00     0.186 HD
ENDBRANCH  27  29
ENDBRANCH   3  25
TORSDOF 6
