REMARK  11 active torsions:
REMARK  status: ('A' for Active; 'I' for Inactive)
REMARK    1  A    between atoms: N1_2  and  N2_4 
REMARK    2  A    between atoms: N2_4  and  S1_6 
REMARK    3  A    between atoms: S1_6  and  C3_9 
REMARK    4  A    between atoms: C5_11  and  N3_12 
REMARK       I    between atoms: N3_12  and  C6_14 
REMARK    5  A    between atoms: C6_14  and  C7_16 
REMARK    6  A    between atoms: C7_16  and  O4_17 
REMARK    7  A    between atoms: N4_19  and  N5_21 
REMARK    8  A    between atoms: C8_24  and  O5_25 
REMARK    9  A    between atoms: N6_27  and  C9_28 
REMARK   10  A    between atoms: C9_28  and  C10_29 
REMARK   11  A    between atoms: C10_29  and  N7_31 
ROOT
HETATM    1  C3  UNL     1      -1.536  -1.431  -1.243  1.00  0.00     0.099 A 
HETATM    2  C4  UNL     1      -1.805  -0.058  -1.127  1.00  0.00     0.060 A 
HETATM    3  C5  UNL     1      -0.805   0.883  -1.068  1.00  0.00     0.088 A 
HETATM    4  C8  UNL     1       0.520   0.439  -1.126  1.00  0.00     0.170 A 
HETATM    5  N6  UNL     1       0.782  -0.864  -1.236  1.00  0.00    -0.328 N 
HETATM    6  C15 UNL     1      -0.210  -1.787  -1.294  1.00  0.00     0.119 A 
ENDROOT
BRANCH   5   7
HETATM    7  C9  UNL     1       2.158  -1.313  -1.296  1.00  0.00     0.200 C 
BRANCH   7   8
HETATM    8  C10 UNL     1       2.714  -1.597   0.038  1.00  0.00     0.097 C 
HETATM    9  S2  UNL     1       1.780  -1.389   1.355  1.00  0.00    -0.064 SA
BRANCH   8  10
HETATM   10  N7  UNL     1       4.058  -2.046   0.122  1.00  0.00    -0.335 N 
HETATM   11  C11 UNL     1       5.012  -1.260   0.479  1.00  0.00     0.111 A 
HETATM   12  C12 UNL     1       4.703   0.046   0.782  1.00  0.00     0.110 A 
HETATM   13  N9  UNL     1       6.285  -1.633   0.573  1.00  0.00    -0.338 N 
HETATM   14  C13 UNL     1       5.679   0.957   1.176  1.00  0.00     0.192 A 
HETATM   15  F1  UNL     1       5.366   2.229   1.469  1.00  0.00    -0.186 F 
HETATM   16  N8  UNL     1       6.945   0.516   1.250  1.00  0.00    -0.329 N 
HETATM   17  C14 UNL     1       7.249  -0.757   0.955  1.00  0.00     0.184 A 
ATOM     18  H8  UNL     1       7.685   1.157   1.534  1.00  0.00     0.169 HD
ATOM     19  H9  UNL     1       6.542  -2.596   0.354  1.00  0.00     0.168 HD
ATOM     20  H7  UNL     1       4.273  -3.017  -0.107  1.00  0.00     0.168 HD
ENDBRANCH   8  10
ENDBRANCH   7   8
ENDBRANCH   5   7
BRANCH   4  21
HETATM   21  O5  UNL     1       1.542   1.351  -1.069  1.00  0.00    -0.344 OA
ATOM     22  H5  UNL     1       2.442   1.049  -1.108  1.00  0.00     0.219 HD
ENDBRANCH   4  21
BRANCH   3  23
HETATM   23  N3  UNL     1      -1.036   2.256  -0.952  1.00  0.00    -0.316 N 
HETATM   24  C6  UNL     1      -2.270   2.920  -0.878  1.00  0.00     0.298 C 
HETATM   25  O3  UNL     1      -3.404   2.401  -0.900  1.00  0.00    -0.263 OA
ATOM     26  H3  UNL     1      -0.206   2.848  -0.917  1.00  0.00     0.169 HD
BRANCH  24  27
HETATM   27  C7  UNL     1      -2.265   4.385  -0.759  1.00  0.00     0.224 C 
HETATM   28  N4  UNL     1      -1.152   5.048  -0.724  1.00  0.00    -0.282 N 
ATOM     29  H4  UNL     1      -0.271   4.537  -0.781  1.00  0.00     0.188 HD
BRANCH  27  30
HETATM   30  O4  UNL     1      -3.439   5.083  -0.682  1.00  0.00    -0.341 OA
ATOM     31  H4  UNL     1      -3.436   6.030  -0.605  1.00  0.00     0.219 HD
ENDBRANCH  27  30
BRANCH  28  32
HETATM   32  N5  UNL     1      -1.120   6.418  -0.613  1.00  0.00    -0.343 N 
ATOM     33  H52 UNL     1      -2.010   6.913  -0.557  1.00  0.00     0.176 HD
ATOM     34  H51 UNL     1      -0.244   6.940  -0.585  1.00  0.00     0.176 HD
ENDBRANCH  28  32
ENDBRANCH  24  27
ENDBRANCH   3  23
BRANCH   1  35
HETATM   35  S1  UNL     1      -2.838  -2.601  -1.316  1.00  0.00     0.277 S 
HETATM   36  O1  UNL     1      -3.985  -1.945  -2.018  1.00  0.00    -0.199 OA
HETATM   37  O2  UNL     1      -2.354  -3.756  -2.157  1.00  0.00    -0.199 OA
BRANCH  35  38
HETATM   38  N2  UNL     1      -3.245  -3.122   0.268  1.00  0.00    -0.226 N 
ATOM     39  H2  UNL     1      -2.801  -3.924   0.715  1.00  0.00     0.200 HD
BRANCH  38  40
HETATM   40  N1  UNL     1      -4.208  -2.379   0.881  1.00  0.00    -0.327 N 
HETATM   41  C1  UNL     1      -3.767  -1.245   1.615  1.00  0.00     0.171 C 
HETATM   42  C2  UNL     1      -5.276  -3.109   1.484  1.00  0.00     0.171 C 
ENDBRANCH  38  40
ENDBRANCH  35  38
ENDBRANCH   1  35
TORSDOF 11
