REMARK  10 active torsions:
REMARK  status: ('A' for Active; 'I' for Inactive)
REMARK    1  A    between atoms: C4_5  and  O1_6 
REMARK    2  A    between atoms: O1_6  and  C5_7 
REMARK    3  A    between atoms: C5_7  and  C6_9 
REMARK    4  A    between atoms: C12_19  and  N1_20 
REMARK       I    between atoms: N1_20  and  C13_22 
REMARK    5  A    between atoms: C13_22  and  C14_24 
REMARK    6  A    between atoms: C14_24  and  N2_25 
REMARK    7  A    between atoms: C14_24  and  C16_30 
REMARK    8  A    between atoms: C16_30  and  O9_32 
REMARK    9  A    between atoms: O9_32  and  C17_33 
REMARK       I    between atoms: C17_33  and  N5_35 
REMARK   10  A    between atoms: N5_35  and  N6_37 
ROOT
HETATM    1  N1  UNL     1       0.274   0.008   0.524  1.00  0.00    -0.344 N 
ATOM      2  H1  UNL     1       0.238  -0.999   0.364  1.00  0.00     0.163 HD
HETATM    3  C13 UNL     1       1.268   0.735  -0.134  1.00  0.00     0.251 C 
HETATM    4  O7  UNL     1       1.347   1.974   0.035  1.00  0.00    -0.271 OA
ENDROOT
BRANCH   1   5
HETATM    5  C12 UNL     1      -0.710   0.584   1.418  1.00  0.00     0.198 C 
HETATM    6  C7  UNL     1      -2.071   0.085   1.206  1.00  0.00     0.044 C 
HETATM    7  C4  UNL     1      -2.845   0.367  -0.004  1.00  0.00     0.149 C 
HETATM    8  C8  UNL     1      -3.001   0.340   2.405  1.00  0.00     0.028 C 
HETATM    9  C10 UNL     1      -2.008  -1.331   1.670  1.00  0.00     0.152 C 
HETATM   10  C3  UNL     1      -4.029  -0.561  -0.131  1.00  0.00     0.077 C 
HETATM   11  C2  UNL     1      -4.360  -1.332   1.104  1.00  0.00     0.108 C 
HETATM   12  C1  UNL     1      -4.346  -2.848   0.855  1.00  0.00     0.052 C 
HETATM   13  F1  UNL     1      -5.644  -1.059   1.585  1.00  0.00    -0.243 F 
HETATM   14  C9  UNL     1      -3.413  -1.086   2.242  1.00  0.00     0.056 C 
HETATM   15  O5  UNL     1      -1.011  -1.304   2.675  1.00  0.00    -0.313 OA
HETATM   16  C11 UNL     1      -0.411  -0.057   2.758  1.00  0.00     0.283 C 
HETATM   17  O6  UNL     1       0.235   0.499   3.655  1.00  0.00    -0.263 OA
BRANCH   7  18
HETATM   18  O1  UNL     1      -2.140   0.574  -1.175  1.00  0.00    -0.306 OA
BRANCH  18  19
HETATM   19  C5  UNL     1      -2.062   1.730  -1.893  1.00  0.00     0.360 C 
HETATM   20  O2  UNL     1      -2.728   2.686  -1.384  1.00  0.00    -0.252 OA
BRANCH  19  21
HETATM   21  C6  UNL     1      -1.319   1.916  -3.110  1.00  0.00     0.277 C 
HETATM   22  O3  UNL     1      -0.666   0.961  -3.596  1.00  0.00    -0.640 OA
HETATM   23  O4  UNL     1      -1.291   3.125  -3.782  1.00  0.00    -0.640 OA
ENDBRANCH  19  21
ENDBRANCH  18  19
ENDBRANCH   7  18
ENDBRANCH   1   5
BRANCH   3  24
HETATM   24  C14 UNL     1       2.222   0.038  -1.027  1.00  0.00     0.277 C 
BRANCH  24  25
HETATM   25  N2  UNL     1       1.961  -1.378  -1.109  1.00  0.00    -0.345 N 
HETATM   26  C15 UNL     1       2.323  -2.115  -2.094  1.00  0.00     0.198 C 
HETATM   27  N3  UNL     1       2.000  -3.489  -2.042  1.00  0.00    -0.067 NA
HETATM   28  N4  UNL     1       3.025  -1.611  -3.218  1.00  0.00    -0.067 NA
ATOM     29  H2  UNL     1       1.459  -1.819  -0.338  1.00  0.00     0.163 HD
ENDBRANCH  24  25
BRANCH  24  30
HETATM   30  C16 UNL     1       3.603   0.288  -0.484  1.00  0.00     0.299 C 
HETATM   31  O8  UNL     1       4.367  -0.658  -0.161  1.00  0.00    -0.262 OA
BRANCH  30  32
HETATM   32  O9  UNL     1       4.079   1.572  -0.321  1.00  0.00    -0.224 OA
BRANCH  32  33
HETATM   33  C17 UNL     1       5.341   1.859   0.176  1.00  0.00     0.386 C 
HETATM   34  O10 UNL     1       6.081   0.896   0.490  1.00  0.00    -0.236 OA
HETATM   35  N5  UNL     1       5.817   3.185   0.338  1.00  0.00    -0.252 N 
ATOM     36  H5  UNL     1       5.223   3.975   0.085  1.00  0.00     0.191 HD
BRANCH  35  37
HETATM   37  N6  UNL     1       7.095   3.407   0.842  1.00  0.00    -0.341 N 
ATOM     38  H62 UNL     1       7.676   2.606   1.090  1.00  0.00     0.177 HD
ATOM     39  H61 UNL     1       7.437   4.361   0.959  1.00  0.00     0.177 HD
ENDBRANCH  35  37
ENDBRANCH  32  33
ENDBRANCH  30  32
ENDBRANCH  24  30
ENDBRANCH   3  24
TORSDOF 10
