REMARK  8 active torsions:
REMARK  status: ('A' for Active; 'I' for Inactive)
REMARK    1  A    between atoms: N1_1  and  C1_4 
REMARK       I    between atoms: N3_8  and  C3_10 
REMARK    2  A    between atoms: C3_10  and  C4_12 
REMARK    3  A    between atoms: C5_15  and  S1_16 
REMARK    4  A    between atoms: S1_16  and  N5_17 
REMARK    5  A    between atoms: C6_27  and  S3_28 
REMARK    6  A    between atoms: S3_28  and  C7_29 
REMARK    7  A    between atoms: C7_29  and  C8_30 
REMARK       I    between atoms: C8_30  and  N8_32 
REMARK    8  A    between atoms: C9_34  and  C10_35 
ROOT
HETATM    1  C1  UNL     1      -2.205  -0.815   1.705  1.00  0.00     0.124 A 
HETATM    2  N2  UNL     1      -1.105  -0.112   1.950  1.00  0.00    -0.322 N 
ATOM      3  H2  UNL     1      -0.537  -0.408   2.744  1.00  0.00     0.169 HD
HETATM    4  C2  UNL     1      -0.666   0.952   1.254  1.00  0.00     0.154 A 
HETATM    5  N3  UNL     1       0.434   1.579   1.577  1.00  0.00    -0.300 N 
ATOM      6  H3  UNL     1       0.749   2.383   1.034  1.00  0.00     0.171 HD
HETATM    7  C3  UNL     1       1.184   1.128   2.691  1.00  0.00     0.293 C 
HETATM    8  O1  UNL     1       0.786   1.473   3.839  1.00  0.00    -0.264 OA
HETATM    9  S2  UNL     1      -1.651   1.402  -0.060  1.00  0.00    -0.045 SA
HETATM   10  C6  UNL     1      -3.018   0.415  -0.249  1.00  0.00     0.070 A 
HETATM   11  C11 UNL     1      -3.114  -0.602   0.699  1.00  0.00     0.101 A 
HETATM   12 CL1  UNL     1      -4.531  -1.658   0.529  1.00  0.00    -0.078 Cl
ENDROOT
BRANCH   1  13
HETATM   13  N1  UNL     1      -2.488  -1.833   2.484  1.00  0.00    -0.384 N 
ATOM     14  H12 UNL     1      -1.812  -1.991   3.232  1.00  0.00     0.157 HD
ATOM     15  H11 UNL     1      -3.333  -2.373   2.296  1.00  0.00     0.157 HD
ENDBRANCH   1  13
BRANCH   7  16
HETATM   16  C4  UNL     1       2.373   0.297   2.517  1.00  0.00     0.192 A 
HETATM   17  N4  UNL     1       3.181  -0.203   3.476  1.00  0.00    -0.311 N 
HETATM   18  C5  UNL     1       4.165  -0.917   2.911  1.00  0.00     0.240 A 
ATOM     19  H4  UNL     1       3.061  -0.059   4.479  1.00  0.00     0.170 HD
HETATM   20  N6  UNL     1       3.976  -0.867   1.583  1.00  0.00    -0.273 N 
HETATM   21  N7  UNL     1       2.901  -0.139   1.352  1.00  0.00    -0.279 N 
ATOM     22  H6  UNL     1       4.561  -1.314   0.877  1.00  0.00     0.189 HD
ATOM     23  H7  UNL     1       2.523   0.066   0.427  1.00  0.00     0.189 HD
BRANCH  18  24
HETATM   24  S1  UNL     1       5.462  -1.759   3.730  1.00  0.00     0.290 S 
HETATM   25  O2  UNL     1       5.944  -1.048   4.947  1.00  0.00    -0.198 OA
HETATM   26  O3  UNL     1       6.629  -1.839   2.768  1.00  0.00    -0.198 OA
BRANCH  24  27
HETATM   27  N5  UNL     1       5.011  -3.391   4.095  1.00  0.00    -0.322 N 
ATOM     28  H52 UNL     1       4.104  -3.794   3.857  1.00  0.00     0.169 HD
ATOM     29  H51 UNL     1       5.767  -3.882   4.572  1.00  0.00     0.169 HD
ENDBRANCH  24  27
ENDBRANCH  18  24
ENDBRANCH   7  16
BRANCH  10  30
HETATM   30  S3  UNL     1      -4.270   0.592  -1.526  1.00  0.00    -0.111 SA
BRANCH  30  31
HETATM   31  C7  UNL     1      -3.874  -0.378  -2.982  1.00  0.00     0.183 C 
BRANCH  31  32
HETATM   32  C8  UNL     1      -2.694   0.145  -3.725  1.00  0.00     0.231 C 
HETATM   33  O4  UNL     1      -1.575  -0.153  -3.259  1.00  0.00    -0.272 OA
HETATM   34  N8  UNL     1      -2.887   0.897  -4.848  1.00  0.00    -0.330 N 
HETATM   35  C9  UNL     1      -2.485   1.983  -5.259  1.00  0.00     0.175 C 
ATOM     36  H8  UNL     1      -3.521   0.447  -5.508  1.00  0.00     0.168 HD
BRANCH  35  37
HETATM   37  C10 UNL     1      -1.585   2.871  -4.578  1.00  0.00     0.214 C 
HETATM   38  O5  UNL     1      -1.109   2.618  -3.457  1.00  0.00    -0.643 OA
HETATM   39  O6  UNL     1      -1.208   4.086  -5.184  1.00  0.00    -0.643 OA
ENDBRANCH  35  37
ENDBRANCH  31  32
ENDBRANCH  30  31
ENDBRANCH  10  30
TORSDOF 8
