REMARK  11 active torsions:
REMARK  status: ('A' for Active; 'I' for Inactive)
REMARK    1  A    between atoms: C4_6  and  C5_7 
REMARK       I    between atoms: C5_7  and  N2_9 
REMARK    2  A    between atoms: N2_9  and  N3_11 
REMARK       I    between atoms: N3_11  and  C6_13 
REMARK    3  A    between atoms: C6_13  and  C7_15 
REMARK    4  A    between atoms: C7_15  and  C11_32 
REMARK    5  A    between atoms: N4_16  and  N5_18 
REMARK    6  A    between atoms: N5_18  and  C8_20 
REMARK    7  A    between atoms: C8_20  and  N6_22 
REMARK    8  A    between atoms: N6_22  and  N7_24 
REMARK       I    between atoms: N7_24  and  C9_25 
REMARK    9  A    between atoms: C9_25  and  C10_27 
REMARK   10  A    between atoms: C10_27  and  O5_28 
REMARK   11  A    between atoms: O5_28  and  N8_29 
ROOT
HETATM    1  C7  UNL     1       0.959   1.382   0.540  1.00  0.00     0.134 C 
HETATM    2  N4  UNL     1       2.119   1.119   0.285  1.00  0.00    -0.294 N 
ATOM      3  H4  UNL     1       2.163   0.338  -0.370  1.00  0.00     0.187 HD
ENDROOT
BRANCH   1   4
HETATM    4  C6  UNL     1      -0.142   0.591  -0.056  1.00  0.00     0.287 C 
HETATM    5  N3  UNL     1      -1.333   0.555   0.615  1.00  0.00    -0.262 N 
ATOM      6  H3  UNL     1      -1.307   0.966   1.548  1.00  0.00     0.190 HD
HETATM    7  O3  UNL     1       0.097   0.028  -1.165  1.00  0.00    -0.264 OA
BRANCH   5   8
HETATM    8  N2  UNL     1      -2.567   0.055   0.241  1.00  0.00    -0.262 N 
HETATM    9  C5  UNL     1      -3.819   0.432   0.775  1.00  0.00     0.286 C 
HETATM   10  O2  UNL     1      -3.949   1.306   1.605  1.00  0.00    -0.264 OA
ATOM     11  H2  UNL     1      -2.574  -0.655  -0.491  1.00  0.00     0.190 HD
BRANCH   9  12
HETATM   12  C4  UNL     1      -5.016  -0.301   0.293  1.00  0.00     0.111 A 
HETATM   13  C3  UNL     1      -4.803  -1.594  -0.227  1.00  0.00     0.110 A 
HETATM   14  C2  UNL     1      -5.885  -2.250  -0.753  1.00  0.00     0.253 A 
HETATM   15  N1  UNL     1      -7.107  -1.705  -0.779  1.00  0.00    -0.271 N 
HETATM   16  O1  UNL     1      -5.787  -3.437  -1.254  1.00  0.00    -0.268 OA
HETATM   17  C1  UNL     1      -8.232  -2.478  -1.349  1.00  0.00     0.164 C 
HETATM   18  C14 UNL     1      -7.295  -0.475  -0.271  1.00  0.00     0.329 A 
HETATM   19  N9  UNL     1      -6.231   0.205   0.254  1.00  0.00    -0.303 N 
HETATM   20  O8  UNL     1      -8.419   0.019  -0.275  1.00  0.00    -0.246 OA
ATOM     21  H9  UNL     1      -6.385   1.141   0.630  1.00  0.00     0.171 HD
ENDBRANCH   9  12
ENDBRANCH   5   8
ENDBRANCH   1   4
BRANCH   1  22
HETATM   22  C11 UNL     1       0.463   2.644   1.184  1.00  0.00     0.145 C 
HETATM   23  C12 UNL     1      -0.666   3.181   0.288  1.00  0.00     0.058 C 
HETATM   24  C13 UNL     1       1.558   3.747   1.017  1.00  0.00     0.058 C 
HETATM   25  F1  UNL     1       0.145   2.513   2.434  1.00  0.00    -0.237 F 
ENDBRANCH   1  22
BRANCH   2  26
HETATM   26  N5  UNL     1       3.357   1.529   0.591  1.00  0.00    -0.274 N 
ATOM     27  H5  UNL     1       3.546   2.360   1.152  1.00  0.00     0.189 HD
BRANCH  26  28
HETATM   28  C8  UNL     1       4.408   0.678   0.048  1.00  0.00     0.216 C 
HETATM   29  S1  UNL     1       5.947   0.958   0.558  1.00  0.00    -0.037 SA
BRANCH  28  30
HETATM   30  N6  UNL     1       4.133  -0.407  -0.793  1.00  0.00    -0.204 N 
ATOM     31  H6  UNL     1       3.172  -0.584  -1.084  1.00  0.00     0.204 HD
BRANCH  30  32
HETATM   32  N7  UNL     1       5.126  -1.229  -1.229  1.00  0.00    -0.282 NA
HETATM   33  C9  UNL     1       6.093  -2.024  -1.675  1.00  0.00     0.338 C 
HETATM   34  O4  UNL     1       6.624  -2.298  -2.725  1.00  0.00    -0.253 OA
BRANCH  33  35
HETATM   35  C10 UNL     1       6.792  -2.845  -0.475  1.00  0.00     0.329 C 
BRANCH  35  36
HETATM   36  O5  UNL     1       7.897  -2.045  -0.197  1.00  0.00    -0.211 OA
BRANCH  36  37
HETATM   37  N8  UNL     1       8.934  -2.031   0.636  1.00  0.00     0.005 N 
HETATM   38  O6  UNL     1      10.036  -2.568   0.358  1.00  0.00    -0.511 OA
HETATM   39  O7  UNL     1       8.781  -1.316   1.819  1.00  0.00    -0.511 OA
ENDBRANCH  36  37
ENDBRANCH  35  36
ENDBRANCH  33  35
ENDBRANCH  30  32
ENDBRANCH  28  30
ENDBRANCH  26  28
ENDBRANCH   2  26
TORSDOF 11
