REMARK  7 active torsions:
REMARK  status: ('A' for Active; 'I' for Inactive)
REMARK    1  A    between atoms: C1_2  and  C2_4 
REMARK    2  A    between atoms: C3_8  and  C4_9 
REMARK    3  A    between atoms: C4_9  and  C5_11 
REMARK    4  A    between atoms: C8_15  and  C9_16 
REMARK    5  A    between atoms: C15_23  and  N3_24 
REMARK    6  A    between atoms: N3_24  and  S2_26 
REMARK    7  A    between atoms: S2_26  and  C16_29 
ROOT
HETATM    1  C5  UNL     1       1.497  -1.176  -0.548  1.00  0.00     0.021 A 
HETATM    2  C6  UNL     1       1.662  -2.061  -1.590  1.00  0.00     0.058 A 
HETATM    3  C7  UNL     1       0.625  -2.386  -2.420  1.00  0.00     0.130 A 
HETATM    4  F1  UNL     1       0.792  -3.268  -3.461  1.00  0.00    -0.205 F 
HETATM    5  C8  UNL     1      -0.631  -1.851  -2.260  1.00  0.00     0.040 A 
HETATM    6  C15 UNL     1      -0.818  -0.946  -1.201  1.00  0.00     0.057 A 
HETATM    7  C22 UNL     1       0.239  -0.638  -0.385  1.00  0.00     0.046 A 
ENDROOT
BRANCH   1   8
HETATM    8  C4  UNL     1       2.571  -0.880   0.314  1.00  0.00     0.202 C 
HETATM    9  O2  UNL     1       3.437  -1.813   0.492  1.00  0.00    -0.286 OA
BRANCH   8  10
HETATM   10  C3  UNL     1       2.837   0.357   1.038  1.00  0.00     0.099 A 
HETATM   11  S1  UNL     1       1.966   1.814   0.995  1.00  0.00    -0.008 SA
HETATM   12  N2  UNL     1       2.900   2.722   2.038  1.00  0.00    -0.320 N 
HETATM   13  C2  UNL     1       3.880   1.892   2.413  1.00  0.00     0.130 A 
ATOM     14  H2  UNL     1       2.756   3.690   2.325  1.00  0.00     0.174 HD
HETATM   15  C23 UNL     1       3.870   0.644   1.903  1.00  0.00     0.101 A 
HETATM   16  N4  UNL     1       4.868  -0.367   2.230  1.00  0.00    -0.098 NA
BRANCH  13  17
HETATM   17  C1  UNL     1       4.936   2.368   3.359  1.00  0.00     0.283 C 
HETATM   18  N1  UNL     1       4.913   3.680   3.878  1.00  0.00    -0.056 NA
HETATM   19  O1  UNL     1       5.875   1.622   3.723  1.00  0.00    -0.269 OA
ENDBRANCH  13  17
ENDBRANCH   8  10
ENDBRANCH   1   8
BRANCH   6  20
HETATM   20  N3  UNL     1      -2.124  -0.433  -1.084  1.00  0.00    -0.280 N 
ATOM     21  H3  UNL     1      -2.595  -0.240  -1.968  1.00  0.00     0.179 HD
BRANCH  20  22
HETATM   22  S2  UNL     1      -3.032  -0.087   0.310  1.00  0.00     0.263 S 
HETATM   23  O3  UNL     1      -3.225  -1.390   1.095  1.00  0.00    -0.200 OA
HETATM   24  O4  UNL     1      -4.426   0.426  -0.066  1.00  0.00    -0.200 OA
BRANCH  22  25
HETATM   25  C16 UNL     1      -2.351   1.128   1.332  1.00  0.00     0.080 A 
HETATM   26  C17 UNL     1      -2.409   2.456   0.906  1.00  0.00     0.027 A 
HETATM   27  C18 UNL     1      -1.959   3.498   1.665  1.00  0.00     0.025 A 
HETATM   28  C19 UNL     1      -1.420   3.229   2.915  1.00  0.00     0.034 A 
HETATM   29 CL2  UNL     1      -0.833   4.516   3.942  1.00  0.00    -0.084 Cl
HETATM   30  C20 UNL     1      -1.350   1.914   3.362  1.00  0.00     0.025 A 
HETATM   31  C21 UNL     1      -1.811   0.887   2.577  1.00  0.00     0.027 A 
ENDBRANCH  22  25
ENDBRANCH  20  22
ENDBRANCH   6  20
BRANCH   5  32
HETATM   32  C9  UNL     1      -1.735  -2.204  -3.134  1.00  0.00    -0.021 A 
HETATM   33  C10 UNL     1      -1.786  -1.745  -4.423  1.00  0.00     0.014 A 
HETATM   34  C11 UNL     1      -2.845  -2.075  -5.250  1.00  0.00     0.024 A 
HETATM   35  C12 UNL     1      -3.877  -2.886  -4.763  1.00  0.00     0.034 A 
HETATM   36 CL1  UNL     1      -5.239  -3.328  -5.790  1.00  0.00    -0.084 Cl
HETATM   37  C13 UNL     1      -3.813  -3.341  -3.465  1.00  0.00     0.024 A 
HETATM   38  C14 UNL     1      -2.748  -2.998  -2.666  1.00  0.00     0.014 A 
ENDBRANCH   5  32
TORSDOF 7
