REMARK  9 active torsions:
REMARK  status: ('A' for Active; 'I' for Inactive)
REMARK    1  A    between atoms: O1_2  and  C2_3 
REMARK    2  A    between atoms: C5_6  and  C6_7 
REMARK    3  A    between atoms: C6_7  and  N1_8 
REMARK       I    between atoms: N1_8  and  C7_9 
REMARK    4  A    between atoms: C7_9  and  C8_11 
REMARK    5  A    between atoms: C9_12  and  C10_13 
REMARK       I    between atoms: C10_13  and  N2_15 
REMARK    6  A    between atoms: N2_15  and  C11_17 
REMARK    7  A    between atoms: N4_27  and  C17_28 
REMARK    8  A    between atoms: C23_35  and  C24_36 
REMARK    9  A    between atoms: C26_40  and  O5_41 
ROOT
HETATM    1  C8  UNL     1      -1.220   0.552  -0.087  1.00  0.00     0.114 A 
HETATM    2  C9  UNL     1      -2.444  -0.009  -0.204  1.00  0.00     0.136 A 
HETATM    3  N3  UNL     1      -3.281   0.905   0.390  1.00  0.00    -0.287 N 
ATOM      4  H3  UNL     1      -4.290   0.777   0.468  1.00  0.00     0.188 HD
HETATM    5  N4  UNL     1      -2.659   1.942   0.839  1.00  0.00    -0.250 N 
HETATM    6  C23 UNL     1      -1.369   1.779   0.571  1.00  0.00     0.141 A 
ENDROOT
BRANCH   1   7
HETATM    7  C7  UNL     1       0.078   0.031  -0.535  1.00  0.00     0.330 C 
HETATM    8  N1  UNL     1       0.847  -0.735   0.230  1.00  0.00    -0.378 NA
HETATM    9  O2  UNL     1       0.404   0.380  -1.729  1.00  0.00    -0.251 OA
BRANCH   8  10
HETATM   10  C6  UNL     1       1.818  -1.196   0.758  1.00  0.00     0.198 C 
BRANCH  10  11
HETATM   11  C5  UNL     1       3.245  -0.832   0.633  1.00  0.00    -0.004 A 
HETATM   12  C4  UNL     1       4.187  -1.553   1.358  1.00  0.00     0.017 A 
HETATM   13  C3  UNL     1       5.543  -1.294   1.314  1.00  0.00     0.040 A 
HETATM   14  C2  UNL     1       5.974  -0.259   0.500  1.00  0.00     0.101 A 
HETATM   15  C26 UNL     1       5.068   0.480  -0.235  1.00  0.00     0.099 A 
HETATM   16  C25 UNL     1       3.697   0.191  -0.168  1.00  0.00     0.053 A 
BRANCH  14  17
HETATM   17  O1  UNL     1       7.319   0.064   0.401  1.00  0.00    -0.353 OA
HETATM   18  C1  UNL     1       8.258  -0.680   1.145  1.00  0.00     0.210 C 
ENDBRANCH  14  17
BRANCH  15  19
HETATM   19  O5  UNL     1       5.527   1.504  -1.036  1.00  0.00    -0.358 OA
ATOM     20  H5  UNL     1       4.904   2.012  -1.542  1.00  0.00     0.217 HD
ENDBRANCH  15  19
ENDBRANCH  10  11
ENDBRANCH   8  10
ENDBRANCH   1   7
BRANCH   2  21
HETATM   21  C10 UNL     1      -2.959  -1.240  -0.780  1.00  0.00     0.275 C 
HETATM   22  O3  UNL     1      -4.192  -1.435  -0.621  1.00  0.00    -0.266 OA
HETATM   23  N2  UNL     1      -2.159  -2.159  -1.470  1.00  0.00    -0.320 N 
ATOM     24  H2  UNL     1      -1.170  -1.924  -1.556  1.00  0.00     0.169 HD
BRANCH  23  25
HETATM   25  C11 UNL     1      -2.570  -3.377  -2.061  1.00  0.00     0.058 A 
HETATM   26  C12 UNL     1      -3.841  -3.890  -2.070  1.00  0.00     0.031 A 
HETATM   27  C13 UNL     1      -4.156  -5.107  -2.683  1.00  0.00     0.004 A 
HETATM   28  C14 UNL     1      -3.203  -5.851  -3.309  1.00  0.00     0.026 A 
HETATM   29  C15 UNL     1      -1.917  -5.365  -3.319  1.00  0.00     0.058 A 
HETATM   30 CL1  UNL     1      -0.686  -6.328  -4.128  1.00  0.00    -0.082 Cl
HETATM   31  C16 UNL     1      -1.616  -4.168  -2.714  1.00  0.00     0.082 A 
HETATM   32 CL2  UNL     1       0.064  -3.626  -2.778  1.00  0.00    -0.080 Cl
ENDBRANCH  23  25
ENDBRANCH   2  21
BRANCH   6  33
HETATM   33  C24 UNL     1      -0.263   2.669   0.871  1.00  0.00     0.284 C 
HETATM   34  N5  UNL     1      -0.482   3.896   1.545  1.00  0.00    -0.056 NA
HETATM   35  O4  UNL     1       0.924   2.402   0.553  1.00  0.00    -0.269 OA
ENDBRANCH   6  33
BRANCH   5  36
HETATM   36  C17 UNL     1      -3.276   3.063   1.510  1.00  0.00     0.057 A 
HETATM   37  C18 UNL     1      -3.632   4.171   0.803  1.00  0.00     0.034 A 
HETATM   38  C19 UNL     1      -4.232   5.232   1.473  1.00  0.00     0.044 A 
HETATM   39  C20 UNL     1      -4.457   5.149   2.830  1.00  0.00     0.116 A 
HETATM   40  F1  UNL     1      -5.039   6.176   3.487  1.00  0.00    -0.206 F 
HETATM   41  C21 UNL     1      -4.098   4.029   3.551  1.00  0.00     0.044 A 
HETATM   42  C22 UNL     1      -3.509   3.003   2.858  1.00  0.00     0.034 A 
ENDBRANCH   5  36
TORSDOF 9
