REMARK  9 active torsions:
REMARK  status: ('A' for Active; 'I' for Inactive)
REMARK    1  A    between atoms: O1_2  and  C2_3 
REMARK    2  A    between atoms: C5_6  and  N1_7 
REMARK       I    between atoms: N1_7  and  C6_9 
REMARK    3  A    between atoms: C6_9  and  C7_11 
REMARK    4  A    between atoms: C7_11  and  O3_12 
REMARK    5  A    between atoms: O3_12  and  C8_13 
REMARK    6  A    between atoms: C8_13  and  C9_15 
REMARK    7  A    between atoms: C11_20  and  C12_21 
REMARK    8  A    between atoms: C18_30  and  O7_31 
REMARK    9  A    between atoms: C18_30  and  C19_33 
ROOT
HETATM    1  C9  UNL     1      -1.804   0.690  -0.940  1.00  0.00     0.244 C 
HETATM    2  C10 UNL     1      -1.662   2.161  -0.560  1.00  0.00     0.239 C 
HETATM    3  O5  UNL     1      -0.597   2.794  -0.673  1.00  0.00    -0.272 OA
HETATM    4  N2  UNL     1      -2.865   2.727  -0.068  1.00  0.00    -0.330 N 
ATOM      5  H2  UNL     1      -2.953   3.684   0.275  1.00  0.00     0.165 HD
HETATM    6  C11 UNL     1      -3.973   1.755  -0.115  1.00  0.00     0.265 C 
HETATM    7  O6  UNL     1      -3.599   0.732   0.691  1.00  0.00    -0.321 OA
HETATM    8  C18 UNL     1      -2.462   0.053   0.214  1.00  0.00     0.215 C 
ENDROOT
BRANCH   1   9
HETATM    9  C8  UNL     1      -0.492   0.271  -1.348  1.00  0.00     0.278 C 
HETATM   10  O4  UNL     1      -0.277   0.050  -2.596  1.00  0.00    -0.264 OA
BRANCH   9  11
HETATM   11  O3  UNL     1       0.647   0.065  -0.566  1.00  0.00    -0.311 OA
BRANCH  11  12
HETATM   12  C7  UNL     1       1.841  -0.312  -1.234  1.00  0.00     0.281 C 
BRANCH  12  13
HETATM   13  C6  UNL     1       2.985  -0.543  -0.311  1.00  0.00     0.246 C 
HETATM   14  N1  UNL     1       4.290  -0.765  -0.841  1.00  0.00    -0.325 N 
ATOM     15  H1  UNL     1       4.377  -0.754  -1.857  1.00  0.00     0.169 HD
HETATM   16  O2  UNL     1       2.779  -0.540   0.901  1.00  0.00    -0.271 OA
BRANCH  14  17
HETATM   17  C5  UNL     1       5.458  -0.995  -0.118  1.00  0.00     0.035 A 
HETATM   18  C4  UNL     1       5.550  -1.493   1.160  1.00  0.00     0.032 A 
HETATM   19  C3  UNL     1       6.804  -1.627   1.761  1.00  0.00     0.039 A 
HETATM   20  C2  UNL     1       7.972  -1.273   1.113  1.00  0.00     0.068 A 
HETATM   21  C26 UNL     1       7.866  -0.783  -0.151  1.00  0.00     0.039 A 
HETATM   22  C25 UNL     1       6.656  -0.638  -0.770  1.00  0.00     0.032 A 
BRANCH  20  23
HETATM   23  O1  UNL     1       9.220  -1.408   1.716  1.00  0.00    -0.356 OA
HETATM   24  C1  UNL     1      10.399  -1.023   1.011  1.00  0.00     0.210 C 
ENDBRANCH  20  23
ENDBRANCH  14  17
ENDBRANCH  12  13
ENDBRANCH  11  12
ENDBRANCH   9  11
ENDBRANCH   1   9
BRANCH   8  25
HETATM   25  O7  UNL     1      -1.565   0.052   1.294  1.00  0.00    -0.360 OA
ATOM     26  H7  UNL     1      -1.989  -0.359   2.038  1.00  0.00     0.213 HD
ENDBRANCH   8  25
BRANCH   8  27
HETATM   27  C19 UNL     1      -2.884  -1.370   0.001  1.00  0.00     0.005 A 
HETATM   28  C20 UNL     1      -2.825  -2.062  -1.153  1.00  0.00     0.015 A 
HETATM   29  C21 UNL     1      -3.248  -3.389  -1.249  1.00  0.00     0.043 A 
HETATM   30  C22 UNL     1      -3.744  -4.026  -0.145  1.00  0.00     0.116 A 
HETATM   31  F1  UNL     1      -4.173  -5.326  -0.191  1.00  0.00    -0.206 F 
HETATM   32  C23 UNL     1      -3.813  -3.339   1.043  1.00  0.00     0.043 A 
HETATM   33  C24 UNL     1      -3.394  -2.041   1.117  1.00  0.00     0.015 A 
ENDBRANCH   8  27
BRANCH   6  34
HETATM   34  C12 UNL     1      -5.212   2.447   0.117  1.00  0.00     0.034 A 
HETATM   35  C13 UNL     1      -6.220   2.127   0.987  1.00  0.00     0.046 A 
HETATM   36 CL1  UNL     1      -5.984   0.750   2.039  1.00  0.00    -0.084 Cl
HETATM   37  C14 UNL     1      -7.398   2.819   1.091  1.00  0.00     0.024 A 
HETATM   38  C15 UNL     1      -7.611   3.912   0.280  1.00  0.00     0.003 A 
HETATM   39  C16 UNL     1      -6.630   4.281  -0.615  1.00  0.00     0.024 A 
HETATM   40  C17 UNL     1      -5.455   3.572  -0.702  1.00  0.00     0.046 A 
HETATM   41 CL2  UNL     1      -4.277   4.087  -1.895  1.00  0.00    -0.084 Cl
ENDBRANCH   6  34
TORSDOF 9
