REMARK  8 active torsions:
REMARK  status: ('A' for Active; 'I' for Inactive)
REMARK    1  A    between atoms: C2_2  and  C3_3 
REMARK    2  A    between atoms: C5_9  and  N3_10 
REMARK    3  A    between atoms: N3_10  and  C6_12 
REMARK    4  A    between atoms: C6_12  and  C7_13 
REMARK    5  A    between atoms: C13_23  and  N5_24 
REMARK    6  A    between atoms: C17_31  and  C18_32 
REMARK    7  A    between atoms: C18_32  and  C19_33 
REMARK    8  A    between atoms: C19_33  and  O2_36 
ROOT
HETATM    1  C3  UNL     1      -1.121   1.330   1.063  1.00  0.00     0.233 C 
HETATM    2  F1  UNL     1      -1.925   2.275   0.471  1.00  0.00    -0.215 F 
HETATM    3  N1  UNL     1       0.244   1.428   0.568  1.00  0.00    -0.104 N 
HETATM    4  C4  UNL     1       0.716   0.175   0.299  1.00  0.00     0.259 A 
HETATM    5  N2  UNL     1       1.960  -0.048  -0.173  1.00  0.00    -0.154 N 
ATOM      6  H2  UNL     1       2.264  -1.004  -0.357  1.00  0.00     0.188 HD
HETATM    7  C5  UNL     1       2.791   0.954  -0.400  1.00  0.00     0.695 A 
HETATM    8  N4  UNL     1       2.377   2.204  -0.154  1.00  0.00    -0.022 N 
ATOM      9  H4  UNL     1       3.001   2.993  -0.323  1.00  0.00     0.203 HD
HETATM   10  C13 UNL     1       1.123   2.415   0.321  1.00  0.00     0.698 A 
HETATM   11  O1  UNL     1      -0.263  -0.733   0.585  1.00  0.00    -0.304 OA
HETATM   12  C14 UNL     1      -1.503  -0.005   0.461  1.00  0.00     0.127 C 
HETATM   13  C15 UNL     1      -2.544  -0.776   1.160  1.00  0.00     0.044 C 
HETATM   14  C16 UNL     1      -3.913  -0.342   0.681  1.00  0.00     0.008 C 
HETATM   15  C17 UNL     1      -4.112  -0.899  -0.711  1.00  0.00    -0.012 C 
HETATM   16  C22 UNL     1      -2.802  -0.968  -1.446  1.00  0.00     0.008 C 
HETATM   17  C23 UNL     1      -1.812   0.090  -0.999  1.00  0.00     0.044 C 
ENDROOT
BRANCH   7  18
HETATM   18  N3  UNL     1       3.996   0.759  -0.855  1.00  0.00    -0.225 N 
ATOM     19  H3  UNL     1       4.595   1.570  -1.012  1.00  0.00     0.177 HD
BRANCH  18  20
HETATM   20  C6  UNL     1       4.518  -0.544  -1.145  1.00  0.00     0.142 C 
BRANCH  20  21
HETATM   21  C7  UNL     1       5.389  -1.069  -0.008  1.00  0.00     0.009 C 
HETATM   22  C8  UNL     1       5.916  -2.425  -0.341  1.00  0.00     0.007 C 
HETATM   23  C9  UNL     1       7.137  -2.403  -1.223  1.00  0.00     0.006 C 
HETATM   24  C10 UNL     1       8.217  -1.643  -0.442  1.00  0.00     0.079 C 
HETATM   25  C11 UNL     1       7.736  -0.226  -0.319  1.00  0.00     0.244 C 
HETATM   26  F2  UNL     1       7.625   0.390  -1.556  1.00  0.00    -0.206 F 
HETATM   27  F3  UNL     1       8.691   0.489   0.412  1.00  0.00    -0.206 F 
HETATM   28  C12 UNL     1       6.435  -0.082   0.397  1.00  0.00     0.085 C 
ENDBRANCH  20  21
ENDBRANCH  18  20
ENDBRANCH   7  18
BRANCH  10  29
HETATM   29  N5  UNL     1       0.748   3.631   0.533  1.00  0.00    -0.234 N 
ATOM     30  H52 UNL     1      -0.194   3.790   0.890  1.00  0.00     0.174 HD
ATOM     31  H51 UNL     1       1.415   4.380   0.346  1.00  0.00     0.174 HD
ENDBRANCH  10  29
BRANCH   1  32
HETATM   32  C2  UNL     1      -1.277   1.383   2.526  1.00  0.00     0.066 C 
HETATM   33  C1  UNL     1      -0.935   2.688   3.193  1.00  0.00     0.010 C 
ENDBRANCH   1  32
BRANCH  15  34
HETATM   34  C18 UNL     1      -5.160  -0.149  -1.496  1.00  0.00     0.041 C 
BRANCH  34  35
HETATM   35  C19 UNL     1      -6.507  -0.172  -0.859  1.00  0.00     0.051 C 
HETATM   36  C20 UNL     1      -7.055  -1.572  -0.686  1.00  0.00     0.045 C 
HETATM   37  C21 UNL     1      -7.465   0.526  -1.837  1.00  0.00     0.045 C 
BRANCH  35  38
HETATM   38  O2  UNL     1      -6.581   0.521   0.330  1.00  0.00    -0.391 OA
ATOM     39  H2  UNL     1      -7.440   0.506   0.736  1.00  0.00     0.210 HD
ENDBRANCH  35  38
ENDBRANCH  34  35
ENDBRANCH  15  34
TORSDOF 8
