REMARK  5 active torsions:
REMARK  status: ('A' for Active; 'I' for Inactive)
REMARK    1  A    between atoms: C3_3  and  C4_4 
REMARK    2  A    between atoms: N1_5  and  N2_7 
REMARK       I    between atoms: N2_7  and  C5_9 
REMARK    3  A    between atoms: C5_9  and  C6_11 
REMARK    4  A    between atoms: C6_11  and  N3_12 
REMARK       I    between atoms: N3_12  and  C7_14 
REMARK       I    between atoms: C7_14  and  N4_16 
REMARK    5  A    between atoms: N4_16  and  C8_18 
ROOT
HETATM    1  N2  UNL     1       1.444  -0.096  -0.508  1.00  0.00    -0.269 N 
ATOM      2  H2  UNL     1       0.585  -0.646  -0.500  1.00  0.00     0.190 HD
HETATM    3  C5  UNL     1       1.839   0.548  -1.680  1.00  0.00     0.253 C 
HETATM    4  O1  UNL     1       2.922   1.223  -1.678  1.00  0.00    -0.270 OA
ENDROOT
BRANCH   3   5
HETATM    5  C6  UNL     1       1.101   0.510  -2.943  1.00  0.00     0.228 C 
BRANCH   5   6
HETATM    6  N3  UNL     1      -0.147  -0.191  -2.894  1.00  0.00    -0.334 N 
HETATM    7  C7  UNL     1      -1.261   0.251  -2.091  1.00  0.00     0.321 C 
HETATM    8  O2  UNL     1      -1.071   1.303  -1.443  1.00  0.00    -0.247 OA
HETATM    9  N4  UNL     1      -2.436  -0.508  -2.096  1.00  0.00    -0.307 N 
ATOM     10  H4  UNL     1      -2.419  -1.341  -2.684  1.00  0.00     0.170 HD
ATOM     11  H3  UNL     1      -0.253  -1.039  -3.451  1.00  0.00     0.164 HD
BRANCH   9  12
HETATM   12  C8  UNL     1      -3.641  -0.279  -1.400  1.00  0.00     0.058 A 
HETATM   13  C9  UNL     1      -3.865   0.774  -0.568  1.00  0.00     0.031 A 
HETATM   14  C10 UNL     1      -5.096   0.913   0.077  1.00  0.00     0.002 A 
HETATM   15  C11 UNL     1      -6.115   0.003  -0.102  1.00  0.00     0.002 A 
HETATM   16  C12 UNL     1      -5.898  -1.057  -0.936  1.00  0.00     0.026 A 
HETATM   17  C13 UNL     1      -4.692  -1.191  -1.567  1.00  0.00     0.060 A 
HETATM   18 CL1  UNL     1      -4.451  -2.575  -2.637  1.00  0.00    -0.082 Cl
ENDBRANCH   9  12
ENDBRANCH   5   6
ENDBRANCH   3   5
BRANCH   1  19
HETATM   19  N1  UNL     1       2.219   0.004   0.668  1.00  0.00    -0.308 N 
HETATM   20  C4  UNL     1       2.699  -1.026   1.258  1.00  0.00     0.126 C 
ATOM     21  H1  UNL     1       2.403   0.927   1.061  1.00  0.00     0.186 HD
BRANCH  20  22
HETATM   22  C3  UNL     1       3.501  -0.881   2.479  1.00  0.00     0.030 A 
HETATM   23  C2  UNL     1       3.855   0.256   3.155  1.00  0.00    -0.024 A 
HETATM   24  C1  UNL     1       3.390   1.605   2.635  1.00  0.00     0.051 C 
HETATM   25  C15 UNL     1       4.609   0.099   4.262  1.00  0.00     0.047 A 
HETATM   26  C14 UNL     1       4.951  -1.177   4.609  1.00  0.00     0.093 A 
HETATM   27 BR1  UNL     1       5.237   1.560   5.387  1.00  0.00    -0.048 Br
HETATM   28  S1  UNL     1       4.224  -2.122   3.400  1.00  0.00    -0.075 SA
HETATM   29 CL2  UNL     1       5.913  -1.762   5.972  1.00  0.00    -0.075 Cl
ENDBRANCH  20  22
ENDBRANCH   1  19
TORSDOF 5
