REMARK  8 active torsions:
REMARK  status: ('A' for Active; 'I' for Inactive)
REMARK    1  A    between atoms: C2_2  and  C4_4 
REMARK    2  A    between atoms: C11_13  and  O3_14 
REMARK    3  A    between atoms: C12_16  and  O4_17 
REMARK    4  A    between atoms: C16_22  and  O5_23 
REMARK    5  A    between atoms: C18_27  and  C19_28 
REMARK    6  A    between atoms: C19_28  and  C21_30 
REMARK    7  A    between atoms: C21_30  and  C22_31 
REMARK    8  A    between atoms: C22_31  and  C23_32 
ROOT
HETATM    1  C4  UNL     1      -3.039  -1.659   0.072  1.00  0.00     0.167 C 
HETATM    2  O1  UNL     1      -3.746  -0.728  -0.731  1.00  0.00    -0.311 OA
HETATM    3  C5  UNL     1      -3.054  -0.110  -1.750  1.00  0.00     0.264 C 
HETATM    4  O2  UNL     1      -3.677   0.268  -2.762  1.00  0.00    -0.265 OA
HETATM    5  C6  UNL     1      -1.570   0.066  -1.561  1.00  0.00     0.095 C 
HETATM    6  C7  UNL     1      -1.184   1.297  -2.307  1.00  0.00     0.016 C 
HETATM    7  C8  UNL     1       0.029   1.986  -1.826  1.00  0.00     0.013 C 
HETATM    8  C9  UNL     1       0.262   1.897  -0.312  1.00  0.00    -0.007 C 
HETATM    9  C10 UNL     1       1.528   2.674  -0.054  1.00  0.00     0.018 C 
HETATM   10  C11 UNL     1      -0.798   2.823   0.297  1.00  0.00     0.155 C 
HETATM   11  C12 UNL     1      -1.749   2.214   1.236  1.00  0.00     0.148 C 
HETATM   12  C13 UNL     1      -2.339   1.029   0.521  1.00  0.00     0.046 C 
HETATM   13  C14 UNL     1      -1.314   0.128  -0.080  1.00  0.00    -0.008 C 
HETATM   14  C15 UNL     1      -1.678  -1.242   0.480  1.00  0.00     0.065 C 
HETATM   15  C16 UNL     1      -0.726  -2.280   0.096  1.00  0.00     0.188 C 
HETATM   16  C17 UNL     1       0.636  -1.777  -0.210  1.00  0.00     0.130 C 
HETATM   17  F1  UNL     1       1.424  -2.868  -0.542  1.00  0.00    -0.207 F 
HETATM   18  C18 UNL     1       1.089  -0.529  -0.153  1.00  0.00    -0.013 C 
HETATM   19  C25 UNL     1       0.138   0.519   0.210  1.00  0.00     0.042 C 
ENDROOT
BRANCH  18  20
HETATM   20  C19 UNL     1       2.514  -0.434  -0.538  1.00  0.00    -0.074 C 
HETATM   21  C20 UNL     1       3.042  -1.395  -1.554  1.00  0.00     0.044 C 
BRANCH  20  22
HETATM   22  C21 UNL     1       3.493  -0.171   0.577  1.00  0.00     0.038 C 
BRANCH  22  23
HETATM   23  C22 UNL     1       4.918  -0.083   0.049  1.00  0.00     0.037 C 
BRANCH  23  24
HETATM   24  C23 UNL     1       5.790   0.178   1.241  1.00  0.00     0.048 C 
HETATM   25  C24 UNL     1       6.743  -0.675   1.562  1.00  0.00     0.263 C 
HETATM   26  F2  UNL     1       7.519  -0.427   2.637  1.00  0.00    -0.173 F 
HETATM   27  F3  UNL     1       6.934  -1.771   0.829  1.00  0.00    -0.173 F 
ENDBRANCH  23  24
ENDBRANCH  22  23
ENDBRANCH  20  22
ENDBRANCH  18  20
BRANCH  15  28
HETATM   28  O5  UNL     1      -1.110  -3.084  -1.000  1.00  0.00    -0.388 OA
ATOM     29  H5  UNL     1      -0.490  -3.759  -1.250  1.00  0.00     0.210 HD
ENDBRANCH  15  28
BRANCH  10  30
HETATM   30  O3  UNL     1      -1.515   3.525  -0.678  1.00  0.00    -0.392 OA
ATOM     31  H3  UNL     1      -2.172   4.099  -0.301  1.00  0.00     0.210 HD
ENDBRANCH  10  30
BRANCH   1  32
HETATM   32  C2  UNL     1      -3.920  -2.142   1.171  1.00  0.00    -0.064 C 
HETATM   33  C1  UNL     1      -3.593  -2.282   2.424  1.00  0.00     0.016 C 
HETATM   34  C3  UNL     1      -5.326  -2.501   0.720  1.00  0.00     0.045 C 
ENDBRANCH   1  32
BRANCH  11  35
HETATM   35  O4  UNL     1      -1.342   1.998   2.524  1.00  0.00    -0.393 OA
ATOM     36  H4  UNL     1      -1.957   1.604   3.131  1.00  0.00     0.210 HD
ENDBRANCH  11  35
TORSDOF 8
