REMARK  11 active torsions:
REMARK  status: ('A' for Active; 'I' for Inactive)
REMARK    1  A    between atoms: C2_2  and  C3_4 
REMARK    2  A    between atoms: C3_4  and  C4_5 
REMARK    3  A    between atoms: C4_5  and  O2_6 
REMARK    4  A    between atoms: C6_12  and  C7_13 
REMARK    5  A    between atoms: C7_13  and  C8_14 
REMARK    6  A    between atoms: C8_14  and  O4_15 
REMARK    7  A    between atoms: C9_17  and  C10_18 
REMARK    8  A    between atoms: C13_22  and  C14_23 
REMARK    9  A    between atoms: C14_23  and  O5_24 
REMARK   10  A    between atoms: O5_24  and  C15_25 
REMARK   11  A    between atoms: C15_25  and  C16_27 
ROOT
HETATM    1  C10 UNL     1      -1.488  -2.705   0.060  1.00  0.00    -0.006 C 
HETATM    2  C11 UNL     1      -1.492  -3.757   0.838  1.00  0.00     0.090 C 
HETATM    3  C12 UNL     1      -1.686  -3.618   2.246  1.00  0.00     0.087 C 
HETATM    4  N2  UNL     1      -1.849  -3.508   3.404  1.00  0.00    -0.192 NA
ENDROOT
BRANCH   1   5
HETATM    5  C9  UNL     1      -1.685  -1.342   0.622  1.00  0.00     0.054 C 
HETATM    6  C6  UNL     1      -3.056  -0.874   0.313  1.00  0.00    -0.002 C 
HETATM    7  C5  UNL     1      -3.203   0.590   0.440  1.00  0.00     0.246 C 
HETATM    8  N1  UNL     1      -2.161   1.278   1.099  1.00  0.00    -0.325 N 
HETATM    9  O3  UNL     1      -4.167   1.237   0.011  1.00  0.00    -0.268 OA
HETATM   10  C4  UNL     1      -0.746   0.951   0.836  1.00  0.00     0.147 C 
ATOM     11  H1  UNL     1      -2.390   2.013   1.768  1.00  0.00     0.165 HD
HETATM   12  C13 UNL     1      -0.527  -0.435   0.367  1.00  0.00     0.078 C 
BRANCH   6  13
HETATM   13  C7  UNL     1      -3.767  -1.479  -0.832  1.00  0.00     0.066 C 
BRANCH  13  14
HETATM   14  C8  UNL     1      -3.444  -1.048  -2.203  1.00  0.00     0.168 C 
BRANCH  14  15
HETATM   15  O4  UNL     1      -4.254  -1.736  -3.149  1.00  0.00    -0.401 OA
ATOM     16  H4  UNL     1      -4.046  -1.458  -4.033  1.00  0.00     0.209 HD
ENDBRANCH  14  15
ENDBRANCH  13  14
ENDBRANCH   6  13
BRANCH  10  17
HETATM   17  C3  UNL     1      -0.290   2.049  -0.097  1.00  0.00     0.139 C 
BRANCH  17  18
HETATM   18  C2  UNL     1      -0.706   3.371   0.481  1.00  0.00     0.127 C 
HETATM   19  C1  UNL     1       0.165   4.167   1.371  1.00  0.00     0.091 C 
HETATM   20  O1  UNL     1      -1.805   3.809   0.208  1.00  0.00    -0.298 OA
ENDBRANCH  17  18
ENDBRANCH  10  17
BRANCH  10  21
HETATM   21  O2  UNL     1      -0.099   1.199   2.052  1.00  0.00    -0.370 OA
ATOM     22  H2  UNL     1      -0.386   0.509   2.638  1.00  0.00     0.212 HD
ENDBRANCH  10  21
BRANCH  12  23
HETATM   23  C14 UNL     1       0.167  -0.604  -0.943  1.00  0.00     0.189 C 
BRANCH  23  24
HETATM   24  O5  UNL     1       1.462  -0.090  -0.974  1.00  0.00    -0.320 OA
BRANCH  24  25
HETATM   25  C15 UNL     1       2.569  -0.502  -0.271  1.00  0.00     0.266 C 
HETATM   26  O6  UNL     1       2.437  -1.480   0.518  1.00  0.00    -0.264 OA
BRANCH  25  27
HETATM   27  C16 UNL     1       3.902   0.153  -0.403  1.00  0.00     0.037 C 
HETATM   28  C17 UNL     1       3.883   1.604   0.010  1.00  0.00     0.025 C 
HETATM   29  C18 UNL     1       4.420   0.013  -1.829  1.00  0.00     0.025 C 
HETATM   30  C19 UNL     1       4.886  -0.562   0.488  1.00  0.00     0.025 C 
ENDBRANCH  25  27
ENDBRANCH  24  25
ENDBRANCH  23  24
ENDBRANCH  12  23
ENDBRANCH   1   5
TORSDOF 11
