REMARK  9 active torsions:
REMARK  status: ('A' for Active; 'I' for Inactive)
REMARK    1  A    between atoms: C2_2  and  C3_3 
REMARK    2  A    between atoms: C5_6  and  C6_7 
REMARK    3  A    between atoms: C6_7  and  C7_9 
REMARK    4  A    between atoms: C7_9  and  C8_10 
REMARK    5  A    between atoms: C8_10  and  N1_11 
REMARK    6  A    between atoms: N1_11  and  C9_14 
REMARK    7  A    between atoms: C12_18  and  O4_19 
REMARK    8  A    between atoms: C17_28  and  C19_30 
REMARK    9  A    between atoms: C19_30  and  O6_32 
ROOT
HETATM    1  C3  UNL     1       0.788  -2.800   0.069  1.00  0.00     0.181 C 
HETATM    2  C4  UNL     1       1.012  -3.858  -0.959  1.00  0.00     0.084 C 
HETATM    3  O1  UNL     1       1.595  -1.705  -0.246  1.00  0.00    -0.336 OA
HETATM    4  C5  UNL     1       0.853  -0.580   0.129  1.00  0.00     0.234 C 
HETATM    5  C11 UNL     1      -0.549  -1.000  -0.142  1.00  0.00     0.156 C 
HETATM    6  O3  UNL     1      -0.502  -2.358   0.189  1.00  0.00    -0.333 OA
HETATM    7  C12 UNL     1      -1.092  -0.798  -1.489  1.00  0.00     0.187 C 
HETATM    8  C13 UNL     1      -1.778   0.489  -1.500  1.00  0.00    -0.049 C 
HETATM    9  C14 UNL     1      -2.026   1.229  -2.564  1.00  0.00     0.017 C 
HETATM   10  C15 UNL     1      -2.151   0.820  -0.099  1.00  0.00     0.096 C 
HETATM   11  C16 UNL     1      -1.495  -0.241   0.747  1.00  0.00     0.239 C 
HETATM   12  N2  UNL     1      -2.790  -0.913   0.912  1.00  0.00    -0.048 N 
ATOM     13  H21 UNL     1      -3.060  -1.283   1.823  1.00  0.00     0.279 HD
ATOM     14  H22 UNL     1      -2.946  -1.830   0.493  1.00  0.00     0.279 HD
HETATM   15  C17 UNL     1      -3.455   0.239   0.381  1.00  0.00     0.218 C 
HETATM   16  C18 UNL     1      -4.473  -0.065  -0.688  1.00  0.00     0.058 C 
ENDROOT
BRANCH   4  17
HETATM   17  C6  UNL     1       1.359   0.579  -0.594  1.00  0.00     0.160 C 
HETATM   18  O2  UNL     1       0.856   1.669  -0.385  1.00  0.00    -0.295 OA
BRANCH  17  19
HETATM   19  C7  UNL     1       2.462   0.561  -1.592  1.00  0.00     0.108 C 
BRANCH  19  20
HETATM   20  C8  UNL     1       3.768   1.002  -1.026  1.00  0.00     0.239 C 
BRANCH  20  21
HETATM   21  N1  UNL     1       3.696   2.354  -0.513  1.00  0.00    -0.075 N 
ATOM     22  H12 UNL     1       3.354   3.000  -1.224  1.00  0.00     0.277 HD
ATOM     23  H11 UNL     1       2.943   2.450   0.169  1.00  0.00     0.277 HD
BRANCH  21  24
HETATM   24  C9  UNL     1       4.957   2.799   0.035  1.00  0.00     0.228 C 
HETATM   25  C10 UNL     1       5.334   2.063   1.290  1.00  0.00     0.034 C 
ENDBRANCH  21  24
ENDBRANCH  20  21
ENDBRANCH  19  20
ENDBRANCH  17  19
ENDBRANCH   4  17
BRANCH   7  26
HETATM   26  O4  UNL     1      -0.201  -0.980  -2.528  1.00  0.00    -0.388 OA
ATOM     27  H4  UNL     1      -0.553  -0.849  -3.401  1.00  0.00     0.210 HD
ENDBRANCH   7  26
BRANCH   1  28
HETATM   28  C2  UNL     1       1.225  -3.234   1.440  1.00  0.00     0.030 C 
HETATM   29  C1  UNL     1       1.453  -4.484   1.750  1.00  0.00     0.012 C 
ENDBRANCH   1  28
BRANCH  15  30
HETATM   30  C19 UNL     1      -4.061   1.121   1.411  1.00  0.00     0.295 C 
HETATM   31  O5  UNL     1      -3.941   0.790   2.613  1.00  0.00    -0.262 OA
BRANCH  30  32
HETATM   32  O6  UNL     1      -4.740   2.274   1.114  1.00  0.00    -0.325 OA
HETATM   33  C20 UNL     1      -5.324   3.125   2.109  1.00  0.00     0.213 C 
ENDBRANCH  30  32
ENDBRANCH  15  30
TORSDOF 9
