REMARK  7 active torsions:
REMARK  status: ('A' for Active; 'I' for Inactive)
REMARK    1  A    between atoms: C2_2  and  N1_4 
REMARK    2  A    between atoms: N1_4  and  C4_6 
REMARK    3  A    between atoms: C5_9  and  N3_10 
REMARK    4  A    between atoms: N3_10  and  C6_12 
REMARK    5  A    between atoms: C6_12  and  C7_13 
REMARK    6  A    between atoms: C15_24  and  N5_25 
REMARK    7  A    between atoms: N5_25  and  C16_27 
ROOT
HETATM    1  C4  UNL     1      -2.256   0.930   0.540  1.00  0.00     0.707 A 
HETATM    2  N2  UNL     1      -0.924   1.063   0.639  1.00  0.00    -0.022 N 
ATOM      3  H2  UNL     1      -0.528   1.943   0.969  1.00  0.00     0.203 HD
HETATM    4  C5  UNL     1      -0.111   0.054   0.309  1.00  0.00     0.707 A 
HETATM    5  N4  UNL     1      -0.621  -1.122  -0.132  1.00  0.00    -0.021 N 
ATOM      6  H4  UNL     1       0.010  -1.884  -0.381  1.00  0.00     0.203 HD
HETATM    7  C15 UNL     1      -1.948  -1.296  -0.245  1.00  0.00     0.712 A 
HETATM    8  N8  UNL     1      -2.741  -0.269   0.093  1.00  0.00    -0.021 N 
ATOM      9  H8  UNL     1      -3.751  -0.387   0.013  1.00  0.00     0.203 HD
ENDROOT
BRANCH   4  10
HETATM   10  N3  UNL     1       1.170   0.157   0.394  1.00  0.00    -0.225 N 
ATOM     11  H3  UNL     1       1.574   1.034   0.722  1.00  0.00     0.177 HD
BRANCH  10  12
HETATM   12  C6  UNL     1       2.046  -0.919   0.043  1.00  0.00     0.143 C 
BRANCH  12  13
HETATM   13  C7  UNL     1       3.489  -0.613   0.198  1.00  0.00     0.011 C 
HETATM   14  C8  UNL     1       3.879  -0.250   1.615  1.00  0.00     0.011 C 
HETATM   15  C9  UNL     1       4.958   0.798   1.329  1.00  0.00    -0.010 C 
HETATM   16  C10 UNL     1       4.176   1.622   0.289  1.00  0.00     0.013 C 
HETATM   17  C14 UNL     1       6.013   0.186   0.478  1.00  0.00     0.048 C 
HETATM   18  C11 UNL     1       4.011   0.459  -0.706  1.00  0.00     0.031 C 
HETATM   19  C12 UNL     1       5.475   0.170  -0.963  1.00  0.00     0.104 C 
HETATM   20  C13 UNL     1       5.691  -1.157  -1.620  1.00  0.00     0.052 C 
HETATM   21  F1  UNL     1       6.044   1.214  -1.629  1.00  0.00    -0.243 F 
ENDBRANCH  12  13
ENDBRANCH  10  12
ENDBRANCH   4  10
BRANCH   1  22
HETATM   22  N1  UNL     1      -3.096   1.857   0.840  1.00  0.00    -0.221 N 
ATOM     23  H1  UNL     1      -4.098   1.694   0.743  1.00  0.00     0.178 HD
BRANCH  22  24
HETATM   24  C2  UNL     1      -2.608   3.128   1.314  1.00  0.00     0.091 C 
HETATM   25  C1  UNL     1      -3.721   3.906   2.019  1.00  0.00     0.032 C 
HETATM   26  C3  UNL     1      -2.090   3.911   0.121  1.00  0.00     0.032 C 
ENDBRANCH  22  24
ENDBRANCH   1  22
BRANCH   7  27
HETATM   27  N5  UNL     1      -2.407  -2.424  -0.666  1.00  0.00    -0.188 N 
ATOM     28  H5  UNL     1      -1.743  -3.161  -0.904  1.00  0.00     0.184 HD
BRANCH  27  29
HETATM   29  C16 UNL     1      -3.794  -2.689  -0.814  1.00  0.00     0.083 A 
HETATM   30  C17 UNL     1      -4.467  -2.451  -1.997  1.00  0.00     0.138 A 
HETATM   31  N6  UNL     1      -5.730  -2.816  -1.755  1.00  0.00    -0.308 N 
HETATM   32  N7  UNL     1      -5.887  -3.255  -0.529  1.00  0.00    -0.306 N 
ATOM     33  H6  UNL     1      -6.482  -2.760  -2.442  1.00  0.00     0.186 HD
HETATM   34  C18 UNL     1      -7.148  -3.732   0.056  1.00  0.00     0.177 C 
HETATM   35  C19 UNL     1      -4.697  -3.185   0.075  1.00  0.00     0.141 A 
ENDBRANCH  27  29
ENDBRANCH   7  27
TORSDOF 7
