REMARK  6 active torsions:
REMARK  status: ('A' for Active; 'I' for Inactive)
REMARK    1  A    between atoms: C5_7  and  N2_8 
REMARK    2  A    between atoms: N2_8  and  C6_10 
REMARK    3  A    between atoms: C10_16  and  N4_17 
REMARK    4  A    between atoms: N4_17  and  C11_19 
REMARK    5  A    between atoms: C17_28  and  O1_29 
REMARK    6  A    between atoms: O1_29  and  C18_30 
ROOT
HETATM    1  C6  UNL     1       0.522  -1.271  -0.238  1.00  0.00     0.684 A 
HETATM    2  N3  UNL     1      -0.088  -2.358   0.255  1.00  0.00    -0.196 N 
ATOM      3  H3  UNL     1       0.455  -3.194   0.470  1.00  0.00     0.184 HD
HETATM    4  C7  UNL     1      -1.418  -2.346   0.466  1.00  0.00     0.026 A 
HETATM    5  C8  UNL     1      -2.009  -3.607   1.018  1.00  0.00     0.069 C 
HETATM    6  C9  UNL     1      -2.178  -1.239   0.187  1.00  0.00     0.074 A 
HETATM    7  C10 UNL     1      -1.546  -0.128  -0.318  1.00  0.00     0.123 A 
HETATM    8  N5  UNL     1      -0.216  -0.176  -0.516  1.00  0.00    -0.176 N 
ATOM      9  H5  UNL     1       0.253   0.648  -0.891  1.00  0.00     0.186 HD
ENDROOT
BRANCH   1  10
HETATM   10  N2  UNL     1       1.797  -1.326  -0.425  1.00  0.00    -0.189 N 
ATOM     11  H2  UNL     1       2.337  -2.164  -0.209  1.00  0.00     0.184 HD
BRANCH  10  12
HETATM   12  C5  UNL     1       2.415  -0.142  -0.954  1.00  0.00     0.086 A 
HETATM   13  C4  UNL     1       2.545   0.046  -2.405  1.00  0.00     0.050 A 
HETATM   14  C3  UNL     1       3.114   1.144  -2.867  1.00  0.00     0.090 A 
HETATM   15  N1  UNL     1       3.601   2.144  -1.981  1.00  0.00    -0.364 N 
HETATM   16  C2  UNL     1       3.488   1.987  -0.574  1.00  0.00     0.058 A 
ATOM     17  H1  UNL     1       4.037   2.984  -2.361  1.00  0.00     0.165 HD
HETATM   18  C1  UNL     1       3.932   2.903   0.267  1.00  0.00     0.046 C 
HETATM   19  C17 UNL     1       2.849   0.751  -0.093  1.00  0.00     0.121 A 
BRANCH  19  20
HETATM   20  O1  UNL     1       2.749   0.618   1.273  1.00  0.00    -0.347 OA
BRANCH  20  21
HETATM   21  C18 UNL     1       3.560  -0.292   1.951  1.00  0.00     0.171 C 
HETATM   22  C19 UNL     1       5.043  -0.041   1.799  1.00  0.00     0.034 C 
ENDBRANCH  20  21
ENDBRANCH  19  20
ENDBRANCH  10  12
ENDBRANCH   1  10
BRANCH   7  23
HETATM   23  N4  UNL     1      -2.244   0.912  -0.582  1.00  0.00    -0.341 N 
ATOM     24  H4  UNL     1      -1.797   1.749  -0.957  1.00  0.00     0.167 HD
BRANCH  23  25
HETATM   25  C11 UNL     1      -3.642   0.893  -0.349  1.00  0.00     0.055 A 
HETATM   26  C12 UNL     1      -4.186   1.212   0.891  1.00  0.00     0.031 A 
HETATM   27  C13 UNL     1      -5.532   1.188   1.098  1.00  0.00     0.002 A 
HETATM   28  C14 UNL     1      -6.423   0.853   0.109  1.00  0.00     0.002 A 
HETATM   29  C15 UNL     1      -5.911   0.532  -1.132  1.00  0.00     0.026 A 
HETATM   30  C16 UNL     1      -4.551   0.555  -1.343  1.00  0.00     0.060 A 
HETATM   31 CL1  UNL     1      -3.909   0.141  -2.937  1.00  0.00    -0.082 Cl
ENDBRANCH  23  25
ENDBRANCH   7  23
TORSDOF 6
