REMARK  7 active torsions:
REMARK  status: ('A' for Active; 'I' for Inactive)
REMARK    1  A    between atoms: C4_7  and  N3_8 
REMARK    2  A    between atoms: N3_8  and  C5_10 
REMARK    3  A    between atoms: C5_10  and  C6_11 
REMARK    4  A    between atoms: C6_11  and  N4_12 
REMARK    5  A    between atoms: N4_12  and  C7_14 
REMARK    6  A    between atoms: C14_25  and  N7_26 
REMARK    7  A    between atoms: N7_26  and  C15_28 
ROOT
HETATM    1  C7  UNL     1      -1.430   0.597  -0.102  1.00  0.00     0.147 A 
HETATM    2  N5  UNL     1      -0.785   1.709   0.257  1.00  0.00    -0.338 N 
ATOM      3  H5  UNL     1       0.234   1.718   0.223  1.00  0.00     0.167 HD
HETATM    4  C8  UNL     1      -1.437   2.832   0.667  1.00  0.00     0.060 A 
HETATM    5  C9  UNL     1      -0.722   3.943   1.023  1.00  0.00     0.032 A 
HETATM    6  C10 UNL     1      -1.392   5.076   1.437  1.00  0.00     0.002 A 
HETATM    7  C11 UNL     1      -2.768   5.120   1.502  1.00  0.00     0.002 A 
HETATM    8  C12 UNL     1      -3.449   3.971   1.131  1.00  0.00     0.032 A 
HETATM    9  C13 UNL     1      -2.797   2.826   0.714  1.00  0.00     0.060 A 
HETATM   10  N6  UNL     1      -3.452   1.722   0.358  1.00  0.00    -0.338 N 
ATOM     11  H6  UNL     1      -4.471   1.721   0.395  1.00  0.00     0.167 HD
HETATM   12  C14 UNL     1      -2.804   0.586  -0.056  1.00  0.00     0.151 A 
ENDROOT
BRANCH   1  13
HETATM   13  N4  UNL     1      -0.790  -0.429  -0.478  1.00  0.00    -0.368 N 
ATOM     14  H4  UNL     1      -1.327  -1.255  -0.743  1.00  0.00     0.161 HD
BRANCH  13  15
HETATM   15  C6  UNL     1       0.637  -0.506  -0.556  1.00  0.00     0.165 C 
BRANCH  15  16
HETATM   16  C5  UNL     1       1.271  -0.797   0.774  1.00  0.00     0.082 C 
BRANCH  16  17
HETATM   17  N3  UNL     1       2.644  -0.893   0.854  1.00  0.00    -0.353 N 
ATOM     18  H3  UNL     1       2.943  -1.028   1.820  1.00  0.00     0.166 HD
BRANCH  17  19
HETATM   19  C4  UNL     1       3.631  -0.862   0.082  1.00  0.00     0.122 A 
HETATM   20  N1  UNL     1       4.912  -1.001   0.559  1.00  0.00    -0.281 N 
HETATM   21  C1  UNL     1       5.272  -1.192   1.953  1.00  0.00     0.179 C 
HETATM   22  N2  UNL     1       5.760  -0.933  -0.438  1.00  0.00    -0.308 N 
HETATM   23  C2  UNL     1       5.128  -0.752  -1.605  1.00  0.00     0.111 A 
ATOM     24  H2  UNL     1       6.772  -1.008  -0.338  1.00  0.00     0.186 HD
HETATM   25  C3  UNL     1       3.766  -0.706  -1.272  1.00  0.00     0.068 A 
ENDBRANCH  17  19
ENDBRANCH  16  17
ENDBRANCH  15  16
ENDBRANCH  13  15
ENDBRANCH   1  13
BRANCH  12  26
HETATM   26  N7  UNL     1      -3.548  -0.386  -0.363  1.00  0.00    -0.339 N 
ATOM     27  H7  UNL     1      -4.551  -0.223  -0.271  1.00  0.00     0.167 HD
BRANCH  26  28
HETATM   28  C15 UNL     1      -3.176  -1.661  -0.814  1.00  0.00     0.036 A 
HETATM   29  C16 UNL     1      -2.938  -2.728   0.050  1.00  0.00     0.029 A 
HETATM   30  C17 UNL     1      -2.583  -3.977  -0.395  1.00  0.00     0.005 A 
HETATM   31  C18 UNL     1      -2.452  -4.209  -1.745  1.00  0.00     0.042 A 
HETATM   32  C19 UNL     1      -2.679  -3.183  -2.629  1.00  0.00     0.118 A 
HETATM   33  F1  UNL     1      -2.551  -3.403  -3.980  1.00  0.00    -0.206 F 
HETATM   34  C20 UNL     1      -3.034  -1.932  -2.177  1.00  0.00     0.071 A 
ENDBRANCH  26  28
ENDBRANCH  12  26
TORSDOF 7
