REMARK  7 active torsions:
REMARK  status: ('A' for Active; 'I' for Inactive)
REMARK    1  A    between atoms: N1_2  and  C2_4 
REMARK    2  A    between atoms: C3_7  and  N3_8 
REMARK    3  A    between atoms: N3_8  and  C4_10 
REMARK    4  A    between atoms: C4_10  and  C5_11 
REMARK    5  A    between atoms: C11_21  and  N6_22 
REMARK    6  A    between atoms: N6_22  and  C12_23 
REMARK    7  A    between atoms: C12_23  and  C13_24 
ROOT
HETATM    1  C2  UNL     1       0.255   2.488   0.426  1.00  0.00     0.699 A 
HETATM    2  N2  UNL     1       1.197   1.654   0.860  1.00  0.00    -0.022 N 
ATOM      3  H2  UNL     1       2.034   2.051   1.287  1.00  0.00     0.203 HD
HETATM    4  C3  UNL     1       1.103   0.284   0.763  1.00  0.00     0.700 A 
HETATM    5  N5  UNL     1      -0.043  -0.183   0.191  1.00  0.00    -0.148 N 
ATOM      6  H5  UNL     1      -0.166  -1.192   0.101  1.00  0.00     0.188 HD
HETATM    7  C11 UNL     1      -1.038   0.642  -0.269  1.00  0.00     0.287 A 
HETATM    8  N7  UNL     1      -0.850   1.969  -0.129  1.00  0.00    -0.148 N 
ATOM      9  H7  UNL     1      -1.577   2.604  -0.458  1.00  0.00     0.188 HD
ENDROOT
BRANCH   4  10
HETATM   10  N3  UNL     1       2.102  -0.358   1.074  1.00  0.00    -0.199 N 
ATOM     11  H3  UNL     1       2.818   0.304   1.374  1.00  0.00     0.183 HD
BRANCH  10  12
HETATM   12  C4  UNL     1       2.630  -1.625   1.175  1.00  0.00     0.135 C 
BRANCH  12  13
HETATM   13  C5  UNL     1       4.103  -1.551   0.838  1.00  0.00     0.048 A 
HETATM   14  C6  UNL     1       4.674  -0.293   1.063  1.00  0.00     0.031 A 
HETATM   15  C7  UNL     1       5.973  -0.107   0.665  1.00  0.00     0.010 A 
HETATM   16  C8  UNL     1       6.686  -1.152   0.068  1.00  0.00    -0.047 A 
HETATM   17  C9  UNL     1       8.079  -0.833  -0.331  1.00  0.00     0.049 C 
HETATM   18  C10 UNL     1       6.082  -2.362  -0.134  1.00  0.00     0.095 A 
HETATM   19  N4  UNL     1       4.779  -2.518   0.267  1.00  0.00    -0.364 N 
ATOM     20  H4  UNL     1       4.321  -3.417   0.116  1.00  0.00     0.165 HD
ENDBRANCH  12  13
ENDBRANCH  10  12
ENDBRANCH   4  10
BRANCH   1  21
HETATM   21  N1  UNL     1       0.480   3.688   0.323  1.00  0.00    -0.211 N 
HETATM   22  C1  UNL     1       0.261   4.991   0.056  1.00  0.00     0.137 C 
ATOM     23  H1  UNL     1       1.448   3.724   0.642  1.00  0.00     0.182 HD
ENDBRANCH   1  21
BRANCH   7  24
HETATM   24  N6  UNL     1      -1.943   0.170  -0.874  1.00  0.00    -0.382 NA
BRANCH  24  25
HETATM   25  C12 UNL     1      -2.970  -0.332  -1.556  1.00  0.00     0.199 C 
BRANCH  25  26
HETATM   26  C13 UNL     1      -4.116  -0.850  -0.823  1.00  0.00     0.015 A 
HETATM   27  C14 UNL     1      -5.074  -0.075  -0.289  1.00  0.00     0.022 A 
HETATM   28  C15 UNL     1      -6.279  -0.614   0.177  1.00  0.00    -0.061 A 
HETATM   29  C16 UNL     1      -7.363   0.225   0.683  1.00  0.00     0.048 C 
HETATM   30  C17 UNL     1      -6.462  -2.005   0.066  1.00  0.00     0.008 A 
HETATM   31  C18 UNL     1      -5.492  -2.793  -0.473  1.00  0.00     0.025 A 
HETATM   32  C19 UNL     1      -4.342  -2.209  -0.908  1.00  0.00     0.046 A 
HETATM   33 CL1  UNL     1      -3.046  -3.195  -1.517  1.00  0.00    -0.083 Cl
ENDBRANCH  25  26
ENDBRANCH  24  25
ENDBRANCH   7  24
TORSDOF 7
