REMARK  5 active torsions:
REMARK  status: ('A' for Active; 'I' for Inactive)
REMARK    1  A    between atoms: N1_2  and  C2_4 
REMARK    2  A    between atoms: C9_15  and  N4_16 
REMARK    3  A    between atoms: N4_16  and  N5_18 
REMARK    4  A    between atoms: C10_20  and  C11_21 
REMARK    5  A    between atoms: C16_27  and  O1_28 
ROOT
HETATM    1  C2  UNL     1      -1.329  -0.352   0.016  1.00  0.00     0.147 A 
HETATM    2  N2  UNL     1      -2.516  -1.023   0.013  1.00  0.00    -0.338 N 
ATOM      3  H2  UNL     1      -2.497  -2.043  -0.009  1.00  0.00     0.167 HD
HETATM    4  C3  UNL     1      -3.703  -0.411   0.037  1.00  0.00     0.060 A 
HETATM    5  C4  UNL     1      -4.905  -1.122   0.033  1.00  0.00     0.032 A 
HETATM    6  C5  UNL     1      -6.125  -0.478   0.058  1.00  0.00     0.002 A 
HETATM    7  C6  UNL     1      -6.166   0.906   0.087  1.00  0.00     0.002 A 
HETATM    8  C7  UNL     1      -4.975   1.602   0.090  1.00  0.00     0.032 A 
HETATM    9  C8  UNL     1      -3.745   0.969   0.066  1.00  0.00     0.060 A 
HETATM   10  N3  UNL     1      -2.583   1.639   0.069  1.00  0.00    -0.337 N 
ATOM     11  H3  UNL     1      -2.608   2.658   0.090  1.00  0.00     0.168 HD
HETATM   12  C9  UNL     1      -1.377   1.021   0.045  1.00  0.00     0.165 A 
ENDROOT
BRANCH  12  13
HETATM   13  N4  UNL     1      -0.296   1.711   0.049  1.00  0.00    -0.283 N 
ATOM     14  H4  UNL     1      -0.409   2.724   0.070  1.00  0.00     0.188 HD
BRANCH  13  15
HETATM   15  N5  UNL     1       0.988   1.249   0.028  1.00  0.00    -0.309 N 
HETATM   16  C10 UNL     1       1.739   1.312   1.068  1.00  0.00     0.122 C 
ATOM     17  H5  UNL     1       1.359   0.845  -0.832  1.00  0.00     0.186 HD
BRANCH  16  18
HETATM   18  C11 UNL     1       3.113   0.824   1.060  1.00  0.00     0.031 A 
HETATM   19  C12 UNL     1       3.867   0.921   2.218  1.00  0.00     0.025 A 
HETATM   20 BR1  UNL     1       3.075   1.693   3.797  1.00  0.00    -0.050 Br
HETATM   21  C13 UNL     1       5.168   0.466   2.225  1.00  0.00     0.020 A 
HETATM   22  C14 UNL     1       5.695  -0.080   1.072  1.00  0.00     0.004 A 
HETATM   23  C15 UNL     1       4.935  -0.168  -0.063  1.00  0.00     0.038 A 
HETATM   24  C16 UNL     1       3.641   0.279  -0.089  1.00  0.00     0.081 A 
BRANCH  24  25
HETATM   25  O1  UNL     1       2.880   0.186  -1.241  1.00  0.00    -0.355 OA
HETATM   26  C17 UNL     1       3.339  -0.351  -2.441  1.00  0.00     0.210 C 
ENDBRANCH  24  25
ENDBRANCH  16  18
ENDBRANCH  13  15
ENDBRANCH  12  13
BRANCH   1  27
HETATM   27  N1  UNL     1      -0.216  -1.006  -0.009  1.00  0.00    -0.378 N 
HETATM   28  C1  UNL     1      -0.225  -2.451  -0.039  1.00  0.00     0.148 C 
ATOM     29  H1  UNL     1       0.671  -0.502  -0.008  1.00  0.00     0.160 HD
ENDBRANCH   1  27
TORSDOF 5
