REMARK  6 active torsions:
REMARK  status: ('A' for Active; 'I' for Inactive)
REMARK    1  A    between atoms: C3_5  and  N2_6 
REMARK    2  A    between atoms: N2_6  and  N3_8 
REMARK    3  A    between atoms: N3_8  and  C4_10 
REMARK    4  A    between atoms: C7_13  and  C8_14 
REMARK    5  A    between atoms: C17_27  and  C18_28 
REMARK    6  A    between atoms: C18_28  and  C19_29 
ROOT
HETATM    1  N2  UNL     1       0.617  -1.665   0.422  1.00  0.00    -0.131 N 
ATOM      2  H2  UNL     1       0.382  -2.355  -0.291  1.00  0.00     0.205 HD
ENDROOT
BRANCH   1   3
HETATM    3  C3  UNL     1       1.758  -1.063   0.405  1.00  0.00     0.700 A 
HETATM    4  N1  UNL     1       2.121  -0.152   1.310  1.00  0.00    -0.190 N 
HETATM    5  C2  UNL     1       3.325   0.489   1.300  1.00  0.00     0.055 A 
ATOM      6  H1  UNL     1       1.460   0.078   2.052  1.00  0.00     0.184 HD
HETATM    7  C1  UNL     1       3.572   1.356   2.230  1.00  0.00     0.044 C 
HETATM    8  C17 UNL     1       4.225   0.190   0.309  1.00  0.00     0.061 A 
HETATM    9  C16 UNL     1       3.835  -0.751  -0.617  1.00  0.00     0.272 A 
HETATM   10  N4  UNL     1       2.616  -1.369  -0.569  1.00  0.00    -0.154 N 
HETATM   11  O1  UNL     1       4.585  -1.094  -1.564  1.00  0.00    -0.267 OA
ATOM     12  H4  UNL     1       2.364  -2.061  -1.275  1.00  0.00     0.187 HD
BRANCH   8  13
HETATM   13  C18 UNL     1       5.393   0.770   0.246  1.00  0.00     0.056 C 
BRANCH  13  14
HETATM   14  C19 UNL     1       6.392   0.505  -0.771  1.00  0.00     0.076 A 
HETATM   15  C20 UNL     1       6.554   1.211  -1.942  1.00  0.00     0.039 A 
HETATM   16  C21 UNL     1       7.607   0.636  -2.604  1.00  0.00     0.027 A 
HETATM   17  C22 UNL     1       8.061  -0.413  -1.810  1.00  0.00     0.142 A 
HETATM   18  O2  UNL     1       7.294  -0.431  -0.741  1.00  0.00    -0.323 OA
ENDBRANCH  13  14
ENDBRANCH   8  13
ENDBRANCH   1   3
BRANCH   1  19
HETATM   19  N3  UNL     1      -0.289  -1.353   1.435  1.00  0.00    -0.287 N 
ATOM     20  H3  UNL     1      -0.008  -1.404   2.414  1.00  0.00     0.187 HD
BRANCH  19  21
HETATM   21  C4  UNL     1      -1.611  -0.962   1.084  1.00  0.00     0.048 A 
HETATM   22  C5  UNL     1      -2.560  -0.639   2.034  1.00  0.00     0.032 A 
HETATM   23  C6  UNL     1      -3.834  -0.263   1.663  1.00  0.00     0.014 A 
HETATM   24  C7  UNL     1      -4.226  -0.190   0.342  1.00  0.00    -0.026 A 
HETATM   25  C14 UNL     1      -3.277  -0.513  -0.607  1.00  0.00     0.014 A 
HETATM   26  C15 UNL     1      -1.996  -0.891  -0.238  1.00  0.00     0.032 A 
BRANCH  24  27
HETATM   27  C8  UNL     1      -5.575   0.208  -0.050  1.00  0.00    -0.026 A 
HETATM   28  C9  UNL     1      -6.127  -0.314  -1.201  1.00  0.00     0.015 A 
HETATM   29  C10 UNL     1      -7.398   0.033  -1.611  1.00  0.00     0.043 A 
HETATM   30  C11 UNL     1      -8.149   0.925  -0.858  1.00  0.00     0.116 A 
HETATM   31  F1  UNL     1      -9.409   1.283  -1.244  1.00  0.00    -0.206 F 
HETATM   32  C12 UNL     1      -7.615   1.462   0.301  1.00  0.00     0.043 A 
HETATM   33  C13 UNL     1      -6.338   1.093   0.683  1.00  0.00     0.015 A 
ENDBRANCH  24  27
ENDBRANCH  19  21
ENDBRANCH   1  19
TORSDOF 6
