REMARK  4 active torsions:
REMARK  status: ('A' for Active; 'I' for Inactive)
REMARK    1  A    between atoms: N1_1  and  N2_4 
REMARK       I    between atoms: N2_4  and  C1_6 
REMARK       I    between atoms: C1_6  and  N4_8 
REMARK    2  A    between atoms: N4_8  and  C2_10 
REMARK    3  A    between atoms: N8_20  and  C5_22 
REMARK    4  A    between atoms: C5_22  and  C6_23 
ROOT
HETATM    1  C2  UNL     1      -0.220  -0.182   0.067  1.00  0.00     0.157 A 
HETATM    2  N5  UNL     1      -0.769  -1.371  -0.204  1.00  0.00    -0.290 N 
ATOM      3  H5  UNL     1      -1.763  -1.403  -0.432  1.00  0.00     0.172 HD
HETATM    4  C3  UNL     1      -0.082  -2.527  -0.192  1.00  0.00     0.340 A 
HETATM    5  O1  UNL     1      -0.624  -3.643  -0.453  1.00  0.00    -0.245 OA
HETATM    6  N6  UNL     1       1.229  -2.444   0.114  1.00  0.00    -0.250 N 
ATOM      7  H6  UNL     1       1.792  -3.294   0.135  1.00  0.00     0.192 HD
HETATM    8  N7  UNL     1       1.797  -1.285   0.386  1.00  0.00    -0.279 N 
ATOM      9  H7  UNL     1       2.791  -1.269   0.612  1.00  0.00     0.189 HD
HETATM   10  C4  UNL     1       1.119  -0.124   0.377  1.00  0.00     0.161 A 
HETATM   11  N8  UNL     1       1.721   0.988   0.651  1.00  0.00    -0.366 N 
ATOM     12  H8  UNL     1       1.171   1.847   0.633  1.00  0.00     0.161 HD
ENDROOT
BRANCH   1  13
HETATM   13  N4  UNL     1      -0.888   0.908   0.052  1.00  0.00    -0.312 N 
HETATM   14  C1  UNL     1      -2.261   1.016  -0.245  1.00  0.00     0.208 C 
HETATM   15  N2  UNL     1      -2.764   0.803  -1.411  1.00  0.00    -0.280 N 
HETATM   16  N3  UNL     1      -3.144   1.381   0.803  1.00  0.00    -0.062 NA
ATOM     17  H2  UNL     1      -2.142   0.540  -2.176  1.00  0.00     0.189 HD
ATOM     18  H4  UNL     1      -0.387   1.768   0.273  1.00  0.00     0.170 HD
BRANCH  15  19
HETATM   19  N1  UNL     1      -4.126   0.920  -1.662  1.00  0.00    -0.343 N 
ATOM     20  H12 UNL     1      -4.733   1.184  -0.886  1.00  0.00     0.176 HD
ATOM     21  H11 UNL     1      -4.524   0.751  -2.586  1.00  0.00     0.176 HD
ENDBRANCH  15  19
ENDBRANCH   1  13
BRANCH  11  22
HETATM   22  C5  UNL     1       3.106   1.087   0.976  1.00  0.00     0.190 C 
BRANCH  22  23
HETATM   23  C6  UNL     1       3.992   1.042  -0.213  1.00  0.00     0.250 C 
HETATM   24  O2  UNL     1       3.588   0.931  -1.358  1.00  0.00    -0.305 OA
ENDBRANCH  22  23
ENDBRANCH  11  22
TORSDOF 4
