REMARK  4 active torsions:
REMARK  status: ('A' for Active; 'I' for Inactive)
REMARK    1  A    between atoms: N2_3  and  N3_5 
REMARK       I    between atoms: N5_9  and  C3_11 
REMARK    2  A    between atoms: C4_15  and  C5_16 
REMARK    3  A    between atoms: C5_16  and  C6_17 
REMARK    4  A    between atoms: C6_17  and  N7_18 
ROOT
HETATM    1  N3  UNL     1      -0.042  -0.177  -0.539  1.00  0.00    -0.191 N 
HETATM    2  N4  UNL     1       1.218  -0.314  -0.311  1.00  0.00    -0.257 N 
ATOM      3  H4  UNL     1       1.845   0.489  -0.360  1.00  0.00     0.191 HD
HETATM    4  C2  UNL     1       1.688  -1.526  -0.010  1.00  0.00     0.170 A 
HETATM    5  N5  UNL     1       2.919  -1.900   0.257  1.00  0.00    -0.290 N 
ATOM      6  H5  UNL     1       3.131  -2.874   0.473  1.00  0.00     0.172 HD
HETATM    7  C3  UNL     1       3.944  -0.925   0.239  1.00  0.00     0.334 C 
HETATM    8  N6  UNL     1       4.239  -0.202   1.421  1.00  0.00    -0.040 NA
HETATM    9  O1  UNL     1       4.609  -0.670  -0.791  1.00  0.00    -0.251 OA
HETATM   10  S1  UNL     1       0.271  -2.480  -0.058  1.00  0.00    -0.035 SA
HETATM   11  C4  UNL     1      -0.827  -1.245  -0.464  1.00  0.00     0.098 A 
ENDROOT
BRANCH  11  12
HETATM   12  C5  UNL     1      -2.293  -1.395  -0.669  1.00  0.00     0.096 C 
BRANCH  12  13
HETATM   13  C6  UNL     1      -3.045  -1.199   0.634  1.00  0.00     0.236 C 
BRANCH  13  14
HETATM   14  N7  UNL     1      -2.814   0.115   1.193  1.00  0.00    -0.079 N 
ATOM     15  H73 UNL     1      -1.818   0.301   1.307  1.00  0.00     0.274 HD
ATOM     16  H72 UNL     1      -3.037   0.849   0.521  1.00  0.00     0.274 HD
ATOM     17  H71 UNL     1      -3.320   0.247   2.069  1.00  0.00     0.274 HD
ENDBRANCH  13  14
ENDBRANCH  12  13
ENDBRANCH  11  12
BRANCH   1  18
HETATM   18  N2  UNL     1      -0.596   1.106  -0.869  1.00  0.00    -0.277 N 
HETATM   19  C1  UNL     1      -0.056   2.181  -0.398  1.00  0.00     0.208 C 
HETATM   20  N1  UNL     1      -0.545   3.471  -0.679  1.00  0.00    -0.095 NA
ATOM     21  H2  UNL     1      -1.415   1.169  -1.474  1.00  0.00     0.189 HD
ENDBRANCH   1  18
TORSDOF 4
