REMARK  11 active torsions:
REMARK  status: ('A' for Active; 'I' for Inactive)
REMARK    1  A    between atoms: C2_2  and  C4_5 
REMARK    2  A    between atoms: C4_5  and  C5_6 
REMARK    3  A    between atoms: C5_6  and  C6_7 
REMARK    4  A    between atoms: C7_8  and  C8_9 
REMARK       I    between atoms: C8_9  and  N1_11 
REMARK    5  A    between atoms: N1_11  and  C9_12 
REMARK    6  A    between atoms: C9_12  and  C10_13 
REMARK    7  A    between atoms: C10_13  and  O2_14 
REMARK    8  A    between atoms: N4_24  and  C15_26 
REMARK    9  A    between atoms: C15_26  and  C16_27 
REMARK   10  A    between atoms: C19_30  and  N5_31 
REMARK   11  A    between atoms: C20_33  and  C21_34 
ROOT
HETATM    1  C6  UNL     1      -3.950   1.510  -0.599  1.00  0.00     0.051 A 
HETATM    2  C7  UNL     1      -4.873   2.282  -1.236  1.00  0.00     0.066 A 
HETATM    3  C11 UNL     1      -4.625   3.605  -1.575  1.00  0.00     0.022 A 
HETATM    4  C12 UNL     1      -3.438   4.185  -1.274  1.00  0.00     0.033 A 
HETATM    5  C13 UNL     1      -2.477   3.415  -0.616  1.00  0.00     0.063 A 
HETATM    6  N2  UNL     1      -1.251   3.759  -0.208  1.00  0.00    -0.298 N 
ATOM      7  H2  UNL     1      -0.809   4.671  -0.324  1.00  0.00     0.187 HD
HETATM    8  N3  UNL     1      -0.716   2.695   0.376  1.00  0.00    -0.284 N 
ATOM      9  H3  UNL     1       0.219   2.670   0.783  1.00  0.00     0.188 HD
HETATM   10  C14 UNL     1      -1.568   1.652   0.361  1.00  0.00     0.130 A 
HETATM   11  N4  UNL     1      -1.411   0.480   0.852  1.00  0.00    -0.374 N 
ATOM     12  H4  UNL     1      -2.166  -0.197   0.745  1.00  0.00     0.161 HD
HETATM   13  C29 UNL     1      -2.734   2.097  -0.286  1.00  0.00     0.057 A 
ENDROOT
BRANCH  11  14
HETATM   14  C15 UNL     1      -0.227   0.076   1.543  1.00  0.00     0.126 C 
BRANCH  14  15
HETATM   15  C16 UNL     1       0.537  -1.053   0.942  1.00  0.00     0.003 C 
HETATM   16  C17 UNL     1       1.092  -0.865  -0.410  1.00  0.00     0.008 C 
HETATM   17  C18 UNL     1       2.580  -0.860  -0.565  1.00  0.00     0.025 C 
HETATM   18  C19 UNL     1       3.379  -1.590   0.444  1.00  0.00     0.080 C 
HETATM   19  C27 UNL     1       2.414  -2.537   1.210  1.00  0.00     0.025 C 
HETATM   20  C28 UNL     1       1.499  -1.602   1.973  1.00  0.00     0.008 C 
BRANCH  18  21
HETATM   21  N5  UNL     1       4.463  -2.356   0.073  1.00  0.00    -0.397 N 
HETATM   22  C20 UNL     1       5.625  -2.004  -0.548  1.00  0.00     0.060 C 
ATOM     23  H5  UNL     1       4.383  -3.347   0.300  1.00  0.00     0.159 HD
BRANCH  22  24
HETATM   24  C21 UNL     1       6.634  -1.127   0.145  1.00  0.00     0.027 C 
HETATM   25  C22 UNL     1       7.866  -0.981  -0.776  1.00  0.00     0.013 C 
HETATM   26  C23 UNL     1       8.367   0.404  -0.551  1.00  0.00     0.044 C 
HETATM   27  C24 UNL     1       7.307   1.153   0.173  1.00  0.00     0.100 C 
HETATM   28  C25 UNL     1       7.021   2.487  -0.526  1.00  0.00     0.051 C 
HETATM   29  F1  UNL     1       7.665   1.418   1.481  1.00  0.00    -0.243 F 
HETATM   30  C26 UNL     1       6.084   0.309   0.130  1.00  0.00     0.052 C 
ENDBRANCH  22  24
ENDBRANCH  18  21
ENDBRANCH  14  15
ENDBRANCH  11  14
BRANCH   1  31
HETATM   31  C5  UNL     1      -4.135   0.116  -0.326  1.00  0.00    -0.063 C 
BRANCH  31  32
HETATM   32  C4  UNL     1      -4.263  -1.077  -0.144  1.00  0.00    -0.075 C 
BRANCH  32  33
HETATM   33  C2  UNL     1      -4.382  -2.528   0.029  1.00  0.00     0.093 C 
HETATM   34  C1  UNL     1      -3.981  -3.132  -1.307  1.00  0.00     0.046 C 
HETATM   35  C3  UNL     1      -3.452  -2.974   1.131  1.00  0.00     0.046 C 
HETATM   36 CL1  UNL     1      -6.035  -3.066   0.353  1.00  0.00    -0.106 Cl
ENDBRANCH  32  33
ENDBRANCH  31  32
ENDBRANCH   1  31
BRANCH   2  37
HETATM   37  C8  UNL     1      -6.253   1.766  -1.502  1.00  0.00     0.327 C 
HETATM   38  O1  UNL     1      -6.622   2.031  -2.682  1.00  0.00    -0.251 OA
HETATM   39  N1  UNL     1      -6.969   1.120  -0.556  1.00  0.00    -0.381 NA
BRANCH  39  40
HETATM   40  C9  UNL     1      -7.704   0.458   0.412  1.00  0.00     0.185 C 
BRANCH  40  41
HETATM   41  C10 UNL     1      -9.040   1.121   0.805  1.00  0.00     0.223 C 
BRANCH  41  42
HETATM   42  O2  UNL     1      -8.840   2.386   1.306  1.00  0.00    -0.395 OA
ATOM     43  H2  UNL     1      -9.663   2.794   1.548  1.00  0.00     0.209 HD
ENDBRANCH  41  42
ENDBRANCH  40  41
ENDBRANCH  39  40
ENDBRANCH   2  37
TORSDOF 11
