REMARK  8 active torsions:
REMARK  status: ('A' for Active; 'I' for Inactive)
REMARK    1  A    between atoms: C9_14  and  C10_15 
REMARK    2  A    between atoms: C17_22  and  C18_23 
REMARK    3  A    between atoms: C18_23  and  N3_24 
REMARK       I    between atoms: N3_24  and  C19_26 
REMARK    4  A    between atoms: C19_26  and  C20_28 
REMARK    5  A    between atoms: C21_29  and  N4_30 
REMARK       I    between atoms: N4_30  and  C22_32 
REMARK    6  A    between atoms: N8_40  and  C24_41 
REMARK    7  A    between atoms: C24_41  and  C25_42 
REMARK    8  A    between atoms: C25_42  and  C26_43 
ROOT
HETATM    1  C10 UNL     1       4.002  -1.158   0.728  1.00  0.00     0.004 C 
HETATM    2  C11 UNL     1       2.783  -1.719   0.633  1.00  0.00    -0.075 C 
HETATM    3  C12 UNL     1       2.717  -3.195   0.664  1.00  0.00     0.034 C 
HETATM    4  C13 UNL     1       1.409  -3.752   0.230  1.00  0.00     0.005 C 
HETATM    5  C14 UNL     1       0.237  -2.855   0.579  1.00  0.00     0.010 C 
HETATM    6  C15 UNL     1       0.426  -1.558  -0.125  1.00  0.00    -0.032 C 
HETATM    7  C16 UNL     1       0.731  -1.716  -1.591  1.00  0.00     0.016 C 
HETATM    8  C17 UNL     1      -0.680  -0.566   0.048  1.00  0.00     0.012 C 
HETATM    9  C27 UNL     1      -0.431  -0.010   1.436  1.00  0.00     0.007 C 
HETATM   10  C28 UNL     1       1.027  -0.343   1.772  1.00  0.00     0.010 C 
HETATM   11  C29 UNL     1       1.620  -0.842   0.497  1.00  0.00     0.023 C 
ENDROOT
BRANCH   8  12
HETATM   12  C18 UNL     1      -1.997  -1.255  -0.069  1.00  0.00     0.128 C 
BRANCH  12  13
HETATM   13  N3  UNL     1      -3.119  -0.313   0.086  1.00  0.00    -0.355 N 
HETATM   14  C19 UNL     1      -4.447  -0.744   0.015  1.00  0.00     0.272 C 
HETATM   15  O1  UNL     1      -4.571  -2.012  -0.193  1.00  0.00    -0.266 OA
ATOM     16  H3  UNL     1      -2.923   0.675   0.249  1.00  0.00     0.162 HD
BRANCH  14  17
HETATM   17  C20 UNL     1      -5.673   0.021   0.139  1.00  0.00     0.148 A 
HETATM   18  C21 UNL     1      -6.938  -0.587   0.025  1.00  0.00     0.141 A 
HETATM   19  N7  UNL     1      -7.821   0.453   0.192  1.00  0.00    -0.336 N 
HETATM   20  C23 UNL     1      -7.176   1.574   0.386  1.00  0.00     0.185 A 
ATOM     21  H7  UNL     1      -8.837   0.363   0.168  1.00  0.00     0.168 HD
HETATM   22  N8  UNL     1      -5.841   1.331   0.358  1.00  0.00    -0.335 N 
BRANCH  18  23
HETATM   23  N4  UNL     1      -7.325  -1.922  -0.204  1.00  0.00    -0.315 N 
HETATM   24  C22 UNL     1      -8.736  -2.225  -0.269  1.00  0.00     0.187 C 
HETATM   25  N5  UNL     1      -9.565  -1.378  -0.779  1.00  0.00    -0.373 N 
HETATM   26  N6  UNL     1      -9.239  -3.444   0.217  1.00  0.00    -0.064 NA
ATOM     27  H52 UNL     1      -9.200  -0.493  -1.132  1.00  0.00     0.158 HD
ATOM     28  H51 UNL     1     -10.561  -1.592  -0.825  1.00  0.00     0.158 HD
ATOM     29  H4  UNL     1      -6.627  -2.656  -0.321  1.00  0.00     0.170 HD
ENDBRANCH  18  23
BRANCH  22  30
HETATM   30  C24 UNL     1      -4.883   2.377   0.551  1.00  0.00     0.135 C 
BRANCH  30  31
HETATM   31  C25 UNL     1      -4.443   3.040  -0.746  1.00  0.00     0.091 C 
BRANCH  31  32
HETATM   32  C26 UNL     1      -3.434   4.119  -0.407  1.00  0.00     0.354 C 
HETATM   33  F1  UNL     1      -3.039   4.719  -1.599  1.00  0.00    -0.214 F 
HETATM   34  F2  UNL     1      -2.333   3.566   0.210  1.00  0.00    -0.214 F 
ENDBRANCH  31  32
ENDBRANCH  30  31
ENDBRANCH  22  30
ENDBRANCH  14  17
ENDBRANCH  12  13
ENDBRANCH   8  12
BRANCH   1  35
HETATM   35  C9  UNL     1       4.229   0.243   0.715  1.00  0.00     0.009 C 
HETATM   36  C8  UNL     1       5.358   0.875   0.818  1.00  0.00    -0.039 C 
HETATM   37  C2  UNL     1       6.677   0.295   0.988  1.00  0.00     0.005 C 
HETATM   38  C7  UNL     1       5.373   2.398   0.609  1.00  0.00     0.096 C 
HETATM   39  C1  UNL     1       6.835  -0.718   1.834  1.00  0.00     0.028 C 
HETATM   40  C3  UNL     1       7.828   0.845   0.285  1.00  0.00     0.109 C 
HETATM   41  N1  UNL     1       9.014   0.353   0.392  1.00  0.00    -0.385 N 
HETATM   42  N2  UNL     1       7.577   1.991  -0.558  1.00  0.00    -0.346 N 
ATOM     43  H12 UNL     1       9.191  -0.456   0.987  1.00  0.00     0.157 HD
ATOM     44  H11 UNL     1       9.820   0.738  -0.100  1.00  0.00     0.157 HD
HETATM   45  C4  UNL     1       6.243   2.511  -0.635  1.00  0.00     0.011 C 
ATOM     46  H2  UNL     1       8.334   2.422  -1.088  1.00  0.00     0.167 HD
HETATM   47  C5  UNL     1       5.771   3.055  -1.696  1.00  0.00    -0.006 C 
HETATM   48  C6  UNL     1       6.561   3.203  -2.950  1.00  0.00     0.038 C 
ENDBRANCH   1  35
TORSDOF 8
