REMARK  9 active torsions:
REMARK  status: ('A' for Active; 'I' for Inactive)
REMARK    1  A    between atoms: C4_11  and  C5_12 
REMARK    2  A    between atoms: C11_20  and  C12_21 
REMARK       I    between atoms: C12_21  and  N4_23 
REMARK    3  A    between atoms: N4_23  and  C13_25 
REMARK    4  A    between atoms: C13_25  and  C14_26 
REMARK    5  A    between atoms: C13_25  and  C21_33 
REMARK    6  A    between atoms: C14_26  and  C15_27 
REMARK       I    between atoms: C21_33  and  N5_35 
REMARK    7  A    between atoms: N5_35  and  C22_37 
REMARK    8  A    between atoms: C22_37  and  C23_38 
REMARK    9  A    between atoms: C26_41  and  N6_42 
ROOT
HETATM    1  C12 UNL     1      -2.902   0.282  -1.360  1.00  0.00     0.226 C 
HETATM    2  O1  UNL     1      -2.508   0.563  -2.541  1.00  0.00    -0.273 OA
HETATM    3  N4  UNL     1      -1.953   0.458  -0.330  1.00  0.00    -0.347 N 
ATOM      4  H4  UNL     1      -2.218   0.247   0.632  1.00  0.00     0.163 HD
ENDROOT
BRANCH   3   5
HETATM    5  C13 UNL     1      -0.572   0.945  -0.613  1.00  0.00     0.177 C 
BRANCH   5   6
HETATM    6  C14 UNL     1      -0.530   2.294   0.011  1.00  0.00     0.039 C 
BRANCH   6   7
HETATM    7  C15 UNL     1       0.696   3.109  -0.078  1.00  0.00    -0.012 C 
HETATM    8  C16 UNL     1       1.941   2.585   0.522  1.00  0.00     0.005 C 
HETATM    9  C17 UNL     1       2.747   3.720   1.140  1.00  0.00     0.000 C 
HETATM   10  C18 UNL     1       2.756   4.963   0.275  1.00  0.00     0.000 C 
HETATM   11  C19 UNL     1       1.339   5.468   0.062  1.00  0.00     0.000 C 
HETATM   12  C20 UNL     1       0.357   4.450   0.606  1.00  0.00     0.005 C 
ENDBRANCH   6   7
ENDBRANCH   5   6
BRANCH   5  13
HETATM   13  C21 UNL     1       0.294   0.002   0.123  1.00  0.00     0.240 C 
HETATM   14  O2  UNL     1      -0.120  -0.319   1.297  1.00  0.00    -0.271 OA
HETATM   15  N5  UNL     1       1.501  -0.545  -0.381  1.00  0.00    -0.359 N 
ATOM     16  H5  UNL     1       1.828  -0.289  -1.313  1.00  0.00     0.162 HD
BRANCH  15  17
HETATM   17  C22 UNL     1       2.261  -1.458   0.419  1.00  0.00     0.127 C 
BRANCH  17  18
HETATM   18  C23 UNL     1       3.489  -1.901  -0.306  1.00  0.00     0.003 C 
HETATM   19  C24 UNL     1       4.303  -2.880   0.529  1.00  0.00     0.008 C 
HETATM   20  C25 UNL     1       5.677  -2.361   0.845  1.00  0.00     0.033 C 
HETATM   21  C26 UNL     1       6.421  -1.956  -0.422  1.00  0.00     0.183 C 
HETATM   22  C27 UNL     1       5.549  -1.200  -1.369  1.00  0.00     0.033 C 
HETATM   23  C28 UNL     1       4.348  -0.663  -0.579  1.00  0.00     0.008 C 
BRANCH  21  24
HETATM   24  N6  UNL     1       6.950  -3.180  -1.043  1.00  0.00    -0.075 N 
ATOM     25  H63 UNL     1       7.525  -3.731  -0.405  1.00  0.00     0.274 HD
ATOM     26  H62 UNL     1       6.229  -3.881  -1.214  1.00  0.00     0.274 HD
ATOM     27  H61 UNL     1       7.448  -2.909  -1.891  1.00  0.00     0.274 HD
ENDBRANCH  21  24
ENDBRANCH  17  18
ENDBRANCH  15  17
ENDBRANCH   5  13
ENDBRANCH   3   5
BRANCH   1  28
HETATM   28  C11 UNL     1      -4.282  -0.188  -1.199  1.00  0.00     0.128 C 
HETATM   29  C2  UNL     1      -5.024   0.461  -0.087  1.00  0.00     0.110 C 
HETATM   30  C1  UNL     1      -4.986   1.979  -0.163  1.00  0.00     0.034 C 
HETATM   31  N1  UNL     1      -6.443   0.125  -0.258  1.00  0.00    -0.222 N 
HETATM   32  C3  UNL     1      -6.792  -1.081  -0.955  1.00  0.00     0.668 C 
ATOM     33  H1  UNL     1      -7.169   0.738   0.112  1.00  0.00     0.178 HD
HETATM   34  N2  UNL     1      -7.992  -1.273  -1.403  1.00  0.00    -0.235 N 
HETATM   35  N3  UNL     1      -5.784  -2.057  -1.138  1.00  0.00    -0.217 N 
ATOM     36  H22 UNL     1      -8.719  -0.569  -1.271  1.00  0.00     0.174 HD
ATOM     37  H21 UNL     1      -8.240  -2.130  -1.898  1.00  0.00     0.174 HD
HETATM   38  C4  UNL     1      -4.386  -1.673  -1.126  1.00  0.00     0.147 C 
ATOM     39  H3  UNL     1      -6.042  -3.034  -1.279  1.00  0.00     0.178 HD
BRANCH  38  40
HETATM   40  C5  UNL     1      -3.721  -2.322   0.027  1.00  0.00    -0.032 A 
HETATM   41  C6  UNL     1      -2.432  -2.856  -0.103  1.00  0.00     0.012 A 
HETATM   42  C7  UNL     1      -1.804  -3.493   0.945  1.00  0.00     0.044 A 
HETATM   43  C8  UNL     1      -2.429  -3.626   2.165  1.00  0.00     0.138 A 
HETATM   44  F1  UNL     1      -1.834  -4.251   3.220  1.00  0.00    -0.204 F 
HETATM   45  C9  UNL     1      -3.706  -3.111   2.333  1.00  0.00     0.073 A 
HETATM   46 CL1  UNL     1      -4.552  -3.250   3.859  1.00  0.00    -0.081 Cl
HETATM   47  C10 UNL     1      -4.313  -2.476   1.261  1.00  0.00     0.036 A 
ENDBRANCH  38  40
ENDBRANCH   1  28
TORSDOF 9
