REMARK  11 active torsions:
REMARK  status: ('A' for Active; 'I' for Inactive)
REMARK    1  A    between atoms: C2_2  and  N1_3 
REMARK       I    between atoms: N1_3  and  C3_5 
REMARK       I    between atoms: C3_5  and  N2_7 
REMARK    2  A    between atoms: N2_7  and  C4_9 
REMARK    3  A    between atoms: C6_12  and  N3_13 
REMARK    4  A    between atoms: N3_13  and  C7_15 
REMARK    5  A    between atoms: C7_15  and  O2_16 
REMARK    6  A    between atoms: C7_15  and  N4_18 
REMARK       I    between atoms: N5_21  and  C10_22 
REMARK    7  A    between atoms: C10_22  and  C11_24 
REMARK    8  A    between atoms: C11_24  and  C12_25 
REMARK    9  A    between atoms: C12_25  and  C13_26 
REMARK   10  A    between atoms: C13_26  and  N6_27 
REMARK       I    between atoms: N6_27  and  C14_29 
REMARK       I    between atoms: C14_29  and  N8_33 
REMARK   11  A    between atoms: C21_42  and  C22_43 
ROOT
HETATM    1  C7  UNL     1      -0.258  -0.140  -1.907  1.00  0.00     0.220 C 
ENDROOT
BRANCH   1   2
HETATM    2  N3  UNL     1      -1.276   0.024  -0.980  1.00  0.00    -0.321 N 
ATOM      3  H3  UNL     1      -1.059   0.659  -0.212  1.00  0.00     0.169 HD
BRANCH   2   4
HETATM    4  C6  UNL     1      -2.566  -0.549  -0.930  1.00  0.00     0.061 A 
HETATM    5  C5  UNL     1      -3.475  -0.100   0.037  1.00  0.00     0.088 A 
HETATM    6  C4  UNL     1      -4.730  -0.631   0.151  1.00  0.00     0.068 A 
HETATM    7 CL1  UNL     1      -2.989   1.177   1.124  1.00  0.00    -0.079 Cl
HETATM    8  C21 UNL     1      -5.203  -1.656  -0.679  1.00  0.00    -0.004 A 
HETATM    9  C20 UNL     1      -4.324  -2.101  -1.625  1.00  0.00     0.045 A 
HETATM   10  C19 UNL     1      -3.029  -1.548  -1.738  1.00  0.00     0.056 A 
HETATM   11 CL2  UNL     1      -4.758  -3.401  -2.724  1.00  0.00    -0.084 Cl
BRANCH   6  12
HETATM   12  N2  UNL     1      -5.642  -0.132   1.146  1.00  0.00    -0.307 N 
HETATM   13  C3  UNL     1      -6.473   0.963   0.751  1.00  0.00     0.320 C 
HETATM   14  N1  UNL     1      -7.410   1.561   1.643  1.00  0.00    -0.343 N 
HETATM   15  O1  UNL     1      -6.395   1.433  -0.411  1.00  0.00    -0.247 OA
ATOM     16  H1  UNL     1      -7.478   1.191   2.591  1.00  0.00     0.164 HD
ATOM     17  H2  UNL     1      -5.693  -0.537   2.081  1.00  0.00     0.170 HD
BRANCH  14  18
HETATM   18  C2  UNL     1      -8.259   2.652   1.279  1.00  0.00     0.120 C 
HETATM   19  C1  UNL     1      -7.573   3.903   0.848  1.00  0.00     0.026 C 
ENDBRANCH  14  18
ENDBRANCH   6  12
BRANCH   8  20
HETATM   20  C22 UNL     1      -6.559  -2.152  -0.426  1.00  0.00     0.014 C 
HETATM   21  C23 UNL     1      -7.193  -2.991  -1.498  1.00  0.00     0.015 C 
HETATM   22  C24 UNL     1      -6.614  -2.998   0.844  1.00  0.00     0.015 C 
ENDBRANCH   8  20
ENDBRANCH   2   4
ENDBRANCH   1   2
BRANCH   1  23
HETATM   23  O2  UNL     1      -0.554  -0.943  -2.889  1.00  0.00    -0.332 OA
ATOM     24  H2  UNL     1       0.143  -1.055  -3.524  1.00  0.00     0.220 HD
ENDBRANCH   1  23
BRANCH   1  25
HETATM   25  N4  UNL     1       1.024   0.413  -1.958  1.00  0.00    -0.340 N 
HETATM   26  C8  UNL     1       1.810   0.009  -3.184  1.00  0.00     0.147 C 
HETATM   27  C9  UNL     1       2.851  -0.951  -2.659  1.00  0.00     0.145 C 
HETATM   28  N5  UNL     1       3.511  -0.466  -1.492  1.00  0.00    -0.349 N 
HETATM   29  C10 UNL     1       4.586  -1.234  -0.958  1.00  0.00     0.219 C 
HETATM   30  C16 UNL     1       3.171   0.745  -0.819  1.00  0.00     0.150 C 
HETATM   31  O3  UNL     1       4.921  -2.300  -1.515  1.00  0.00    -0.273 OA
HETATM   32  C17 UNL     1       1.779   1.265  -1.130  1.00  0.00     0.101 C 
HETATM   33  C18 UNL     1       1.207   1.751   0.150  1.00  0.00     0.034 C 
BRANCH  29  34
HETATM   34  C11 UNL     1       5.350  -0.815   0.262  1.00  0.00     0.104 C 
BRANCH  34  35
HETATM   35  C12 UNL     1       6.443  -1.804   0.571  1.00  0.00     0.029 C 
BRANCH  35  36
HETATM   36  C13 UNL     1       7.179  -1.344   1.801  1.00  0.00     0.138 C 
BRANCH  36  37
HETATM   37  N6  UNL     1       7.752  -0.041   1.529  1.00  0.00    -0.227 N 
HETATM   38  C14 UNL     1       8.508   0.647   2.525  1.00  0.00     0.667 C 
HETATM   39  N7  UNL     1       8.199   0.470   3.744  1.00  0.00    -0.235 N 
HETATM   40  N8  UNL     1       9.582   1.510   2.188  1.00  0.00    -0.231 N 
ATOM     41  H72 UNL     1       7.427  -0.151   3.986  1.00  0.00     0.174 HD
ATOM     42  H71 UNL     1       8.739   0.962   4.456  1.00  0.00     0.174 HD
HETATM   43  C15 UNL     1       9.543   2.919   2.594  1.00  0.00     0.165 C 
ATOM     44  H8  UNL     1      10.380   1.151   1.664  1.00  0.00     0.177 HD
ATOM     45  H6  UNL     1       7.613   0.390   0.615  1.00  0.00     0.177 HD
ENDBRANCH  36  37
ENDBRANCH  35  36
ENDBRANCH  34  35
ENDBRANCH  29  34
ENDBRANCH   1  25
TORSDOF 11
