REMARK  11 active torsions:
REMARK  status: ('A' for Active; 'I' for Inactive)
REMARK    1  A    between atoms: C2_2  and  N1_4 
REMARK    2  A    between atoms: N1_4  and  C4_6 
REMARK    3  A    between atoms: C6_8  and  N2_9 
REMARK    4  A    between atoms: N2_9  and  C7_11 
REMARK    5  A    between atoms: C7_11  and  C8_12 
REMARK    6  A    between atoms: C11_15  and  N3_16 
REMARK       I    between atoms: N3_16  and  C12_18 
REMARK    7  A    between atoms: C12_18  and  C13_20 
REMARK    8  A    between atoms: C13_20  and  O2_21 
REMARK    9  A    between atoms: C17_26  and  N4_27 
REMARK       I    between atoms: N4_27  and  C18_29 
REMARK       I    between atoms: C18_29  and  N5_31 
REMARK   10  A    between atoms: N5_31  and  C19_33 
REMARK   11  A    between atoms: C24_38  and  C25_39 
ROOT
HETATM    1  N3  UNL     1      -0.209  -2.181   0.078  1.00  0.00    -0.354 N 
ATOM      2  H3  UNL     1       0.684  -2.302  -0.401  1.00  0.00     0.162 HD
HETATM    3  C12 UNL     1      -1.382  -1.938  -0.687  1.00  0.00     0.254 C 
HETATM    4  O1  UNL     1      -2.466  -1.796  -0.078  1.00  0.00    -0.270 OA
ENDROOT
BRANCH   3   5
HETATM    5  C13 UNL     1      -1.318  -1.852  -2.127  1.00  0.00     0.158 C 
HETATM    6  C14 UNL     1      -2.449  -2.397  -2.925  1.00  0.00     0.050 C 
HETATM    7  C15 UNL     1      -2.107  -1.867  -4.317  1.00  0.00     0.006 C 
HETATM    8  C16 UNL     1      -1.167  -0.684  -4.108  1.00  0.00     0.029 C 
HETATM    9  C17 UNL     1      -1.360  -0.373  -2.641  1.00  0.00     0.130 C 
BRANCH   5  10
HETATM   10  O2  UNL     1      -0.108  -2.338  -2.660  1.00  0.00    -0.378 OA
ATOM     11  H2  UNL     1      -0.066  -2.281  -3.607  1.00  0.00     0.211 HD
ENDBRANCH   5  10
BRANCH   9  12
HETATM   12  N4  UNL     1      -2.643   0.218  -2.482  1.00  0.00    -0.335 N 
HETATM   13  C18 UNL     1      -3.043   1.123  -1.487  1.00  0.00     0.316 C 
HETATM   14  O3  UNL     1      -2.233   1.483  -0.597  1.00  0.00    -0.247 OA
HETATM   15  N5  UNL     1      -4.344   1.692  -1.395  1.00  0.00    -0.338 N 
ATOM     16  H5  UNL     1      -5.020   1.447  -2.118  1.00  0.00     0.164 HD
ATOM     17  H4  UNL     1      -3.351  -0.045  -3.167  1.00  0.00     0.164 HD
BRANCH  15  18
HETATM   18  C19 UNL     1      -4.771   2.580  -0.365  1.00  0.00     0.095 C 
HETATM   19  C20 UNL     1      -4.686   4.053  -0.734  1.00  0.00     0.026 C 
HETATM   20  C21 UNL     1      -4.973   4.945   0.437  1.00  0.00     0.002 C 
HETATM   21  C22 UNL     1      -6.078   4.407   1.281  1.00  0.00     0.001 C 
HETATM   22  C23 UNL     1      -6.945   3.495   0.452  1.00  0.00     0.012 C 
HETATM   23  C24 UNL     1      -6.134   2.238   0.170  1.00  0.00     0.073 C 
BRANCH  23  24
HETATM   24  C25 UNL     1      -6.106   1.323   1.370  1.00  0.00     0.359 C 
HETATM   25  F1  UNL     1      -5.505   0.112   1.100  1.00  0.00    -0.214 F 
HETATM   26  F2  UNL     1      -7.414   1.071   1.740  1.00  0.00    -0.214 F 
ENDBRANCH  23  24
ENDBRANCH  15  18
ENDBRANCH   9  12
ENDBRANCH   3   5
BRANCH   1  27
HETATM   27  C11 UNL     1      -0.256  -2.261   1.530  1.00  0.00     0.084 C 
HETATM   28  C10 UNL     1       0.322  -0.957   2.084  1.00  0.00     0.026 C 
HETATM   29  C9  UNL     1       1.416  -1.269   3.064  1.00  0.00     0.008 C 
HETATM   30  C8  UNL     1       2.528  -2.028   2.336  1.00  0.00     0.003 C 
HETATM   31  C27 UNL     1       1.960  -3.401   1.979  1.00  0.00     0.008 C 
HETATM   32  C26 UNL     1       0.466  -3.431   2.083  1.00  0.00     0.026 C 
BRANCH  30  33
HETATM   33  C7  UNL     1       3.669  -2.196   3.293  1.00  0.00     0.124 C 
BRANCH  33  34
HETATM   34  N2  UNL     1       4.751  -2.881   2.676  1.00  0.00    -0.389 N 
ATOM     35  H2  UNL     1       4.962  -3.831   2.983  1.00  0.00     0.159 HD
BRANCH  34  36
HETATM   36  C6  UNL     1       5.541  -2.315   1.667  1.00  0.00     0.032 A 
HETATM   37  C5  UNL     1       5.409  -0.986   1.287  1.00  0.00     0.077 A 
HETATM   38  C4  UNL     1       6.192  -0.475   0.289  1.00  0.00     0.103 A 
HETATM   39  N6  UNL     1       7.115  -1.240  -0.355  1.00  0.00    -0.352 N 
HETATM   40  C29 UNL     1       7.286  -2.548  -0.020  1.00  0.00     0.092 A 
ATOM     41  H6  UNL     1       7.684  -0.829  -1.095  1.00  0.00     0.166 HD
HETATM   42  C28 UNL     1       6.494  -3.052   0.980  1.00  0.00     0.046 A 
BRANCH  38  43
HETATM   43  N1  UNL     1       6.072   0.753  -0.101  1.00  0.00    -0.372 N 
ATOM     44  H1  UNL     1       6.690   1.065  -0.850  1.00  0.00     0.161 HD
BRANCH  43  45
HETATM   45  C2  UNL     1       5.153   1.710   0.422  1.00  0.00     0.075 C 
HETATM   46  C1  UNL     1       4.736   2.600  -0.764  1.00  0.00     0.031 C 
HETATM   47  C3  UNL     1       5.736   2.629   1.449  1.00  0.00     0.031 C 
ENDBRANCH  43  45
ENDBRANCH  38  43
ENDBRANCH  34  36
ENDBRANCH  33  34
ENDBRANCH  30  33
ENDBRANCH   1  27
TORSDOF 11
