REMARK  12 active torsions:
REMARK  status: ('A' for Active; 'I' for Inactive)
REMARK    1  A    between atoms: C2_2  and  C3_3 
REMARK    2  A    between atoms: C4_5  and  O2_6 
REMARK    3  A    between atoms: O2_6  and  C5_7 
REMARK    4  A    between atoms: C11_13  and  C12_14 
REMARK    5  A    between atoms: C13_15  and  C14_16 
REMARK    6  A    between atoms: C18_20  and  O3_21 
REMARK    7  A    between atoms: C23_27  and  N1_28 
REMARK    8  A    between atoms: C24_30  and  O4_31 
REMARK    9  A    between atoms: C28_35  and  C29_36 
REMARK   10  A    between atoms: C29_36  and  O5_37 
REMARK   11  A    between atoms: C30_39  and  O6_40 
REMARK   12  A    between atoms: C31_42  and  O7_43 
ROOT
HETATM    1  C5  UNL     1      -1.658   0.506   0.342  1.00  0.00     0.072 C 
HETATM    2  C6  UNL     1      -0.502   0.038   1.268  1.00  0.00     0.039 C 
HETATM    3  C7  UNL     1       0.862   0.378   0.833  1.00  0.00     0.013 C 
HETATM    4  C8  UNL     1       1.409  -0.470  -0.255  1.00  0.00     0.026 C 
HETATM    5  C9  UNL     1       2.879  -0.552  -0.353  1.00  0.00    -0.044 A 
HETATM    6  C10 UNL     1       3.759   0.022   0.488  1.00  0.00     0.019 A 
HETATM    7  C11 UNL     1       5.129  -0.138   0.281  1.00  0.00    -0.033 A 
HETATM    8  C17 UNL     1       5.600  -0.877  -0.776  1.00  0.00     0.048 A 
HETATM    9  C18 UNL     1       4.692  -1.473  -1.651  1.00  0.00     0.073 A 
HETATM   10  C19 UNL     1       3.343  -1.309  -1.437  1.00  0.00    -0.018 A 
HETATM   11  C20 UNL     1       2.442  -1.968  -2.415  1.00  0.00     0.042 C 
HETATM   12  C21 UNL     1       1.040  -1.430  -2.413  1.00  0.00     0.012 C 
HETATM   13  C22 UNL     1       0.929  -0.124  -1.623  1.00  0.00     0.023 C 
HETATM   14  C23 UNL     1      -0.428   0.434  -1.747  1.00  0.00     0.044 C 
HETATM   15  C26 UNL     1      -0.584   1.877  -1.365  1.00  0.00     0.035 C 
HETATM   16  C27 UNL     1      -1.338   1.895  -0.053  1.00  0.00     0.041 C 
HETATM   17  C28 UNL     1      -1.483  -0.287  -0.929  1.00  0.00     0.072 C 
ENDROOT
BRANCH   1  18
HETATM   18  O2  UNL     1      -2.714   0.195   1.005  1.00  0.00    -0.347 OA
BRANCH  18  19
HETATM   19  C4  UNL     1      -3.993   0.223   0.992  1.00  0.00     0.292 C 
HETATM   20  O1  UNL     1      -4.492  -1.057   1.183  1.00  0.00    -0.350 OA
HETATM   21  C3  UNL     1      -5.806  -1.225   1.394  1.00  0.00     0.161 C 
HETATM   22  C32 UNL     1      -6.583  -0.126   2.018  1.00  0.00     0.230 C 
HETATM   23  C31 UNL     1      -5.995   1.234   1.916  1.00  0.00     0.188 C 
HETATM   24  F1  UNL     1      -6.754  -0.400   3.383  1.00  0.00    -0.244 F 
HETATM   25  C30 UNL     1      -4.512   1.131   2.151  1.00  0.00     0.205 C 
BRANCH  21  26
HETATM   26  C2  UNL     1      -6.116  -2.581   2.063  1.00  0.00     0.030 C 
HETATM   27  C1  UNL     1      -7.607  -2.726   2.281  1.00  0.00     0.007 C 
ENDBRANCH  21  26
BRANCH  23  28
HETATM   28  O7  UNL     1      -6.604   2.144   2.776  1.00  0.00    -0.390 OA
ATOM     29  H7  UNL     1      -7.540   2.209   2.628  1.00  0.00     0.210 HD
ENDBRANCH  23  28
BRANCH  25  30
HETATM   30  O6  UNL     1      -3.965   2.379   2.078  1.00  0.00    -0.388 OA
ATOM     31  H6  UNL     1      -4.281   2.932   2.783  1.00  0.00     0.210 HD
ENDBRANCH  25  30
ENDBRANCH  18  19
ENDBRANCH   1  18
BRANCH  17  32
HETATM   32  C29 UNL     1      -2.708  -0.313  -1.824  1.00  0.00     0.174 C 
BRANCH  32  33
HETATM   33  O5  UNL     1      -3.089   0.949  -2.254  1.00  0.00    -0.400 OA
ATOM     34  H5  UNL     1      -3.856   0.933  -2.814  1.00  0.00     0.209 HD
ENDBRANCH  32  33
ENDBRANCH  17  32
BRANCH  14  35
HETATM   35  N1  UNL     1      -0.753   0.379  -3.187  1.00  0.00    -0.371 N 
HETATM   36  C24 UNL     1      -0.178   1.238  -3.947  1.00  0.00     0.221 C 
ATOM     37  H1  UNL     1      -1.405  -0.311  -3.560  1.00  0.00     0.161 HD
BRANCH  36  38
HETATM   38  O4  UNL     1      -0.465   1.207  -5.297  1.00  0.00    -0.352 OA
HETATM   39  C25 UNL     1      -1.503   0.366  -5.751  1.00  0.00     0.210 C 
ENDBRANCH  36  38
ENDBRANCH  14  35
BRANCH   7  40
HETATM   40  C12 UNL     1       6.018   0.498   1.212  1.00  0.00     0.008 C 
HETATM   41  C13 UNL     1       7.317   0.417   1.115  1.00  0.00    -0.022 C 
BRANCH  41  42
HETATM   42  C14 UNL     1       8.244   1.078   2.083  1.00  0.00    -0.000 C 
HETATM   43  C15 UNL     1       9.172   0.092   2.706  1.00  0.00     0.013 C 
HETATM   44  C16 UNL     1       7.502   1.826   3.151  1.00  0.00     0.013 C 
ENDBRANCH  41  42
ENDBRANCH   7  40
BRANCH   9  45
HETATM   45  O3  UNL     1       5.250  -2.200  -2.688  1.00  0.00    -0.360 OA
ATOM     46  H3  UNL     1       4.632  -2.606  -3.284  1.00  0.00     0.217 HD
ENDBRANCH   9  45
TORSDOF 12
