REMARK  10 active torsions:
REMARK  status: ('A' for Active; 'I' for Inactive)
REMARK    1  A    between atoms: N1_2  and  C2_5 
REMARK    2  A    between atoms: C2_5  and  C3_6 
REMARK    3  A    between atoms: C3_6  and  N2_7 
REMARK    4  A    between atoms: N2_7  and  C4_10 
REMARK    5  A    between atoms: C4_10  and  C5_11 
REMARK    6  A    between atoms: C11_17  and  N3_18 
REMARK       I    between atoms: N3_18  and  C12_20 
REMARK    7  A    between atoms: C12_20  and  C13_22 
REMARK    8  A    between atoms: C23_35  and  O3_36 
REMARK    9  A    between atoms: C25_38  and  O4_39 
REMARK   10  A    between atoms: C29_44  and  O5_45 
ROOT
HETATM    1  C5  UNL     1       2.345   0.439  -0.150  1.00  0.00     0.040 C 
HETATM    2  C6  UNL     1       0.843   0.413  -0.266  1.00  0.00     0.009 C 
HETATM    3  C7  UNL     1       0.118   1.143   0.835  1.00  0.00     0.001 C 
HETATM    4  C8  UNL     1      -1.278   0.586   1.039  1.00  0.00     0.005 C 
HETATM    5  C9  UNL     1      -1.972   0.286  -0.237  1.00  0.00     0.044 C 
HETATM    6  C10 UNL     1      -3.390  -0.096  -0.024  1.00  0.00     0.002 A 
HETATM    7  C11 UNL     1      -4.294   0.945   0.231  1.00  0.00     0.044 A 
HETATM    8  C17 UNL     1      -5.614   0.612   0.426  1.00  0.00     0.030 A 
HETATM    9  C18 UNL     1      -6.088  -0.706   0.381  1.00  0.00     0.005 A 
HETATM   10  C19 UNL     1      -5.165  -1.685   0.127  1.00  0.00     0.037 A 
HETATM   11  C20 UNL     1      -3.802  -1.427  -0.082  1.00  0.00     0.077 A 
HETATM   12  O2  UNL     1      -2.961  -2.457  -0.327  1.00  0.00    -0.343 OA
HETATM   13  C21 UNL     1      -1.872  -3.043   0.268  1.00  0.00     0.156 C 
HETATM   14  C22 UNL     1      -2.226  -3.699   1.620  1.00  0.00     0.042 C 
HETATM   15  C23 UNL     1      -1.401  -4.188  -0.630  1.00  0.00     0.178 C 
HETATM   16  C25 UNL     1      -0.007  -3.957  -1.171  1.00  0.00     0.149 C 
HETATM   17  C26 UNL     1       1.042  -3.857  -0.113  1.00  0.00     0.034 C 
HETATM   18  C27 UNL     1       2.068  -2.755  -0.362  1.00  0.00     0.005 C 
HETATM   19  C28 UNL     1       2.083  -1.880   0.846  1.00  0.00     0.032 C 
HETATM   20  C29 UNL     1       2.878  -0.628   0.752  1.00  0.00     0.123 C 
ENDROOT
BRANCH   1  21
HETATM   21  C4  UNL     1       2.810   1.775   0.417  1.00  0.00     0.239 C 
BRANCH  21  22
HETATM   22  N2  UNL     1       4.250   1.794   0.495  1.00  0.00    -0.073 N 
ATOM     23  H22 UNL     1       4.586   0.990   1.025  1.00  0.00     0.277 HD
ATOM     24  H21 UNL     1       4.561   2.550   1.105  1.00  0.00     0.277 HD
BRANCH  22  25
HETATM   25  C3  UNL     1       4.916   1.869  -0.764  1.00  0.00     0.259 C 
BRANCH  25  26
HETATM   26  C2  UNL     1       6.409   1.819  -0.500  1.00  0.00     0.259 C 
BRANCH  26  27
HETATM   27  N1  UNL     1       6.850   2.898   0.326  1.00  0.00    -0.077 N 
HETATM   28  C1  UNL     1       6.766   4.177  -0.316  1.00  0.00     0.267 C 
ATOM     29  H12 UNL     1       7.795   2.727   0.670  1.00  0.00     0.276 HD
ATOM     30  H11 UNL     1       6.346   2.904   1.213  1.00  0.00     0.276 HD
ENDBRANCH  26  27
ENDBRANCH  25  26
ENDBRANCH  22  25
ENDBRANCH  21  22
ENDBRANCH   1  21
BRANCH  20  31
HETATM   31  O5  UNL     1       4.182  -0.954   0.491  1.00  0.00    -0.395 OA
ATOM     32  H5  UNL     1       4.521  -1.632   1.064  1.00  0.00     0.210 HD
ENDBRANCH  20  31
BRANCH  16  33
HETATM   33  O4  UNL     1       0.099  -2.912  -2.049  1.00  0.00    -0.393 OA
ATOM     34  H4  UNL     1       0.974  -2.767  -2.389  1.00  0.00     0.210 HD
ENDBRANCH  16  33
BRANCH   7  35
HETATM   35  N3  UNL     1      -3.868   2.293   0.251  1.00  0.00    -0.322 N 
HETATM   36  C12 UNL     1      -4.550   3.458   0.565  1.00  0.00     0.256 C 
HETATM   37  O1  UNL     1      -5.737   3.485   0.908  1.00  0.00    -0.267 OA
ATOM     38  H3  UNL     1      -2.892   2.432  -0.010  1.00  0.00     0.169 HD
BRANCH  36  39
HETATM   39  C13 UNL     1      -3.856   4.795   0.504  1.00  0.00     0.041 A 
HETATM   40  C14 UNL     1      -4.315   5.864   1.229  1.00  0.00     0.068 A 
HETATM   41  S1  UNL     1      -3.223   7.113   0.822  1.00  0.00    -0.089 SA
HETATM   42  C15 UNL     1      -2.218   6.253  -0.250  1.00  0.00     0.075 A 
HETATM   43 CL1  UNL     1      -0.794   6.803  -1.155  1.00  0.00    -0.076 Cl
HETATM   44  C16 UNL     1      -2.772   5.002  -0.258  1.00  0.00     0.048 A 
ENDBRANCH  36  39
ENDBRANCH   7  35
BRANCH  15  45
HETATM   45  O3  UNL     1      -2.328  -4.419  -1.609  1.00  0.00    -0.386 OA
HETATM   46  C24 UNL     1      -2.918  -5.659  -1.573  1.00  0.00     0.202 C 
ENDBRANCH  15  45
TORSDOF 10
