REMARK  14 active torsions:
REMARK  status: ('A' for Active; 'I' for Inactive)
REMARK    1  A    between atoms: C2_2  and  N1_4 
REMARK       I    between atoms: N1_4  and  C4_6 
REMARK    2  A    between atoms: C4_6  and  C5_8 
REMARK    3  A    between atoms: C5_8  and  C6_9 
REMARK    4  A    between atoms: C6_9  and  O2_10 
REMARK    5  A    between atoms: C6_9  and  O3_12 
REMARK    6  A    between atoms: O3_12  and  C7_13 
REMARK    7  A    between atoms: C8_14  and  O4_15 
REMARK    8  A    between atoms: C12_20  and  O5_21 
REMARK    9  A    between atoms: C14_24  and  O6_25 
REMARK   10  A    between atoms: C19_32  and  C20_33 
REMARK   11  A    between atoms: C20_33  and  C22_35 
REMARK   12  A    between atoms: C22_35  and  O7_36 
REMARK   13  A    between atoms: O7_36  and  C23_37 
REMARK   14  A    between atoms: C23_37  and  C24_39 
ROOT
HETATM    1  C7  UNL     1       1.551   0.361   0.451  1.00  0.00     0.138 A 
HETATM    2  C8  UNL     1       0.690   0.064   1.440  1.00  0.00     0.102 A 
HETATM    3  C9  UNL     1      -0.185  -0.977   1.348  1.00  0.00     0.048 A 
HETATM    4  C10 UNL     1      -0.254  -1.807   0.222  1.00  0.00    -0.037 A 
HETATM    5  C11 UNL     1       0.642  -1.471  -0.769  1.00  0.00    -0.012 A 
HETATM    6  C12 UNL     1       1.544  -0.433  -0.726  1.00  0.00     0.108 A 
HETATM    7  C13 UNL     1       0.795  -2.179  -2.069  1.00  0.00     0.076 C 
HETATM    8  C14 UNL     1       0.744  -3.690  -1.827  1.00  0.00     0.157 C 
HETATM    9  C15 UNL     1      -0.760  -3.970  -1.752  1.00  0.00     0.204 C 
HETATM   10  F1  UNL     1      -0.904  -5.235  -2.343  1.00  0.00    -0.246 F 
HETATM   11  C16 UNL     1      -1.099  -4.086  -0.340  1.00  0.00     0.035 C 
HETATM   12  C17 UNL     1      -2.416  -4.800  -0.184  1.00  0.00     0.009 C 
HETATM   13  C18 UNL     1      -3.408  -3.681  -0.344  1.00  0.00     0.007 C 
HETATM   14  C19 UNL     1      -2.691  -2.520   0.319  1.00  0.00     0.004 C 
HETATM   15  C30 UNL     1      -1.268  -2.812   0.439  1.00  0.00    -0.006 C 
HETATM   16  C31 UNL     1      -1.021  -3.299   1.901  1.00  0.00     0.021 C 
ENDROOT
BRANCH  14  17
HETATM   17  C20 UNL     1      -3.202  -1.201  -0.171  1.00  0.00     0.011 C 
HETATM   18  C21 UNL     1      -3.128  -0.899  -1.586  1.00  0.00     0.012 C 
BRANCH  17  19
HETATM   19  C22 UNL     1      -4.570  -1.004   0.430  1.00  0.00     0.183 C 
BRANCH  19  20
HETATM   20  O7  UNL     1      -5.306   0.086   0.174  1.00  0.00    -0.317 OA
BRANCH  20  21
HETATM   21  C23 UNL     1      -6.017   0.612  -0.842  1.00  0.00     0.293 C 
HETATM   22  O8  UNL     1      -6.082  -0.071  -1.913  1.00  0.00    -0.259 OA
BRANCH  21  23
HETATM   23  C24 UNL     1      -6.706   1.898  -0.792  1.00  0.00     0.042 A 
HETATM   24  C25 UNL     1      -7.451   2.418  -1.823  1.00  0.00     0.018 A 
HETATM   25  C26 UNL     1      -8.062   3.644  -1.722  1.00  0.00     0.004 A 
HETATM   26  C27 UNL     1      -7.949   4.402  -0.581  1.00  0.00     0.042 A 
HETATM   27  C28 UNL     1      -7.200   3.889   0.466  1.00  0.00     0.117 A 
HETATM   28  F2  UNL     1      -7.092   4.636   1.582  1.00  0.00    -0.206 F 
HETATM   29  C29 UNL     1      -6.596   2.659   0.349  1.00  0.00     0.059 A 
ENDBRANCH  21  23
ENDBRANCH  20  21
ENDBRANCH  19  20
ENDBRANCH  17  19
ENDBRANCH  14  17
BRANCH   2  30
HETATM   30  O4  UNL     1       0.693   0.856   2.607  1.00  0.00    -0.358 OA
ATOM     31  H4  UNL     1       0.085   0.646   3.306  1.00  0.00     0.217 HD
ENDBRANCH   2  30
BRANCH   6  32
HETATM   32  O5  UNL     1       2.435  -0.081  -1.696  1.00  0.00    -0.357 OA
ATOM     33  H5  UNL     1       2.430  -0.612  -2.484  1.00  0.00     0.217 HD
ENDBRANCH   6  32
BRANCH   8  34
HETATM   34  O6  UNL     1       1.375  -3.901  -0.607  1.00  0.00    -0.392 OA
ATOM     35  H6  UNL     1       1.343  -4.839  -0.457  1.00  0.00     0.210 HD
ENDBRANCH   8  34
BRANCH   1  36
HETATM   36  O3  UNL     1       2.477   1.409   0.485  1.00  0.00    -0.314 OA
BRANCH  36  37
HETATM   37  C6  UNL     1       3.841   1.224   0.800  1.00  0.00     0.272 C 
BRANCH  37  38
HETATM   38  C5  UNL     1       4.721   2.237   0.083  1.00  0.00     0.163 C 
BRANCH  38  39
HETATM   39  C4  UNL     1       6.100   2.059   0.613  1.00  0.00     0.222 C 
HETATM   40  N1  UNL     1       7.102   3.038   0.439  1.00  0.00    -0.357 N 
ATOM     41  H1  UNL     1       6.885   3.896  -0.067  1.00  0.00     0.162 HD
HETATM   42  O1  UNL     1       6.392   1.010   1.242  1.00  0.00    -0.273 OA
BRANCH  40  43
HETATM   43  C2  UNL     1       8.438   2.838   0.972  1.00  0.00     0.076 C 
HETATM   44  C1  UNL     1       9.444   3.406   0.033  1.00  0.00     0.032 C 
HETATM   45  C3  UNL     1       8.456   3.629   2.281  1.00  0.00     0.032 C 
ENDBRANCH  40  43
ENDBRANCH  38  39
ENDBRANCH  37  38
BRANCH  37  46
HETATM   46  O2  UNL     1       3.994   1.584   2.178  1.00  0.00    -0.370 OA
ATOM     47  H2  UNL     1       3.445   0.951   2.626  1.00  0.00     0.212 HD
ENDBRANCH  37  46
ENDBRANCH  36  37
ENDBRANCH   1  36
TORSDOF 14
