REMARK  13 active torsions:
REMARK  status: ('A' for Active; 'I' for Inactive)
REMARK    1  A    between atoms: C2_2  and  C3_3 
REMARK    2  A    between atoms: C3_3  and  C4_4 
REMARK    3  A    between atoms: C4_4  and  C5_5 
REMARK    4  A    between atoms: C5_5  and  C6_6 
REMARK    5  A    between atoms: C11_12  and  O1_13 
REMARK    6  A    between atoms: O1_13  and  C12_14 
REMARK    7  A    between atoms: C15_18  and  O2_19 
REMARK    8  A    between atoms: C16_21  and  O3_22 
REMARK    9  A    between atoms: C17_24  and  O4_25 
REMARK   10  A    between atoms: C20_29  and  C21_30 
REMARK   11  A    between atoms: C23_32  and  C24_33 
REMARK   12  A    between atoms: C24_33  and  O5_34 
REMARK   13  A    between atoms: C29_40  and  O6_41 
ROOT
HETATM    1  C6  UNL     1      -2.132   0.963  -0.167  1.00  0.00    -0.019 A 
HETATM    2  C7  UNL     1      -0.799   0.888  -0.621  1.00  0.00     0.047 A 
HETATM    3  C8  UNL     1       0.117  -0.026  -0.194  1.00  0.00     0.079 A 
HETATM    4  C9  UNL     1      -0.297  -0.931   0.757  1.00  0.00     0.017 A 
HETATM    5  C10 UNL     1      -1.572  -0.888   1.215  1.00  0.00     0.159 A 
HETATM    6  F1  UNL     1      -1.812  -1.772   2.242  1.00  0.00    -0.203 F 
HETATM    7  C11 UNL     1      -2.520   0.041   0.765  1.00  0.00     0.115 A 
HETATM    8  C18 UNL     1       0.714  -1.914   1.217  1.00  0.00     0.047 C 
HETATM    9  C19 UNL     1       1.220  -2.532  -0.110  1.00  0.00     0.043 C 
HETATM   10  C20 UNL     1       1.868  -1.490  -0.957  1.00  0.00     0.169 C 
HETATM   11  O7  UNL     1       1.449  -0.163  -0.630  1.00  0.00    -0.340 OA
ENDROOT
BRANCH  10  12
HETATM   12  C21 UNL     1       3.311  -1.679  -1.094  1.00  0.00     0.012 A 
HETATM   13  C22 UNL     1       4.420  -1.169  -0.497  1.00  0.00     0.028 A 
HETATM   14  C23 UNL     1       5.617  -1.636  -0.875  1.00  0.00    -0.014 A 
HETATM   15  C30 UNL     1       5.661  -2.604  -1.845  1.00  0.00     0.060 A 
HETATM   16  S1  UNL     1       3.989  -2.824  -2.194  1.00  0.00    -0.103 SA
BRANCH  14  17
HETATM   17  C24 UNL     1       6.927  -1.129  -0.291  1.00  0.00     0.113 C 
HETATM   18  C25 UNL     1       6.949  -1.116   1.200  1.00  0.00     0.057 C 
HETATM   19  C26 UNL     1       7.620   0.244   1.111  1.00  0.00    -0.015 C 
HETATM   20  C27 UNL     1       9.138   0.151   1.130  1.00  0.00     0.018 C 
HETATM   21  C28 UNL     1       7.116   1.253   2.084  1.00  0.00     0.018 C 
HETATM   22  C29 UNL     1       7.005   0.367  -0.276  1.00  0.00     0.165 C 
BRANCH  17  23
HETATM   23  O5  UNL     1       8.052  -1.690  -0.829  1.00  0.00    -0.382 OA
ATOM     24  H5  UNL     1       8.870  -1.373  -0.464  1.00  0.00     0.211 HD
ENDBRANCH  17  23
BRANCH  22  25
HETATM   25  O6  UNL     1       7.936   0.899  -1.187  1.00  0.00    -0.391 OA
ATOM     26  H6  UNL     1       7.985   1.848  -1.177  1.00  0.00     0.210 HD
ENDBRANCH  22  25
ENDBRANCH  14  17
ENDBRANCH  10  12
BRANCH   1  27
HETATM   27  C5  UNL     1      -2.927   2.098  -0.673  1.00  0.00     0.042 C 
BRANCH  27  28
HETATM   28  C4  UNL     1      -3.080   3.207   0.347  1.00  0.00     0.005 C 
BRANCH  28  29
HETATM   29  C3  UNL     1      -3.807   4.349  -0.316  1.00  0.00    -0.000 C 
BRANCH  29  30
HETATM   30  C2  UNL     1      -4.051   5.496   0.646  1.00  0.00    -0.005 C 
HETATM   31  C1  UNL     1      -4.760   6.594  -0.117  1.00  0.00     0.005 C 
ENDBRANCH  29  30
ENDBRANCH  28  29
ENDBRANCH  27  28
ENDBRANCH   1  27
BRANCH   7  32
HETATM   32  O1  UNL     1      -3.764  -0.070   1.284  1.00  0.00    -0.339 OA
BRANCH  32  33
HETATM   33  C12 UNL     1      -4.836  -0.879   0.872  1.00  0.00     0.163 C 
HETATM   34  C13 UNL     1      -4.595  -2.327   1.192  1.00  0.00     0.075 C 
HETATM   35  C14 UNL     1      -5.714  -3.267   0.805  1.00  0.00     0.204 C 
HETATM   36  F2  UNL     1      -6.352  -3.833   1.888  1.00  0.00    -0.247 F 
HETATM   37  C15 UNL     1      -6.694  -2.717  -0.150  1.00  0.00     0.183 C 
HETATM   38  C16 UNL     1      -5.982  -1.882  -1.150  1.00  0.00     0.180 C 
HETATM   39  C17 UNL     1      -5.294  -0.680  -0.522  1.00  0.00     0.179 C 
BRANCH  37  40
HETATM   40  O2  UNL     1      -7.801  -2.109   0.447  1.00  0.00    -0.390 OA
ATOM     41  H2  UNL     1      -8.432  -1.755  -0.168  1.00  0.00     0.210 HD
ENDBRANCH  37  40
BRANCH  38  42
HETATM   42  O3  UNL     1      -4.992  -2.662  -1.771  1.00  0.00    -0.390 OA
ATOM     43  H3  UNL     1      -4.536  -2.128  -2.411  1.00  0.00     0.210 HD
ENDBRANCH  38  42
BRANCH  39  44
HETATM   44  O4  UNL     1      -6.238   0.343  -0.559  1.00  0.00    -0.390 OA
ATOM     45  H4  UNL     1      -6.532   0.471  -1.453  1.00  0.00     0.210 HD
ENDBRANCH  39  44
ENDBRANCH  32  33
ENDBRANCH   7  32
TORSDOF 13
