REMARK  11 active torsions:
REMARK  status: ('A' for Active; 'I' for Inactive)
REMARK    1  A    between atoms: O1_2  and  C2_3 
REMARK    2  A    between atoms: C5_6  and  O2_7 
REMARK    3  A    between atoms: O2_7  and  C6_8 
REMARK    4  A    between atoms: C9_13  and  O3_14 
REMARK    5  A    between atoms: C12_19  and  O5_21 
REMARK    6  A    between atoms: O5_21  and  C14_22 
REMARK    7  A    between atoms: C14_22  and  C15_23 
REMARK    8  A    between atoms: C15_23  and  C16_24 
REMARK    9  A    between atoms: C16_24  and  N1_25 
REMARK   10  A    between atoms: N1_25  and  C17_28 
REMARK   11  A    between atoms: C21_35  and  O7_36 
ROOT
HETATM    1  C6  UNL     1       2.045  -2.451  -0.559  1.00  0.00     0.129 A 
HETATM    2  C7  UNL     1       2.563  -3.693  -0.352  1.00  0.00     0.068 A 
HETATM    3 BR1  UNL     1       3.582  -4.541  -1.744  1.00  0.00    -0.046 Br
HETATM    4  C8  UNL     1       2.293  -4.346   0.826  1.00  0.00     0.065 A 
HETATM    5 BR2  UNL     1       3.036  -6.081   1.087  1.00  0.00    -0.046 Br
HETATM    6  C9  UNL     1       1.480  -3.738   1.822  1.00  0.00     0.103 A 
HETATM    7  C10 UNL     1       0.974  -2.492   1.580  1.00  0.00     0.102 A 
HETATM    8  C11 UNL     1       1.236  -1.830   0.412  1.00  0.00     0.128 A 
HETATM    9  O4  UNL     1       0.701  -0.549   0.193  1.00  0.00    -0.292 OA
HETATM   10  C12 UNL     1      -0.475  -0.101   0.863  1.00  0.00     0.252 C 
HETATM   11  C13 UNL     1      -0.455   1.413   0.807  1.00  0.00     0.107 C 
HETATM   12  N2  UNL     1      -0.384  -0.501   2.269  1.00  0.00    -0.302 N 
ATOM     13  H2  UNL     1      -0.676   0.127   3.018  1.00  0.00     0.168 HD
HETATM   14  C20 UNL     1       0.138  -1.825   2.556  1.00  0.00     0.261 C 
HETATM   15  O6  UNL     1      -0.179  -2.300   3.649  1.00  0.00    -0.267 OA
ENDROOT
BRANCH   1  16
HETATM   16  O2  UNL     1       2.273  -1.736  -1.687  1.00  0.00    -0.304 OA
BRANCH  16  17
HETATM   17  C5  UNL     1       2.955  -0.535  -1.705  1.00  0.00     0.109 A 
HETATM   18  C4  UNL     1       2.298   0.598  -2.245  1.00  0.00     0.043 A 
HETATM   19  C3  UNL     1       2.885   1.833  -2.309  1.00  0.00     0.039 A 
HETATM   20  C2  UNL     1       4.167   2.026  -1.838  1.00  0.00     0.071 A 
HETATM   21  C23 UNL     1       4.817   0.938  -1.311  1.00  0.00     0.076 A 
HETATM   22  C21 UNL     1       4.214  -0.324  -1.248  1.00  0.00     0.104 A 
BRANCH  20  23
HETATM   23  O1  UNL     1       4.781   3.283  -1.896  1.00  0.00    -0.356 OA
HETATM   24  C1  UNL     1       6.104   3.399  -1.391  1.00  0.00     0.210 C 
ENDBRANCH  20  23
BRANCH  22  25
HETATM   25  O7  UNL     1       4.949  -1.376  -0.691  1.00  0.00    -0.353 OA
HETATM   26  C22 UNL     1       6.245  -1.225  -0.201  1.00  0.00     0.210 C 
ENDBRANCH  22  25
ENDBRANCH  16  17
ENDBRANCH   1  16
BRANCH   6  27
HETATM   27  O3  UNL     1       1.277  -4.472   2.948  1.00  0.00    -0.358 OA
ATOM     28  H3  UNL     1       0.734  -4.066   3.613  1.00  0.00     0.217 HD
ENDBRANCH   6  27
BRANCH  10  29
HETATM   29  O5  UNL     1      -1.618  -0.622   0.262  1.00  0.00    -0.338 OA
BRANCH  29  30
HETATM   30  C14 UNL     1      -2.777  -0.176   0.930  1.00  0.00     0.175 C 
BRANCH  30  31
HETATM   31  C15 UNL     1      -3.991  -0.747   0.268  1.00  0.00     0.054 C 
BRANCH  31  32
HETATM   32  C16 UNL     1      -5.295  -0.354   0.906  1.00  0.00     0.235 C 
BRANCH  32  33
HETATM   33  N1  UNL     1      -5.461   1.066   0.879  1.00  0.00    -0.072 N 
ATOM     34  H12 UNL     1      -6.222   1.373   1.485  1.00  0.00     0.277 HD
ATOM     35  H11 UNL     1      -4.694   1.549   1.346  1.00  0.00     0.277 HD
BRANCH  33  36
HETATM   36  C17 UNL     1      -5.636   1.515  -0.472  1.00  0.00     0.177 C 
HETATM   37  C18 UNL     1      -6.902   0.913  -1.072  1.00  0.00     0.039 C 
HETATM   38  C19 UNL     1      -5.783   3.027  -0.446  1.00  0.00     0.039 C 
ENDBRANCH  33  36
ENDBRANCH  32  33
ENDBRANCH  31  32
ENDBRANCH  30  31
ENDBRANCH  29  30
ENDBRANCH  10  29
TORSDOF 11
