REMARK  13 active torsions:
REMARK  status: ('A' for Active; 'I' for Inactive)
REMARK    1  A    between atoms: C2_2  and  C3_3 
REMARK    2  A    between atoms: C4_4  and  O1_5 
REMARK    3  A    between atoms: C8_10  and  O3_11 
REMARK    4  A    between atoms: O3_11  and  C9_12 
REMARK    5  A    between atoms: C9_12  and  C10_13 
REMARK    6  A    between atoms: C11_14  and  O4_15 
REMARK    7  A    between atoms: C11_14  and  S1_17 
REMARK    8  A    between atoms: S1_17  and  C12_18 
REMARK    9  A    between atoms: C12_18  and  C13_19 
REMARK   10  A    between atoms: C14_21  and  C15_22 
REMARK   11  A    between atoms: C15_22  and  C16_23 
REMARK   12  A    between atoms: C27_36  and  O6_37 
REMARK   13  A    between atoms: C28_39  and  O7_41 
ROOT
HETATM    1  C10 UNL     1      -0.837   1.011  -1.659  1.00  0.00     0.043 C 
HETATM    2  C11 UNL     1       0.295   0.849  -0.962  1.00  0.00     0.101 C 
ENDROOT
BRANCH   2   3
HETATM    3  O4  UNL     1       1.052   1.994  -0.798  1.00  0.00    -0.354 OA
ATOM      4  H4  UNL     1       1.855   1.879  -0.304  1.00  0.00     0.218 HD
ENDBRANCH   2   3
BRANCH   2   5
HETATM    5  S1  UNL     1       0.799  -0.679  -0.304  1.00  0.00    -0.103 SA
BRANCH   5   6
HETATM    6  C12 UNL     1       2.418  -0.836   0.396  1.00  0.00     0.118 C 
BRANCH   6   7
HETATM    7  C13 UNL     1       3.577  -0.853  -0.562  1.00  0.00     0.161 C 
HETATM    8  O5  UNL     1       3.674   0.305  -1.247  1.00  0.00    -0.375 OA
HETATM    9  C14 UNL     1       4.498   1.284  -0.795  1.00  0.00     0.129 C 
HETATM   10  C18 UNL     1       5.915   0.831  -0.676  1.00  0.00     0.066 C 
HETATM   11  C19 UNL     1       5.932  -0.510  -0.030  1.00  0.00    -0.072 C 
HETATM   12  C20 UNL     1       4.861  -1.287   0.024  1.00  0.00    -0.040 C 
HETATM   13  C26 UNL     1       7.259  -0.878   0.553  1.00  0.00     0.034 C 
HETATM   14  C21 UNL     1       5.050  -2.613   0.685  1.00  0.00    -0.021 C 
HETATM   15  C22 UNL     1       5.115  -2.380   2.173  1.00  0.00     0.019 C 
HETATM   16  C23 UNL     1       4.012  -3.628   0.393  1.00  0.00     0.019 C 
HETATM   17  C24 UNL     1       6.373  -3.173   0.139  1.00  0.00     0.013 C 
HETATM   18  C25 UNL     1       7.453  -2.342   0.762  1.00  0.00     0.005 C 
BRANCH   9  19
HETATM   19  C15 UNL     1       4.504   2.467  -1.749  1.00  0.00     0.062 C 
BRANCH  19  20
HETATM   20  C16 UNL     1       5.423   3.494  -1.189  1.00  0.00     0.012 C 
HETATM   21  C17 UNL     1       5.019   4.704  -0.849  1.00  0.00     0.099 C 
HETATM   22 CL1  UNL     1       6.138   5.867  -0.198  1.00  0.00    -0.071 Cl
HETATM   23 CL2  UNL     1       3.331   5.152  -1.052  1.00  0.00    -0.071 Cl
ENDBRANCH  19  20
ENDBRANCH   9  19
ENDBRANCH   6   7
ENDBRANCH   5   6
ENDBRANCH   2   5
BRANCH   1  24
HETATM   24  C9  UNL     1      -1.791  -0.074  -1.951  1.00  0.00     0.202 C 
BRANCH  24  25
HETATM   25  O3  UNL     1      -3.069   0.131  -1.459  1.00  0.00    -0.355 OA
BRANCH  25  26
HETATM   26  C8  UNL     1      -3.174   0.279  -0.104  1.00  0.00     0.292 C 
HETATM   27  O2  UNL     1      -3.936  -0.719   0.500  1.00  0.00    -0.351 OA
HETATM   28  C6  UNL     1      -5.013  -1.109  -0.234  1.00  0.00     0.150 C 
HETATM   29  C4  UNL     1      -6.064  -0.091  -0.476  1.00  0.00     0.160 C 
HETATM   30  C7  UNL     1      -5.561  -2.408   0.366  1.00  0.00     0.042 C 
HETATM   31  C3  UNL     1      -6.213   1.000   0.533  1.00  0.00     0.076 C 
HETATM   32  C28 UNL     1      -4.978   1.472   1.201  1.00  0.00     0.094 C 
HETATM   33  C27 UNL     1      -3.795   1.598   0.265  1.00  0.00     0.208 C 
HETATM   34  C29 UNL     1      -4.633   0.754   2.483  1.00  0.00     0.049 C 
BRANCH  29  35
HETATM   35  O1  UNL     1      -7.288  -0.761  -0.524  1.00  0.00    -0.387 OA
HETATM   36  C5  UNL     1      -7.887  -0.643  -1.754  1.00  0.00     0.202 C 
ENDBRANCH  29  35
BRANCH  31  37
HETATM   37  C2  UNL     1      -7.242   0.696   1.564  1.00  0.00    -0.027 C 
HETATM   38  C1  UNL     1      -8.400   1.346   1.560  1.00  0.00     0.007 C 
ENDBRANCH  31  37
BRANCH  32  39
HETATM   39  O7  UNL     1      -5.228   2.814   1.605  1.00  0.00    -0.387 OA
ATOM     40  H7  UNL     1      -4.436   3.117   2.033  1.00  0.00     0.210 HD
ENDBRANCH  32  39
BRANCH  33  41
HETATM   41  O6  UNL     1      -4.186   2.270  -0.863  1.00  0.00    -0.388 OA
ATOM     42  H6  UNL     1      -4.578   3.103  -0.630  1.00  0.00     0.210 HD
ENDBRANCH  33  41
ENDBRANCH  25  26
ENDBRANCH  24  25
ENDBRANCH   1  24
TORSDOF 13
