REMARK  12 active torsions:
REMARK  status: ('A' for Active; 'I' for Inactive)
REMARK    1  A    between atoms: C2_2  and  C4_4 
REMARK    2  A    between atoms: C4_4  and  N1_5 
REMARK    3  A    between atoms: N1_5  and  C5_8 
REMARK    4  A    between atoms: C5_8  and  C6_9 
REMARK    5  A    between atoms: C8_11  and  O1_12 
REMARK    6  A    between atoms: C9_14  and  C10_15 
REMARK    7  A    between atoms: C11_16  and  C12_17 
REMARK    8  A    between atoms: C16_23  and  N3_24 
REMARK    9  A    between atoms: N4_33  and  C24_34 
REMARK   10  A    between atoms: C24_34  and  C25_35 
REMARK   11  A    between atoms: C25_35  and  N5_36 
REMARK   12  A    between atoms: C30_42  and  N7_44 
ROOT
HETATM    1  C12 UNL     1       0.269   2.710   0.334  1.00  0.00     0.108 A 
HETATM    2  N2  UNL     1      -0.004   4.025   0.191  1.00  0.00    -0.340 N 
ATOM      3  H2  UNL     1       0.688   4.756   0.027  1.00  0.00     0.167 HD
HETATM    4  C13 UNL     1      -1.323   4.220   0.298  1.00  0.00     0.064 A 
HETATM    5  C14 UNL     1      -2.120   5.350   0.232  1.00  0.00     0.034 A 
HETATM    6  C15 UNL     1      -3.480   5.209   0.385  1.00  0.00     0.035 A 
HETATM    7  C16 UNL     1      -4.055   3.967   0.602  1.00  0.00     0.071 A 
HETATM    8  C22 UNL     1      -3.221   2.850   0.663  1.00  0.00     0.172 A 
HETATM    9  F1  UNL     1      -3.743   1.632   0.874  1.00  0.00    -0.201 F 
HETATM   10  C23 UNL     1      -1.869   2.981   0.512  1.00  0.00     0.104 A 
HETATM   11  N4  UNL     1      -0.888   2.056   0.533  1.00  0.00    -0.327 N 
ENDROOT
BRANCH   1  12
HETATM   12  C11 UNL     1       1.610   2.155   0.270  1.00  0.00     0.050 C 
HETATM   13  C10 UNL     1       2.644   2.921   0.049  1.00  0.00     0.025 C 
BRANCH  13  14
HETATM   14  C9  UNL     1       3.985   2.318  -0.007  1.00  0.00     0.038 A 
HETATM   15  C8  UNL     1       5.182   2.932  -0.253  1.00  0.00     0.083 A 
HETATM   16  C7  UNL     1       6.280   2.171  -0.244  1.00  0.00     0.054 A 
HETATM   17  C6  UNL     1       6.115   0.833   0.015  1.00  0.00     0.011 A 
HETATM   18  S1  UNL     1       4.429   0.691   0.234  1.00  0.00    -0.090 SA
BRANCH  15  19
HETATM   19  O1  UNL     1       5.221   4.327  -0.506  1.00  0.00    -0.359 OA
ATOM     20  H1  UNL     1       4.440   4.868  -0.512  1.00  0.00     0.217 HD
ENDBRANCH  15  19
BRANCH  17  21
HETATM   21  C5  UNL     1       7.192  -0.224   0.081  1.00  0.00     0.278 C 
BRANCH  21  22
HETATM   22  N1  UNL     1       7.104  -1.002  -1.120  1.00  0.00    -0.070 N 
ATOM     23  H12 UNL     1       7.145  -0.405  -1.946  1.00  0.00     0.277 HD
ATOM     24  H11 UNL     1       6.166  -1.385  -1.239  1.00  0.00     0.277 HD
BRANCH  22  25
HETATM   25  C4  UNL     1       8.093  -2.036  -1.185  1.00  0.00     0.236 C 
BRANCH  25  26
HETATM   26  C2  UNL     1       7.794  -3.068  -0.124  1.00  0.00     0.003 C 
HETATM   27  C1  UNL     1       6.414  -3.635  -0.387  1.00  0.00     0.011 C 
HETATM   28  C3  UNL     1       8.835  -4.175  -0.266  1.00  0.00     0.011 C 
ENDBRANCH  25  26
ENDBRANCH  22  25
ENDBRANCH  21  22
ENDBRANCH  17  21
ENDBRANCH  13  14
ENDBRANCH   1  12
BRANCH  11  29
HETATM   29  C24 UNL     1      -1.075   0.643   0.726  1.00  0.00     0.151 C 
BRANCH  29  30
HETATM   30  C25 UNL     1      -1.292   0.016  -0.620  1.00  0.00     0.147 C 
BRANCH  30  31
HETATM   31  N5  UNL     1      -1.527  -1.393  -0.622  1.00  0.00    -0.368 N 
HETATM   32  C26 UNL     1      -1.710  -1.910  -1.894  1.00  0.00     0.093 C 
HETATM   33  C27 UNL     1      -1.197  -3.308  -2.125  1.00  0.00     0.316 C 
HETATM   34  N6  UNL     1      -2.101  -4.233  -1.532  1.00  0.00     0.091 N 
HETATM   35  C28 UNL     1      -3.265  -4.525  -2.334  1.00  0.00     0.310 C 
HETATM   36  C29 UNL     1      -2.518  -3.939  -0.198  1.00  0.00     0.316 C 
HETATM   37  C30 UNL     1      -1.369  -3.492   0.671  1.00  0.00     0.178 C 
HETATM   38  C31 UNL     1      -1.852  -3.619   2.106  1.00  0.00     0.054 C 
HETATM   39  C32 UNL     1      -0.912  -2.098   0.395  1.00  0.00     0.103 C 
BRANCH  37  40
HETATM   40  N7  UNL     1      -0.290  -4.449   0.517  1.00  0.00    -0.064 N 
ATOM     41  H73 UNL     1      -0.582  -5.407   0.711  1.00  0.00     0.275 HD
ATOM     42  H72 UNL     1      -0.019  -4.584  -0.457  1.00  0.00     0.275 HD
ATOM     43  H71 UNL     1       0.487  -4.147   1.105  1.00  0.00     0.275 HD
ENDBRANCH  37  40
ENDBRANCH  30  31
ENDBRANCH  29  30
ENDBRANCH  11  29
BRANCH   7  44
HETATM   44  N3  UNL     1      -5.437   3.794   0.760  1.00  0.00    -0.378 N 
HETATM   45  C17 UNL     1      -6.180   2.983  -0.175  1.00  0.00     0.123 C 
HETATM   46  C18 UNL     1      -7.639   3.423  -0.139  1.00  0.00     0.020 C 
HETATM   47  C19 UNL     1      -8.178   3.146   1.234  1.00  0.00     0.003 C 
HETATM   48  C20 UNL     1      -7.198   3.420   2.346  1.00  0.00     0.020 C 
HETATM   49  C21 UNL     1      -6.140   4.416   1.858  1.00  0.00     0.123 C 
ENDBRANCH   7  44
TORSDOF 12
