REMARK  11 active torsions:
REMARK  status: ('A' for Active; 'I' for Inactive)
REMARK    1  A    between atoms: C2_2  and  C3_3 
REMARK    2  A    between atoms: C5_5  and  O1_6 
REMARK    3  A    between atoms: O1_6  and  C6_7 
REMARK    4  A    between atoms: C6_7  and  C7_8 
REMARK    5  A    between atoms: C7_8  and  C8_9 
REMARK    6  A    between atoms: C8_9  and  N1_10 
REMARK    7  A    between atoms: C14_17  and  C15_18 
REMARK    8  A    between atoms: C18_23  and  C19_24 
REMARK    9  A    between atoms: C22_27  and  C23_28 
REMARK   10  A    between atoms: C27_34  and  C28_35 
REMARK   11  A    between atoms: C28_35  and  O2_36 
ROOT
HETATM    1  C3  UNL     1       2.270  -2.620   0.347  1.00  0.00    -0.007 A 
HETATM    2  C4  UNL     1       3.213  -1.794  -0.247  1.00  0.00     0.051 A 
HETATM    3  C5  UNL     1       2.858  -0.789  -1.135  1.00  0.00     0.109 A 
HETATM    4  C13 UNL     1       1.533  -0.577  -1.458  1.00  0.00     0.166 A 
HETATM    5  F1  UNL     1       1.177   0.409  -2.328  1.00  0.00    -0.202 F 
HETATM    6  C14 UNL     1       0.565  -1.379  -0.887  1.00  0.00     0.088 A 
HETATM    7  C29 UNL     1       0.965  -2.370  -0.007  1.00  0.00     0.140 A 
HETATM    8  F2  UNL     1      -0.029  -3.127   0.500  1.00  0.00    -0.204 F 
ENDROOT
BRANCH   6   9
HETATM    9  C15 UNL     1      -0.839  -1.170  -1.222  1.00  0.00     0.122 A 
HETATM   10  N2  UNL     1      -1.330  -1.853  -2.290  1.00  0.00    -0.351 N 
HETATM   11  C16 UNL     1      -2.601  -1.755  -2.706  1.00  0.00     0.092 A 
ATOM     12  H2  UNL     1      -0.700  -2.471  -2.801  1.00  0.00     0.166 HD
HETATM   13  C17 UNL     1      -3.433  -0.909  -1.996  1.00  0.00     0.049 A 
HETATM   14  C18 UNL     1      -2.969  -0.198  -0.906  1.00  0.00     0.069 A 
HETATM   15  N4  UNL     1      -1.673  -0.365  -0.565  1.00  0.00    -0.339 N 
ATOM     16  H4  UNL     1      -1.314   0.152   0.237  1.00  0.00     0.167 HD
BRANCH  14  17
HETATM   17  C19 UNL     1      -3.851   0.696  -0.154  1.00  0.00     0.102 A 
HETATM   18  C20 UNL     1      -3.490   1.448   0.945  1.00  0.00     0.042 A 
HETATM   19  C21 UNL     1      -4.655   2.131   1.310  1.00  0.00     0.036 A 
HETATM   20  C22 UNL     1      -5.648   1.763   0.429  1.00  0.00     0.058 A 
HETATM   21  O3  UNL     1      -5.106   0.899  -0.428  1.00  0.00    -0.312 OA
BRANCH  20  22
HETATM   22  C23 UNL     1      -7.058   2.242   0.435  1.00  0.00     0.052 C 
HETATM   23  C24 UNL     1      -7.232   3.035  -0.838  1.00  0.00     0.031 C 
HETATM   24  C25 UNL     1      -7.571   2.109  -1.991  1.00  0.00     0.114 C 
HETATM   25  N3  UNL     1      -8.859   1.564  -1.709  1.00  0.00    -0.421 N 
HETATM   26  C26 UNL     1      -9.010   0.897  -0.467  1.00  0.00     0.121 C 
ATOM     27  H3  UNL     1      -9.633   1.650  -2.368  1.00  0.00     0.153 HD
HETATM   28  C27 UNL     1      -8.017   1.118   0.588  1.00  0.00     0.037 C 
BRANCH  28  29
HETATM   29  C28 UNL     1      -8.762   1.317   1.916  1.00  0.00     0.171 C 
BRANCH  29  30
HETATM   30  O2  UNL     1      -9.684   0.302   2.139  1.00  0.00    -0.400 OA
ATOM     31  H2  UNL     1     -10.145   0.425   2.961  1.00  0.00     0.209 HD
ENDBRANCH  29  30
ENDBRANCH  28  29
ENDBRANCH  20  22
ENDBRANCH  14  17
ENDBRANCH   6   9
BRANCH   3  32
HETATM   32  O1  UNL     1       3.808   0.030  -1.722  1.00  0.00    -0.348 OA
BRANCH  32  33
HETATM   33  C6  UNL     1       5.173  -0.170  -1.406  1.00  0.00     0.177 C 
BRANCH  33  34
HETATM   34  C7  UNL     1       6.045   0.826  -2.151  1.00  0.00     0.057 C 
BRANCH  34  35
HETATM   35  C8  UNL     1       5.705   2.243  -1.798  1.00  0.00     0.274 C 
BRANCH  35  36
HETATM   36  N1  UNL     1       5.865   2.552  -0.410  1.00  0.00     0.088 N 
HETATM   37  C9  UNL     1       7.249   2.548   0.022  1.00  0.00     0.272 C 
HETATM   38  C10 UNL     1       7.759   3.953  -0.199  1.00  0.00     0.032 C 
HETATM   39  C11 UNL     1       6.568   4.738  -0.639  1.00  0.00     0.032 C 
HETATM   40  C12 UNL     1       5.401   3.907  -0.184  1.00  0.00     0.272 C 
ENDBRANCH  35  36
ENDBRANCH  34  35
ENDBRANCH  33  34
ENDBRANCH  32  33
ENDBRANCH   3  32
BRANCH   1  41
HETATM   41  C2  UNL     1       2.672  -3.678   1.324  1.00  0.00    -0.012 C 
HETATM   42  C1  UNL     1       2.197  -5.037   0.860  1.00  0.00     0.020 C 
HETATM   43  C30 UNL     1       4.200  -3.682   1.352  1.00  0.00     0.024 C 
HETATM   44  C31 UNL     1       4.791  -4.814   2.118  1.00  0.00     0.075 C 
HETATM   45  S1  UNL     1       3.840  -5.352   3.547  1.00  0.00    -0.169 SA
HETATM   46  C32 UNL     1       2.218  -4.590   3.591  1.00  0.00     0.075 C 
HETATM   47  C33 UNL     1       2.136  -3.382   2.685  1.00  0.00     0.024 C 
ENDBRANCH   1  41
TORSDOF 11
