REMARK  14 active torsions:
REMARK  status: ('A' for Active; 'I' for Inactive)
REMARK    1  A    between atoms: C2_2  and  C4_4 
REMARK    2  A    between atoms: C4_4  and  O1_5 
REMARK    3  A    between atoms: C4_4  and  C5_7 
REMARK    4  A    between atoms: C5_7  and  C6_8 
REMARK    5  A    between atoms: C6_8  and  O2_9 
REMARK    6  A    between atoms: C6_8  and  C30_43 
REMARK    7  A    between atoms: O2_9  and  N1_10 
REMARK    8  A    between atoms: C19_25  and  C20_26 
REMARK    9  A    between atoms: C19_25  and  C21_29 
REMARK   10  A    between atoms: C20_26  and  O4_27 
REMARK   11  A    between atoms: C21_29  and  O5_30 
REMARK   12  A    between atoms: O5_30  and  C22_31 
REMARK   13  A    between atoms: C27_37  and  O7_38 
REMARK   14  A    between atoms: C30_43  and  C32_45 
ROOT
HETATM    1  N1  UNL     1       3.424   1.654  -0.500  1.00  0.00    -0.271 N 
ATOM      2  H1  UNL     1       3.618   2.641  -0.333  1.00  0.00     0.194 HD
HETATM    3  C7  UNL     1       2.209   1.321  -0.742  1.00  0.00     0.032 C 
HETATM    4  C8  UNL     1       1.137   2.297  -0.779  1.00  0.00     0.024 C 
HETATM    5  C9  UNL     1      -0.046   1.908  -0.384  1.00  0.00    -0.011 C 
HETATM    6  C10 UNL     1      -0.332   0.526   0.096  1.00  0.00     0.021 C 
HETATM    7  C11 UNL     1       0.017   0.540   1.575  1.00  0.00     0.024 C 
HETATM    8  C12 UNL     1       0.521  -0.522  -0.549  1.00  0.00    -0.025 C 
HETATM    9  C13 UNL     1       0.723  -1.740   0.339  1.00  0.00     0.016 C 
HETATM   10  C14 UNL     1      -0.198  -1.044  -1.802  1.00  0.00     0.011 C 
HETATM   11  C15 UNL     1      -1.493  -1.707  -1.483  1.00  0.00     0.011 C 
HETATM   12  C16 UNL     1      -2.168  -1.154  -0.250  1.00  0.00     0.059 C 
HETATM   13  C17 UNL     1      -3.632  -1.294  -0.440  1.00  0.00     0.138 C 
HETATM   14  O3  UNL     1      -4.197  -0.607  -1.475  1.00  0.00    -0.384 OA
HETATM   15  C18 UNL     1      -5.551  -0.990  -1.318  1.00  0.00     0.182 C 
HETATM   16  C19 UNL     1      -5.776  -0.603   0.155  1.00  0.00     0.034 C 
HETATM   17  C24 UNL     1      -4.455  -0.784   0.752  1.00  0.00    -0.001 C 
HETATM   18  C25 UNL     1      -4.508  -2.009   1.678  1.00  0.00     0.019 C 
HETATM   19  C26 UNL     1      -3.818   0.340   1.452  1.00  0.00     0.048 C 
HETATM   20  C27 UNL     1      -2.685   1.051   0.819  1.00  0.00     0.160 C 
HETATM   21  C28 UNL     1      -1.821   0.305  -0.128  1.00  0.00     0.146 C 
HETATM   22  F1  UNL     1      -2.081   0.843  -1.401  1.00  0.00    -0.238 F 
HETATM   23  C29 UNL     1       1.883  -0.077  -0.990  1.00  0.00     0.069 C 
ENDROOT
BRANCH   1  24
HETATM   24  O2  UNL     1       4.468   0.795  -0.450  1.00  0.00    -0.274 OA
BRANCH  24  25
HETATM   25  C6  UNL     1       5.414   0.739   0.620  1.00  0.00     0.159 C 
BRANCH  25  26
HETATM   26  C5  UNL     1       6.756   1.134   0.162  1.00  0.00     0.071 C 
BRANCH  26  27
HETATM   27  C4  UNL     1       7.394   0.349  -0.927  1.00  0.00     0.148 C 
BRANCH  27  28
HETATM   28  C2  UNL     1       8.740   0.992  -1.188  1.00  0.00    -0.065 C 
HETATM   29  C1  UNL     1       9.854   0.295  -1.040  1.00  0.00     0.016 C 
HETATM   30  C3  UNL     1       8.800   2.415  -1.611  1.00  0.00     0.045 C 
ENDBRANCH  27  28
BRANCH  27  31
HETATM   31  O1  UNL     1       6.679   0.380  -2.128  1.00  0.00    -0.391 OA
ATOM     32  H1  UNL     1       5.835  -0.023  -1.964  1.00  0.00     0.210 HD
ENDBRANCH  27  31
ENDBRANCH  26  27
ENDBRANCH  25  26
BRANCH  25  33
HETATM   33  C30 UNL     1       5.202  -0.538   1.331  1.00  0.00     0.027 C 
HETATM   34  C31 UNL     1       5.561  -1.788   0.591  1.00  0.00     0.014 C 
BRANCH  33  35
HETATM   35  C32 UNL     1       5.658  -0.576   2.773  1.00  0.00     0.121 C 
HETATM   36 CL1  UNL     1       7.365  -0.295   3.020  1.00  0.00    -0.130 Cl
ENDBRANCH  33  35
ENDBRANCH  25  33
ENDBRANCH  24  25
ENDBRANCH   1  24
BRANCH  20  37
HETATM   37  O7  UNL     1      -3.140   2.280   0.269  1.00  0.00    -0.392 OA
ATOM     38  H7  UNL     1      -2.413   2.736  -0.137  1.00  0.00     0.210 HD
ENDBRANCH  20  37
BRANCH  16  39
HETATM   39  C20 UNL     1      -6.868  -1.538   0.636  1.00  0.00     0.178 C 
BRANCH  39  40
HETATM   40  O4  UNL     1      -7.222  -1.344   1.958  1.00  0.00    -0.400 OA
ATOM     41  H4  UNL     1      -7.906  -1.930   2.259  1.00  0.00     0.209 HD
ENDBRANCH  39  40
ENDBRANCH  16  39
BRANCH  16  42
HETATM   42  C21 UNL     1      -6.377   0.768   0.129  1.00  0.00     0.193 C 
BRANCH  42  43
HETATM   43  O5  UNL     1      -7.610   0.644  -0.609  1.00  0.00    -0.321 OA
BRANCH  43  44
HETATM   44  C22 UNL     1      -8.445   1.711  -0.841  1.00  0.00     0.254 C 
HETATM   45  C23 UNL     1      -9.724   1.592  -1.604  1.00  0.00     0.126 C 
HETATM   46  O6  UNL     1      -8.115   2.836  -0.387  1.00  0.00    -0.266 OA
ENDBRANCH  43  44
ENDBRANCH  42  43
ENDBRANCH  16  42
TORSDOF 14
