REMARK  9 active torsions:
REMARK  status: ('A' for Active; 'I' for Inactive)
REMARK    1  A    between atoms: C2_2  and  C3_3 
REMARK    2  A    between atoms: C4_4  and  C5_5 
REMARK    3  A    between atoms: C8_8  and  O1_9 
REMARK    4  A    between atoms: C16_18  and  N1_19 
REMARK    5  A    between atoms: N1_19  and  O2_20 
REMARK    6  A    between atoms: N1_19  and  C17_22 
REMARK    7  A    between atoms: C21_26  and  C22_27 
REMARK    8  A    between atoms: C22_27  and  C23_28 
REMARK    9  A    between atoms: C23_28  and  N2_30 
ROOT
HETATM    1  C1  UNL     1       2.558   1.702  -0.064  1.00  0.00     0.048 C 
HETATM    2  C2  UNL     1       2.072   0.261  -0.142  1.00  0.00    -0.059 C 
HETATM    3  C11 UNL     1       0.799  -0.049  -0.248  1.00  0.00    -0.059 C 
HETATM    4  C12 UNL     1      -0.105   1.135  -0.255  1.00  0.00     0.021 C 
HETATM    5  C13 UNL     1      -0.610   1.575  -1.575  1.00  0.00     0.041 C 
HETATM    6  C14 UNL     1      -1.749   0.649  -2.017  1.00  0.00     0.125 C 
HETATM    7  C15 UNL     1      -1.189  -0.733  -2.188  1.00  0.00     0.066 C 
HETATM    8  C16 UNL     1      -1.062  -1.583  -0.979  1.00  0.00     0.070 C 
HETATM    9  C20 UNL     1      -1.987  -1.219   0.164  1.00  0.00     0.072 C 
HETATM   10  C21 UNL     1      -2.439   0.236   0.130  1.00  0.00     0.066 C 
HETATM   11  C28 UNL     1      -1.290   1.024   0.701  1.00  0.00     0.047 C 
HETATM   12  O3  UNL     1      -2.764   0.654  -1.121  1.00  0.00    -0.375 OA
HETATM   13  C29 UNL     1       0.409  -1.461  -0.452  1.00  0.00     0.004 C 
HETATM   14  C30 UNL     1       0.556  -2.327   0.749  1.00  0.00     0.022 C 
HETATM   15  C31 UNL     1       1.270  -2.012  -1.600  1.00  0.00     0.022 C 
ENDROOT
BRANCH   2  16
HETATM   16  C3  UNL     1       3.157  -0.688   0.090  1.00  0.00     0.003 C 
HETATM   17  C4  UNL     1       4.432  -0.517   0.181  1.00  0.00    -0.022 C 
BRANCH  17  18
HETATM   18  C5  UNL     1       5.418   0.532   0.120  1.00  0.00     0.008 C 
HETATM   19  C6  UNL     1       6.582   0.110  -0.831  1.00  0.00     0.011 C 
HETATM   20  C7  UNL     1       7.894   0.592  -0.310  1.00  0.00     0.032 C 
HETATM   21  C8  UNL     1       7.858   1.909   0.399  1.00  0.00     0.118 C 
HETATM   22  C9  UNL     1       6.849   1.918   1.531  1.00  0.00     0.032 C 
HETATM   23  C10 UNL     1       6.147   0.594   1.491  1.00  0.00     0.011 C 
BRANCH  21  24
HETATM   24  O1  UNL     1       9.115   2.106   0.991  1.00  0.00    -0.396 OA
ATOM     25  H1  UNL     1       9.092   2.942   1.441  1.00  0.00     0.210 HD
ENDBRANCH  21  24
ENDBRANCH  17  18
ENDBRANCH   2  16
BRANCH   8  26
HETATM   26  N1  UNL     1      -1.253  -2.948  -1.330  1.00  0.00    -0.281 N 
BRANCH  26  27
HETATM   27  O2  UNL     1      -0.398  -3.874  -0.976  1.00  0.00    -0.291 OA
ATOM     28  H2  UNL     1      -0.526  -4.786  -1.210  1.00  0.00     0.244 HD
ENDBRANCH  26  27
BRANCH  26  29
HETATM   29  C17 UNL     1      -2.461  -3.493  -1.706  1.00  0.00     0.109 A 
HETATM   30  C18 UNL     1      -3.357  -3.252  -2.896  1.00  0.00     0.029 A 
HETATM   31  C19 UNL     1      -2.449  -4.437  -2.908  1.00  0.00     0.029 A 
ENDBRANCH  26  29
ENDBRANCH   8  26
BRANCH  10  32
HETATM   32  C22 UNL     1      -3.606   0.335   1.062  1.00  0.00     0.071 C 
BRANCH  32  33
HETATM   33  C23 UNL     1      -4.226   1.672   1.204  1.00  0.00     0.188 C 
HETATM   34  C24 UNL     1      -4.781   2.285  -0.043  1.00  0.00     0.040 C 
BRANCH  33  35
HETATM   35  N2  UNL     1      -5.366   1.503   2.121  1.00  0.00    -0.075 N 
HETATM   36  C25 UNL     1      -5.872   2.793   2.494  1.00  0.00     0.272 C 
HETATM   37  C26 UNL     1      -4.983   0.775   3.316  1.00  0.00     0.272 C 
HETATM   38  C27 UNL     1      -6.422   0.720   1.497  1.00  0.00     0.272 C 
ENDBRANCH  33  35
ENDBRANCH  32  33
ENDBRANCH  10  32
TORSDOF 9
