REMARK  10 active torsions:
REMARK  status: ('A' for Active; 'I' for Inactive)
REMARK    1  A    between atoms: C2_2  and  C4_4 
REMARK    2  A    between atoms: C10_10  and  C11_11 
REMARK    3  A    between atoms: C14_17  and  C15_18 
REMARK    4  A    between atoms: C15_18  and  O2_19 
REMARK    5  A    between atoms: C15_18  and  N2_21 
REMARK    6  A    between atoms: N2_21  and  C16_22 
REMARK    7  A    between atoms: N2_21  and  C19_25 
REMARK       I    between atoms: N3_29  and  C23_30 
REMARK       I    between atoms: C23_30  and  N4_32 
REMARK    8  A    between atoms: N4_32  and  C24_34 
REMARK    9  A    between atoms: C24_34  and  C25_35 
REMARK   10  A    between atoms: C25_35  and  C26_36 
ROOT
HETATM    1  C11 UNL     1      -0.300   1.340  -0.149  1.00  0.00     0.123 C 
HETATM    2  C12 UNL     1       0.658   1.874  -1.167  1.00  0.00     0.050 C 
HETATM    3  C13 UNL     1       0.506   1.031   1.099  1.00  0.00     0.251 C 
HETATM    4  O1  UNL     1       0.244   1.296   2.261  1.00  0.00    -0.270 OA
HETATM    5  N1  UNL     1       1.742   0.324   0.827  1.00  0.00    -0.320 N 
ATOM      6  H1  UNL     1       2.564   0.530   1.395  1.00  0.00     0.169 HD
HETATM    7  C14 UNL     1       1.844  -0.647  -0.206  1.00  0.00     0.102 C 
HETATM    8  C22 UNL     1       0.642  -0.783  -0.852  1.00  0.00     0.131 C 
HETATM    9  N3  UNL     1      -0.542  -0.041  -0.514  1.00  0.00    -0.289 N 
HETATM   10  C23 UNL     1      -1.723  -0.776  -0.571  1.00  0.00     0.323 C 
HETATM   11  O3  UNL     1      -2.853  -0.305  -0.292  1.00  0.00    -0.247 OA
HETATM   12  N4  UNL     1      -1.736  -2.147  -0.959  1.00  0.00    -0.343 N 
ATOM     13  H4  UNL     1      -0.847  -2.585  -1.201  1.00  0.00     0.164 HD
ENDROOT
BRANCH   1  14
HETATM   14  C10 UNL     1      -1.390   2.227   0.287  1.00  0.00     0.032 C 
HETATM   15  C4  UNL     1      -2.327   2.829  -0.664  1.00  0.00     0.020 C 
HETATM   16  C5  UNL     1      -1.925   4.106  -1.344  1.00  0.00     0.009 C 
HETATM   17  C6  UNL     1      -1.454   5.263  -0.603  1.00  0.00     0.001 C 
HETATM   18  C7  UNL     1      -0.093   5.264  -0.008  1.00  0.00     0.000 C 
HETATM   19  C8  UNL     1       0.166   4.141   0.981  1.00  0.00     0.001 C 
HETATM   20  C9  UNL     1      -1.029   3.327   1.257  1.00  0.00     0.008 C 
BRANCH  15  21
HETATM   21  C2  UNL     1      -3.692   3.052  -0.111  1.00  0.00    -0.088 C 
HETATM   22  C1  UNL     1      -4.062   2.760   1.108  1.00  0.00     0.014 C 
HETATM   23  C3  UNL     1      -4.790   3.644  -0.946  1.00  0.00     0.043 C 
ENDBRANCH  15  21
ENDBRANCH   1  14
BRANCH   7  24
HETATM   24  C15 UNL     1       2.963  -1.439  -0.574  1.00  0.00     0.167 C 
BRANCH  24  25
HETATM   25  O2  UNL     1       2.693  -2.197  -1.637  1.00  0.00    -0.344 OA
ATOM     26  H2  UNL     1       3.442  -2.727  -1.883  1.00  0.00     0.219 HD
ENDBRANCH  24  25
BRANCH  24  27
HETATM   27  N2  UNL     1       4.273  -1.633  -0.117  1.00  0.00    -0.352 N 
BRANCH  27  28
HETATM   28  C16 UNL     1       4.805  -1.059   1.069  1.00  0.00     0.078 C 
HETATM   29  C17 UNL     1       5.420  -2.035   2.063  1.00  0.00     0.032 C 
HETATM   30  C18 UNL     1       5.885   0.019   0.767  1.00  0.00     0.032 C 
ENDBRANCH  27  28
BRANCH  27  31
HETATM   31  C19 UNL     1       5.110  -2.471  -0.993  1.00  0.00     0.078 C 
HETATM   32  C20 UNL     1       6.389  -1.901  -1.428  1.00  0.00     0.032 C 
HETATM   33  C21 UNL     1       5.348  -3.825  -0.333  1.00  0.00     0.032 C 
ENDBRANCH  27  31
ENDBRANCH  24  27
ENDBRANCH   7  24
BRANCH  12  34
HETATM   34  C24 UNL     1      -2.934  -2.955  -1.030  1.00  0.00     0.125 C 
BRANCH  34  35
HETATM   35  C25 UNL     1      -3.547  -3.070   0.326  1.00  0.00     0.023 C 
BRANCH  35  36
HETATM   36  C26 UNL     1      -4.808  -3.923   0.290  1.00  0.00    -0.021 C 
HETATM   37  C27 UNL     1      -4.522  -5.320  -0.193  1.00  0.00     0.009 C 
HETATM   38  C28 UNL     1      -5.337  -4.004   1.701  1.00  0.00     0.009 C 
ENDBRANCH  35  36
ENDBRANCH  34  35
ENDBRANCH  12  34
TORSDOF 10
