REMARK  11 active torsions:
REMARK  status: ('A' for Active; 'I' for Inactive)
REMARK    1  A    between atoms: C2_2  and  C3_3 
REMARK    2  A    between atoms: C3_3  and  C4_4 
REMARK    3  A    between atoms: C4_4  and  N1_5 
REMARK    4  A    between atoms: N1_5  and  C5_8 
REMARK    5  A    between atoms: C5_8  and  C6_9 
REMARK    6  A    between atoms: C6_9  and  C7_10 
REMARK    7  A    between atoms: C7_10  and  C8_11 
REMARK    8  A    between atoms: C8_11  and  N2_12 
REMARK    9  A    between atoms: C15_19  and  C16_20 
REMARK   10  A    between atoms: C17_21  and  C18_22 
REMARK   11  A    between atoms: C26_31  and  O1_32 
ROOT
HETATM    1  N2  UNL     1       1.761  -1.470   1.596  1.00  0.00     0.093 N 
HETATM    2  C9  UNL     1       1.996  -2.849   1.067  1.00  0.00     0.273 C 
HETATM    3  C10 UNL     1       0.924  -3.087   0.027  1.00  0.00     0.037 C 
HETATM    4  C11 UNL     1       0.468  -1.691  -0.241  1.00  0.00     0.026 C 
HETATM    5  C12 UNL     1       0.428  -1.187   1.194  1.00  0.00     0.227 C 
HETATM    6  C13 UNL     1      -0.146   0.137   1.400  1.00  0.00     0.038 C 
HETATM    7  C14 UNL     1      -1.643  -0.034   1.656  1.00  0.00     0.025 C 
HETATM    8  C15 UNL     1      -2.401  -0.425   0.398  1.00  0.00     0.034 C 
HETATM    9  C24 UNL     1      -3.077  -1.737   0.568  1.00  0.00     0.032 C 
HETATM   10  C25 UNL     1      -4.607  -1.553   0.677  1.00  0.00     0.014 C 
HETATM   11  C26 UNL     1      -2.749  -2.791  -0.417  1.00  0.00     0.132 C 
HETATM   12  C27 UNL     1      -1.667  -2.544  -1.385  1.00  0.00    -0.013 C 
HETATM   13  C28 UNL     1      -1.118  -3.799  -1.979  1.00  0.00     0.018 C 
HETATM   14  C29 UNL     1      -2.356  -1.822  -2.581  1.00  0.00     0.012 C 
HETATM   15  C30 UNL     1      -2.480  -0.404  -2.069  1.00  0.00     0.007 C 
HETATM   16  C31 UNL     1      -1.569  -0.310  -0.834  1.00  0.00     0.012 C 
HETATM   17  C32 UNL     1      -0.661  -1.476  -1.095  1.00  0.00     0.008 C 
ENDROOT
BRANCH   1  18
HETATM   18  C8  UNL     1       2.850  -0.655   1.288  1.00  0.00     0.273 C 
BRANCH  18  19
HETATM   19  C7  UNL     1       2.913   0.742   1.792  1.00  0.00     0.032 C 
BRANCH  19  20
HETATM   20  C6  UNL     1       4.218   1.457   1.376  1.00  0.00     0.029 C 
BRANCH  20  21
HETATM   21  C5  UNL     1       5.441   0.788   1.906  1.00  0.00     0.232 C 
BRANCH  21  22
HETATM   22  N1  UNL     1       6.626   1.503   1.513  1.00  0.00    -0.075 N 
ATOM     23  H12 UNL     1       7.436   1.194   2.050  1.00  0.00     0.277 HD
ATOM     24  H11 UNL     1       6.587   2.475   1.820  1.00  0.00     0.277 HD
BRANCH  22  25
HETATM   25  C4  UNL     1       6.875   1.416   0.112  1.00  0.00     0.232 C 
BRANCH  25  26
HETATM   26  C3  UNL     1       7.265   0.015  -0.262  1.00  0.00     0.027 C 
BRANCH  26  27
HETATM   27  C2  UNL     1       7.559  -0.093  -1.756  1.00  0.00    -0.003 C 
HETATM   28  C1  UNL     1       8.693   0.821  -2.154  1.00  0.00     0.005 C 
ENDBRANCH  26  27
ENDBRANCH  25  26
ENDBRANCH  22  25
ENDBRANCH  21  22
ENDBRANCH  20  21
ENDBRANCH  19  20
ENDBRANCH  18  19
ENDBRANCH   1  18
BRANCH   8  29
HETATM   29  C16 UNL     1      -3.450   0.621   0.277  1.00  0.00    -0.090 C 
HETATM   30  C17 UNL     1      -4.305   1.495   0.200  1.00  0.00    -0.066 C 
BRANCH  30  31
HETATM   31  C18 UNL     1      -5.286   2.526   0.136  1.00  0.00     0.020 A 
HETATM   32  C19 UNL     1      -5.033   3.766  -0.433  1.00  0.00     0.038 A 
HETATM   33  C20 UNL     1      -5.991   4.752  -0.479  1.00  0.00     0.091 A 
HETATM   34  N3  UNL     1      -7.216   4.530   0.038  1.00  0.00    -0.371 N 
HETATM   35  C21 UNL     1      -8.254   5.557   0.005  1.00  0.00     0.154 C 
HETATM   36  C22 UNL     1      -7.464   3.329   0.589  1.00  0.00     0.091 A 
HETATM   37  C23 UNL     1      -6.535   2.323   0.653  1.00  0.00     0.038 A 
ENDBRANCH  30  31
ENDBRANCH   8  29
BRANCH  11  38
HETATM   38  O1  UNL     1      -2.644  -4.027   0.272  1.00  0.00    -0.394 OA
ATOM     39  H1  UNL     1      -2.433  -4.704  -0.361  1.00  0.00     0.210 HD
ENDBRANCH  11  38
TORSDOF 11
