REMARK  9 active torsions:
REMARK  status: ('A' for Active; 'I' for Inactive)
REMARK    1  A    between atoms: C6_6  and  S1_7 
REMARK    2  A    between atoms: S1_7  and  N1_10 
REMARK    3  A    between atoms: C9_13  and  C11_15 
REMARK       I    between atoms: C11_15  and  N2_17 
REMARK    4  A    between atoms: N2_17  and  C12_19 
REMARK    5  A    between atoms: C12_19  and  C13_20 
REMARK    6  A    between atoms: C12_19  and  C20_27 
REMARK    7  A    between atoms: C13_20  and  C14_21 
REMARK    8  A    between atoms: C20_27  and  N3_29 
REMARK    9  A    between atoms: N3_29  and  C22_31 
ROOT
HETATM    1  C11 UNL     1      -0.672  -0.580  -1.724  1.00  0.00     0.245 C 
HETATM    2  O3  UNL     1      -1.447  -0.726  -2.707  1.00  0.00    -0.271 OA
HETATM    3  N2  UNL     1      -1.144   0.161  -0.600  1.00  0.00    -0.331 N 
ATOM      4  H2  UNL     1      -0.519   0.283   0.197  1.00  0.00     0.168 HD
ENDROOT
BRANCH   1   5
HETATM    5  C9  UNL     1       0.641  -1.186  -1.824  1.00  0.00     0.106 C 
HETATM    6  N1  UNL     1       1.639  -1.036  -0.857  1.00  0.00    -0.188 NA
HETATM    7  C7  UNL     1       2.095  -2.361  -1.097  1.00  0.00     0.111 C 
HETATM    8  C8  UNL     1       0.671  -2.690  -1.553  1.00  0.00     0.051 C 
HETATM    9  C10 UNL     1       1.193  -0.950  -3.241  1.00  0.00     0.044 C 
BRANCH   6  10
HETATM   10  S1  UNL     1       2.726   0.253  -0.894  1.00  0.00     0.245 S 
HETATM   11  O1  UNL     1       3.381   0.282  -2.248  1.00  0.00    -0.206 OA
HETATM   12  O2  UNL     1       1.979   1.551  -0.799  1.00  0.00    -0.206 OA
BRANCH  10  13
HETATM   13  C6  UNL     1       4.005   0.162   0.302  1.00  0.00     0.086 A 
HETATM   14  C4  UNL     1       3.708   0.603   1.571  1.00  0.00    -0.038 A 
HETATM   15  C3  UNL     1       4.673   0.573   2.545  1.00  0.00     0.015 A 
HETATM   16  C5  UNL     1       2.326   1.120   1.898  1.00  0.00     0.050 C 
HETATM   17  C2  UNL     1       5.939   0.106   2.265  1.00  0.00    -0.061 A 
HETATM   18  C1  UNL     1       6.962   0.089   3.353  1.00  0.00     0.048 C 
HETATM   19  C27 UNL     1       6.217  -0.331   0.989  1.00  0.00     0.015 A 
HETATM   20  C25 UNL     1       5.249  -0.311  -0.025  1.00  0.00    -0.038 A 
HETATM   21  C26 UNL     1       5.614  -0.768  -1.393  1.00  0.00     0.050 C 
ENDBRANCH  10  13
ENDBRANCH   6  10
ENDBRANCH   1   5
BRANCH   3  22
HETATM   22  C12 UNL     1      -2.452   0.743  -0.533  1.00  0.00     0.012 C 
BRANCH  22  23
HETATM   23  C13 UNL     1      -3.616  -0.160  -0.603  1.00  0.00     0.059 C 
BRANCH  23  24
HETATM   24  C14 UNL     1      -3.770  -1.173   0.491  1.00  0.00    -0.009 C 
HETATM   25  C15 UNL     1      -2.657  -2.141   0.629  1.00  0.00     0.005 C 
HETATM   26  C16 UNL     1      -2.957  -3.192   1.684  1.00  0.00     0.000 C 
HETATM   27  C17 UNL     1      -4.220  -3.923   1.333  1.00  0.00     0.000 C 
HETATM   28  C18 UNL     1      -5.329  -2.857   1.419  1.00  0.00     0.000 C 
HETATM   29  C19 UNL     1      -5.088  -1.940   0.276  1.00  0.00     0.005 C 
ENDBRANCH  23  24
ENDBRANCH  22  23
BRANCH  22  30
HETATM   30  C20 UNL     1      -2.614   2.004  -1.361  1.00  0.00     0.118 C 
HETATM   31  C21 UNL     1      -3.970   2.594  -1.315  1.00  0.00     0.038 C 
BRANCH  30  32
HETATM   32  N3  UNL     1      -1.564   2.926  -1.209  1.00  0.00    -0.409 N 
ATOM     33  H3  UNL     1      -1.010   3.192  -2.023  1.00  0.00     0.154 HD
BRANCH  32  34
HETATM   34  C22 UNL     1      -1.263   3.488   0.045  1.00  0.00     0.069 C 
HETATM   35  C23 UNL     1      -2.394   4.301   0.590  1.00  0.00     0.031 C 
HETATM   36  C24 UNL     1      -0.071   4.440  -0.155  1.00  0.00     0.031 C 
ENDBRANCH  32  34
ENDBRANCH  30  32
ENDBRANCH  22  30
ENDBRANCH   3  22
TORSDOF 9
