REMARK  6 active torsions:
REMARK  status: ('A' for Active; 'I' for Inactive)
REMARK    1  A    between atoms: C2_2  and  C3_3 
REMARK    2  A    between atoms: C3_3  and  C4_4 
REMARK    3  A    between atoms: C4_4  and  N1_5 
REMARK    4  A    between atoms: N1_5  and  C5_7 
REMARK    5  A    between atoms: N4_12  and  C7_13 
REMARK    6  A    between atoms: C10_17  and  N5_18 
ROOT
HETATM    1  C5  UNL     1      -2.220  -0.116  -0.748  1.00  0.00     0.188 C 
HETATM    2  N2  UNL     1      -1.366   1.086  -0.831  1.00  0.00    -0.343 N 
ATOM      3  H2  UNL     1      -1.787   1.987  -1.056  1.00  0.00     0.164 HD
HETATM    4  C6  UNL     1      -0.094   1.011  -0.622  1.00  0.00     0.192 C 
HETATM    5  N3  UNL     1       0.679   2.206  -0.715  1.00  0.00    -0.063 NA
HETATM    6  N4  UNL     1       0.565  -0.197  -0.306  1.00  0.00    -0.319 N 
HETATM    7  C16 UNL     1      -0.183  -1.368  -0.045  1.00  0.00     0.144 C 
HETATM    8  C17 UNL     1      -1.670  -1.112   0.192  1.00  0.00     0.007 C 
HETATM    9  C18 UNL     1      -1.925  -0.893   1.655  1.00  0.00     0.020 C 
HETATM   10  C19 UNL     1      -2.346  -2.455  -0.156  1.00  0.00     0.020 C 
ENDROOT
BRANCH   6  11
HETATM   11  C7  UNL     1       1.973  -0.204  -0.256  1.00  0.00     0.060 A 
HETATM   12  C8  UNL     1       2.671   0.043  -1.449  1.00  0.00     0.057 A 
HETATM   13  C9  UNL     1       4.058   0.050  -1.482  1.00  0.00     0.062 A 
HETATM   14 CL1  UNL     1       4.863   0.355  -3.004  1.00  0.00    -0.082 Cl
HETATM   15  C10 UNL     1       4.761  -0.187  -0.341  1.00  0.00     0.053 A 
HETATM   16  C14 UNL     1       4.063  -0.433   0.842  1.00  0.00     0.057 A 
HETATM   17  C15 UNL     1       2.694  -0.442   0.891  1.00  0.00     0.063 A 
HETATM   18 CL2  UNL     1       1.900  -0.751   2.403  1.00  0.00    -0.082 Cl
BRANCH  15  19
HETATM   19  N5  UNL     1       6.189  -0.187  -0.307  1.00  0.00    -0.379 N 
HETATM   20  C11 UNL     1       7.183  -0.437   0.756  1.00  0.00     0.124 C 
HETATM   21  C12 UNL     1       8.085   0.532   0.061  1.00  0.00     0.040 C 
HETATM   22  C13 UNL     1       7.317   0.030  -1.175  1.00  0.00     0.124 C 
ENDBRANCH  15  19
ENDBRANCH   6  11
BRANCH   1  23
HETATM   23  N1  UNL     1      -3.536   0.322  -0.671  1.00  0.00    -0.401 N 
ATOM     24  H1  UNL     1      -4.166   0.108  -1.444  1.00  0.00     0.155 HD
BRANCH  23  25
HETATM   25  C4  UNL     1      -4.037   1.045   0.421  1.00  0.00     0.115 C 
BRANCH  25  26
HETATM   26  C3  UNL     1      -5.473   1.538   0.195  1.00  0.00     0.019 C 
BRANCH  26  27
HETATM   27  C2  UNL     1      -6.391   0.368  -0.016  1.00  0.00    -0.003 C 
HETATM   28  C1  UNL     1      -7.785   0.899  -0.230  1.00  0.00     0.005 C 
ENDBRANCH  26  27
ENDBRANCH  25  26
ENDBRANCH  23  25
ENDBRANCH   1  23
TORSDOF 6
