REMARK  6 active torsions:
REMARK  status: ('A' for Active; 'I' for Inactive)
REMARK    1  A    between atoms: C2_2  and  C3_3 
REMARK    2  A    between atoms: C3_3  and  C4_4 
REMARK    3  A    between atoms: C4_4  and  O1_5 
REMARK    4  A    between atoms: C4_4  and  N1_7 
REMARK    5  A    between atoms: C7_12  and  O2_13 
REMARK    6  A    between atoms: O2_13  and  C8_14 
ROOT
HETATM    1  N1  UNL     1       2.376   0.186   0.014  1.00  0.00    -0.347 N 
ATOM      2  H1  UNL     1       3.055   0.746  -0.501  1.00  0.00     0.163 HD
HETATM    3  C5  UNL     1       1.206   0.526  -0.251  1.00  0.00     0.153 A 
HETATM    4  C6  UNL     1       0.047  -0.012   0.258  1.00  0.00     0.130 A 
HETATM    5 CL1  UNL     1       0.112  -1.324   1.414  1.00  0.00    -0.076 Cl
HETATM    6  C7  UNL     1      -1.225   0.428  -0.093  1.00  0.00     0.170 A 
HETATM    7  N2  UNL     1      -1.338   1.430  -0.973  1.00  0.00    -0.319 N 
ATOM      8  H2  UNL     1      -2.254   1.780  -1.254  1.00  0.00     0.169 HD
HETATM    9  C14 UNL     1      -0.203   1.966  -1.480  1.00  0.00     0.153 A 
HETATM   10  C15 UNL     1      -0.053   3.009  -2.405  1.00  0.00     0.107 A 
HETATM   11  C16 UNL     1      -1.151   3.736  -3.014  1.00  0.00     0.105 C 
HETATM   12  N3  UNL     1      -2.033   4.324  -3.485  1.00  0.00    -0.191 NA
HETATM   13  C17 UNL     1       1.290   3.177  -2.593  1.00  0.00     0.134 A 
HETATM   14  N4  UNL     1       1.898   2.288  -1.827  1.00  0.00    -0.300 N 
ATOM     15  H4  UNL     1       2.910   2.181  -1.763  1.00  0.00     0.186 HD
HETATM   16  N5  UNL     1       1.023   1.551  -1.150  1.00  0.00    -0.221 N 
ENDROOT
BRANCH   6  17
HETATM   17  O2  UNL     1      -2.358  -0.153   0.454  1.00  0.00    -0.326 OA
BRANCH  17  18
HETATM   18  C8  UNL     1      -3.664   0.218   0.165  1.00  0.00     0.160 C 
HETATM   19  C9  UNL     1      -4.398  -1.027  -0.348  1.00  0.00     0.035 C 
HETATM   20  C10 UNL     1      -5.761  -0.656  -0.881  1.00  0.00     0.017 C 
HETATM   21  C11 UNL     1      -4.593  -1.767   0.931  1.00  0.00    -0.022 C 
HETATM   22  C12 UNL     1      -4.626  -0.915   1.953  1.00  0.00    -0.008 C 
HETATM   23  C13 UNL     1      -4.454   0.478   1.432  1.00  0.00     0.135 C 
HETATM   24 CL2  UNL     1      -3.569   1.495   2.577  1.00  0.00    -0.118 Cl
ENDBRANCH  17  18
ENDBRANCH   6  17
BRANCH   1  25
HETATM   25  C4  UNL     1       3.003  -0.760   0.830  1.00  0.00     0.219 C 
BRANCH  25  26
HETATM   26  C3  UNL     1       4.492  -0.898   0.454  1.00  0.00     0.053 C 
BRANCH  26  27
HETATM   27  C2  UNL     1       5.139  -1.995   1.271  1.00  0.00    -0.000 C 
HETATM   28  C1  UNL     1       6.589  -2.064   0.842  1.00  0.00     0.005 C 
ENDBRANCH  26  27
ENDBRANCH  25  26
BRANCH  25  29
HETATM   29  O1  UNL     1       2.950  -0.440   2.211  1.00  0.00    -0.377 OA
ATOM     30  H1  UNL     1       2.033  -0.355   2.443  1.00  0.00     0.212 HD
ENDBRANCH  25  29
ENDBRANCH   1  25
TORSDOF 6
