REMARK  7 active torsions:
REMARK  status: ('A' for Active; 'I' for Inactive)
REMARK    1  A    between atoms: C2_2  and  C3_3 
REMARK    2  A    between atoms: C3_3  and  C4_4 
REMARK    3  A    between atoms: C6_6  and  O1_7 
REMARK    4  A    between atoms: N1_9  and  C7_10 
REMARK    5  A    between atoms: C7_10  and  C8_11 
REMARK    6  A    between atoms: C12_16  and  C13_17 
REMARK    7  A    between atoms: N2_26  and  N3_27 
ROOT
HETATM    1  C4  UNL     1      -0.636   1.751   0.996  1.00  0.00    -0.025 A 
HETATM    2  C5  UNL     1       0.370   2.716   1.156  1.00  0.00     0.065 A 
HETATM    3  C6  UNL     1       1.381   2.310   0.368  1.00  0.00     0.143 A 
HETATM    4  N1  UNL     1       1.095   1.140  -0.291  1.00  0.00    -0.323 N 
HETATM    5  C12 UNL     1      -0.133   0.802   0.093  1.00  0.00     0.073 A 
ENDROOT
BRANCH   5   6
HETATM    6  C13 UNL     1      -0.943  -0.403  -0.213  1.00  0.00     0.109 A 
HETATM    7  C14 UNL     1      -1.250  -1.338   0.760  1.00  0.00     0.072 A 
HETATM    8 CL1  UNL     1      -0.489  -1.237   2.359  1.00  0.00    -0.081 Cl
HETATM    9  C15 UNL     1      -2.080  -2.419   0.575  1.00  0.00    -0.011 A 
HETATM   10  C16 UNL     1      -2.396  -3.407   1.632  1.00  0.00     0.052 C 
HETATM   11  C17 UNL     1      -2.645  -2.587  -0.667  1.00  0.00     0.111 A 
HETATM   12 CL2  UNL     1      -3.712  -3.949  -0.965  1.00  0.00    -0.078 Cl
HETATM   13  C18 UNL     1      -2.347  -1.666  -1.642  1.00  0.00     0.288 A 
HETATM   14  O3  UNL     1      -2.865  -1.817  -2.789  1.00  0.00    -0.264 OA
HETATM   15  N2  UNL     1      -1.517  -0.599  -1.421  1.00  0.00    -0.222 N 
BRANCH  15  16
HETATM   16  N3  UNL     1      -1.315   0.319  -2.439  1.00  0.00    -0.335 N 
ATOM     17  H32 UNL     1      -0.697   1.114  -2.274  1.00  0.00     0.177 HD
ATOM     18  H31 UNL     1      -1.748   0.171  -3.351  1.00  0.00     0.177 HD
ENDBRANCH  15  16
ENDBRANCH   5   6
BRANCH   1  19
HETATM   19  C3  UNL     1      -1.971   1.863   1.621  1.00  0.00     0.041 C 
BRANCH  19  20
HETATM   20  C2  UNL     1      -2.885   2.489   0.543  1.00  0.00     0.000 C 
HETATM   21  C1  UNL     1      -2.376   3.850   0.123  1.00  0.00     0.005 C 
ENDBRANCH  19  20
ENDBRANCH   1  19
BRANCH   4  22
HETATM   22  C7  UNL     1       1.958   0.488  -1.208  1.00  0.00     0.163 C 
BRANCH  22  23
HETATM   23  C8  UNL     1       3.030  -0.380  -0.725  1.00  0.00     0.140 C 
HETATM   24  C9  UNL     1       2.578  -1.553   0.061  1.00  0.00     0.035 C 
HETATM   25  C10 UNL     1       3.651  -2.603  -0.271  1.00  0.00     0.029 C 
HETATM   26  C11 UNL     1       4.509  -1.903  -1.277  1.00  0.00     0.168 C 
HETATM   27  O2  UNL     1       3.671  -0.968  -1.862  1.00  0.00    -0.384 OA
ENDBRANCH  22  23
ENDBRANCH   4  22
BRANCH   3  28
HETATM   28  O1  UNL     1       2.578   2.965   0.216  1.00  0.00    -0.346 OA
ATOM     29  H1  UNL     1       3.292   2.678  -0.341  1.00  0.00     0.219 HD
ENDBRANCH   3  28
TORSDOF 7
