REMARK  5 active torsions:
REMARK  status: ('A' for Active; 'I' for Inactive)
REMARK    1  A    between atoms: C3_3  and  C4_4 
REMARK    2  A    between atoms: C4_4  and  C5_5 
REMARK    3  A    between atoms: C9_16  and  C10_17 
REMARK    4  A    between atoms: C10_17  and  C12_20 
REMARK    5  A    between atoms: C12_20  and  C13_21 
ROOT
HETATM    1  C1  UNL     1       2.207  -1.081   1.402  1.00  0.00     0.050 C 
HETATM    2  C2  UNL     1       2.537  -0.527   0.025  1.00  0.00    -0.033 A 
HETATM    3  C3  UNL     1       3.814  -0.107  -0.226  1.00  0.00     0.002 A 
HETATM    4  S1  UNL     1       3.767   0.441  -1.826  1.00  0.00    -0.075 SA
HETATM    5  C6  UNL     1       2.120   0.131  -2.162  1.00  0.00     0.090 A 
HETATM    6  N1  UNL     1       1.504   0.402  -3.357  1.00  0.00    -0.316 N 
ATOM      7  H1  UNL     1       2.110   0.815  -4.066  1.00  0.00     0.170 HD
HETATM    8  C7  UNL     1       0.219   0.210  -3.749  1.00  0.00     0.269 C 
HETATM    9  O3  UNL     1      -0.078   0.434  -4.930  1.00  0.00    -0.266 OA
HETATM   10  C8  UNL     1      -0.833  -0.222  -2.959  1.00  0.00     0.114 C 
HETATM   11 CL1  UNL     1      -2.281  -0.809  -3.810  1.00  0.00    -0.077 Cl
HETATM   12  C9  UNL     1      -0.830  -0.317  -1.567  1.00  0.00     0.024 C 
HETATM   13  C16 UNL     1       0.281  -0.823  -0.853  1.00  0.00     0.072 C 
HETATM   14  N2  UNL     1      -0.002  -1.845   0.033  1.00  0.00    -0.100 NA
HETATM   15  C17 UNL     1       1.639  -0.403  -0.996  1.00  0.00     0.030 A 
ENDROOT
BRANCH  12  16
HETATM   16  C10 UNL     1      -1.986   0.168  -0.847  1.00  0.00    -0.033 C 
HETATM   17  C11 UNL     1      -2.750   1.096  -1.359  1.00  0.00     0.092 C 
HETATM   18 CL2  UNL     1      -2.588   1.928  -2.881  1.00  0.00    -0.096 Cl
BRANCH  16  19
HETATM   19  C12 UNL     1      -2.321  -0.368   0.509  1.00  0.00     0.044 C 
BRANCH  19  20
HETATM   20  C13 UNL     1      -3.485   0.171   1.237  1.00  0.00    -0.018 C 
HETATM   21  C14 UNL     1      -3.474   1.617   1.600  1.00  0.00     0.010 C 
HETATM   22  C15 UNL     1      -4.839  -0.303   0.703  1.00  0.00     0.010 C 
ENDBRANCH  19  20
ENDBRANCH  16  19
ENDBRANCH  12  16
BRANCH   3  23
HETATM   23  C4  UNL     1       5.026  -0.099   0.665  1.00  0.00     0.159 C 
BRANCH  23  24
HETATM   24  C5  UNL     1       4.948   1.023   1.638  1.00  0.00     0.177 C 
HETATM   25  O1  UNL     1       3.986   1.800   1.637  1.00  0.00    -0.648 OA
HETATM   26  O2  UNL     1       5.951   1.232   2.576  1.00  0.00    -0.648 OA
ENDBRANCH  23  24
ENDBRANCH   3  23
TORSDOF 5
