REMARK  1 active torsions:
REMARK  status: ('A' for Active; 'I' for Inactive)
REMARK    1  A    between atoms: N1_2  and  C2_5 
ROOT
HETATM    1  C2  UNL     1       1.580  -0.298  -0.213  1.00  0.00     0.193 C 
HETATM    2  C3  UNL     1       1.343   0.018   1.234  1.00  0.00     0.041 C 
HETATM    3  C4  UNL     1      -0.168   0.300   1.252  1.00  0.00     0.028 C 
HETATM    4  C5  UNL     1      -0.849  -1.025   1.132  1.00  0.00     0.012 C 
HETATM    5  C6  UNL     1      -1.518  -1.236  -0.204  1.00  0.00    -0.014 C 
HETATM    6  C7  UNL     1      -2.833  -0.511  -0.216  1.00  0.00     0.005 C 
HETATM    7  C8  UNL     1      -2.724   0.896   0.299  1.00  0.00     0.004 C 
HETATM    8  C9  UNL     1      -1.587   1.632  -0.354  1.00  0.00     0.044 C 
HETATM    9  C10 UNL     1      -0.245   1.145   0.000  1.00  0.00     0.113 C 
HETATM   10  F1  UNL     1       0.656   2.196   0.173  1.00  0.00    -0.242 F 
HETATM   11  C11 UNL     1       0.385   0.207  -1.001  1.00  0.00     0.057 C 
HETATM   12  C12 UNL     1      -0.603  -0.872  -1.325  1.00  0.00     0.014 C 
ENDROOT
BRANCH   1  13
HETATM   13  N1  UNL     1       2.758   0.355  -0.744  1.00  0.00    -0.074 N 
HETATM   14  C1  UNL     1       3.972  -0.070  -0.087  1.00  0.00     0.267 C 
ATOM     15  H12 UNL     1       2.660   1.370  -0.712  1.00  0.00     0.277 HD
ATOM     16  H11 UNL     1       2.824   0.228  -1.754  1.00  0.00     0.277 HD
ENDBRANCH   1  13
TORSDOF 1
