REMARK  1 active torsions:
REMARK  status: ('A' for Active; 'I' for Inactive)
REMARK    1  A    between atoms: C5_5  and  C6_6 
ROOT
HETATM    1  C1  UNL     1       4.061   0.116  -0.085  1.00  0.00     0.011 C 
HETATM    2  C2  UNL     1       2.643  -0.065   0.479  1.00  0.00     0.007 C 
HETATM    3  C3  UNL     1       2.012  -1.293  -0.037  1.00  0.00     0.008 C 
HETATM    4  C4  UNL     1       0.877  -1.126  -0.970  1.00  0.00     0.035 C 
HETATM    5  C5  UNL     1       0.057   0.112  -0.746  1.00  0.00     0.216 C 
HETATM    6  N2  UNL     1       0.940   1.232  -0.736  1.00  0.00    -0.069 N 
ATOM      7  H21 UNL     1       0.411   2.104  -0.711  1.00  0.00     0.277 HD
ATOM      8  H22 UNL     1       1.399   1.334  -1.641  1.00  0.00     0.277 HD
HETATM    9  C11 UNL     1       1.901   1.203   0.308  1.00  0.00     0.237 C 
ENDROOT
BRANCH   5  10
HETATM   10  C6  UNL     1      -0.788   0.052   0.497  1.00  0.00     0.216 C 
HETATM   11  C7  UNL     1      -1.767  -1.074   0.491  1.00  0.00     0.035 C 
HETATM   12  C8  UNL     1      -2.854  -0.806  -0.507  1.00  0.00     0.004 C 
HETATM   13  C9  UNL     1      -3.660   0.382  -0.018  1.00  0.00     0.027 C 
HETATM   14  C10 UNL     1      -2.863   1.170   0.990  1.00  0.00     0.233 C 
HETATM   15  N1  UNL     1      -1.483   1.296   0.636  1.00  0.00    -0.069 N 
ATOM     16  H12 UNL     1      -1.000   1.900   1.301  1.00  0.00     0.277 HD
ATOM     17  H11 UNL     1      -1.384   1.854  -0.212  1.00  0.00     0.277 HD
ENDBRANCH   5  10
TORSDOF 1
