REMARK  2 active torsions:
REMARK  status: ('A' for Active; 'I' for Inactive)
REMARK    1  A    between atoms: C10_10  and  C11_11 
REMARK    2  A    between atoms: C11_11  and  N1_12 
ROOT
HETATM    1  C1  UNL     1      -1.111   2.123   0.854  1.00  0.00     0.011 C 
HETATM    2  C2  UNL     1      -0.388   1.271  -0.131  1.00  0.00    -0.004 C 
HETATM    3  C3  UNL     1       1.105   1.378  -0.038  1.00  0.00    -0.009 C 
HETATM    4  C4  UNL     1       1.691   0.769  -1.297  1.00  0.00     0.010 C 
HETATM    5  C5  UNL     1       1.288  -0.680  -1.351  1.00  0.00    -0.013 C 
HETATM    6  C6  UNL     1       1.861  -1.398  -0.171  1.00  0.00     0.009 C 
HETATM    7  C7  UNL     1       1.308  -0.802   1.101  1.00  0.00    -0.013 C 
HETATM    8  C8  UNL     1       1.611   0.682   1.202  1.00  0.00     0.010 C 
HETATM    9  C9  UNL     1      -0.196  -0.929   1.067  1.00  0.00     0.016 C 
HETATM   10  C10 UNL     1      -0.778  -0.178  -0.098  1.00  0.00    -0.012 C 
HETATM   11  C12 UNL     1      -0.212  -0.793  -1.362  1.00  0.00     0.016 C 
ENDROOT
BRANCH  10  12
HETATM   12  C11 UNL     1      -2.281  -0.371  -0.049  1.00  0.00     0.239 C 
BRANCH  12  13
HETATM   13  N1  UNL     1      -2.538  -1.794  -0.020  1.00  0.00    -0.079 N 
ATOM     14  H13 UNL     1      -2.099  -2.293  -0.794  1.00  0.00     0.274 HD
ATOM     15  H12 UNL     1      -2.051  -2.270   0.740  1.00  0.00     0.274 HD
ATOM     16  H11 UNL     1      -3.549  -1.924   0.013  1.00  0.00     0.274 HD
ENDBRANCH  12  13
ENDBRANCH  10  12
TORSDOF 2
