REMARK  13 active torsions:
REMARK  status: ('A' for Active; 'I' for Inactive)
REMARK    1  A    between atoms: C2_2  and  C3_3 
REMARK    2  A    between atoms: C3_3  and  C4_4 
REMARK    3  A    between atoms: C4_4  and  C5_5 
REMARK    4  A    between atoms: C5_5  and  C6_6 
REMARK    5  A    between atoms: C6_6  and  O1_7 
REMARK    6  A    between atoms: C13_16  and  C14_17 
REMARK    7  A    between atoms: C25_28  and  O3_29 
REMARK    8  A    between atoms: O3_29  and  C26_30 
REMARK    9  A    between atoms: C29_34  and  O5_35 
REMARK   10  A    between atoms: C30_37  and  O6_38 
REMARK   11  A    between atoms: C32_40  and  O7_41 
REMARK   12  A    between atoms: C37_48  and  C38_49 
REMARK   13  A    between atoms: C38_49  and  O9_50 
ROOT
HETATM    1  C6  UNL     1       1.814  -1.634   0.211  1.00  0.00     0.070 C 
HETATM    2  C7  UNL     1       3.074  -1.989   1.061  1.00  0.00     0.054 C 
HETATM    3  C8  UNL     1       2.845  -0.569   1.620  1.00  0.00     0.030 C 
HETATM    4  C9  UNL     1       2.025  -0.676   2.821  1.00  0.00     0.134 C 
HETATM    5  C10 UNL     1       0.904   0.278   2.906  1.00  0.00     0.036 C 
HETATM    6  C11 UNL     1       0.827   1.273   1.806  1.00  0.00     0.046 C 
HETATM    7  C12 UNL     1       1.151   0.856   0.419  1.00  0.00     0.098 C 
HETATM    8  O2  UNL     1       1.671   1.995  -0.266  1.00  0.00    -0.365 OA
HETATM    9  C13 UNL     1       1.175   3.194   0.002  1.00  0.00     0.151 C 
HETATM   10  C17 UNL     1       0.402   3.918  -1.117  1.00  0.00     0.037 C 
HETATM   11  C18 UNL     1      -0.734   4.743  -0.588  1.00  0.00     0.011 C 
HETATM   12  C19 UNL     1      -2.037   4.604  -1.301  1.00  0.00     0.010 C 
HETATM   13  C20 UNL     1      -3.174   5.036  -0.379  1.00  0.00     0.015 C 
HETATM   14  C21 UNL     1      -2.316   3.350  -1.987  1.00  0.00    -0.084 C 
HETATM   15  C22 UNL     1      -2.560   3.409  -3.491  1.00  0.00     0.043 C 
HETATM   16  C23 UNL     1      -2.394   2.127  -1.495  1.00  0.00    -0.021 C 
HETATM   17  C24 UNL     1      -2.212   1.700  -0.090  1.00  0.00     0.064 C 
HETATM   18  C25 UNL     1      -1.448   0.404   0.036  1.00  0.00     0.159 C 
HETATM   19  C33 UNL     1      -0.043   0.503  -0.413  1.00  0.00    -0.025 C 
HETATM   20  C34 UNL     1       0.178   0.257  -1.706  1.00  0.00     0.020 C 
HETATM   21  C35 UNL     1       2.246  -0.227   0.331  1.00  0.00     0.035 C 
HETATM   22  C36 UNL     1       3.292   0.106  -0.713  1.00  0.00     0.023 C 
HETATM   23  O8  UNL     1       3.178  -0.335   3.569  1.00  0.00    -0.377 OA
HETATM   24  C37 UNL     1       3.920  -0.095   2.380  1.00  0.00     0.158 C 
ENDROOT
BRANCH   9  25
HETATM   25  C14 UNL     1       2.217   4.182   0.386  1.00  0.00    -0.065 C 
HETATM   26  C15 UNL     1       3.482   3.999   0.094  1.00  0.00     0.016 C 
HETATM   27  C16 UNL     1       1.882   5.475   1.092  1.00  0.00     0.045 C 
ENDBRANCH   9  25
BRANCH  18  28
HETATM   28  O3  UNL     1      -2.077  -0.486  -0.859  1.00  0.00    -0.349 OA
BRANCH  28  29
HETATM   29  C26 UNL     1      -2.680  -1.568  -0.303  1.00  0.00     0.292 C 
HETATM   30  O4  UNL     1      -2.032  -2.759  -0.743  1.00  0.00    -0.351 OA
HETATM   31  C27 UNL     1      -2.559  -3.866  -0.136  1.00  0.00     0.152 C 
HETATM   32  C28 UNL     1      -2.904  -4.875  -1.235  1.00  0.00     0.042 C 
HETATM   33  C29 UNL     1      -3.837  -3.617   0.635  1.00  0.00     0.178 C 
HETATM   34  C30 UNL     1      -4.785  -2.892  -0.254  1.00  0.00     0.185 C 
HETATM   35  C32 UNL     1      -4.080  -1.695  -0.856  1.00  0.00     0.204 C 
BRANCH  33  36
HETATM   36  O5  UNL     1      -4.383  -4.856   0.993  1.00  0.00    -0.390 OA
ATOM     37  H5  UNL     1      -5.185  -4.700   1.477  1.00  0.00     0.210 HD
ENDBRANCH  33  36
BRANCH  34  38
HETATM   38  O6  UNL     1      -5.978  -2.544   0.357  1.00  0.00    -0.385 OA
HETATM   39  C31 UNL     1      -7.093  -3.096  -0.204  1.00  0.00     0.202 C 
ENDBRANCH  34  38
BRANCH  35  40
HETATM   40  O7  UNL     1      -4.792  -0.538  -0.739  1.00  0.00    -0.388 OA
ATOM     41  H7  UNL     1      -5.672  -0.618  -1.087  1.00  0.00     0.210 HD
ENDBRANCH  35  40
ENDBRANCH  28  29
ENDBRANCH  18  28
BRANCH   1  42
HETATM   42  C5  UNL     1       1.921  -2.510  -0.961  1.00  0.00     0.039 C 
BRANCH  42  43
HETATM   43  C4  UNL     1       2.145  -3.996  -0.539  1.00  0.00     0.007 C 
BRANCH  43  44
HETATM   44  C3  UNL     1       2.253  -4.839  -1.805  1.00  0.00     0.026 C 
BRANCH  44  45
HETATM   45  C2  UNL     1       3.380  -4.391  -2.637  1.00  0.00    -0.037 C 
HETATM   46  C1  UNL     1       3.223  -3.960  -3.859  1.00  0.00     0.007 C 
ENDBRANCH  44  45
ENDBRANCH  43  44
ENDBRANCH  42  43
ENDBRANCH   1  42
BRANCH   1  47
HETATM   47  O1  UNL     1       0.714  -2.042   0.988  1.00  0.00    -0.389 OA
ATOM     48  H1  UNL     1       0.645  -1.475   1.747  1.00  0.00     0.210 HD
ENDBRANCH   1  47
BRANCH  24  49
HETATM   49  C38 UNL     1       4.539   1.221   2.461  1.00  0.00     0.199 C 
BRANCH  49  50
HETATM   50  O9  UNL     1       5.452   1.390   3.468  1.00  0.00    -0.393 OA
HETATM   51  C39 UNL     1       5.080   1.231   4.756  1.00  0.00     0.201 C 
ENDBRANCH  49  50
ENDBRANCH  24  49
TORSDOF 13
