REMARK  12 active torsions:
REMARK  status: ('A' for Active; 'I' for Inactive)
REMARK    1  A    between atoms: C4_4  and  N1_5 
REMARK    2  A    between atoms: C7_8  and  O1_9 
REMARK    3  A    between atoms: C8_11  and  O2_12 
REMARK    4  A    between atoms: O2_12  and  C9_13 
REMARK    5  A    between atoms: C18_23  and  N2_24 
REMARK    6  A    between atoms: N2_24  and  C19_26 
REMARK    7  A    between atoms: C19_26  and  C20_27 
REMARK    8  A    between atoms: C20_27  and  C21_28 
REMARK    9  A    between atoms: C21_28  and  N3_29 
REMARK   10  A    between atoms: C23_34  and  C24_35 
REMARK   11  A    between atoms: C24_35  and  C25_36 
REMARK   12  A    between atoms: C25_36  and  N4_37 
ROOT
HETATM    1  C9  UNL     1       3.431   0.690  -0.603  1.00  0.00     0.142 C 
HETATM    2  C10 UNL     1       2.487  -0.183   0.132  1.00  0.00     0.034 C 
HETATM    3  C11 UNL     1       3.123  -0.592   1.444  1.00  0.00     0.017 C 
HETATM    4  C12 UNL     1       2.041  -1.409  -0.558  1.00  0.00    -0.023 C 
HETATM    5  C13 UNL     1       1.010  -2.128  -0.143  1.00  0.00    -0.023 C 
HETATM    6  C14 UNL     1       0.158  -1.857   1.027  1.00  0.00     0.105 C 
HETATM    7  C15 UNL     1      -1.293  -2.085   0.655  1.00  0.00     0.139 C 
HETATM    8  O3  UNL     1      -1.519  -2.569  -0.432  1.00  0.00    -0.297 OA
HETATM    9  C16 UNL     1      -2.354  -1.707   1.641  1.00  0.00     0.101 C 
HETATM   10  C17 UNL     1      -2.370  -2.903   2.616  1.00  0.00     0.024 C 
HETATM   11  C18 UNL     1      -3.653  -1.362   1.122  1.00  0.00     0.023 C 
HETATM   12  C22 UNL     1      -4.058  -0.147   0.708  1.00  0.00     0.001 C 
HETATM   13  C23 UNL     1      -5.092   0.732   0.163  1.00  0.00     0.157 C 
HETATM   14  O4  UNL     1      -4.473   1.810   0.807  1.00  0.00    -0.371 OA
HETATM   15  C28 UNL     1      -3.265   1.064   0.641  1.00  0.00     0.160 C 
HETATM   16  C29 UNL     1      -2.603   1.428  -0.633  1.00  0.00     0.019 C 
HETATM   17  C30 UNL     1      -2.775   0.513  -1.792  1.00  0.00     0.013 C 
HETATM   18  C31 UNL     1      -1.111   1.733  -0.497  1.00  0.00    -0.012 C 
HETATM   19  C32 UNL     1      -0.818   2.538   0.725  1.00  0.00     0.010 C 
HETATM   20  C33 UNL     1      -0.586   2.425  -1.717  1.00  0.00     0.016 C 
HETATM   21  C34 UNL     1       0.914   2.511  -1.780  1.00  0.00     0.052 C 
HETATM   22  C35 UNL     1       1.242   3.595  -2.799  1.00  0.00     0.018 C 
HETATM   23  C36 UNL     1       1.583   1.258  -2.219  1.00  0.00     0.137 C 
HETATM   24  O5  UNL     1       0.948   0.402  -2.750  1.00  0.00    -0.297 OA
HETATM   25  C37 UNL     1       3.027   1.104  -1.991  1.00  0.00     0.081 C 
HETATM   26  C38 UNL     1       3.663   0.191  -3.045  1.00  0.00     0.020 C 
ENDROOT
BRANCH   1  27
HETATM   27  O2  UNL     1       4.730   0.203  -0.706  1.00  0.00    -0.352 OA
BRANCH  27  28
HETATM   28  C8  UNL     1       5.697   1.037  -0.131  1.00  0.00     0.291 C 
HETATM   29  C7  UNL     1       6.570   0.391   0.870  1.00  0.00     0.195 C 
HETATM   30  C4  UNL     1       8.037   0.335   0.567  1.00  0.00     0.114 C 
HETATM   31  C3  UNL     1       8.537   1.522  -0.208  1.00  0.00     0.059 C 
HETATM   32  C2  UNL     1       7.404   2.364  -0.747  1.00  0.00     0.122 C 
HETATM   33  C1  UNL     1       7.984   3.288  -1.824  1.00  0.00     0.040 C 
HETATM   34  O6  UNL     1       6.362   1.615  -1.219  1.00  0.00    -0.354 OA
BRANCH  29  35
HETATM   35  O1  UNL     1       6.362   1.031   2.118  1.00  0.00    -0.389 OA
ATOM     36  H1  UNL     1       5.432   1.066   2.310  1.00  0.00     0.210 HD
ENDBRANCH  29  35
BRANCH  30  37
HETATM   37  N1  UNL     1       8.498  -0.867  -0.042  1.00  0.00    -0.414 N 
HETATM   38  C5  UNL     1       8.056  -1.141  -1.363  1.00  0.00     0.143 C 
HETATM   39  C6  UNL     1       8.571  -2.006   0.815  1.00  0.00     0.143 C 
ENDBRANCH  30  37
ENDBRANCH  27  28
ENDBRANCH   1  27
BRANCH  11  40
HETATM   40  N2  UNL     1      -4.656  -2.416   1.008  1.00  0.00    -0.392 N 
ATOM     41  H2  UNL     1      -4.752  -2.882   0.106  1.00  0.00     0.159 HD
BRANCH  40  42
HETATM   42  C19 UNL     1      -5.505  -2.838   2.059  1.00  0.00     0.121 C 
BRANCH  42  43
HETATM   43  C20 UNL     1      -6.496  -3.920   1.751  1.00  0.00     0.047 C 
BRANCH  43  44
HETATM   44  C21 UNL     1      -5.951  -5.249   1.385  1.00  0.00     0.231 C 
BRANCH  44  45
HETATM   45  N3  UNL     1      -5.148  -5.197   0.201  1.00  0.00    -0.079 N 
ATOM     46  H33 UNL     1      -5.663  -4.783  -0.576  1.00  0.00     0.274 HD
ATOM     47  H32 UNL     1      -4.404  -4.505   0.290  1.00  0.00     0.274 HD
ATOM     48  H31 UNL     1      -4.773  -6.112  -0.051  1.00  0.00     0.274 HD
ENDBRANCH  44  45
ENDBRANCH  43  44
ENDBRANCH  42  43
ENDBRANCH  40  42
ENDBRANCH  11  40
BRANCH  13  49
HETATM   49  C24 UNL     1      -6.505   0.527   0.680  1.00  0.00     0.067 C 
BRANCH  49  50
HETATM   50  C25 UNL     1      -7.385   1.548  -0.015  1.00  0.00     0.274 C 
BRANCH  50  51
HETATM   51  N4  UNL     1      -8.759   1.446   0.413  1.00  0.00     0.080 N 
HETATM   52  C26 UNL     1      -9.295   0.202  -0.095  1.00  0.00     0.309 C 
HETATM   53  C27 UNL     1      -9.543   2.537  -0.121  1.00  0.00     0.309 C 
ENDBRANCH  50  51
ENDBRANCH  49  50
ENDBRANCH  13  49
TORSDOF 12
