REMARK  15 active torsions:
REMARK  status: ('A' for Active; 'I' for Inactive)
REMARK    1  A    between atoms: C2_2  and  O1_3 
REMARK    2  A    between atoms: O1_3  and  C3_4 
REMARK    3  A    between atoms: C3_4  and  C4_5 
REMARK    4  A    between atoms: C4_5  and  C5_6 
REMARK    5  A    between atoms: C4_5  and  O4_14 
REMARK    6  A    between atoms: C5_6  and  C6_7 
REMARK    7  A    between atoms: C6_7  and  C7_8 
REMARK       I    between atoms: C7_8  and  N1_10 
REMARK    8  A    between atoms: N1_10  and  O3_12 
REMARK    9  A    between atoms: O4_14  and  C10_15 
REMARK   10  A    between atoms: C11_16  and  C12_17 
REMARK   11  A    between atoms: C12_17  and  O5_18 
REMARK   12  A    between atoms: C16_23  and  O6_24 
REMARK   13  A    between atoms: C23_32  and  O7_33 
REMARK   14  A    between atoms: O7_33  and  C24_34 
REMARK   15  A    between atoms: C28_39  and  O9_40 
ROOT
HETATM    1  C10 UNL     1      -2.578  -1.687  -0.332  1.00  0.00     0.135 C 
HETATM    2  C11 UNL     1      -2.196  -2.963  -0.960  1.00  0.00     0.039 C 
HETATM    3  C13 UNL     1      -1.097  -3.679  -0.136  1.00  0.00     0.016 C 
HETATM    4  C14 UNL     1      -0.974  -2.968   1.154  1.00  0.00     0.018 C 
HETATM    5  C15 UNL     1      -0.449  -3.835   2.277  1.00  0.00     0.013 C 
HETATM    6  C16 UNL     1      -0.509  -1.561   1.127  1.00  0.00     0.075 C 
HETATM    7  C17 UNL     1      -1.464  -0.831   0.199  1.00  0.00     0.051 C 
HETATM    8  C18 UNL     1      -0.900  -0.084  -0.934  1.00  0.00     0.011 C 
HETATM    9  C19 UNL     1       0.343   0.710  -0.458  1.00  0.00     0.006 C 
HETATM   10  C20 UNL     1       1.297  -0.428  -0.166  1.00  0.00     0.001 C 
HETATM   11  C21 UNL     1       2.675   0.047  -0.318  1.00  0.00    -0.002 C 
HETATM   12  C22 UNL     1       3.013   1.423   0.187  1.00  0.00     0.038 C 
HETATM   13  C23 UNL     1       4.322   1.860  -0.471  1.00  0.00     0.137 C 
HETATM   14  C26 UNL     1       5.240   0.740  -0.803  1.00  0.00     0.026 C 
HETATM   15  C27 UNL     1       6.647   1.247  -0.815  1.00  0.00     0.039 C 
HETATM   16  C28 UNL     1       7.391   1.157   0.455  1.00  0.00     0.118 C 
HETATM   17  C29 UNL     1       6.604   0.848   1.683  1.00  0.00     0.032 C 
HETATM   18  C30 UNL     1       5.514  -0.155   1.532  1.00  0.00     0.012 C 
HETATM   19  C31 UNL     1       5.101  -0.460   0.140  1.00  0.00    -0.034 C 
HETATM   20  C32 UNL     1       6.068  -1.511  -0.390  1.00  0.00     0.016 C 
HETATM   21  C33 UNL     1       3.714  -1.007  -0.025  1.00  0.00    -0.001 C 
HETATM   22  C34 UNL     1       3.350  -1.937   1.067  1.00  0.00     0.007 C 
HETATM   23  C35 UNL     1       1.916  -2.302   1.209  1.00  0.00     0.013 C 
HETATM   24  C36 UNL     1       0.911  -1.194   1.066  1.00  0.00    -0.008 C 
HETATM   25  C37 UNL     1       1.285  -0.270   2.247  1.00  0.00     0.019 C 
ENDROOT
BRANCH   1  26
HETATM   26  O4  UNL     1      -3.363  -0.937  -1.199  1.00  0.00    -0.378 OA
BRANCH  26  27
HETATM   27  C4  UNL     1      -4.652  -0.696  -0.750  1.00  0.00     0.146 C 
BRANCH  27  28
HETATM   28  C3  UNL     1      -5.665  -1.511  -1.586  1.00  0.00     0.199 C 
BRANCH  28  29
HETATM   29  O1  UNL     1      -6.957  -1.267  -1.130  1.00  0.00    -0.389 OA
BRANCH  29  30
HETATM   30  C2  UNL     1      -7.817  -2.026  -1.918  1.00  0.00     0.163 C 
HETATM   31  C1  UNL     1      -7.557  -3.494  -1.851  1.00  0.00     0.033 C 
ENDBRANCH  29  30
ENDBRANCH  28  29
ENDBRANCH  27  28
BRANCH  27  32
HETATM   32  C5  UNL     1      -5.136   0.695  -0.801  1.00  0.00     0.043 C 
BRANCH  32  33
HETATM   33  C6  UNL     1      -4.387   1.744  -0.065  1.00  0.00     0.107 C 
BRANCH  33  34
HETATM   34  C7  UNL     1      -5.068   3.048  -0.264  1.00  0.00     0.242 C 
HETATM   35  O2  UNL     1      -6.093   3.103  -0.972  1.00  0.00    -0.271 OA
HETATM   36  N1  UNL     1      -4.569   4.222   0.337  1.00  0.00    -0.231 N 
HETATM   37  C8  UNL     1      -5.240   5.499   0.141  1.00  0.00     0.188 C 
BRANCH  36  38
HETATM   38  O3  UNL     1      -3.462   4.244   1.118  1.00  0.00    -0.281 OA
HETATM   39  C9  UNL     1      -3.858   4.398   2.445  1.00  0.00     0.238 C 
ENDBRANCH  36  38
ENDBRANCH  33  34
ENDBRANCH  32  33
ENDBRANCH  27  32
ENDBRANCH  26  27
ENDBRANCH   1  26
BRANCH   2  40
HETATM   40  C12 UNL     1      -1.874  -3.043  -2.399  1.00  0.00     0.171 C 
BRANCH  40  41
HETATM   41  O5  UNL     1      -2.855  -2.656  -3.290  1.00  0.00    -0.400 OA
ATOM     42  H5  UNL     1      -2.648  -2.707  -4.216  1.00  0.00     0.209 HD
ENDBRANCH  40  41
ENDBRANCH   2  40
BRANCH   6  43
HETATM   43  O6  UNL     1      -0.945  -1.121   2.434  1.00  0.00    -0.388 OA
ATOM     44  H6  UNL     1      -0.647  -0.219   2.417  1.00  0.00     0.210 HD
ENDBRANCH   6  43
BRANCH  13  45
HETATM   45  O7  UNL     1       4.010   2.766  -1.452  1.00  0.00    -0.316 OA
BRANCH  45  46
HETATM   46  C24 UNL     1       4.261   4.118  -1.468  1.00  0.00     0.255 C 
HETATM   47  C25 UNL     1       3.893   5.034  -2.567  1.00  0.00     0.126 C 
HETATM   48  O8  UNL     1       4.839   4.481  -0.438  1.00  0.00    -0.266 OA
ENDBRANCH  45  46
ENDBRANCH  13  45
BRANCH  16  49
HETATM   49  O9  UNL     1       8.075   2.371   0.736  1.00  0.00    -0.396 OA
ATOM     50  H9  UNL     1       8.554   2.313   1.554  1.00  0.00     0.210 HD
ENDBRANCH  16  49
TORSDOF 15
