REMARK  4 active torsions:
REMARK  status: ('A' for Active; 'I' for Inactive)
REMARK    1  A    between atoms: N1_1  and  C1_4 
REMARK    2  A    between atoms: N2_8  and  C5_9 
REMARK    3  A    between atoms: C5_9  and  C6_10 
REMARK    4  A    between atoms: N4_15  and  O1_16 
ROOT
HETATM    1  C1  UNL     1      -2.653  -0.201   0.578  1.00  0.00     0.113 A 
HETATM    2  C2  UNL     1      -2.687  -1.574   0.712  1.00  0.00     0.051 A 
HETATM    3  C3  UNL     1      -1.680  -2.318   0.105  1.00  0.00     0.023 A 
HETATM    4  C4  UNL     1      -0.699  -1.652  -0.599  1.00  0.00     0.111 A 
HETATM    5  N2  UNL     1      -0.691  -0.315  -0.713  1.00  0.00    -0.295 N 
HETATM    6  N5  UNL     1      -1.659   0.369  -0.127  1.00  0.00    -0.284 N 
ATOM      7  H5  UNL     1      -1.652   1.385  -0.214  1.00  0.00     0.188 HD
ENDROOT
BRANCH   5   8
HETATM    8  C5  UNL     1       0.369   0.368  -1.472  1.00  0.00     0.227 C 
BRANCH   8   9
HETATM    9  C6  UNL     1       1.494   0.680  -0.519  1.00  0.00     0.129 A 
HETATM   10  N3  UNL     1       1.643   1.798   0.213  1.00  0.00    -0.351 N 
HETATM   11  C7  UNL     1       2.763   1.744   0.957  1.00  0.00     0.109 A 
ATOM     12  H3  UNL     1       0.993   2.584   0.205  1.00  0.00     0.166 HD
HETATM   13  C8  UNL     1       3.348   0.527   0.676  1.00  0.00     0.141 A 
HETATM   14  N4  UNL     1       2.553  -0.086  -0.219  1.00  0.00    -0.221 N 
BRANCH  14  15
HETATM   15  O1  UNL     1       2.798  -1.339  -0.756  1.00  0.00    -0.282 OA
ATOM     16  H1  UNL     1       3.548  -1.882  -0.543  1.00  0.00     0.245 HD
ENDBRANCH  14  15
ENDBRANCH   8   9
ENDBRANCH   5   8
BRANCH   1  17
HETATM   17  N1  UNL     1      -3.587   0.513   1.138  1.00  0.00    -0.384 N 
ATOM     18  H12 UNL     1      -4.341   0.081   1.673  1.00  0.00     0.157 HD
ATOM     19  H11 UNL     1      -3.562   1.528   1.039  1.00  0.00     0.157 HD
ENDBRANCH   1  17
TORSDOF 4
