REMARK  4 active torsions:
REMARK  status: ('A' for Active; 'I' for Inactive)
REMARK    1  A    between atoms: C3_7  and  N3_8 
REMARK    2  A    between atoms: N3_8  and  C4_10 
REMARK    3  A    between atoms: C4_10  and  C5_11 
REMARK    4  A    between atoms: C5_11  and  N4_12 
ROOT
HETATM    1  C1  UNL     1      -3.823  -1.785  -0.409  1.00  0.00     0.147 C 
HETATM    2  N1  UNL     1      -2.474  -1.513  -0.343  1.00  0.00    -0.380 N 
ATOM      3  H1  UNL     1      -1.961  -2.389  -0.441  1.00  0.00     0.160 HD
HETATM    4  C2  UNL     1      -1.668  -0.604  -0.210  1.00  0.00     0.123 A 
HETATM    5  N2  UNL     1      -0.338  -0.926  -0.219  1.00  0.00    -0.177 N 
ATOM      6  H2  UNL     1      -0.078  -1.905  -0.336  1.00  0.00     0.186 HD
HETATM    7  C3  UNL     1       0.635  -0.025  -0.083  1.00  0.00     0.679 A 
HETATM    8  N5  UNL     1       0.323   1.280   0.074  1.00  0.00    -0.201 N 
ATOM      9  H5  UNL     1       1.057   1.981   0.179  1.00  0.00     0.183 HD
HETATM   10  C6  UNL     1      -0.963   1.635   0.089  1.00  0.00     0.116 A 
HETATM   11  C7  UNL     1      -1.996   0.713  -0.052  1.00  0.00    -0.002 A 
HETATM   12  C8  UNL     1      -3.415   1.085  -0.038  1.00  0.00     0.054 C 
ENDROOT
BRANCH   7  13
HETATM   13  N3  UNL     1       1.891  -0.351  -0.094  1.00  0.00    -0.224 N 
ATOM     14  H3  UNL     1       2.150  -1.331  -0.211  1.00  0.00     0.177 HD
BRANCH  13  15
HETATM   15  C4  UNL     1       2.923   0.634   0.054  1.00  0.00     0.165 C 
BRANCH  15  16
HETATM   16  C5  UNL     1       4.298   0.055  -0.004  1.00  0.00     0.249 C 
BRANCH  16  17
HETATM   17  N4  UNL     1       4.455  -0.916   1.067  1.00  0.00    -0.078 N 
ATOM     18  H43 UNL     1       4.240  -0.521   1.982  1.00  0.00     0.274 HD
ATOM     19  H42 UNL     1       3.731  -1.635   1.047  1.00  0.00     0.274 HD
ATOM     20  H41 UNL     1       5.394  -1.312   1.027  1.00  0.00     0.274 HD
ENDBRANCH  16  17
ENDBRANCH  15  16
ENDBRANCH  13  15
ENDBRANCH   7  13
TORSDOF 4
