REMARK  4 active torsions:
REMARK  status: ('A' for Active; 'I' for Inactive)
REMARK    1  A    between atoms: C4_4  and  C5_5 
REMARK    2  A    between atoms: C5_5  and  N1_6 
REMARK    3  A    between atoms: N1_6  and  C6_8 
REMARK    4  A    between atoms: C9_13  and  N3_14 
ROOT
HETATM    1  C1  UNL     1       7.054   1.054  -0.467  1.00  0.00     0.027 C 
HETATM    2  C2  UNL     1       5.887   0.806  -0.684  1.00  0.00    -0.026 C 
HETATM    3  C3  UNL     1       4.519   0.525  -0.916  1.00  0.00    -0.014 C 
HETATM    4  C4  UNL     1       3.352   0.267  -1.110  1.00  0.00    -0.073 C 
ENDROOT
BRANCH   4   5
HETATM    5  C5  UNL     1       1.933  -0.051  -1.372  1.00  0.00     0.216 C 
BRANCH   5   6
HETATM    6  N1  UNL     1       1.182   0.293  -0.209  1.00  0.00    -0.365 N 
ATOM      7  H1  UNL     1       1.640   0.764   0.572  1.00  0.00     0.162 HD
BRANCH   6   8
HETATM    8  C6  UNL     1      -0.070   0.011  -0.143  1.00  0.00     0.118 A 
HETATM    9  C7  UNL     1      -0.666  -0.626  -1.213  1.00  0.00     0.066 A 
HETATM   10  C8  UNL     1      -2.005  -0.918  -1.122  1.00  0.00     0.110 A 
HETATM   11  N2  UNL     1      -2.705  -0.584  -0.010  1.00  0.00    -0.202 N 
HETATM   12  C9  UNL     1      -2.117   0.027   1.009  1.00  0.00     0.679 A 
ATOM     13  H2  UNL     1      -3.699  -0.806   0.043  1.00  0.00     0.183 HD
HETATM   14  N4  UNL     1      -0.806   0.334   0.966  1.00  0.00    -0.177 N 
ATOM     15  H4  UNL     1      -0.364   0.805   1.755  1.00  0.00     0.185 HD
BRANCH  12  16
HETATM   16  N3  UNL     1      -2.757   0.353   2.072  1.00  0.00    -0.230 N 
HETATM   17  C10 UNL     1      -4.135   0.128   2.330  1.00  0.00     0.165 C 
ATOM     18  H3  UNL     1      -2.223   0.820   2.805  1.00  0.00     0.177 HD
ENDBRANCH  12  16
ENDBRANCH   6   8
ENDBRANCH   5   6
ENDBRANCH   4   5
TORSDOF 4
