REMARK  4 active torsions:
REMARK  status: ('A' for Active; 'I' for Inactive)
REMARK    1  A    between atoms: C5_5  and  C6_6 
REMARK    2  A    between atoms: C6_6  and  C7_7 
REMARK    3  A    between atoms: C10_16  and  N4_17 
REMARK    4  A    between atoms: N4_17  and  C11_19 
ROOT
HETATM    1  C1  UNL     1      -2.140   2.310  -1.361  1.00  0.00     0.027 C 
HETATM    2  C2  UNL     1      -1.206   1.510  -0.854  1.00  0.00    -0.002 A 
HETATM    3  C3  UNL     1       0.129   1.729  -1.113  1.00  0.00     0.016 A 
HETATM    4  C4  UNL     1       1.071   0.874  -0.565  1.00  0.00     0.030 A 
HETATM    5  C5  UNL     1       0.733  -0.199   0.236  1.00  0.00     0.035 A 
HETATM    6  N3  UNL     1      -0.581  -0.380   0.465  1.00  0.00    -0.342 N 
ATOM      7  H3  UNL     1      -0.874  -1.161   1.051  1.00  0.00     0.167 HD
HETATM    8  C10 UNL     1      -1.523   0.433  -0.052  1.00  0.00     0.111 A 
ENDROOT
BRANCH   5   9
HETATM    9  C6  UNL     1       1.659  -0.998   0.743  1.00  0.00     0.060 C 
BRANCH   9  10
HETATM   10  C7  UNL     1       3.069  -0.743   0.453  1.00  0.00     0.050 A 
HETATM   11  C8  UNL     1       3.758  -1.096  -0.691  1.00  0.00     0.118 A 
HETATM   12  N1  UNL     1       5.031  -0.692  -0.590  1.00  0.00    -0.360 N 
HETATM   13  C9  UNL     1       5.144  -0.091   0.606  1.00  0.00     0.180 A 
ATOM     14  H1  UNL     1       5.768  -0.816  -1.284  1.00  0.00     0.166 HD
HETATM   15  N2  UNL     1       3.974  -0.120   1.229  1.00  0.00    -0.351 N 
ATOM     16  H2  UNL     1       3.789   0.270   2.153  1.00  0.00     0.166 HD
ENDBRANCH   9  10
ENDBRANCH   5   9
BRANCH   8  17
HETATM   17  N4  UNL     1      -2.777   0.237   0.184  1.00  0.00    -0.376 N 
ATOM     18  H4  UNL     1      -3.440   0.888  -0.237  1.00  0.00     0.161 HD
BRANCH  17  19
HETATM   19  C11 UNL     1      -3.311  -0.815   0.985  1.00  0.00     0.116 C 
HETATM   20  C12 UNL     1      -4.822  -0.815   0.841  1.00  0.00     0.026 C 
ENDBRANCH  17  19
ENDBRANCH   8  17
TORSDOF 4
