REMARK  2 active torsions:
REMARK  status: ('A' for Active; 'I' for Inactive)
REMARK    1  A    between atoms: C3_3  and  C4_4 
REMARK    2  A    between atoms: C4_4  and  N1_5 
ROOT
HETATM    1  C1  UNL     1       3.003  -2.202  -1.437  1.00  0.00     0.013 C 
HETATM    2  C2  UNL     1       2.931  -1.151  -0.825  1.00  0.00    -0.102 C 
HETATM    3  C3  UNL     1       2.820   0.117  -0.072  1.00  0.00     0.054 C 
HETATM    4  C15 UNL     1       3.335   0.054   1.339  1.00  0.00     0.028 C 
HETATM    5  C16 UNL     1       4.750   0.057   0.730  1.00  0.00     0.004 C 
HETATM    6  C17 UNL     1       4.148   0.878  -0.383  1.00  0.00     0.028 C 
ENDROOT
BRANCH   3   7
HETATM    7  C4  UNL     1       1.628   0.931  -0.368  1.00  0.00     0.081 C 
BRANCH   7   8
HETATM    8  N1  UNL     1       0.344   0.422  -0.161  1.00  0.00    -0.386 N 
HETATM    9  C5  UNL     1      -0.703   1.358  -0.567  1.00  0.00     0.127 C 
HETATM   10  C6  UNL     1      -1.906   0.773  -1.188  1.00  0.00     0.060 C 
HETATM   11  C7  UNL     1      -2.711  -0.061  -0.200  1.00  0.00    -0.029 A 
HETATM   12  C8  UNL     1      -2.170  -1.082   0.526  1.00  0.00    -0.002 A 
HETATM   13  C11 UNL     1      -4.029   0.204  -0.009  1.00  0.00     0.023 A 
HETATM   14  S1  UNL     1      -3.481  -1.648   1.447  1.00  0.00    -0.074 SA
HETATM   15  C12 UNL     1      -0.771  -1.531   0.472  1.00  0.00     0.051 A 
HETATM   16  C9  UNL     1      -4.691  -0.581   0.896  1.00  0.00     0.101 A 
HETATM   17  N2  UNL     1      -6.005  -0.220   1.000  1.00  0.00    -0.293 N 
HETATM   18  N3  UNL     1      -6.197   0.787   0.174  1.00  0.00    -0.310 N 
ATOM     19  H2  UNL     1      -6.705  -0.650   1.604  1.00  0.00     0.187 HD
HETATM   20  C10 UNL     1      -5.050   1.081  -0.454  1.00  0.00     0.122 A 
ATOM     21  H3  UNL     1      -7.084   1.270   0.033  1.00  0.00     0.186 HD
HETATM   22  C13 UNL     1       0.188  -1.596   1.509  1.00  0.00     0.038 A 
HETATM   23  C14 UNL     1       0.012  -0.279   1.009  1.00  0.00     0.093 A 
ENDBRANCH   7   8
ENDBRANCH   3   7
TORSDOF 2
