REMARK  4 active torsions:
REMARK  status: ('A' for Active; 'I' for Inactive)
REMARK    1  A    between atoms: C2_2  and  C3_3 
REMARK    2  A    between atoms: C3_3  and  C4_4 
REMARK    3  A    between atoms: C10_11  and  O2_12 
REMARK    4  A    between atoms: C19_22  and  O3_23 
ROOT
HETATM    1  C4  UNL     1       1.897  -0.414  -0.558  1.00  0.00    -0.071 C 
HETATM    2  C5  UNL     1       0.770  -1.030  -1.357  1.00  0.00     0.020 C 
HETATM    3  C6  UNL     1      -0.260  -0.115  -1.905  1.00  0.00     0.022 C 
HETATM    4  C7  UNL     1      -1.592  -0.097  -1.236  1.00  0.00     0.057 C 
HETATM    5  C8  UNL     1      -2.090   1.175  -0.682  1.00  0.00    -0.018 A 
HETATM    6  C9  UNL     1      -3.152   1.866  -1.226  1.00  0.00     0.153 A 
HETATM    7  O1  UNL     1      -3.359   2.958  -0.505  1.00  0.00    -0.299 OA
HETATM    8  C10 UNL     1      -2.509   3.034   0.474  1.00  0.00     0.189 A 
HETATM    9  C11 UNL     1      -1.697   1.935   0.396  1.00  0.00     0.009 A 
HETATM   10  C12 UNL     1      -0.624   1.811   1.429  1.00  0.00     0.050 C 
HETATM   11  C13 UNL     1       0.476   1.079   0.791  1.00  0.00     0.004 A 
HETATM   12  C14 UNL     1       1.561   0.179   0.790  1.00  0.00     0.025 A 
HETATM   13  C15 UNL     1       0.253  -0.247   1.219  1.00  0.00     0.006 A 
HETATM   14  C16 UNL     1      -0.470  -1.328   0.662  1.00  0.00     0.031 C 
HETATM   15  C17 UNL     1       0.190  -2.083  -0.492  1.00  0.00     0.004 C 
HETATM   16  C18 UNL     1      -1.247  -2.451  -0.901  1.00  0.00     0.045 C 
HETATM   17  C19 UNL     1      -1.663  -1.193  -0.170  1.00  0.00     0.073 C 
ENDROOT
BRANCH   1  18
HETATM   18  C3  UNL     1       3.111  -0.408  -1.043  1.00  0.00    -0.001 C 
BRANCH  18  19
HETATM   19  C2  UNL     1       4.415   0.050  -0.648  1.00  0.00    -0.031 C 
HETATM   20  C1  UNL     1       4.656   0.822   0.579  1.00  0.00     0.036 C 
ENDBRANCH  18  19
ENDBRANCH   1  18
BRANCH  17  21
HETATM   21  O3  UNL     1      -2.895  -1.188   0.410  1.00  0.00    -0.384 OA
HETATM   22  C20 UNL     1      -3.118  -2.113   1.387  1.00  0.00     0.202 C 
ENDBRANCH  17  21
BRANCH   8  23
HETATM   23  O2  UNL     1      -2.412   4.043   1.450  1.00  0.00    -0.340 OA
ATOM     24  H2  UNL     1      -1.790   4.099   2.166  1.00  0.00     0.220 HD
ENDBRANCH   8  23
TORSDOF 4
