REMARK  2 active torsions:
REMARK  status: ('A' for Active; 'I' for Inactive)
REMARK    1  A    between atoms: C3_3  and  C4_4 
REMARK    2  A    between atoms: C9_13  and  N3_14 
ROOT
HETATM    1  C1  UNL     1      -1.139   3.334  -0.028  1.00  0.00     0.006 A 
HETATM    2  C2  UNL     1      -2.209   2.559  -0.400  1.00  0.00     0.025 A 
HETATM    3  C3  UNL     1      -2.110   1.190  -0.482  1.00  0.00     0.015 A 
HETATM    4  N2  UNL     1      -0.939   0.612  -0.190  1.00  0.00    -0.346 N 
ATOM      5  H2  UNL     1      -0.869  -0.404  -0.252  1.00  0.00     0.167 HD
HETATM    6  C9  UNL     1       0.168   1.319   0.187  1.00  0.00     0.104 A 
HETATM    7  C19 UNL     1       0.066   2.674   0.267  1.00  0.00     0.048 A 
ENDROOT
BRANCH   6   8
HETATM    8  N3  UNL     1       1.380   0.651   0.473  1.00  0.00    -0.358 N 
HETATM    9  C10 UNL     1       1.525  -0.789   0.188  1.00  0.00     0.087 C 
HETATM   10  C11 UNL     1       1.869  -1.447   1.500  1.00  0.00     0.030 C 
HETATM   11  C15 UNL     1       2.673  -1.004  -0.761  1.00  0.00     0.030 C 
HETATM   12  C12 UNL     1       3.175  -0.882   2.017  1.00  0.00    -0.010 C 
HETATM   13  C13 UNL     1       4.302  -1.006   1.038  1.00  0.00     0.009 C 
HETATM   14  C18 UNL     1       2.967   0.585   2.311  1.00  0.00     0.030 C 
HETATM   15  C14 UNL     1       3.896  -0.286  -0.244  1.00  0.00    -0.010 C 
HETATM   16  C16 UNL     1       3.662   1.162   0.042  1.00  0.00     0.030 C 
HETATM   17  C17 UNL     1       2.517   1.299   1.045  1.00  0.00     0.087 C 
ENDBRANCH   6   8
BRANCH   3  18
HETATM   18  C4  UNL     1      -3.301   0.359  -0.894  1.00  0.00     0.038 C 
HETATM   19  C5  UNL     1      -2.913  -0.430  -2.094  1.00  0.00     0.030 C 
HETATM   20  C6  UNL     1      -3.440  -1.834  -2.128  1.00  0.00     0.114 C 
HETATM   21  N1  UNL     1      -4.692  -2.047  -1.508  1.00  0.00    -0.421 N 
HETATM   22  C7  UNL     1      -4.918  -1.341  -0.287  1.00  0.00     0.114 C 
ATOM     23  H1  UNL     1      -5.394  -2.669  -1.909  1.00  0.00     0.153 HD
HETATM   24  C8  UNL     1      -3.700  -0.597   0.207  1.00  0.00     0.030 C 
ENDBRANCH   3  18
TORSDOF 2
