REMARK  2 active torsions:
REMARK  status: ('A' for Active; 'I' for Inactive)
REMARK    1  A    between atoms: C2_2  and  C4_4 
REMARK    2  A    between atoms: C4_4  and  C5_5 
ROOT
HETATM    1  C5  UNL     1       2.291   0.554   0.647  1.00  0.00     0.122 C 
HETATM    2  C6  UNL     1       1.784   0.748  -0.708  1.00  0.00     0.032 C 
HETATM    3  C7  UNL     1       0.306   1.042  -0.819  1.00  0.00     0.011 C 
HETATM    4  C8  UNL     1      -0.538   0.506   0.274  1.00  0.00     0.034 C 
HETATM    5  C9  UNL     1       0.229  -0.437   1.153  1.00  0.00     0.218 C 
HETATM    6  O1  UNL     1       1.405   0.072   1.592  1.00  0.00    -0.371 OA
HETATM    7  C10 UNL     1       0.298  -1.806   0.581  1.00  0.00     0.247 C 
HETATM    8  O2  UNL     1       0.906  -2.677   1.250  1.00  0.00    -0.271 OA
HETATM    9  N1  UNL     1      -0.315  -2.066  -0.672  1.00  0.00    -0.358 N 
ATOM     10  H1  UNL     1       0.068  -2.809  -1.256  1.00  0.00     0.162 HD
HETATM   11  C11 UNL     1      -1.458  -1.325  -1.158  1.00  0.00     0.132 C 
HETATM   12  C12 UNL     1      -1.784  -0.145  -0.266  1.00  0.00    -0.018 C 
HETATM   13  C13 UNL     1      -2.542   0.873  -1.117  1.00  0.00     0.011 C 
HETATM   14  C14 UNL     1      -3.313   1.849  -0.249  1.00  0.00     0.001 C 
HETATM   15  C15 UNL     1      -4.774   1.463  -0.184  1.00  0.00     0.000 C 
HETATM   16  C16 UNL     1      -5.017   0.255   0.653  1.00  0.00     0.000 C 
HETATM   17  C17 UNL     1      -4.060  -0.878   0.389  1.00  0.00     0.001 C 
HETATM   18  C18 UNL     1      -2.655  -0.579   0.869  1.00  0.00     0.011 C 
ENDROOT
BRANCH   1  19
HETATM   19  C4  UNL     1       3.519  -0.297   0.697  1.00  0.00     0.035 C 
BRANCH  19  20
HETATM   20  C2  UNL     1       4.732   0.157  -0.013  1.00  0.00    -0.020 C 
HETATM   21  C1  UNL     1       5.797  -0.948   0.299  1.00  0.00     0.009 C 
HETATM   22  C3  UNL     1       4.698   0.207  -1.501  1.00  0.00     0.009 C 
ENDBRANCH  19  20
ENDBRANCH   1  19
TORSDOF 2
