REMARK  1 active torsions:
REMARK  status: ('A' for Active; 'I' for Inactive)
REMARK    1  A    between atoms: O1_1  and  C1_3 
ROOT
HETATM    1  C1  UNL     1      -2.076  -0.395   1.308  1.00  0.00     0.066 C 
HETATM    2  C2  UNL     1      -3.054   0.694   1.233  1.00  0.00     0.038 C 
HETATM    3  C3  UNL     1      -2.736   1.941   0.508  1.00  0.00     0.003 C 
HETATM    4  C4  UNL     1      -2.773   1.873  -0.988  1.00  0.00     0.003 C 
HETATM    5  C5  UNL     1      -1.497   1.410  -1.637  1.00  0.00     0.047 C 
HETATM    6  C6  UNL     1      -1.086   0.159  -1.000  1.00  0.00     0.223 A 
HETATM    7  C7  UNL     1      -2.073  -0.830  -1.080  1.00  0.00     0.269 A 
HETATM    8  C8  UNL     1      -2.420  -1.438   0.250  1.00  0.00     0.077 C 
HETATM    9  N1  UNL     1      -0.972  -1.132  -1.725  1.00  0.00     0.111 N 
HETATM   10  C9  UNL     1       0.006  -0.970  -2.617  1.00  0.00     0.275 C 
HETATM   11  C10 UNL     1       1.324  -0.999  -1.828  1.00  0.00     0.044 C 
HETATM   12  C11 UNL     1       1.119  -0.769  -0.352  1.00  0.00     0.007 C 
HETATM   13  C12 UNL     1       1.116  -2.089   0.330  1.00  0.00     0.013 C 
HETATM   14  C13 UNL     1       0.753  -2.083   1.762  1.00  0.00     0.001 C 
HETATM   15  C14 UNL     1       0.209  -0.822   2.306  1.00  0.00     0.011 C 
HETATM   16  C15 UNL     1      -0.625  -0.013   1.335  1.00  0.00     0.058 C 
HETATM   17  C16 UNL     1       0.009   0.164  -0.007  1.00  0.00     0.117 C 
HETATM   18  O2  UNL     1       0.614   1.446  -0.076  1.00  0.00    -0.346 OA
HETATM   19  C17 UNL     1       1.915   1.381  -0.308  1.00  0.00     0.269 C 
HETATM   20  O3  UNL     1       2.758   2.253   0.311  1.00  0.00    -0.357 OA
HETATM   21  C18 UNL     1       4.032   1.747   0.466  1.00  0.00     0.198 C 
HETATM   22  C19 UNL     1       4.449   0.743  -0.542  1.00  0.00    -0.004 C 
HETATM   23  C20 UNL     1       3.548  -0.242  -0.773  1.00  0.00    -0.018 C 
HETATM   24  C21 UNL     1       2.334  -0.018   0.097  1.00  0.00     0.075 C 
ENDROOT
BRANCH   1  25
HETATM   25  O1  UNL     1      -2.347  -1.090   2.520  1.00  0.00    -0.389 OA
ATOM     26  H1  UNL     1      -1.713  -1.796   2.569  1.00  0.00     0.210 HD
ENDBRANCH   1  25
TORSDOF 1
