REMARK  1 active torsions:
REMARK  status: ('A' for Active; 'I' for Inactive)
REMARK    1  A    between atoms: C4_4  and  C5_5 
ROOT
HETATM    1  C5  UNL     1       2.104  -0.105   1.223  1.00  0.00     0.120 C 
HETATM    2  C6  UNL     1       2.312   1.091   1.950  1.00  0.00     0.268 C 
HETATM    3  O1  UNL     1       3.219   1.513   2.708  1.00  0.00    -0.264 OA
HETATM    4  O2  UNL     1       1.189   1.921   1.694  1.00  0.00    -0.315 OA
HETATM    5  C7  UNL     1       0.119   0.975   1.389  1.00  0.00     0.144 C 
HETATM    6  C8  UNL     1      -1.119   1.693   1.166  1.00  0.00     0.058 C 
HETATM    7  C9  UNL     1      -2.114   1.105   0.229  1.00  0.00     0.083 C 
HETATM    8  N1  UNL     1      -2.226  -0.242   0.093  1.00  0.00    -0.403 N 
ATOM      9  H1  UNL     1      -3.181  -0.563  -0.065  1.00  0.00     0.154 HD
HETATM   10  C10 UNL     1      -1.319  -1.232   0.127  1.00  0.00     0.083 C 
HETATM   11  C11 UNL     1      -1.778  -2.487  -0.638  1.00  0.00     0.148 C 
HETATM   12  C12 UNL     1      -3.140  -2.395  -1.237  1.00  0.00     0.042 C 
HETATM   13  O3  UNL     1      -1.760  -3.260   0.489  1.00  0.00    -0.376 OA
HETATM   14  C13 UNL     1      -1.603  -2.182   1.313  1.00  0.00     0.148 C 
HETATM   15  C14 UNL     1      -2.806  -1.790   2.129  1.00  0.00     0.042 C 
HETATM   16  C15 UNL     1       0.120  -1.081  -0.032  1.00  0.00     0.036 A 
HETATM   17  C16 UNL     1       0.728  -0.084  -0.886  1.00  0.00     0.006 A 
HETATM   18  C17 UNL     1      -0.117   0.573  -1.885  1.00  0.00     0.006 C 
HETATM   19  C18 UNL     1      -0.599   1.961  -1.584  1.00  0.00     0.007 C 
HETATM   20  C19 UNL     1      -2.013   1.854  -1.110  1.00  0.00     0.004 C 
HETATM   21  C20 UNL     1      -2.672   3.211  -1.030  1.00  0.00     0.012 C 
HETATM   22  C21 UNL     1       0.772   0.123   0.480  1.00  0.00     0.013 A 
ENDROOT
BRANCH   1  23
HETATM   23  C4  UNL     1       3.103  -0.706   0.366  1.00  0.00    -0.009 C 
HETATM   24  C2  UNL     1       4.264  -0.345  -0.069  1.00  0.00    -0.090 C 
HETATM   25  C1  UNL     1       5.025  -1.288  -0.975  1.00  0.00     0.042 C 
HETATM   26  C3  UNL     1       4.940   0.932   0.212  1.00  0.00     0.042 C 
ENDBRANCH   1  23
TORSDOF 1
