REMARK  3 active torsions:
REMARK  status: ('A' for Active; 'I' for Inactive)
REMARK    1  A    between atoms: O1_2  and  C2_3 
REMARK    2  A    between atoms: C9_10  and  C14_15 
REMARK    3  A    between atoms: C17_18  and  O2_19 
ROOT
HETATM    1  C2  UNL     1      -3.061   0.210  -0.902  1.00  0.00     0.042 C 
HETATM    2  C3  UNL     1      -2.348  -0.838  -0.500  1.00  0.00     0.016 C 
HETATM    3  C4  UNL     1      -0.896  -0.668  -0.450  1.00  0.00     0.081 C 
HETATM    4  C5  UNL     1      -0.063  -1.793  -0.021  1.00  0.00     0.171 C 
HETATM    5  C6  UNL     1      -0.780  -2.299   1.101  1.00  0.00     0.069 C 
HETATM    6  C7  UNL     1      -0.305  -1.362   2.243  1.00  0.00     0.006 C 
HETATM    7  C8  UNL     1       0.565  -0.222   1.937  1.00  0.00     0.006 C 
HETATM    8  C9  UNL     1       0.700   0.440   0.604  1.00  0.00     0.005 C 
HETATM    9  C10 UNL     1      -0.723   0.673   0.173  1.00  0.00    -0.027 C 
HETATM   10  C11 UNL     1      -1.652   1.107   1.245  1.00  0.00     0.016 C 
HETATM   11  C12 UNL     1      -0.983   1.669  -0.921  1.00  0.00     0.017 C 
HETATM   12  C13 UNL     1      -2.448   1.504  -1.294  1.00  0.00     0.065 C 
HETATM   13  C14 UNL     1       1.555  -0.034  -0.487  1.00  0.00    -0.006 C 
HETATM   14  C15 UNL     1       2.243   1.123  -1.202  1.00  0.00     0.015 C 
HETATM   15  C16 UNL     1       3.630   1.283  -0.671  1.00  0.00     0.033 C 
HETATM   16  C17 UNL     1       3.756   0.272   0.505  1.00  0.00     0.125 C 
HETATM   17  C18 UNL     1       2.877  -0.680   0.030  1.00  0.00     0.049 C 
HETATM   18  C19 UNL     1       2.335  -1.963   0.472  1.00  0.00     0.179 C 
HETATM   19  O3  UNL     1       1.083  -2.058   0.515  1.00  0.00    -0.354 OA
HETATM   20  C20 UNL     1       1.175  -0.999  -1.543  1.00  0.00     0.182 C 
HETATM   21  O4  UNL     1       0.438  -2.173  -1.210  1.00  0.00    -0.354 OA
ENDROOT
BRANCH   1  22
HETATM   22  O1  UNL     1      -4.435   0.122  -0.971  1.00  0.00    -0.361 OA
HETATM   23  C1  UNL     1      -5.326   0.634  -0.016  1.00  0.00     0.209 C 
ENDBRANCH   1  22
BRANCH  16  24
HETATM   24  O2  UNL     1       3.777   1.037   1.597  1.00  0.00    -0.395 OA
ATOM     25  H2  UNL     1       3.854   0.420   2.315  1.00  0.00     0.210 HD
ENDBRANCH  16  24
TORSDOF 3
