REMARK  4 active torsions:
REMARK  status: ('A' for Active; 'I' for Inactive)
REMARK    1  A    between atoms: C4_5  and  C5_6 
REMARK    2  A    between atoms: C7_9  and  N1_10 
REMARK    3  A    between atoms: N1_10  and  N2_12 
REMARK    4  A    between atoms: C8_14  and  C9_15 
ROOT
HETATM    1  N2  UNL     1      -0.278  -0.955   0.744  1.00  0.00    -0.309 N 
ATOM      2  H2  UNL     1      -0.848  -0.180   1.083  1.00  0.00     0.186 HD
HETATM    3  C8  UNL     1       0.880  -0.580   0.518  1.00  0.00     0.120 C 
ENDROOT
BRANCH   1   4
HETATM    4  N1  UNL     1      -1.001  -2.079   0.674  1.00  0.00    -0.280 N 
ATOM      5  H1  UNL     1      -0.541  -2.986   0.758  1.00  0.00     0.189 HD
BRANCH   4   6
HETATM    6  C7  UNL     1      -2.307  -2.018   0.497  1.00  0.00     0.163 A 
HETATM    7  S1  UNL     1      -3.438  -3.274   0.374  1.00  0.00    -0.062 SA
HETATM    8  C6  UNL     1      -4.840  -2.328   0.165  1.00  0.00     0.083 A 
HETATM    9  C5  UNL     1      -4.341  -1.048   0.202  1.00  0.00     0.051 A 
HETATM   10  N5  UNL     1      -3.045  -0.915   0.373  1.00  0.00    -0.334 N 
ATOM     11  H5  UNL     1      -2.615   0.009   0.410  1.00  0.00     0.168 HD
BRANCH   9  12
HETATM   12  C4  UNL     1      -5.262   0.120   0.052  1.00  0.00    -0.009 A 
HETATM   13  C3  UNL     1      -6.612  -0.040  -0.125  1.00  0.00     0.015 A 
HETATM   14  C2  UNL     1      -7.459   1.048  -0.264  1.00  0.00     0.020 A 
HETATM   15  C1  UNL     1      -6.976   2.319  -0.228  1.00  0.00     0.011 A 
HETATM   16 BR1  UNL     1      -8.188   3.774  -0.424  1.00  0.00    -0.051 Br
HETATM   17  C22 UNL     1      -5.639   2.508  -0.053  1.00  0.00     0.020 A 
HETATM   18  C21 UNL     1      -4.801   1.417   0.084  1.00  0.00     0.015 A 
ENDBRANCH   9  12
ENDBRANCH   4   6
ENDBRANCH   1   4
BRANCH   3  19
HETATM   19  C9  UNL     1       1.988  -1.365   0.028  1.00  0.00     0.010 A 
HETATM   20  C10 UNL     1       1.899  -2.696  -0.265  1.00  0.00     0.015 A 
HETATM   21  C11 UNL     1       2.998  -3.417  -0.737  1.00  0.00     0.003 A 
HETATM   22  C12 UNL     1       4.188  -2.755  -0.904  1.00  0.00     0.032 A 
HETATM   23  C13 UNL     1       4.311  -1.413  -0.617  1.00  0.00     0.060 A 
HETATM   24  N3  UNL     1       5.501  -0.769  -0.789  1.00  0.00    -0.353 N 
HETATM   25  C20 UNL     1       3.221  -0.719  -0.155  1.00  0.00     0.071 A 
HETATM   26  C14 UNL     1       5.568   0.544  -0.494  1.00  0.00     0.059 A 
ATOM     27  H3  UNL     1       6.321  -1.269  -1.133  1.00  0.00     0.166 HD
HETATM   28  C15 UNL     1       6.769   1.234  -0.657  1.00  0.00     0.032 A 
HETATM   29  C19 UNL     1       4.484   1.246  -0.030  1.00  0.00     0.059 A 
HETATM   30  C16 UNL     1       6.859   2.578  -0.361  1.00  0.00     0.002 A 
HETATM   31  C17 UNL     1       5.752   3.270   0.106  1.00  0.00     0.002 A 
HETATM   32  C18 UNL     1       4.575   2.606   0.269  1.00  0.00     0.032 A 
HETATM   33  N4  UNL     1       3.311   0.596   0.135  1.00  0.00    -0.352 N 
ATOM     34  H4  UNL     1       2.493   1.099   0.479  1.00  0.00     0.166 HD
ENDBRANCH   3  19
TORSDOF 4
