REMARK  5 active torsions:
REMARK  status: ('A' for Active; 'I' for Inactive)
REMARK    1  A    between atoms: C2_2  and  O1_3 
REMARK    2  A    between atoms: C2_2  and  C3_5 
REMARK    3  A    between atoms: N1_7  and  N2_9 
REMARK       I    between atoms: N2_9  and  C5_11 
REMARK    4  A    between atoms: C5_11  and  C6_13 
REMARK    5  A    between atoms: C6_13  and  C7_14 
ROOT
HETATM    1  C7  UNL     1       0.144  -0.790   1.125  1.00  0.00     0.001 C 
HETATM    2  C8  UNL     1       0.038  -1.979   0.218  1.00  0.00     0.008 C 
HETATM    3  C9  UNL     1      -1.194  -2.790   0.397  1.00  0.00     0.041 C 
HETATM    4  C10 UNL     1      -2.496  -2.065   0.343  1.00  0.00     0.093 C 
HETATM    5  C11 UNL     1      -3.505  -3.153   0.818  1.00  0.00     0.049 C 
HETATM    6  C12 UNL     1      -2.897  -1.804  -1.048  1.00  0.00     0.041 C 
HETATM    7  C13 UNL     1      -2.263  -0.738  -1.833  1.00  0.00     0.011 C 
HETATM    8  C14 UNL     1      -2.090   0.608  -1.241  1.00  0.00     0.028 C 
HETATM    9  C15 UNL     1      -3.244   1.457  -1.697  1.00  0.00    -0.012 C 
HETATM   10  C16 UNL     1      -4.596   0.864  -1.418  1.00  0.00     0.010 C 
HETATM   11  C17 UNL     1      -3.248   2.877  -1.253  1.00  0.00     0.005 C 
HETATM   12  C18 UNL     1      -3.183   2.776   0.283  1.00  0.00     0.008 C 
HETATM   13  C19 UNL     1      -1.820   2.210   0.500  1.00  0.00     0.028 C 
HETATM   14  C20 UNL     1      -1.288   2.334   1.867  1.00  0.00    -0.011 C 
HETATM   15  C21 UNL     1      -0.926   3.778   2.151  1.00  0.00     0.010 C 
HETATM   16  C22 UNL     1      -0.016   1.527   1.704  1.00  0.00     0.012 C 
HETATM   17  C23 UNL     1      -0.322   0.505   0.591  1.00  0.00     0.029 C 
HETATM   18  C24 UNL     1      -1.741   0.692   0.211  1.00  0.00     0.108 C 
HETATM   19  O3  UNL     1      -2.689   0.113   0.954  1.00  0.00    -0.228 OA
HETATM   20  O4  UNL     1      -2.672  -1.086   1.257  1.00  0.00    -0.229 OA
ENDROOT
BRANCH   1  21
HETATM   21  C6  UNL     1       1.586  -0.722   1.583  1.00  0.00     0.109 C 
BRANCH  21  22
HETATM   22  C5  UNL     1       2.599  -0.562   0.551  1.00  0.00     0.238 C 
HETATM   23  N2  UNL     1       3.952  -0.513   0.933  1.00  0.00    -0.265 N 
HETATM   24  C4  UNL     1       4.333  -0.619   2.326  1.00  0.00     0.181 C 
HETATM   25  O2  UNL     1       2.319  -0.468  -0.644  1.00  0.00    -0.272 OA
BRANCH  23  26
HETATM   26  N1  UNL     1       5.002  -0.360   0.011  1.00  0.00    -0.287 N 
HETATM   27  C3  UNL     1       5.302  -1.326  -0.820  1.00  0.00     0.123 C 
HETATM   28 CL1  UNL     1       4.372  -2.813  -0.764  1.00  0.00    -0.065 Cl
ATOM     29  H1  UNL     1       5.534   0.510  -0.011  1.00  0.00     0.188 HD
BRANCH  27  30
HETATM   30  C2  UNL     1       6.383  -1.225  -1.802  1.00  0.00     0.177 C 
HETATM   31  C1  UNL     1       7.111   0.083  -1.766  1.00  0.00     0.047 C 
BRANCH  30  32
HETATM   32  O1  UNL     1       5.910  -1.399  -3.123  1.00  0.00    -0.389 OA
ATOM     33  H1  UNL     1       5.448  -2.229  -3.146  1.00  0.00     0.210 HD
ENDBRANCH  30  32
ENDBRANCH  27  30
ENDBRANCH  23  26
ENDBRANCH  21  22
ENDBRANCH   1  21
TORSDOF 5
