REMARK  4 active torsions:
REMARK  status: ('A' for Active; 'I' for Inactive)
REMARK    1  A    between atoms: C4_5  and  C5_6 
REMARK    2  A    between atoms: C6_9  and  N2_10 
REMARK    3  A    between atoms: N2_10  and  C7_12 
REMARK    4  A    between atoms: N3_22  and  C16_23 
ROOT
HETATM    1  C5  UNL     1       2.436   1.686  -0.584  1.00  0.00     0.153 A 
HETATM    2  N1  UNL     1       1.131   1.798  -0.759  1.00  0.00    -0.172 N 
ATOM      3  H1  UNL     1       0.653   2.628  -1.109  1.00  0.00     0.186 HD
HETATM    4  C6  UNL     1       0.513   0.614  -0.394  1.00  0.00     0.702 A 
HETATM    5  N3  UNL     1       1.496  -0.202   0.002  1.00  0.00    -0.085 N 
HETATM    6  N4  UNL     1       2.663   0.461  -0.118  1.00  0.00    -0.262 N 
ATOM      7  H4  UNL     1       3.581   0.081   0.113  1.00  0.00     0.190 HD
ENDROOT
BRANCH   4   8
HETATM    8  N2  UNL     1      -0.737   0.504  -0.482  1.00  0.00    -0.215 N 
ATOM      9  H2  UNL     1      -1.174   1.356  -0.834  1.00  0.00     0.178 HD
BRANCH   8  10
HETATM   10  C7  UNL     1      -1.672  -0.495  -0.217  1.00  0.00     0.137 C 
HETATM   11  C8  UNL     1      -2.093  -1.215  -1.497  1.00  0.00     0.057 C 
HETATM   12  C9  UNL     1      -3.091  -0.470  -2.310  1.00  0.00     0.178 C 
HETATM   13  O1  UNL     1      -3.715   0.608  -1.691  1.00  0.00    -0.350 OA
HETATM   14  C10 UNL     1      -3.905   0.608  -0.320  1.00  0.00     0.077 A 
HETATM   15  C11 UNL     1      -5.057   1.134   0.271  1.00  0.00     0.037 A 
HETATM   16  C15 UNL     1      -2.904   0.066   0.442  1.00  0.00    -0.002 A 
HETATM   17  C12 UNL     1      -5.199   1.111   1.641  1.00  0.00     0.003 A 
HETATM   18  C13 UNL     1      -4.190   0.565   2.394  1.00  0.00     0.001 A 
HETATM   19  C14 UNL     1      -3.038   0.040   1.799  1.00  0.00     0.012 A 
ENDBRANCH   8  10
ENDBRANCH   4   8
BRANCH   5  20
HETATM   20  C16 UNL     1       1.408  -1.550   0.481  1.00  0.00     0.074 A 
HETATM   21  C17 UNL     1       1.344  -2.610  -0.393  1.00  0.00     0.032 A 
HETATM   22  C18 UNL     1       1.279  -3.918   0.070  1.00  0.00     0.002 A 
HETATM   23  C19 UNL     1       1.277  -4.166   1.425  1.00  0.00     0.000 A 
HETATM   24  C20 UNL     1       1.340  -3.134   2.317  1.00  0.00     0.002 A 
HETATM   25  C21 UNL     1       1.403  -1.856   1.839  1.00  0.00     0.032 A 
ENDBRANCH   5  20
BRANCH   1  26
HETATM   26  C4  UNL     1       3.434   2.728  -0.858  1.00  0.00     0.052 A 
HETATM   27  C3  UNL     1       4.790   2.650  -0.691  1.00  0.00     0.025 A 
HETATM   28  C2  UNL     1       5.505   3.732  -1.008  1.00  0.00     0.028 A 
HETATM   29  C1  UNL     1       4.833   4.827  -1.473  1.00  0.00     0.052 A 
HETATM   30 BR1  UNL     1       5.580   6.523  -2.010  1.00  0.00    -0.043 Br
HETATM   31  S1  UNL     1       3.206   4.307  -1.453  1.00  0.00    -0.079 SA
ENDBRANCH   1  26
TORSDOF 4
