REMARK  7 active torsions:
REMARK  status: ('A' for Active; 'I' for Inactive)
REMARK    1  A    between atoms: C2_2  and  O2_4 
REMARK    2  A    between atoms: O2_4  and  C3_5 
REMARK    3  A    between atoms: C11_13  and  O3_14 
REMARK    4  A    between atoms: O3_14  and  C12_15 
REMARK    5  A    between atoms: C12_15  and  C13_17 
REMARK    6  A    between atoms: C13_17  and  N1_18 
REMARK    7  A    between atoms: C13_17  and  C14_22 
ROOT
HETATM    1  C3  UNL     1      -3.565   1.276   0.077  1.00  0.00     0.169 C 
HETATM    2  C4  UNL     1      -3.126  -0.123  -0.162  1.00  0.00     0.011 C 
HETATM    3  C5  UNL     1      -1.923  -0.652  -0.179  1.00  0.00    -0.062 C 
HETATM    4  C6  UNL     1      -1.994  -2.088  -0.460  1.00  0.00    -0.024 C 
HETATM    5  C7  UNL     1      -3.306  -2.736  -0.039  1.00  0.00     0.019 C 
HETATM    6  C8  UNL     1      -1.859  -2.307  -1.943  1.00  0.00     0.019 C 
HETATM    7  C9  UNL     1      -0.911  -2.797   0.321  1.00  0.00     0.016 C 
HETATM    8  C10 UNL     1       0.448  -2.257   0.159  1.00  0.00     0.035 C 
HETATM    9  C11 UNL     1       0.551  -0.857  -0.337  1.00  0.00     0.144 C 
HETATM   10  C18 UNL     1      -0.617   0.026   0.039  1.00  0.00     0.007 C 
HETATM   11  C19 UNL     1      -0.484   0.318   1.518  1.00  0.00     0.023 C 
HETATM   12  C20 UNL     1      -0.503   1.257  -0.798  1.00  0.00     0.017 C 
HETATM   13  C21 UNL     1      -1.393   2.391  -0.390  1.00  0.00     0.020 C 
HETATM   14  C22 UNL     1      -2.833   2.168  -0.873  1.00  0.00     0.091 C 
HETATM   15 BR1  UNL     1      -3.668   3.922  -0.928  1.00  0.00    -0.088 Br
ENDROOT
BRANCH   9  16
HETATM   16  O3  UNL     1       1.712  -0.255   0.209  1.00  0.00    -0.313 OA
BRANCH  16  17
HETATM   17  C12 UNL     1       2.790   0.184  -0.550  1.00  0.00     0.290 C 
HETATM   18  O4  UNL     1       2.694   0.020  -1.787  1.00  0.00    -0.263 OA
BRANCH  17  19
HETATM   19  C13 UNL     1       3.922   0.788   0.142  1.00  0.00     0.289 C 
BRANCH  19  20
HETATM   20  N1  UNL     1       3.708   0.825   1.574  1.00  0.00    -0.065 N 
ATOM     21  H13 UNL     1       2.833   1.294   1.809  1.00  0.00     0.275 HD
ATOM     22  H12 UNL     1       3.495  -0.101   1.944  1.00  0.00     0.275 HD
ATOM     23  H11 UNL     1       4.500   1.248   2.058  1.00  0.00     0.275 HD
ENDBRANCH  19  20
BRANCH  19  24
HETATM   24  C14 UNL     1       5.259   0.209  -0.212  1.00  0.00    -0.014 C 
HETATM   25  C15 UNL     1       5.400  -1.244   0.079  1.00  0.00     0.017 C 
HETATM   26  C16 UNL     1       5.646   0.474  -1.639  1.00  0.00     0.017 C 
HETATM   27  C17 UNL     1       6.293   0.939   0.658  1.00  0.00     0.017 C 
ENDBRANCH  19  24
ENDBRANCH  17  19
ENDBRANCH  16  17
ENDBRANCH   9  16
BRANCH   1  28
HETATM   28  O2  UNL     1      -4.944   1.427  -0.157  1.00  0.00    -0.311 OA
BRANCH  28  29
HETATM   29  C2  UNL     1      -5.813   1.942   0.801  1.00  0.00     0.255 C 
HETATM   30  C1  UNL     1      -7.270   2.105   0.561  1.00  0.00     0.126 C 
HETATM   31  O1  UNL     1      -5.296   2.275   1.910  1.00  0.00    -0.266 OA
ENDBRANCH  28  29
ENDBRANCH   1  28
TORSDOF 7
