REMARK  12 active torsions:
REMARK  status: ('A' for Active; 'I' for Inactive)
REMARK    1  A    between atoms: N1_1  and  N2_4 
REMARK    2  A    between atoms: N2_4  and  N3_5 
REMARK    3  A    between atoms: N3_5  and  C1_7 
REMARK    4  A    between atoms: C1_7  and  C2_8 
REMARK    5  A    between atoms: C3_10  and  O2_11 
REMARK    6  A    between atoms: O2_11  and  C4_12 
REMARK    7  A    between atoms: C5_15  and  C6_16 
REMARK    8  A    between atoms: C8_20  and  N4_21 
REMARK    9  A    between atoms: C9_25  and  N5_26 
REMARK       I    between atoms: N5_26  and  C10_28 
REMARK   10  A    between atoms: C10_28  and  C11_30 
REMARK   11  A    between atoms: C17_36  and  O8_37 
REMARK   12  A    between atoms: C18_39  and  O9_40 
ROOT
HETATM    1  C2  UNL     1      -1.594  -3.683  -0.354  1.00  0.00     0.176 C 
HETATM    2  O1  UNL     1      -1.860  -2.411   0.077  1.00  0.00    -0.349 OA
HETATM    3  C3  UNL     1      -0.950  -1.461  -0.414  1.00  0.00     0.289 C 
HETATM    4  C9  UNL     1       0.376  -1.767   0.230  1.00  0.00     0.171 C 
HETATM    5  C17 UNL     1       0.769  -3.171  -0.221  1.00  0.00     0.177 C 
HETATM    6  C18 UNL     1      -0.295  -4.113   0.294  1.00  0.00     0.179 C 
ENDROOT
BRANCH   3   7
HETATM    7  O2  UNL     1      -1.471  -0.224  -0.078  1.00  0.00    -0.324 OA
BRANCH   7   8
HETATM    8  C4  UNL     1      -1.740   0.577  -1.179  1.00  0.00     0.330 C 
HETATM    9  O3  UNL     1      -1.042   1.758  -1.181  1.00  0.00    -0.205 OA
HETATM   10  O4  UNL     1      -1.355   2.569  -0.218  1.00  0.00    -0.222 OA
HETATM   11  C5  UNL     1      -2.652   3.013  -0.246  1.00  0.00     0.263 C 
HETATM   12  C7  UNL     1      -3.307   2.403  -1.491  1.00  0.00     0.084 C 
HETATM   13  C8  UNL     1      -3.209   0.901  -1.315  1.00  0.00     0.244 C 
BRANCH  11  14
HETATM   14  C6  UNL     1      -2.775   4.484  -0.239  1.00  0.00     0.206 C 
HETATM   15  O5  UNL     1      -3.930   4.979  -0.263  1.00  0.00    -0.646 OA
HETATM   16  O6  UNL     1      -1.670   5.300  -0.208  1.00  0.00    -0.646 OA
ENDBRANCH  11  14
BRANCH  13  17
HETATM   17  N4  UNL     1      -3.876   0.531  -0.087  1.00  0.00    -0.070 N 
ATOM     18  H43 UNL     1      -3.712  -0.442   0.170  1.00  0.00     0.274 HD
ATOM     19  H42 UNL     1      -3.454   0.965   0.734  1.00  0.00     0.274 HD
ATOM     20  H41 UNL     1      -4.868   0.750  -0.179  1.00  0.00     0.274 HD
ENDBRANCH  13  17
ENDBRANCH   7   8
ENDBRANCH   3   7
BRANCH   4  21
HETATM   21  N5  UNL     1       1.410  -0.811  -0.060  1.00  0.00    -0.349 N 
HETATM   22  C10 UNL     1       2.059  -0.056   0.954  1.00  0.00     0.222 C 
HETATM   23  O7  UNL     1       1.700  -0.244   2.142  1.00  0.00    -0.273 OA
ATOM     24  H5  UNL     1       1.688  -0.669  -1.031  1.00  0.00     0.163 HD
BRANCH  22  25
HETATM   25  C11 UNL     1       3.111   0.909   0.611  1.00  0.00     0.078 C 
HETATM   26  C12 UNL     1       2.496   1.956  -0.318  1.00  0.00     0.014 C 
HETATM   27  C13 UNL     1       3.421   3.153  -0.347  1.00  0.00     0.001 C 
HETATM   28  C14 UNL     1       4.822   2.678  -0.098  1.00  0.00     0.000 C 
HETATM   29  C15 UNL     1       5.016   2.230   1.345  1.00  0.00     0.001 C 
HETATM   30  C16 UNL     1       3.726   1.576   1.796  1.00  0.00     0.014 C 
ENDBRANCH  22  25
ENDBRANCH   4  21
BRANCH   1  31
HETATM   31  C1  UNL     1      -2.738  -4.573   0.079  1.00  0.00     0.190 C 
BRANCH  31  32
HETATM   32  N3  UNL     1      -2.828  -4.532   1.514  1.00  0.00    -0.250 N 
ATOM     33  H3  UNL     1      -2.027  -4.226   2.067  1.00  0.00     0.197 HD
BRANCH  32  34
HETATM   34  N2  UNL     1      -3.867  -4.865   2.072  1.00  0.00    -0.248 NA
BRANCH  34  35
HETATM   35  N1  UNL     1      -4.827  -5.411   2.590  1.00  0.00    -0.261 N 
ATOM     36  H12 UNL     1      -4.413  -6.319   2.378  1.00  0.00     0.193 HD
ATOM     37  H11 UNL     1      -5.692  -5.688   3.054  1.00  0.00     0.193 HD
ENDBRANCH  34  35
ENDBRANCH  32  34
ENDBRANCH  31  32
ENDBRANCH   1  31
BRANCH   5  38
HETATM   38  O8  UNL     1       1.992  -3.554   0.282  1.00  0.00    -0.391 OA
ATOM     39  H8  UNL     1       2.237  -4.428   0.001  1.00  0.00     0.210 HD
ENDBRANCH   5  38
BRANCH   6  40
HETATM   40  O9  UNL     1       0.002  -5.441   0.038  1.00  0.00    -0.390 OA
ATOM     41  H9  UNL     1       0.817  -5.711   0.445  1.00  0.00     0.210 HD
ENDBRANCH   6  40
TORSDOF 12
