REMARK  12 active torsions:
REMARK  status: ('A' for Active; 'I' for Inactive)
REMARK    1  A    between atoms: N1_2  and  C2_4 
REMARK    2  A    between atoms: C2_4  and  C3_5 
REMARK    3  A    between atoms: C6_9  and  O2_10 
REMARK    4  A    between atoms: O2_10  and  C7_11 
REMARK    5  A    between atoms: C9_13  and  O3_14 
REMARK    6  A    between atoms: O3_14  and  C10_15 
REMARK    7  A    between atoms: C10_15  and  C11_16 
REMARK    8  A    between atoms: C15_22  and  O6_23 
REMARK    9  A    between atoms: C17_25  and  N2_26 
REMARK   10  A    between atoms: C19_31  and  N3_32 
REMARK   11  A    between atoms: C20_36  and  O7_37 
REMARK   12  A    between atoms: C21_39  and  O8_40 
ROOT
HETATM    1  C7  UNL     1      -0.053   0.711   0.464  1.00  0.00     0.157 C 
HETATM    2  C8  UNL     1      -1.326   0.356  -0.269  1.00  0.00     0.068 C 
HETATM    3  C9  UNL     1      -2.443  -0.039   0.668  1.00  0.00     0.156 C 
HETATM    4  C17 UNL     1      -1.914  -0.461   2.031  1.00  0.00     0.214 C 
HETATM    5  C18 UNL     1      -1.014   0.532   2.678  1.00  0.00     0.070 C 
HETATM    6  C19 UNL     1      -0.494   1.528   1.687  1.00  0.00     0.214 C 
ENDROOT
BRANCH   1   7
HETATM    7  O2  UNL     1       0.831   1.409  -0.317  1.00  0.00    -0.351 OA
BRANCH   7   8
HETATM    8  C6  UNL     1       2.030   0.663  -0.368  1.00  0.00     0.291 C 
HETATM    9  O1  UNL     1       3.020   1.486   0.107  1.00  0.00    -0.353 OA
HETATM   10  C4  UNL     1       4.281   0.840   0.197  1.00  0.00     0.132 C 
HETATM   11  C3  UNL     1       4.731   0.390  -1.142  1.00  0.00     0.084 C 
HETATM   12  C5  UNL     1       4.215  -0.252   1.239  1.00  0.00     0.040 C 
HETATM   13  C21 UNL     1       3.647  -0.438  -1.856  1.00  0.00     0.163 C 
HETATM   14  C20 UNL     1       2.332   0.301  -1.806  1.00  0.00     0.202 C 
BRANCH  11  15
HETATM   15  C2  UNL     1       6.034  -0.291  -1.222  1.00  0.00     0.065 C 
BRANCH  15  16
HETATM   16  N1  UNL     1       7.217   0.368  -0.859  1.00  0.00    -0.406 N 
HETATM   17  C1  UNL     1       7.526   0.683   0.478  1.00  0.00     0.145 C 
ATOM     18  H1  UNL     1       7.878   0.629  -1.591  1.00  0.00     0.158 HD
ENDBRANCH  15  16
ENDBRANCH  11  15
BRANCH  13  19
HETATM   19  O8  UNL     1       3.568  -1.707  -1.342  1.00  0.00    -0.392 OA
ATOM     20  H8  UNL     1       2.899  -2.218  -1.783  1.00  0.00     0.210 HD
ENDBRANCH  13  19
BRANCH  14  21
HETATM   21  O7  UNL     1       2.465   1.473  -2.547  1.00  0.00    -0.388 OA
ATOM     22  H7  UNL     1       2.655   1.246  -3.450  1.00  0.00     0.210 HD
ENDBRANCH  14  21
ENDBRANCH   7   8
ENDBRANCH   1   7
BRANCH   6  23
HETATM   23  N3  UNL     1       0.557   2.361   2.183  1.00  0.00    -0.072 N 
ATOM     24  H33 UNL     1       1.396   1.817   2.384  1.00  0.00     0.274 HD
ATOM     25  H32 UNL     1       0.928   2.964   1.449  1.00  0.00     0.274 HD
ATOM     26  H31 UNL     1       0.264   2.904   2.995  1.00  0.00     0.274 HD
ENDBRANCH   6  23
BRANCH   3  27
HETATM   27  O3  UNL     1      -3.077  -1.122   0.147  1.00  0.00    -0.359 OA
BRANCH  27  28
HETATM   28  C10 UNL     1      -4.423  -1.028  -0.114  1.00  0.00     0.174 C 
HETATM   29  C12 UNL     1      -5.229  -0.715   1.118  1.00  0.00     0.052 C 
HETATM   30  C13 UNL     1      -6.566  -0.320   0.561  1.00  0.00     0.006 C 
HETATM   31  C14 UNL     1      -6.323   0.151  -0.848  1.00  0.00     0.036 C 
HETATM   32  C15 UNL     1      -4.824   0.009  -1.085  1.00  0.00     0.166 C 
BRANCH  28  33
HETATM   33  C11 UNL     1      -4.866  -2.344  -0.638  1.00  0.00     0.212 C 
HETATM   34  O4  UNL     1      -6.039  -2.621  -0.988  1.00  0.00    -0.646 OA
HETATM   35  O5  UNL     1      -3.917  -3.367  -0.759  1.00  0.00    -0.646 OA
ENDBRANCH  28  33
BRANCH  32  36
HETATM   36  O6  UNL     1      -4.678  -0.396  -2.414  1.00  0.00    -0.387 OA
HETATM   37  C16 UNL     1      -4.094   0.609  -3.158  1.00  0.00     0.202 C 
ENDBRANCH  32  36
ENDBRANCH  27  28
ENDBRANCH   3  27
BRANCH   4  38
HETATM   38  N2  UNL     1      -1.374  -1.792   1.927  1.00  0.00    -0.072 N 
ATOM     39  H23 UNL     1      -2.048  -2.457   1.547  1.00  0.00     0.274 HD
ATOM     40  H22 UNL     1      -0.669  -1.870   1.194  1.00  0.00     0.274 HD
ATOM     41  H21 UNL     1      -1.019  -2.075   2.841  1.00  0.00     0.274 HD
ENDBRANCH   4  38
TORSDOF 12
