REMARK  1 active torsions:
REMARK  status: ('A' for Active; 'I' for Inactive)
REMARK    1  A    between atoms: N4_43  and  C35_44 
ROOT
HETATM    1  N1  UNL     1      -5.503  -5.140   1.992  1.00  0.00    -0.365 N 
ATOM      2  H11 UNL     1      -6.432  -4.902   1.645  1.00  0.00     0.159 HD
ATOM      3  H12 UNL     1      -5.595  -5.941   2.617  1.00  0.00     0.159 HD
HETATM    4  C1  UNL     1      -4.434  -4.500   1.661  1.00  0.00     0.214 C 
HETATM    5  N2  UNL     1      -3.139  -4.831   2.144  1.00  0.00    -0.353 N 
ATOM      6  H2  UNL     1      -2.907  -5.654   2.700  1.00  0.00     0.163 HD
HETATM    7  C2  UNL     1      -2.205  -3.815   1.721  1.00  0.00     0.172 C 
HETATM    8  C3  UNL     1      -3.157  -2.702   1.334  1.00  0.00     0.148 A 
HETATM    9  C4  UNL     1      -3.657  -2.190   2.660  1.00  0.00     0.109 A 
HETATM   10  N3  UNL     1      -3.636  -0.964   2.967  1.00  0.00    -0.333 N 
ATOM     11  H3  UNL     1      -3.994  -0.739   3.895  1.00  0.00     0.168 HD
HETATM   12  C5  UNL     1      -3.193   0.123   2.216  1.00  0.00     0.255 A 
HETATM   13  O1  UNL     1      -3.159   1.302   2.498  1.00  0.00    -0.268 OA
HETATM   14  C6  UNL     1      -2.708  -0.147   0.953  1.00  0.00     0.066 A 
HETATM   15  C7  UNL     1      -2.760  -1.614   0.676  1.00  0.00     0.030 A 
HETATM   16  C8  UNL     1      -2.422  -1.572  -0.754  1.00  0.00     0.137 A 
HETATM   17  C9  UNL     1      -2.350  -2.331  -1.759  1.00  0.00     0.093 A 
HETATM   18  C10 UNL     1      -2.049  -1.432  -3.005  1.00  0.00    -0.023 A 
HETATM   19  C11 UNL     1      -1.974  -0.076  -2.829  1.00  0.00     0.007 A 
HETATM   20  C12 UNL     1      -2.134   0.700  -1.494  1.00  0.00     0.274 A 
HETATM   21  C13 UNL     1      -2.382   0.938  -0.107  1.00  0.00     0.235 A 
HETATM   22  C14 UNL     1      -2.183   2.245   0.491  1.00  0.00     0.008 C 
HETATM   23  C15 UNL     1      -3.084   3.298   0.557  1.00  0.00    -0.026 A 
HETATM   24  C16 UNL     1      -3.332   4.212   1.550  1.00  0.00     0.012 A 
HETATM   25  C17 UNL     1      -4.266   5.192   1.513  1.00  0.00     0.001 A 
HETATM   26  C18 UNL     1      -5.066   5.332   0.414  1.00  0.00     0.000 A 
HETATM   27  C19 UNL     1      -4.894   4.468  -0.620  1.00  0.00     0.001 A 
HETATM   28  C20 UNL     1      -3.955   3.500  -0.560  1.00  0.00     0.012 A 
HETATM   29  C21 UNL     1      -0.626   2.316   0.567  1.00  0.00    -0.013 C 
HETATM   30  C22 UNL     1       0.060   1.177   0.298  1.00  0.00     0.023 C 
HETATM   31  C23 UNL     1      -0.545  -0.118  -0.058  1.00  0.00     0.157 C 
HETATM   32  C24 UNL     1      -0.256  -1.359  -0.017  1.00  0.00     0.039 C 
HETATM   33  C25 UNL     1       1.022  -1.916   0.529  1.00  0.00     0.005 C 
HETATM   34  C26 UNL     1       2.118  -1.225   0.667  1.00  0.00     0.030 C 
HETATM   35  C27 UNL     1       2.438   0.183   0.363  1.00  0.00     0.047 A 
HETATM   36  C28 UNL     1       1.609   1.220   0.209  1.00  0.00     0.015 A 
HETATM   37  C29 UNL     1       2.322   2.447  -0.177  1.00  0.00    -0.021 A 
HETATM   38  C30 UNL     1       2.001   3.759  -0.086  1.00  0.00     0.012 C 
HETATM   39  C31 UNL     1       0.811   4.331   0.466  1.00  0.00     0.002 C 
HETATM   40  C32 UNL     1      -0.313   3.666   0.739  1.00  0.00     0.013 C 
HETATM   41  C33 UNL     1       3.784   2.496  -0.391  1.00  0.00     0.029 A 
HETATM   42  C34 UNL     1       4.478   1.419  -0.220  1.00  0.00     0.093 A 
HETATM   43  N4  UNL     1       3.852   0.219   0.166  1.00  0.00    -0.342 N 
HETATM   44  N5  UNL     1      -2.291  -0.388  -0.926  1.00  0.00     0.022 N 
HETATM   45  O3  UNL     1      -4.309  -3.413   0.813  1.00  0.00    -0.299 OA
ENDROOT
BRANCH  43  46
HETATM   46  C35 UNL     1       4.755  -0.899   0.271  1.00  0.00     0.172 A 
HETATM   47  C36 UNL     1       6.092  -0.345   0.659  1.00  0.00     0.087 A 
HETATM   48  S1  UNL     1       6.330   0.517   2.019  1.00  0.00    -0.078 SA
HETATM   49  C37 UNL     1       7.074  -0.681  -0.308  1.00  0.00     0.202 A 
HETATM   50  O2  UNL     1       8.324  -0.425  -0.334  1.00  0.00    -0.286 OA
HETATM   51  C38 UNL     1       6.387  -1.426  -1.360  1.00  0.00     0.024 A 
HETATM   52  C39 UNL     1       6.887  -1.974  -2.550  1.00  0.00     0.016 A 
HETATM   53  C43 UNL     1       5.060  -1.530  -1.032  1.00  0.00    -0.015 A 
HETATM   54  C40 UNL     1       6.085  -2.635  -3.442  1.00  0.00     0.001 A 
HETATM   55  C41 UNL     1       4.755  -2.748  -3.130  1.00  0.00     0.001 A 
HETATM   56  C42 UNL     1       4.261  -2.197  -1.936  1.00  0.00     0.010 A 
ENDBRANCH  43  46
TORSDOF 1
