REMARK  9 active torsions:
REMARK  status: ('A' for Active; 'I' for Inactive)
REMARK    1  A    between atoms: C2_2  and  O1_5 
REMARK    2  A    between atoms: O1_5  and  C5_6 
REMARK       I    between atoms: C5_6  and  N1_8 
REMARK    3  A    between atoms: N1_8  and  C6_10 
REMARK    4  A    between atoms: N4_18  and  C10_19 
REMARK    5  A    between atoms: C10_19  and  C13_22 
REMARK    6  A    between atoms: C13_22  and  C14_23 
REMARK    7  A    between atoms: C15_24  and  C16_25 
REMARK       I    between atoms: N6_49  and  C37_50 
REMARK    8  A    between atoms: C37_50  and  O5_52 
REMARK    9  A    between atoms: O5_52  and  C38_53 
ROOT
HETATM    1  C6  UNL     1      -4.559  -0.312  -0.209  1.00  0.00     0.702 A 
HETATM    2  N2  UNL     1      -3.807   0.367   0.686  1.00  0.00    -0.173 N 
ATOM      3  H2  UNL     1      -4.137   1.266   1.037  1.00  0.00     0.186 HD
HETATM    4  C7  UNL     1      -2.630  -0.121   1.123  1.00  0.00     0.157 A 
HETATM    5  C8  UNL     1      -2.212  -1.328   0.636  1.00  0.00     0.148 A 
HETATM    6  N3  UNL     1      -1.035  -1.666   1.175  1.00  0.00    -0.345 N 
ATOM      7  H3  UNL     1      -0.496  -2.512   0.991  1.00  0.00     0.167 HD
HETATM    8  C9  UNL     1      -0.706  -0.658   2.014  1.00  0.00     0.186 A 
HETATM    9  N4  UNL     1      -1.667   0.282   1.987  1.00  0.00    -0.317 N 
HETATM   10  C36 UNL     1      -2.983  -2.039  -0.290  1.00  0.00     0.302 A 
HETATM   11  O3  UNL     1      -2.620  -3.145  -0.750  1.00  0.00    -0.264 OA
HETATM   12  N6  UNL     1      -4.136  -1.503  -0.683  1.00  0.00    -0.050 N 
HETATM   13  C37 UNL     1      -4.953  -2.183  -1.619  1.00  0.00     0.389 C 
HETATM   14  O4  UNL     1      -6.055  -1.708  -2.015  1.00  0.00    -0.237 OA
ENDROOT
BRANCH   9  15
HETATM   15  C10 UNL     1      -1.736   1.536   2.725  1.00  0.00     0.042 C 
HETATM   16  C11 UNL     1      -2.036   2.692   1.780  1.00  0.00     0.039 C 
HETATM   17  C12 UNL     1      -2.780   1.466   3.816  1.00  0.00     0.039 C 
BRANCH  15  18
HETATM   18  C13 UNL     1      -0.404   1.799   3.353  1.00  0.00     0.125 C 
BRANCH  18  19
HETATM   19  C14 UNL     1       0.605   1.916   2.301  1.00  0.00    -0.099 C 
HETATM   20  C15 UNL     1       1.455   2.012   1.449  1.00  0.00    -0.067 C 
BRANCH  20  21
HETATM   21  C16 UNL     1       2.494   2.121   0.445  1.00  0.00     0.018 A 
HETATM   22  C17 UNL     1       2.337   2.850  -0.715  1.00  0.00     0.023 A 
HETATM   23  C18 UNL     1       3.335   2.948  -1.667  1.00  0.00     0.032 A 
HETATM   24  C19 UNL     1       4.541   2.311  -1.490  1.00  0.00     0.043 A 
HETATM   25  N5  UNL     1       5.681   2.228  -2.236  1.00  0.00    -0.355 N 
HETATM   26  C26 UNL     1       4.719   1.576  -0.337  1.00  0.00     0.004 A 
HETATM   27  C20 UNL     1       6.593   1.473  -1.621  1.00  0.00     0.044 A 
ATOM     28  H5  UNL     1       5.817   2.681  -3.140  1.00  0.00     0.166 HD
HETATM   29  C21 UNL     1       7.889   1.049  -1.890  1.00  0.00     0.038 A 
HETATM   30  C25 UNL     1       5.999   1.062  -0.434  1.00  0.00     0.004 A 
HETATM   31  C22 UNL     1       8.526   0.243  -0.972  1.00  0.00    -0.045 A 
HETATM   32  C23 UNL     1       7.953  -0.172   0.205  1.00  0.00    -0.046 A 
HETATM   33  C35 UNL     1       9.906  -0.197  -1.266  1.00  0.00     0.078 C 
HETATM   34  C24 UNL     1       6.667   0.258   0.456  1.00  0.00     0.022 A 
HETATM   35  C28 UNL     1       8.644  -1.049   1.194  1.00  0.00     0.078 C 
HETATM   36  C29 UNL     1       9.448  -1.994   0.376  1.00  0.00    -0.047 A 
HETATM   37  C30 UNL     1       9.609  -3.302   0.776  1.00  0.00     0.008 A 
HETATM   38  C34 UNL     1      10.041  -1.586  -0.793  1.00  0.00    -0.047 A 
HETATM   39  C31 UNL     1      10.357  -4.205   0.019  1.00  0.00     0.001 A 
HETATM   40  C32 UNL     1      10.951  -3.798  -1.152  1.00  0.00     0.001 A 
HETATM   41  C33 UNL     1      10.778  -2.478  -1.538  1.00  0.00     0.008 A 
HETATM   42  C27 UNL     1       3.715   1.485   0.608  1.00  0.00     0.035 A 
ENDBRANCH  20  21
ENDBRANCH  18  19
ENDBRANCH  15  18
ENDBRANCH   9  15
BRANCH   1  43
HETATM   43  N1  UNL     1      -5.671   0.205  -0.578  1.00  0.00    -0.134 N 
HETATM   44  C5  UNL     1      -6.141   1.443  -0.095  1.00  0.00     0.379 C 
HETATM   45  O2  UNL     1      -6.198   2.420  -0.899  1.00  0.00    -0.238 OA
ATOM     46  H1  UNL     1      -6.243  -0.303  -1.253  1.00  0.00     0.189 HD
BRANCH  44  47
HETATM   47  O1  UNL     1      -6.547   1.649   1.210  1.00  0.00    -0.293 OA
BRANCH  47  48
HETATM   48  C2  UNL     1      -7.009   2.916   1.607  1.00  0.00     0.061 C 
HETATM   49  C1  UNL     1      -7.366   2.796   3.085  1.00  0.00     0.046 C 
HETATM   50  C3  UNL     1      -5.951   3.947   1.405  1.00  0.00     0.046 C 
HETATM   51  C4  UNL     1      -8.287   3.320   0.902  1.00  0.00     0.046 C 
ENDBRANCH  47  48
ENDBRANCH  44  47
ENDBRANCH   1  43
BRANCH  13  52
HETATM   52  O5  UNL     1      -4.571  -3.399  -2.136  1.00  0.00    -0.293 OA
BRANCH  52  53
HETATM   53  C38 UNL     1      -5.388  -4.068  -3.065  1.00  0.00     0.061 C 
HETATM   54  C39 UNL     1      -6.750  -4.387  -2.513  1.00  0.00     0.046 C 
HETATM   55  C40 UNL     1      -5.545  -3.290  -4.348  1.00  0.00     0.046 C 
HETATM   56  C41 UNL     1      -4.705  -5.387  -3.399  1.00  0.00     0.046 C 
ENDBRANCH  52  53
ENDBRANCH  13  52
TORSDOF 9
