REMARK  2 active torsions:
REMARK  status: ('A' for Active; 'I' for Inactive)
REMARK    1  A    between atoms: N2_5  and  C4_6 
REMARK    2  A    between atoms: C15_19  and  C16_20 
ROOT
HETATM    1  C4  UNL     1       2.719  -0.201  -0.227  1.00  0.00     0.039 C 
HETATM    2  C5  UNL     1       1.583  -1.022  -0.644  1.00  0.00     0.138 C 
HETATM    3  C6  UNL     1       0.475  -1.120   0.293  1.00  0.00     0.117 A 
HETATM    4  N3  UNL     1       0.565  -1.817   1.445  1.00  0.00    -0.243 N 
HETATM    5  N4  UNL     1       1.716  -1.869   2.238  1.00  0.00    -0.278 N 
HETATM    6  C7  UNL     1       1.604  -2.390   3.462  1.00  0.00     0.055 A 
HETATM    7  C8  UNL     1       2.582  -2.559   4.472  1.00  0.00     0.031 A 
HETATM    8  C9  UNL     1       2.034  -3.145   5.638  1.00  0.00    -0.001 A 
HETATM    9  C10 UNL     1       0.684  -3.513   5.776  1.00  0.00    -0.016 A 
HETATM   10  C11 UNL     1      -0.297  -3.319   4.704  1.00  0.00     0.054 A 
HETATM   11  C12 UNL     1      -0.766  -2.877   3.367  1.00  0.00     0.081 A 
HETATM   12  C13 UNL     1      -0.667  -2.302   2.039  1.00  0.00     0.047 A 
HETATM   13  C14 UNL     1      -1.864  -2.046   1.474  1.00  0.00     0.059 A 
HETATM   14  C15 UNL     1      -1.971  -1.276   0.279  1.00  0.00     0.056 A 
HETATM   15  N6  UNL     1      -0.804  -0.892  -0.180  1.00  0.00    -0.292 N 
HETATM   16  C25 UNL     1      -0.877   0.136  -1.120  1.00  0.00     0.126 A 
HETATM   17  C26 UNL     1      -1.236  -0.027  -2.414  1.00  0.00     0.276 A 
HETATM   18  O1  UNL     1      -1.740  -1.077  -2.882  1.00  0.00    -0.266 OA
HETATM   19  N7  UNL     1      -0.946   1.118  -3.049  1.00  0.00    -0.288 N 
ATOM     20  H7  UNL     1      -1.106   1.291  -4.041  1.00  0.00     0.172 HD
HETATM   21  C27 UNL     1      -0.411   2.009  -2.185  1.00  0.00     0.262 A 
HETATM   22  O2  UNL     1      -0.022   3.186  -2.529  1.00  0.00    -0.267 OA
HETATM   23  C28 UNL     1      -0.351   1.419  -0.882  1.00  0.00     0.078 A 
HETATM   24  C29 UNL     1       0.022   2.080   0.312  1.00  0.00     0.020 A 
HETATM   25  C30 UNL     1       1.012   1.892   1.233  1.00  0.00     0.044 A 
HETATM   26  C31 UNL     1       1.224   2.954   2.175  1.00  0.00     0.031 A 
HETATM   27  C32 UNL     1       0.540   4.115   2.256  1.00  0.00     0.014 A 
HETATM   28  C33 UNL     1      -0.460   4.271   1.336  1.00  0.00    -0.025 A 
HETATM   29  C34 UNL     1      -1.234   5.422   1.481  1.00  0.00     0.012 A 
HETATM   30  C35 UNL     1      -2.326   5.637   0.678  1.00  0.00     0.001 A 
HETATM   31  C36 UNL     1      -2.643   4.695  -0.270  1.00  0.00     0.001 A 
HETATM   32  C37 UNL     1      -1.843   3.580  -0.371  1.00  0.00     0.013 A 
HETATM   33  C38 UNL     1      -0.727   3.313   0.401  1.00  0.00    -0.012 A 
HETATM   34  N8  UNL     1       1.788   0.831   1.620  1.00  0.00    -0.356 N 
ATOM     35  H8  UNL     1       1.718   0.711   2.631  1.00  0.00     0.166 HD
HETATM   36  C39 UNL     1       2.586  -0.077   1.130  1.00  0.00     0.052 C 
HETATM   37  C40 UNL     1       2.982  -1.124   2.164  1.00  0.00     0.208 C 
HETATM   38  C41 UNL     1       0.473  -2.784   3.795  1.00  0.00    -0.032 A 
ENDROOT
BRANCH  14  39
HETATM   39  C16 UNL     1      -3.284  -1.111  -0.229  1.00  0.00     0.019 A 
HETATM   40  C17 UNL     1      -3.907  -0.007  -0.705  1.00  0.00     0.105 A 
HETATM   41  N5  UNL     1      -5.138  -0.293  -1.159  1.00  0.00    -0.360 N 
HETATM   42  C18 UNL     1      -6.130   0.603  -1.749  1.00  0.00     0.156 C 
HETATM   43  C19 UNL     1      -5.363  -1.596  -0.996  1.00  0.00     0.045 A 
HETATM   44  C20 UNL     1      -6.442  -2.432  -1.288  1.00  0.00     0.030 A 
HETATM   45  C24 UNL     1      -4.257  -2.126  -0.432  1.00  0.00     0.005 A 
HETATM   46  C21 UNL     1      -6.434  -3.785  -1.030  1.00  0.00     0.002 A 
HETATM   47  C22 UNL     1      -5.281  -4.277  -0.456  1.00  0.00     0.001 A 
HETATM   48  C23 UNL     1      -4.186  -3.489  -0.147  1.00  0.00     0.014 A 
ENDBRANCH  14  39
BRANCH   1  49
HETATM   49  N2  UNL     1       3.606   0.193  -1.198  1.00  0.00    -0.379 N 
HETATM   50  C3  UNL     1       4.929  -0.490  -1.230  1.00  0.00     0.153 C 
HETATM   51  C2  UNL     1       5.171  -1.066  -2.601  1.00  0.00     0.291 C 
HETATM   52  N1  UNL     1       5.055  -0.055  -3.607  1.00  0.00     0.087 N 
HETATM   53  C1  UNL     1       6.145   0.869  -3.545  1.00  0.00     0.310 C 
HETATM   54  C43 UNL     1       3.745   0.556  -3.571  1.00  0.00     0.291 C 
HETATM   55  C42 UNL     1       3.491   1.199  -2.223  1.00  0.00     0.153 C 
ENDBRANCH   1  49
TORSDOF 2
