REMARK  10 active torsions:
REMARK  status: ('A' for Active; 'I' for Inactive)
REMARK    1  A    between atoms: C2_2  and  C5_5 
REMARK    2  A    between atoms: C5_5  and  C6_7 
REMARK    3  A    between atoms: C9_10  and  N1_11 
REMARK    4  A    between atoms: C10_14  and  C11_15 
REMARK    5  A    between atoms: C15_20  and  N3_21 
REMARK    6  A    between atoms: N3_21  and  C16_23 
REMARK    7  A    between atoms: C16_23  and  O2_24 
REMARK    8  A    between atoms: C16_23  and  N4_26 
REMARK    9  A    between atoms: C21_31  and  C22_32 
REMARK   10  A    between atoms: C23_33  and  C24_34 
ROOT
HETATM    1  N4  UNL     1       2.275  -0.681   0.144  1.00  0.00    -0.272 N 
HETATM    2  C17 UNL     1       2.256  -0.990   1.462  1.00  0.00     0.059 A 
HETATM    3  C18 UNL     1       1.069  -1.057   2.142  1.00  0.00     0.031 A 
HETATM    4  C19 UNL     1       0.953  -1.402   3.497  1.00  0.00     0.004 A 
HETATM    5  C20 UNL     1       2.080  -1.692   4.189  1.00  0.00     0.022 A 
HETATM    6  C21 UNL     1       3.315  -1.645   3.551  1.00  0.00     0.034 A 
HETATM    7  C25 UNL     1       3.393  -1.303   2.221  1.00  0.00     0.062 A 
HETATM    8  C26 UNL     1       4.614  -1.312   1.628  1.00  0.00     0.214 A 
HETATM    9  O5  UNL     1       5.712  -1.571   2.172  1.00  0.00    -0.285 OA
HETATM   10  C27 UNL     1       4.642  -0.998   0.271  1.00  0.00     0.114 A 
HETATM   11  N5  UNL     1       5.699  -0.917  -0.563  1.00  0.00    -0.349 N 
ATOM     12  H5  UNL     1       6.667  -1.095  -0.295  1.00  0.00     0.166 HD
HETATM   13  C28 UNL     1       5.303  -0.573  -1.781  1.00  0.00     0.063 A 
HETATM   14  C29 UNL     1       5.959  -0.343  -2.981  1.00  0.00     0.045 A 
HETATM   15  C30 UNL     1       5.315   0.030  -4.142  1.00  0.00    -0.007 A 
HETATM   16  C31 UNL     1       5.955   0.260  -5.338  1.00  0.00     0.014 A 
HETATM   17  C32 UNL     1       5.295   0.632  -6.484  1.00  0.00     0.001 A 
HETATM   18  C33 UNL     1       3.906   0.784  -6.429  1.00  0.00     0.002 A 
HETATM   19  C34 UNL     1       3.267   0.549  -5.220  1.00  0.00     0.030 A 
HETATM   20  C35 UNL     1       3.941   0.175  -4.073  1.00  0.00     0.043 A 
HETATM   21  N6  UNL     1       3.325  -0.050  -2.914  1.00  0.00    -0.352 N 
ATOM     22  H6  UNL     1       2.312   0.066  -2.900  1.00  0.00     0.166 HD
HETATM   23  C36 UNL     1       3.910  -0.415  -1.762  1.00  0.00     0.089 A 
HETATM   24  C37 UNL     1       3.518  -0.691  -0.454  1.00  0.00     0.103 A 
ENDROOT
BRANCH   1  25
HETATM   25  C16 UNL     1       1.156  -0.244  -0.535  1.00  0.00     0.231 C 
BRANCH  25  26
HETATM   26  N3  UNL     1      -0.069   0.272  -0.256  1.00  0.00    -0.300 N 
ATOM     27  H3  UNL     1      -0.810  -0.417  -0.383  1.00  0.00     0.171 HD
BRANCH  26  28
HETATM   28  C15 UNL     1      -0.528   1.402   0.125  1.00  0.00     0.175 A 
HETATM   29  N1  UNL     1      -1.860   1.668   0.329  1.00  0.00    -0.233 N 
HETATM   30  N2  UNL     1      -2.173   2.806   0.744  1.00  0.00    -0.288 N 
HETATM   31  C10 UNL     1      -1.270   3.740   0.983  1.00  0.00     0.078 A 
ATOM     32  H2  UNL     1      -3.158   3.020   0.903  1.00  0.00     0.188 HD
HETATM   33  S1  UNL     1       0.154   2.905   0.573  1.00  0.00    -0.036 SA
BRANCH  29  34
HETATM   34  C9  UNL     1      -2.843   0.657  -0.022  1.00  0.00     0.059 A 
HETATM   35  C8  UNL     1      -3.342  -0.277   0.818  1.00  0.00     0.032 A 
HETATM   36  C7  UNL     1      -4.285  -1.194   0.337  1.00  0.00     0.017 A 
HETATM   37  C6  UNL     1      -4.726  -1.182  -0.964  1.00  0.00     0.011 A 
HETATM   38  C39 UNL     1      -4.201  -0.219  -1.800  1.00  0.00     0.017 A 
HETATM   39  C38 UNL     1      -3.274   0.693  -1.351  1.00  0.00     0.032 A 
BRANCH  37  40
HETATM   40  C5  UNL     1      -5.694  -2.130  -1.482  1.00  0.00     0.167 C 
HETATM   41  O1  UNL     1      -6.020  -2.034  -2.719  1.00  0.00    -0.292 OA
BRANCH  40  42
HETATM   42  C2  UNL     1      -6.341  -3.199  -0.703  1.00  0.00     0.014 C 
HETATM   43  C1  UNL     1      -7.261  -4.027  -1.598  1.00  0.00     0.023 C 
HETATM   44  C3  UNL     1      -5.276  -4.161  -0.201  1.00  0.00     0.023 C 
HETATM   45  C4  UNL     1      -7.214  -2.666   0.405  1.00  0.00     0.023 C 
ENDBRANCH  40  42
ENDBRANCH  37  40
ENDBRANCH  29  34
BRANCH  31  46
HETATM   46  C11 UNL     1      -1.502   5.135   1.470  1.00  0.00    -0.001 C 
HETATM   47  C12 UNL     1      -0.564   5.466   2.578  1.00  0.00     0.021 C 
HETATM   48  C13 UNL     1      -1.326   6.133   0.327  1.00  0.00     0.021 C 
HETATM   49  C14 UNL     1      -2.933   5.223   1.966  1.00  0.00     0.021 C 
ENDBRANCH  31  46
ENDBRANCH  26  28
ENDBRANCH  25  26
BRANCH  25  50
HETATM   50  O2  UNL     1       1.302  -0.333  -1.865  1.00  0.00    -0.332 OA
ATOM     51  H2  UNL     1       2.159  -0.694  -2.060  1.00  0.00     0.221 HD
ENDBRANCH  25  50
ENDBRANCH   1  25
BRANCH   6  52
HETATM   52  C22 UNL     1       4.511  -1.967   4.294  1.00  0.00    -0.054 C 
HETATM   53  C23 UNL     1       5.509  -2.249   4.961  1.00  0.00     0.010 C 
BRANCH  53  54
HETATM   54  C24 UNL     1       6.680  -2.588   5.716  1.00  0.00     0.258 C 
HETATM   55  O3  UNL     1       6.629  -3.144   6.860  1.00  0.00    -0.637 OA
HETATM   56  O4  UNL     1       7.925  -2.297   5.177  1.00  0.00    -0.637 OA
ENDBRANCH  53  54
ENDBRANCH   6  52
TORSDOF 10
