REMARK  14 active torsions:
REMARK  status: ('A' for Active; 'I' for Inactive)
REMARK    1  A    between atoms: C2_2  and  O1_3 
REMARK    2  A    between atoms: O1_3  and  C3_4 
REMARK       I    between atoms: C3_4  and  N1_6 
REMARK    3  A    between atoms: N2_9  and  C6_10 
REMARK    4  A    between atoms: C6_10  and  O3_11 
REMARK    5  A    between atoms: C7_13  and  N3_14 
REMARK    6  A    between atoms: C7_13  and  C25_40 
REMARK       I    between atoms: N3_14  and  C8_16 
REMARK    7  A    between atoms: C8_16  and  C9_18 
REMARK    8  A    between atoms: C9_18  and  C10_19 
REMARK    9  A    between atoms: C9_18  and  N4_25 
REMARK   10  A    between atoms: C10_19  and  C11_20 
REMARK   11  A    between atoms: C11_20  and  S1_21 
REMARK   12  A    between atoms: S1_21  and  C12_22 
REMARK       I    between atoms: N4_25  and  C15_27 
REMARK   13  A    between atoms: C15_27  and  C16_29 
REMARK   14  A    between atoms: C25_40  and  C27_42 
ROOT
HETATM    1  N3  UNL     1       0.848   0.463   0.592  1.00  0.00    -0.322 N 
ATOM      2  H3  UNL     1       0.792   1.363   1.068  1.00  0.00     0.169 HD
HETATM    3  C8  UNL     1      -0.272   0.031  -0.103  1.00  0.00     0.245 C 
HETATM    4  O4  UNL     1      -0.210  -1.108  -0.698  1.00  0.00    -0.271 OA
ENDROOT
BRANCH   3   5
HETATM    5  C9  UNL     1      -1.548   0.762  -0.225  1.00  0.00     0.177 C 
BRANCH   5   6
HETATM    6  C10 UNL     1      -1.745   1.606   1.006  1.00  0.00     0.045 C 
BRANCH   6   7
HETATM    7  C11 UNL     1      -3.031   2.408   0.985  1.00  0.00     0.076 C 
BRANCH   7   8
HETATM    8  S1  UNL     1      -3.129   3.363   2.515  1.00  0.00    -0.165 SA
BRANCH   8   9
HETATM    9  C12 UNL     1      -1.818   4.613   2.534  1.00  0.00     0.039 C 
HETATM   10  C13 UNL     1      -1.864   5.437   3.802  1.00  0.00     0.021 C 
HETATM   11  C14 UNL     1      -1.991   5.546   1.356  1.00  0.00     0.021 C 
ENDBRANCH   8   9
ENDBRANCH   7   8
ENDBRANCH   6   7
ENDBRANCH   5   6
BRANCH   5  12
HETATM   12  N4  UNL     1      -2.675  -0.105  -0.405  1.00  0.00    -0.346 N 
HETATM   13  C15 UNL     1      -3.578  -0.074  -1.478  1.00  0.00     0.254 C 
HETATM   14  O5  UNL     1      -3.466   0.754  -2.408  1.00  0.00    -0.271 OA
ATOM     15  H4  UNL     1      -2.835  -0.810   0.314  1.00  0.00     0.163 HD
BRANCH  13  16
HETATM   16  C16 UNL     1      -4.710  -1.037  -1.542  1.00  0.00     0.346 C 
HETATM   17  C17 UNL     1      -5.488  -1.082  -0.252  1.00  0.00     0.265 C 
HETATM   18  C18 UNL     1      -5.548  -2.456   0.333  1.00  0.00     0.038 C 
HETATM   19  N6  UNL     1      -6.800  -0.484  -0.371  1.00  0.00     0.098 N 
HETATM   20  C19 UNL     1      -6.705  -3.287  -0.060  1.00  0.00     0.004 C 
HETATM   21  C20 UNL     1      -7.905  -2.565  -0.573  1.00  0.00     0.038 C 
HETATM   22  C21 UNL     1      -7.539  -1.280  -1.330  1.00  0.00     0.251 C 
HETATM   23  C22 UNL     1      -6.714  -1.702  -2.519  1.00  0.00     0.308 C 
HETATM   24  N5  UNL     1      -5.529  -0.848  -2.710  1.00  0.00     0.102 N 
HETATM   25  C23 UNL     1      -4.828  -1.378  -3.867  1.00  0.00     0.311 C 
HETATM   26  C24 UNL     1      -6.772   0.908  -0.686  1.00  0.00     0.311 C 
ENDBRANCH  13  16
ENDBRANCH   5  12
ENDBRANCH   3   5
BRANCH   1  27
HETATM   27  C7  UNL     1       2.122  -0.292   0.692  1.00  0.00     0.088 C 
HETATM   28  C6  UNL     1       3.235   0.454   0.180  1.00  0.00     0.166 C 
BRANCH  28  29
HETATM   29  N2  UNL     1       4.617   0.341   0.121  1.00  0.00    -0.357 N 
HETATM   30  C5  UNL     1       5.396   1.428  -0.608  1.00  0.00     0.145 C 
HETATM   31  C4  UNL     1       6.161   0.776  -1.730  1.00  0.00     0.148 C 
HETATM   32  N1  UNL     1       6.801  -0.469  -1.352  1.00  0.00    -0.325 N 
HETATM   33  C3  UNL     1       8.129  -0.787  -1.709  1.00  0.00     0.362 C 
HETATM   34  C30 UNL     1       6.045  -1.422  -0.565  1.00  0.00     0.148 C 
HETATM   35  O2  UNL     1       8.628  -1.873  -1.368  1.00  0.00    -0.238 OA
HETATM   36  C29 UNL     1       5.516  -0.642   0.653  1.00  0.00     0.145 C 
BRANCH  33  37
HETATM   37  O1  UNL     1       8.874   0.113  -2.440  1.00  0.00    -0.304 OA
BRANCH  37  38
HETATM   38  C2  UNL     1      10.224  -0.198  -2.808  1.00  0.00     0.176 C 
HETATM   39  C1  UNL     1      11.087  -0.437  -1.608  1.00  0.00     0.034 C 
ENDBRANCH  37  38
ENDBRANCH  33  37
ENDBRANCH  28  29
BRANCH  28  40
HETATM   40  O3  UNL     1       2.826   1.590  -0.411  1.00  0.00    -0.344 OA
ATOM     41  H3  UNL     1       1.880   1.667  -0.371  1.00  0.00     0.219 HD
ENDBRANCH  28  40
BRANCH  27  42
HETATM   42  C25 UNL     1       2.180  -1.130   1.898  1.00  0.00    -0.053 C 
HETATM   43  C26 UNL     1       2.626  -0.504   3.172  1.00  0.00     0.046 C 
BRANCH  42  44
HETATM   44  C27 UNL     1       2.468  -2.586   1.697  1.00  0.00     0.031 C 
HETATM   45  C28 UNL     1       2.502  -3.294   3.048  1.00  0.00     0.010 C 
ENDBRANCH  42  44
ENDBRANCH  27  42
ENDBRANCH   1  27
TORSDOF 14
