REMARK  13 active torsions:
REMARK  status: ('A' for Active; 'I' for Inactive)
REMARK    1  A    between atoms: C2_2  and  C3_3 
REMARK    2  A    between atoms: C3_3  and  C4_4 
REMARK    3  A    between atoms: C4_4  and  C5_5 
REMARK    4  A    between atoms: C7_10  and  C8_11 
REMARK    5  A    between atoms: C8_11  and  C9_12 
REMARK    6  A    between atoms: C11_14  and  O2_15 
REMARK    7  A    between atoms: C12_18  and  C13_19 
REMARK    8  A    between atoms: C13_19  and  C14_20 
REMARK    9  A    between atoms: C19_27  and  C20_28 
REMARK   10  A    between atoms: C20_28  and  C21_29 
REMARK   11  A    between atoms: C25_36  and  C26_37 
REMARK   12  A    between atoms: C26_37  and  C27_38 
REMARK   13  A    between atoms: C27_38  and  S1_39 
ROOT
HETATM    1  C5  UNL     1      -2.274   0.954  -0.053  1.00  0.00     0.178 C 
HETATM    2  C6  UNL     1      -2.466   1.774   1.170  1.00  0.00     0.241 C 
HETATM    3  O1  UNL     1      -3.227   1.246   2.069  1.00  0.00    -0.271 OA
HETATM    4  N1  UNL     1      -1.947   3.010   1.470  1.00  0.00    -0.350 N 
ATOM      5  H1  UNL     1      -2.632   3.722   1.723  1.00  0.00     0.163 HD
HETATM    6  C7  UNL     1      -0.536   3.455   1.479  1.00  0.00     0.139 C 
HETATM    7  C11 UNL     1       0.356   2.282   1.269  1.00  0.00     0.280 C 
HETATM    8  O3  UNL     1       1.255   2.104   0.336  1.00  0.00    -0.344 OA
HETATM    9  C12 UNL     1       2.486   1.793  -0.080  1.00  0.00     0.224 C 
HETATM   10  C17 UNL     1       2.442   0.867  -1.252  1.00  0.00     0.288 C 
HETATM   11  O4  UNL     1       2.572   1.337  -2.442  1.00  0.00    -0.262 OA
HETATM   12  O5  UNL     1       2.269  -0.496  -1.162  1.00  0.00    -0.317 OA
HETATM   13  C18 UNL     1       1.257  -1.198  -0.497  1.00  0.00     0.204 C 
HETATM   14  C19 UNL     1       1.556  -2.692  -0.672  1.00  0.00     0.109 C 
HETATM   15  N2  UNL     1       0.393  -3.491  -0.410  1.00  0.00    -0.354 N 
ATOM     16  H2  UNL     1       0.573  -4.475  -0.211  1.00  0.00     0.163 HD
HETATM   17  C24 UNL     1      -0.960  -3.108  -0.389  1.00  0.00     0.231 C 
HETATM   18  O6  UNL     1      -1.731  -3.624  -1.273  1.00  0.00    -0.273 OA
HETATM   19  C25 UNL     1      -1.631  -2.170   0.536  1.00  0.00     0.170 C 
HETATM   20  C29 UNL     1      -2.798  -1.539  -0.113  1.00  0.00     0.233 C 
HETATM   21  O8  UNL     1      -3.569  -2.309  -0.783  1.00  0.00    -0.272 OA
HETATM   22  N3  UNL     1      -3.163  -0.183  -0.081  1.00  0.00    -0.342 N 
HETATM   23  C30 UNL     1      -4.598   0.164  -0.076  1.00  0.00     0.153 C 
ENDROOT
BRANCH  19  24
HETATM   24  C26 UNL     1      -2.225  -3.089   1.630  1.00  0.00     0.036 C 
BRANCH  24  25
HETATM   25  C27 UNL     1      -2.956  -2.327   2.682  1.00  0.00     0.109 C 
BRANCH  25  26
HETATM   26  S1  UNL     1      -3.576  -3.501   3.861  1.00  0.00     0.010 S 
HETATM   27  C28 UNL     1      -4.470  -2.695   5.166  1.00  0.00     0.127 C 
HETATM   28  O7  UNL     1      -2.327  -4.396   4.538  1.00  0.00    -0.258 OA
ENDBRANCH  25  26
ENDBRANCH  24  25
ENDBRANCH  19  24
BRANCH  14  29
HETATM   29  C20 UNL     1       2.204  -2.871  -1.993  1.00  0.00     0.031 C 
BRANCH  29  30
HETATM   30  C21 UNL     1       2.603  -4.233  -2.406  1.00  0.00    -0.021 C 
HETATM   31  C22 UNL     1       1.524  -5.250  -2.527  1.00  0.00     0.009 C 
HETATM   32  C23 UNL     1       3.701  -4.823  -1.536  1.00  0.00     0.009 C 
ENDBRANCH  29  30
ENDBRANCH  14  29
BRANCH   1  33
HETATM   33  C4  UNL     1      -2.562   1.795  -1.309  1.00  0.00     0.035 C 
BRANCH  33  34
HETATM   34  C3  UNL     1      -2.352   0.912  -2.510  1.00  0.00     0.002 C 
BRANCH  34  35
HETATM   35  C2  UNL     1      -2.636   1.740  -3.759  1.00  0.00    -0.004 C 
HETATM   36  C1  UNL     1      -4.073   2.248  -3.733  1.00  0.00     0.005 C 
ENDBRANCH  34  35
ENDBRANCH  33  34
ENDBRANCH   1  33
BRANCH   6  37
HETATM   37  C8  UNL     1      -0.369   4.641   0.635  1.00  0.00     0.030 C 
BRANCH  37  38
HETATM   38  C9  UNL     1       1.002   5.244   0.577  1.00  0.00    -0.002 C 
HETATM   39  C10 UNL     1       1.366   5.621   2.025  1.00  0.00     0.005 C 
ENDBRANCH  37  38
ENDBRANCH   6  37
BRANCH   9  40
HETATM   40  C13 UNL     1       3.478   1.203   0.895  1.00  0.00     0.046 C 
BRANCH  40  41
HETATM   41  C14 UNL     1       4.785   0.927   0.233  1.00  0.00    -0.020 C 
HETATM   42  C15 UNL     1       5.712   0.334   1.304  1.00  0.00     0.009 C 
HETATM   43  C16 UNL     1       5.413   2.199  -0.267  1.00  0.00     0.009 C 
ENDBRANCH  40  41
ENDBRANCH   9  40
BRANCH   7  44
HETATM   44  O2  UNL     1       0.069   1.414   2.225  1.00  0.00    -0.369 OA
ATOM     45  H2  UNL     1       0.638   0.665   2.091  1.00  0.00     0.212 HD
ENDBRANCH   7  44
TORSDOF 13
