REMARK  13 active torsions:
REMARK  status: ('A' for Active; 'I' for Inactive)
REMARK    1  A    between atoms: C2_2  and  C3_3 
REMARK    2  A    between atoms: C3_3  and  C5_5 
REMARK    3  A    between atoms: C5_5  and  C6_6 
REMARK    4  A    between atoms: C5_5  and  N1_9 
REMARK    5  A    between atoms: C6_6  and  O1_7 
REMARK    6  A    between atoms: C11_13  and  C12_14 
REMARK    7  A    between atoms: C12_14  and  N2_15 
REMARK    8  A    between atoms: N2_15  and  C13_16 
REMARK    9  A    between atoms: N2_15  and  C18_22 
REMARK   10  A    between atoms: C13_16  and  C14_17 
REMARK   11  A    between atoms: C22_26  and  N3_27 
REMARK   12  A    between atoms: C29_35  and  C30_36 
REMARK   13  A    between atoms: C30_36  and  O3_37 
ROOT
HETATM    1  N2  UNL     1       0.744  -1.939   0.232  1.00  0.00    -0.333 N 
ENDROOT
BRANCH   1   2
HETATM    2  C12 UNL     1      -0.349  -1.513   1.075  1.00  0.00     0.076 C 
BRANCH   2   3
HETATM    3  C11 UNL     1      -1.703  -1.347   0.603  1.00  0.00     0.052 C 
HETATM    4  C9  UNL     1      -2.550  -0.808   1.779  1.00  0.00     0.031 C 
HETATM    5  C8  UNL     1      -3.477   0.284   1.292  1.00  0.00     0.083 C 
HETATM    6  C10 UNL     1      -1.709  -0.236   2.884  1.00  0.00     0.016 C 
HETATM    7  N1  UNL     1      -4.740  -0.135   0.830  1.00  0.00    -0.266 N 
HETATM    8  S1  UNL     1      -4.905  -1.730   0.320  1.00  0.00     0.321 S 
HETATM    9  N5  UNL     1      -3.580  -2.252  -0.650  1.00  0.00    -0.302 N 
HETATM   10  O4  UNL     1      -5.161  -2.697   1.453  1.00  0.00    -0.182 OA
HETATM   11  O5  UNL     1      -6.152  -1.843  -0.545  1.00  0.00    -0.182 OA
HETATM   12  C31 UNL     1      -2.470  -2.627   0.244  1.00  0.00     0.144 C 
ATOM     13  H5  UNL     1      -3.566  -2.294  -1.669  1.00  0.00     0.173 HD
BRANCH   7  14
HETATM   14  C5  UNL     1      -5.539   0.848   0.220  1.00  0.00     0.129 C 
BRANCH  14  15
HETATM   15  C3  UNL     1      -6.656   1.410   1.114  1.00  0.00     0.007 C 
HETATM   16  C4  UNL     1      -7.544   2.289   0.216  1.00  0.00     0.012 C 
BRANCH  15  17
HETATM   17  C2  UNL     1      -6.147   2.310   2.203  1.00  0.00     0.002 C 
HETATM   18  C1  UNL     1      -7.356   2.868   2.944  1.00  0.00     0.005 C 
ENDBRANCH  15  17
ENDBRANCH  14  15
BRANCH  14  19
HETATM   19  C6  UNL     1      -4.780   1.927  -0.448  1.00  0.00     0.193 C 
BRANCH  19  20
HETATM   20  O1  UNL     1      -4.007   1.502  -1.485  1.00  0.00    -0.394 OA
HETATM   21  C7  UNL     1      -4.740   1.019  -2.536  1.00  0.00     0.201 C 
ENDBRANCH  19  20
ENDBRANCH  14  19
ENDBRANCH   7  14
ENDBRANCH   2   3
ENDBRANCH   1   2
BRANCH   1  22
HETATM   22  C13 UNL     1       0.828  -3.217  -0.375  1.00  0.00     0.128 C 
BRANCH  22  23
HETATM   23  C14 UNL     1       2.000  -3.724  -1.089  1.00  0.00     0.062 C 
HETATM   24  C15 UNL     1       2.179  -3.431  -2.535  1.00  0.00     0.068 C 
HETATM   25  C16 UNL     1       3.686  -3.075  -2.554  1.00  0.00     0.033 C 
HETATM   26  C17 UNL     1       4.151  -4.003  -1.420  1.00  0.00     0.175 C 
HETATM   27  O2  UNL     1       3.205  -3.785  -0.447  1.00  0.00    -0.354 OA
ENDBRANCH  22  23
ENDBRANCH   1  22
BRANCH   1  28
HETATM   28  C18 UNL     1       1.758  -0.958   0.117  1.00  0.00     0.052 A 
HETATM   29  C19 UNL     1       2.791  -0.902   1.027  1.00  0.00    -0.032 A 
HETATM   30  C20 UNL     1       2.789  -1.768   2.256  1.00  0.00     0.050 C 
HETATM   31  C21 UNL     1       3.827  -0.002   0.908  1.00  0.00     0.038 A 
HETATM   32  C22 UNL     1       3.880   0.885  -0.118  1.00  0.00     0.031 A 
HETATM   33  C28 UNL     1       2.856   0.853  -1.039  1.00  0.00     0.041 A 
HETATM   34  C29 UNL     1       1.805  -0.067  -0.909  1.00  0.00    -0.005 A 
BRANCH  32  35
HETATM   35  N3  UNL     1       4.947   1.803  -0.201  1.00  0.00    -0.377 N 
HETATM   36  C23 UNL     1       5.702   2.212   0.940  1.00  0.00     0.153 C 
HETATM   37  C24 UNL     1       7.195   2.163   0.709  1.00  0.00     0.291 C 
HETATM   38  N4  UNL     1       7.553   2.591  -0.621  1.00  0.00     0.087 N 
HETATM   39  C25 UNL     1       8.961   2.673  -0.833  1.00  0.00     0.310 C 
HETATM   40  C26 UNL     1       6.806   1.966  -1.657  1.00  0.00     0.291 C 
HETATM   41  C27 UNL     1       5.327   2.353  -1.477  1.00  0.00     0.153 C 
ENDBRANCH  32  35
BRANCH  34  42
HETATM   42  C30 UNL     1       0.726   0.128  -1.904  1.00  0.00     0.205 C 
BRANCH  42  43
HETATM   43  O3  UNL     1       1.055   1.071  -2.890  1.00  0.00    -0.396 OA
ATOM     44  H3  UNL     1       0.363   1.196  -3.528  1.00  0.00     0.209 HD
ENDBRANCH  42  43
ENDBRANCH  34  42
ENDBRANCH   1  28
TORSDOF 13
