REMARK  13 active torsions:
REMARK  status: ('A' for Active; 'I' for Inactive)
REMARK    1  A    between atoms: C2_2  and  C4_4 
REMARK    2  A    between atoms: C4_4  and  C5_5 
REMARK    3  A    between atoms: C5_5  and  C6_6 
REMARK    4  A    between atoms: C5_5  and  N4_23 
REMARK       I    between atoms: C6_6  and  N1_8 
REMARK    5  A    between atoms: N1_8  and  C7_10 
REMARK    6  A    between atoms: C7_10  and  C8_11 
REMARK    7  A    between atoms: C7_10  and  C14_20 
REMARK       I    between atoms: C8_11  and  N2_13 
REMARK       I    between atoms: N4_23  and  C18_25 
REMARK    8  A    between atoms: C18_25  and  C19_27 
REMARK    9  A    between atoms: C19_27  and  S1_28 
REMARK   10  A    between atoms: S1_28  and  C20_29 
REMARK   11  A    between atoms: C20_29  and  C21_30 
REMARK   12  A    between atoms: C21_30  and  C23_32 
REMARK   13  A    between atoms: C26_35  and  O4_36 
ROOT
HETATM    1  C5  UNL     1       1.175  -1.513   0.123  1.00  0.00     0.101 C 
ENDROOT
BRANCH   1   2
HETATM    2  C4  UNL     1       0.930  -2.898  -0.322  1.00  0.00     0.012 C 
BRANCH   2   3
HETATM    3  C2  UNL     1       1.458  -3.442  -1.569  1.00  0.00     0.002 C 
HETATM    4  C1  UNL     1       1.106  -2.892  -2.879  1.00  0.00     0.013 C 
HETATM    5  C3  UNL     1       1.204  -4.951  -1.586  1.00  0.00     0.013 C 
ENDBRANCH   2   3
ENDBRANCH   1   2
BRANCH   1   6
HETATM    6  C6  UNL     1       2.616  -1.176   0.270  1.00  0.00     0.268 C 
HETATM    7  O1  UNL     1       3.421  -2.119   0.442  1.00  0.00    -0.266 OA
HETATM    8  N1  UNL     1       3.135   0.128   0.231  1.00  0.00    -0.342 N 
ATOM      9  H1  UNL     1       2.479   0.897   0.092  1.00  0.00     0.163 HD
BRANCH   8  10
HETATM   10  C7  UNL     1       4.566   0.461   0.377  1.00  0.00     0.180 C 
BRANCH  10  11
HETATM   11  C8  UNL     1       4.972   1.454  -0.625  1.00  0.00     0.243 C 
HETATM   12  O2  UNL     1       4.061   2.321  -0.915  1.00  0.00    -0.271 OA
HETATM   13  N2  UNL     1       6.196   1.586  -1.303  1.00  0.00    -0.347 N 
HETATM   14  C9  UNL     1       7.357   0.759  -1.198  1.00  0.00     0.156 C 
HETATM   15  C13 UNL     1       6.319   2.706  -2.252  1.00  0.00     0.156 C 
HETATM   16  C10 UNL     1       8.618   1.443  -0.805  1.00  0.00     0.291 C 
HETATM   17  N3  UNL     1       8.470   2.865  -1.046  1.00  0.00     0.087 N 
HETATM   18  C11 UNL     1       9.830   3.380  -1.211  1.00  0.00     0.310 C 
HETATM   19  C12 UNL     1       7.757   3.139  -2.260  1.00  0.00     0.291 C 
ENDBRANCH  10  11
BRANCH  10  20
HETATM   20  C14 UNL     1       4.751   1.108   1.752  1.00  0.00     0.009 C 
HETATM   21  C15 UNL     1       3.972   2.363   1.926  1.00  0.00     0.012 C 
HETATM   22  C16 UNL     1       6.189   1.174   2.156  1.00  0.00     0.012 C 
ENDBRANCH  10  20
ENDBRANCH   8  10
ENDBRANCH   1   6
BRANCH   1  23
HETATM   23  N4  UNL     1       0.326  -0.451  -0.261  1.00  0.00    -0.317 N 
HETATM   24  C17 UNL     1       0.414   0.158  -1.568  1.00  0.00     0.159 C 
HETATM   25  C18 UNL     1      -0.623   0.118   0.604  1.00  0.00     0.233 C 
HETATM   26  O3  UNL     1      -1.323   1.088   0.229  1.00  0.00    -0.272 OA
BRANCH  25  27
HETATM   27  C19 UNL     1      -0.828  -0.402   1.976  1.00  0.00     0.181 C 
BRANCH  27  28
HETATM   28  S1  UNL     1      -2.186   0.313   2.814  1.00  0.00    -0.132 SA
BRANCH  28  29
HETATM   29  C20 UNL     1      -3.825  -0.256   2.586  1.00  0.00     0.048 C 
BRANCH  29  30
HETATM   30  C21 UNL     1      -4.475  -0.284   1.252  1.00  0.00    -0.070 C 
HETATM   31  C22 UNL     1      -3.859  -1.210   0.251  1.00  0.00     0.044 C 
BRANCH  30  32
HETATM   32  C23 UNL     1      -5.957  -0.310   1.304  1.00  0.00     0.052 C 
HETATM   33  C24 UNL     1      -6.660  -1.405   1.967  1.00  0.00     0.024 C 
HETATM   34  C25 UNL     1      -6.229  -2.806   1.710  1.00  0.00     0.013 C 
HETATM   35  C26 UNL     1      -8.093  -1.302   1.410  1.00  0.00     0.154 C 
HETATM   36  C27 UNL     1      -7.994  -0.597   0.084  1.00  0.00     0.184 C 
HETATM   37  O5  UNL     1      -8.787   0.556   0.094  1.00  0.00    -0.345 OA
HETATM   38  C31 UNL     1      -6.567  -0.133  -0.069  1.00  0.00     0.165 C 
HETATM   39  C28 UNL     1      -8.024   1.524  -0.530  1.00  0.00     0.158 C 
HETATM   40  C29 UNL     1      -8.201   2.909   0.092  1.00  0.00     0.078 C 
HETATM   41  C30 UNL     1      -8.324   1.658  -2.015  1.00  0.00     0.078 C 
HETATM   42  O6  UNL     1      -6.700   1.199  -0.415  1.00  0.00    -0.347 OA
BRANCH  35  43
HETATM   43  O4  UNL     1      -8.633  -2.567   1.180  1.00  0.00    -0.393 OA
ATOM     44  H4  UNL     1      -9.516  -2.503   0.837  1.00  0.00     0.210 HD
ENDBRANCH  35  43
ENDBRANCH  30  32
ENDBRANCH  29  30
ENDBRANCH  28  29
ENDBRANCH  27  28
ENDBRANCH  25  27
ENDBRANCH   1  23
TORSDOF 13
