REMARK  7 active torsions:
REMARK  status: ('A' for Active; 'I' for Inactive)
REMARK    1  A    between atoms: O1_2  and  C2_3 
REMARK    2  A    between atoms: C2_3  and  C3_4 
REMARK    3  A    between atoms: C2_3  and  C17_25 
REMARK    4  A    between atoms: C3_4  and  O2_5 
REMARK    5  A    between atoms: O2_5  and  C4_6 
REMARK    6  A    between atoms: C7_9  and  O3_10 
REMARK    7  A    between atoms: C11_15  and  O4_16 
ROOT
HETATM    1  C4  UNL     1       0.951   0.156  -0.135  1.00  0.00     0.084 A 
HETATM    2  C5  UNL     1       1.293  -0.945   0.603  1.00  0.00     0.006 A 
HETATM    3  C6  UNL     1       0.317  -1.621   1.519  1.00  0.00     0.054 C 
HETATM    4  C7  UNL     1       2.586  -1.404   0.463  1.00  0.00     0.086 A 
HETATM    5  C8  UNL     1       3.515  -0.816  -0.365  1.00  0.00     0.019 A 
HETATM    6  C9  UNL     1       4.804  -1.308  -0.483  1.00  0.00    -0.013 A 
HETATM    7  C10 UNL     1       5.211  -2.493   0.297  1.00  0.00     0.052 C 
HETATM    8  C11 UNL     1       5.716  -0.677  -1.343  1.00  0.00     0.096 A 
HETATM    9  C12 UNL     1       5.352   0.410  -2.062  1.00  0.00     0.090 A 
HETATM   10 CL1  UNL     1       6.514   1.174  -3.127  1.00  0.00    -0.080 Cl
HETATM   11  C13 UNL     1       4.052   0.899  -1.938  1.00  0.00     0.070 A 
HETATM   12 CL2  UNL     1       3.667   2.288  -2.904  1.00  0.00    -0.081 Cl
HETATM   13  C14 UNL     1       3.123   0.323  -1.114  1.00  0.00     0.010 A 
HETATM   14  C15 UNL     1       1.831   0.822  -1.003  1.00  0.00    -0.015 A 
HETATM   15  C16 UNL     1       1.436   2.003  -1.757  1.00  0.00     0.052 C 
ENDROOT
BRANCH   1  16
HETATM   16  O2  UNL     1      -0.326   0.657  -0.035  1.00  0.00    -0.347 OA
BRANCH  16  17
HETATM   17  C3  UNL     1      -1.335   0.196  -0.850  1.00  0.00     0.212 C 
BRANCH  17  18
HETATM   18  C2  UNL     1      -2.678   0.831  -0.639  1.00  0.00     0.178 C 
BRANCH  18  19
HETATM   19  O1  UNL     1      -2.697   2.180  -0.839  1.00  0.00    -0.384 OA
HETATM   20  C1  UNL     1      -3.426   2.620  -1.919  1.00  0.00     0.202 C 
ENDBRANCH  18  19
BRANCH  18  21
HETATM   21  C17 UNL     1      -3.348   0.398   0.613  1.00  0.00    -0.024 A 
HETATM   22  C18 UNL     1      -4.222  -0.675   0.668  1.00  0.00     0.016 A 
HETATM   23  C19 UNL     1      -4.838  -1.068   1.833  1.00  0.00    -0.059 A 
HETATM   24  C20 UNL     1      -5.760  -2.218   1.839  1.00  0.00     0.048 C 
HETATM   25  C21 UNL     1      -4.611  -0.402   3.015  1.00  0.00     0.049 A 
HETATM   26  C22 UNL     1      -3.745   0.670   2.989  1.00  0.00     0.117 A 
HETATM   27  F1  UNL     1      -3.533   1.316   4.168  1.00  0.00    -0.206 F 
HETATM   28  C23 UNL     1      -3.145   1.042   1.819  1.00  0.00     0.052 A 
ENDBRANCH  18  21
ENDBRANCH  17  18
ENDBRANCH  16  17
ENDBRANCH   1  16
BRANCH   4  29
HETATM   29  O3  UNL     1       2.938  -2.506   1.198  1.00  0.00    -0.359 OA
ATOM     30  H3  UNL     1       3.829  -2.822   1.102  1.00  0.00     0.217 HD
ENDBRANCH   4  29
BRANCH   8  31
HETATM   31  O4  UNL     1       6.994  -1.206  -1.427  1.00  0.00    -0.358 OA
ATOM     32  H4  UNL     1       7.611  -0.779  -2.009  1.00  0.00     0.217 HD
ENDBRANCH   8  31
TORSDOF 7
