REMARK  8 active torsions:
REMARK  status: ('A' for Active; 'I' for Inactive)
REMARK    1  A    between atoms: C2_2  and  C3_3 
REMARK    2  A    between atoms: C3_3  and  C5_5 
REMARK    3  A    between atoms: C7_8  and  C8_9 
REMARK    4  A    between atoms: C8_9  and  C9_10 
REMARK    5  A    between atoms: C11_12  and  O1_13 
REMARK    6  A    between atoms: C13_16  and  O2_17 
REMARK    7  A    between atoms: C14_19  and  C15_20 
REMARK    8  A    between atoms: C18_25  and  O3_26 
ROOT
HETATM    1  C5  UNL     1      -1.870  -1.075  -0.517  1.00  0.00     0.002 A 
HETATM    2  C6  UNL     1      -0.556  -1.273  -0.017  1.00  0.00     0.052 A 
HETATM    3 CL1  UNL     1      -0.129  -2.981   0.265  1.00  0.00    -0.083 Cl
HETATM    4  C7  UNL     1       0.295  -0.296   0.322  1.00  0.00     0.003 A 
HETATM    5  C16 UNL     1      -0.176   1.024   0.158  1.00  0.00     0.091 A 
HETATM    6  C17 UNL     1      -1.428   1.287  -0.310  1.00  0.00     0.032 A 
HETATM    7  C18 UNL     1      -2.304   0.219  -0.659  1.00  0.00     0.089 A 
HETATM    8  C20 UNL     1      -1.888   2.657  -0.350  1.00  0.00     0.016 C 
HETATM    9  C21 UNL     1      -1.096   3.638   0.085  1.00  0.00     0.012 C 
HETATM   10  C22 UNL     1       0.259   3.412   0.628  1.00  0.00     0.078 C 
HETATM   11  C23 UNL     1       1.327   4.294  -0.006  1.00  0.00     0.051 C 
HETATM   12  C24 UNL     1       0.155   3.755   2.125  1.00  0.00     0.051 C 
HETATM   13  O4  UNL     1       0.675   2.069   0.475  1.00  0.00    -0.335 OA
ENDROOT
BRANCH   4  14
HETATM   14  C8  UNL     1       1.579  -0.472   0.960  1.00  0.00     0.082 C 
BRANCH  14  15
HETATM   15  C9  UNL     1       2.735  -0.978   0.232  1.00  0.00    -0.037 A 
HETATM   16  C10 UNL     1       2.703  -1.573  -1.004  1.00  0.00     0.044 A 
HETATM   17  C11 UNL     1       3.874  -2.061  -1.578  1.00  0.00     0.068 A 
HETATM   18  C12 UNL     1       5.069  -1.967  -0.963  1.00  0.00     0.073 A 
HETATM   19  C13 UNL     1       5.130  -1.358   0.298  1.00  0.00     0.080 A 
HETATM   20  C14 UNL     1       3.973  -0.865   0.902  1.00  0.00     0.045 A 
BRANCH  17  21
HETATM   21  O1  UNL     1       3.768  -2.669  -2.836  1.00  0.00    -0.361 OA
ATOM     22  H1  UNL     1       4.567  -3.002  -3.228  1.00  0.00     0.217 HD
ENDBRANCH  17  21
BRANCH  19  23
HETATM   23  O2  UNL     1       6.372  -1.268   0.909  1.00  0.00    -0.360 OA
ATOM     24  H2  UNL     1       6.413  -0.855   1.764  1.00  0.00     0.217 HD
ENDBRANCH  19  23
BRANCH  20  25
HETATM   25  C15 UNL     1       4.055  -0.237   2.234  1.00  0.00     0.390 C 
HETATM   26  F1  UNL     1       4.833   0.918   2.089  1.00  0.00    -0.209 F 
HETATM   27  F2  UNL     1       4.607  -1.101   3.187  1.00  0.00    -0.209 F 
ENDBRANCH  20  25
ENDBRANCH  14  15
ENDBRANCH   4  14
BRANCH   1  28
HETATM   28  C3  UNL     1      -2.564  -2.249  -1.092  1.00  0.00     0.019 C 
HETATM   29  C4  UNL     1      -2.623  -1.960  -2.653  1.00  0.00     0.015 C 
BRANCH  28  30
HETATM   30  C2  UNL     1      -3.969  -2.512  -0.683  1.00  0.00     0.004 C 
HETATM   31  C1  UNL     1      -3.994  -2.848   0.832  1.00  0.00     0.006 C 
ENDBRANCH  28  30
ENDBRANCH   1  28
BRANCH   7  32
HETATM   32  O3  UNL     1      -3.530   0.617  -1.110  1.00  0.00    -0.354 OA
HETATM   33  C19 UNL     1      -4.669   0.959  -0.321  1.00  0.00     0.210 C 
ENDBRANCH   7  32
TORSDOF 8
