REMARK  6 active torsions:
REMARK  status: ('A' for Active; 'I' for Inactive)
REMARK    1  A    between atoms: C6_8  and  O1_9 
REMARK    2  A    between atoms: C7_11  and  O2_12 
REMARK    3  A    between atoms: C10_16  and  O3_17 
REMARK    4  A    between atoms: O3_17  and  C11_18 
REMARK    5  A    between atoms: C14_22  and  C15_23 
REMARK    6  A    between atoms: C15_23  and  C16_24 
ROOT
HETATM    1  C1  UNL     1      -1.889  -3.449  -0.831  1.00  0.00     0.052 C 
HETATM    2  C2  UNL     1      -2.417  -2.089  -0.489  1.00  0.00    -0.012 A 
HETATM    3  C3  UNL     1      -3.746  -1.851  -0.731  1.00  0.00     0.098 A 
HETATM    4  N1  UNL     1      -4.323  -0.691  -0.423  1.00  0.00    -0.364 N 
ATOM      5  H1  UNL     1      -5.314  -0.542  -0.615  1.00  0.00     0.165 HD
HETATM    6  C4  UNL     1      -3.590   0.281   0.143  1.00  0.00     0.048 A 
HETATM    7  C5  UNL     1      -4.250   1.463   0.432  1.00  0.00     0.069 A 
HETATM    8  C6  UNL     1      -3.529   2.482   1.005  1.00  0.00     0.101 A 
HETATM    9  C7  UNL     1      -2.188   2.309   1.274  1.00  0.00     0.099 A 
HETATM   10  C8  UNL     1      -1.549   1.148   0.987  1.00  0.00     0.056 A 
HETATM   11  C9  UNL     1      -2.247   0.093   0.408  1.00  0.00     0.028 A 
HETATM   12  C10 UNL     1      -1.616  -1.096   0.101  1.00  0.00     0.096 A 
ENDROOT
BRANCH  12  13
HETATM   13  O3  UNL     1      -0.343  -1.388   0.301  1.00  0.00    -0.306 OA
BRANCH  13  14
HETATM   14  C11 UNL     1       0.899  -1.058   0.011  1.00  0.00     0.115 A 
HETATM   15  C12 UNL     1       1.423  -0.872  -1.244  1.00  0.00     0.069 A 
HETATM   16 CL1  UNL     1       0.352  -1.032  -2.619  1.00  0.00    -0.081 Cl
HETATM   17  C13 UNL     1       2.765  -0.532  -1.453  1.00  0.00     0.034 A 
HETATM   18  C14 UNL     1       3.617  -0.368  -0.390  1.00  0.00    -0.054 A 
HETATM   19  C17 UNL     1       3.115  -0.548   0.878  1.00  0.00     0.029 A 
HETATM   20  C18 UNL     1       1.804  -0.882   1.078  1.00  0.00     0.047 A 
HETATM   21 BR1  UNL     1       1.187  -1.153   2.878  1.00  0.00    -0.048 Br
BRANCH  18  22
HETATM   22  C15 UNL     1       5.048  -0.004  -0.599  1.00  0.00     0.053 C 
BRANCH  22  23
HETATM   23  C16 UNL     1       5.214   1.501  -0.612  1.00  0.00     0.119 C 
HETATM   24 CL2  UNL     1       6.927   1.911  -0.861  1.00  0.00    -0.130 Cl
ENDBRANCH  22  23
ENDBRANCH  18  22
ENDBRANCH  13  14
ENDBRANCH  12  13
BRANCH   9  25
HETATM   25  O2  UNL     1      -1.481   3.359   1.854  1.00  0.00    -0.358 OA
ATOM     26  H2  UNL     1      -0.557   3.240   2.039  1.00  0.00     0.217 HD
ENDBRANCH   9  25
BRANCH   8  27
HETATM   27  O1  UNL     1      -4.112   3.713   1.332  1.00  0.00    -0.358 OA
ATOM     28  H1  UNL     1      -3.613   4.418   1.728  1.00  0.00     0.217 HD
ENDBRANCH   8  27
TORSDOF 6
