REMARK  6 active torsions:
REMARK  status: ('A' for Active; 'I' for Inactive)
REMARK    1  A    between atoms: C7_8  and  C8_9 
REMARK    2  A    between atoms: C9_10  and  C10_11 
REMARK    3  A    between atoms: C9_10  and  C16_19 
REMARK    4  A    between atoms: C17_20  and  O1_21 
REMARK    5  A    between atoms: C18_24  and  O3_25 
REMARK    6  A    between atoms: C19_27  and  C20_28 
ROOT
HETATM    1  C20 UNL     1       2.416  -1.153   1.391  1.00  0.00    -0.044 C 
HETATM    2  C21 UNL     1       2.508  -0.937   2.568  1.00  0.00     0.010 C 
HETATM    3 CL3  UNL     1       2.647  -0.654   4.269  1.00  0.00    -0.023 Cl
ENDROOT
BRANCH   1   4
HETATM    4  C19 UNL     1       2.272  -1.403  -0.000  1.00  0.00     0.093 A 
HETATM    5  C16 UNL     1       1.666  -0.723  -1.013  1.00  0.00     0.057 A 
HETATM    6  C17 UNL     1       1.878  -1.483  -2.135  1.00  0.00     0.198 A 
HETATM    7  O2  UNL     1       2.557  -2.555  -1.880  1.00  0.00    -0.263 OA
HETATM    8  C18 UNL     1       2.821  -2.554  -0.597  1.00  0.00     0.205 A 
BRANCH   5   9
HETATM    9  C9  UNL     1       0.916   0.610  -0.887  1.00  0.00    -0.009 C 
HETATM   10  C8  UNL     1      -0.498   0.395  -0.782  1.00  0.00     0.011 C 
BRANCH  10  11
HETATM   11  C7  UNL     1      -1.289  -0.140   0.331  1.00  0.00     0.107 C 
HETATM   12  N1  UNL     1      -2.688  -0.043  -0.007  1.00  0.00    -0.386 N 
HETATM   13  C2  UNL     1      -3.148   0.321  -1.236  1.00  0.00     0.054 C 
HETATM   14  C3  UNL     1      -3.556  -0.184   1.098  1.00  0.00     0.122 C 
HETATM   15  C1  UNL     1      -3.632   1.767  -1.232  1.00  0.00     0.054 C 
HETATM   16  C4  UNL     1      -3.296  -1.549   1.723  1.00  0.00     0.020 C 
HETATM   17  C5  UNL     1      -2.496  -2.348   0.714  1.00  0.00     0.004 C 
HETATM   18  C6  UNL     1      -1.151  -1.715   0.396  1.00  0.00     0.029 C 
ENDBRANCH  10  11
BRANCH   9  19
HETATM   19  C10 UNL     1       1.761   1.512  -0.186  1.00  0.00    -0.003 A 
HETATM   20  C11 UNL     1       3.158   1.349  -0.402  1.00  0.00     0.015 A 
HETATM   21  C12 UNL     1       4.081   2.162   0.207  1.00  0.00     0.025 A 
HETATM   22  C13 UNL     1       3.691   3.165   1.048  1.00  0.00     0.035 A 
HETATM   23 CL1  UNL     1       4.817   4.235   1.859  1.00  0.00    -0.084 Cl
HETATM   24  C14 UNL     1       2.346   3.349   1.275  1.00  0.00     0.048 A 
HETATM   25  C15 UNL     1       1.419   2.509   0.643  1.00  0.00     0.046 A 
HETATM   26 CL2  UNL     1      -0.240   2.877   0.879  1.00  0.00    -0.083 Cl
ENDBRANCH   9  19
ENDBRANCH   5   9
BRANCH   6  27
HETATM   27  O1  UNL     1       1.394  -1.100  -3.393  1.00  0.00    -0.340 OA
ATOM     28  H1  UNL     1       1.541  -1.626  -4.170  1.00  0.00     0.220 HD
ENDBRANCH   6  27
BRANCH   8  29
HETATM   29  O3  UNL     1       3.541  -3.562   0.034  1.00  0.00    -0.340 OA
ATOM     30  H3  UNL     1       3.732  -3.561   0.965  1.00  0.00     0.220 HD
ENDBRANCH   8  29
ENDBRANCH   1   4
TORSDOF 6
