REMARK  6 active torsions:
REMARK  status: ('A' for Active; 'I' for Inactive)
REMARK    1  A    between atoms: C2_2  and  C3_3 
REMARK    2  A    between atoms: C3_3  and  C4_4 
REMARK    3  A    between atoms: C4_4  and  C5_6 
REMARK    4  A    between atoms: C6_7  and  C7_8 
REMARK    5  A    between atoms: C14_15  and  O2_16 
REMARK    6  A    between atoms: N1_20  and  C17_21 
ROOT
HETATM    1  C5  UNL     1      -0.610   0.848  -0.366  1.00  0.00     0.065 A 
HETATM    2  C6  UNL     1       0.143  -0.173   0.114  1.00  0.00     0.017 A 
HETATM    3  C15 UNL     1      -0.689  -1.099   0.718  1.00  0.00     0.027 A 
HETATM    4  C16 UNL     1      -0.341  -2.390   1.394  1.00  0.00     0.070 C 
HETATM    5  N1  UNL     1      -1.950  -0.664   0.618  1.00  0.00    -0.301 N 
HETATM    6  C23 UNL     1      -1.939   0.507  -0.030  1.00  0.00     0.138 A 
HETATM    7  N2  UNL     1      -3.116   1.261  -0.316  1.00  0.00    -0.081 NA
ENDROOT
BRANCH   2   8
HETATM    8  C7  UNL     1       1.572  -0.353   0.035  1.00  0.00     0.016 A 
HETATM    9  C8  UNL     1       2.047  -1.079  -1.042  1.00  0.00    -0.048 A 
HETATM   10  C9  UNL     1       1.170  -1.643  -2.101  1.00  0.00     0.049 C 
HETATM   11  C10 UNL     1       3.411  -1.272  -1.109  1.00  0.00     0.014 A 
HETATM   12  C11 UNL     1       4.271  -0.767  -0.148  1.00  0.00    -0.059 A 
HETATM   13  C12 UNL     1       5.739  -0.979  -0.227  1.00  0.00     0.048 C 
HETATM   14  C13 UNL     1       3.735  -0.050   0.904  1.00  0.00     0.044 A 
HETATM   15  C14 UNL     1       2.381   0.173   1.020  1.00  0.00     0.077 A 
BRANCH  15  16
HETATM   16  O2  UNL     1       1.871   0.898   2.090  1.00  0.00    -0.360 OA
ATOM     17  H2  UNL     1       2.428   1.260   2.769  1.00  0.00     0.217 HD
ENDBRANCH  15  16
ENDBRANCH   2   8
BRANCH   1  18
HETATM   18  C4  UNL     1      -0.318   2.088  -1.078  1.00  0.00     0.163 C 
HETATM   19  O1  UNL     1      -1.232   2.889  -1.428  1.00  0.00    -0.292 OA
BRANCH  18  20
HETATM   20  C3  UNL     1       1.043   2.501  -1.440  1.00  0.00     0.084 C 
BRANCH  20  21
HETATM   21  C2  UNL     1       1.027   3.846  -2.167  1.00  0.00     0.003 C 
HETATM   22  C1  UNL     1       0.430   4.926  -1.297  1.00  0.00     0.005 C 
ENDBRANCH  20  21
ENDBRANCH  18  20
ENDBRANCH   1  18
BRANCH   5  23
HETATM   23  C17 UNL     1      -3.111  -1.334   1.118  1.00  0.00     0.065 A 
HETATM   24  C18 UNL     1      -3.533  -1.276   2.410  1.00  0.00     0.075 A 
HETATM   25  C19 UNL     1      -4.663  -1.936   2.865  1.00  0.00     0.140 A 
HETATM   26  F1  UNL     1      -5.008  -1.823   4.165  1.00  0.00    -0.204 F 
HETATM   27  C20 UNL     1      -5.383  -2.678   1.977  1.00  0.00     0.074 A 
HETATM   28 CL1  UNL     1      -6.819  -3.514   2.566  1.00  0.00    -0.081 Cl
HETATM   29  C21 UNL     1      -5.002  -2.772   0.656  1.00  0.00     0.053 A 
HETATM   30  C22 UNL     1      -3.874  -2.104   0.233  1.00  0.00     0.063 A 
HETATM   31 CL2  UNL     1      -3.411  -2.236  -1.433  1.00  0.00    -0.082 Cl
ENDBRANCH   5  23
TORSDOF 6
