REMARK  8 active torsions:
REMARK  status: ('A' for Active; 'I' for Inactive)
REMARK    1  A    between atoms: N1_2  and  C2_5 
REMARK    2  A    between atoms: C2_5  and  C4_7 
REMARK    3  A    between atoms: C4_7  and  C5_8 
REMARK    4  A    between atoms: C4_7  and  O3_23 
REMARK    5  A    between atoms: C5_8  and  O1_9 
REMARK    6  A    between atoms: O1_9  and  C6_10 
REMARK    7  A    between atoms: C9_13  and  C10_14 
REMARK    8  A    between atoms: N3_16  and  O2_18 
ROOT
HETATM    1  C6  UNL     1       1.279  -0.486  -0.032  1.00  0.00     0.093 A 
HETATM    2  C7  UNL     1       1.621   0.844   0.015  1.00  0.00     0.039 A 
HETATM    3  C8  UNL     1       2.983   1.157   0.098  1.00  0.00     0.018 A 
HETATM    4  C9  UNL     1       3.980   0.224   0.135  1.00  0.00     0.009 A 
HETATM    5  C11 UNL     1       3.594  -1.128   0.086  1.00  0.00     0.044 A 
HETATM    6  C12 UNL     1       2.267  -1.458   0.004  1.00  0.00     0.080 A 
HETATM    7  N4  UNL     1       1.911  -2.843  -0.045  1.00  0.00    -0.099 NA
ENDROOT
BRANCH   1   8
HETATM    8  O1  UNL     1      -0.051  -0.869  -0.115  1.00  0.00    -0.347 OA
BRANCH   8   9
HETATM    9  C5  UNL     1      -1.113   0.052  -0.156  1.00  0.00     0.209 C 
BRANCH   9  10
HETATM   10  C4  UNL     1      -2.436  -0.655  -0.246  1.00  0.00     0.175 C 
BRANCH  10  11
HETATM   11  C2  UNL     1      -3.596   0.310  -0.287  1.00  0.00     0.212 C 
HETATM   12  C3  UNL     1      -3.533   1.246  -1.474  1.00  0.00     0.043 C 
BRANCH  11  13
HETATM   13  N1  UNL     1      -3.652   1.113   0.922  1.00  0.00    -0.073 N 
HETATM   14  C1  UNL     1      -4.843   1.928   0.967  1.00  0.00     0.267 C 
ATOM     15  H12 UNL     1      -2.810   1.678   1.032  1.00  0.00     0.277 HD
ATOM     16  H11 UNL     1      -3.566   0.534   1.757  1.00  0.00     0.277 HD
ENDBRANCH  11  13
ENDBRANCH  10  11
BRANCH  10  17
HETATM   17  O3  UNL     1      -2.621  -1.479   0.855  1.00  0.00    -0.386 OA
HETATM   18  C13 UNL     1      -2.751  -2.805   0.401  1.00  0.00     0.202 C 
ENDBRANCH  10  17
ENDBRANCH   9  10
ENDBRANCH   8   9
ENDBRANCH   1   8
BRANCH   4  19
HETATM   19  C10 UNL     1       5.373   0.585   0.221  1.00  0.00     0.146 C 
HETATM   20  N2  UNL     1       6.307  -0.499   0.248  1.00  0.00    -0.080 NA
HETATM   21  N3  UNL     1       5.835   1.728   0.271  1.00  0.00    -0.255 N 
ATOM     22  H3  UNL     1       6.853   1.731   0.328  1.00  0.00     0.195 HD
BRANCH  21  23
HETATM   23  O2  UNL     1       5.328   2.955   0.269  1.00  0.00    -0.288 OA
ATOM     24  H2  UNL     1       5.684   3.835   0.307  1.00  0.00     0.244 HD
ENDBRANCH  21  23
ENDBRANCH   4  19
TORSDOF 8
