REMARK  8 active torsions:
REMARK  status: ('A' for Active; 'I' for Inactive)
REMARK    1  A    between atoms: C1_2  and  C2_3 
REMARK    2  A    between atoms: C1_2  and  C9_12 
REMARK    3  A    between atoms: N1_4  and  C3_6 
REMARK    4  A    between atoms: C9_12  and  N2_13 
REMARK    5  A    between atoms: N2_13  and  C10_16 
REMARK    6  A    between atoms: C10_16  and  O2_17 
REMARK    7  A    between atoms: C10_16  and  C11_19 
REMARK    8  A    between atoms: C11_19  and  C12_21 
ROOT
HETATM    1  N2  UNL     1       2.375   0.832  -0.118  1.00  0.00    -0.035 N 
ATOM      2  H21 UNL     1       3.255   1.223   0.220  1.00  0.00     0.281 HD
ATOM      3  H22 UNL     1       1.933   1.695  -0.435  1.00  0.00     0.281 HD
ENDROOT
BRANCH   1   4
HETATM    4  C9  UNL     1       1.620   0.208   0.955  1.00  0.00     0.320 C 
BRANCH   4   5
HETATM    5  C1  UNL     1       0.191   0.049   0.508  1.00  0.00     0.189 C 
HETATM    6  O1  UNL     1      -0.179   0.858  -0.293  1.00  0.00    -0.290 OA
BRANCH   5   7
HETATM    7  C2  UNL     1      -0.655  -1.019   1.029  1.00  0.00     0.135 C 
HETATM    8  N1  UNL     1      -1.908  -0.746   1.440  1.00  0.00    -0.391 N 
ATOM      9  H1  UNL     1      -1.997  -0.869   2.449  1.00  0.00     0.159 HD
BRANCH   8  10
HETATM   10  C3  UNL     1      -3.081  -0.355   0.895  1.00  0.00     0.081 C 
HETATM   11  C4  UNL     1      -3.120   1.052   0.368  1.00  0.00     0.025 C 
HETATM   12  C5  UNL     1      -4.551   1.572   0.580  1.00  0.00     0.002 C 
HETATM   13  C6  UNL     1      -5.451   0.469   0.095  1.00  0.00     0.000 C 
HETATM   14  C7  UNL     1      -4.769  -0.451  -0.893  1.00  0.00     0.002 C 
HETATM   15  C8  UNL     1      -3.621  -1.215  -0.251  1.00  0.00     0.025 C 
ENDBRANCH   8  10
ENDBRANCH   5   7
ENDBRANCH   4   5
ENDBRANCH   1   4
BRANCH   1  16
HETATM   16  C10 UNL     1       2.588  -0.093  -1.214  1.00  0.00     0.398 C 
BRANCH  16  17
HETATM   17  O2  UNL     1       1.696   0.003  -2.244  1.00  0.00    -0.364 OA
ATOM     18  H2  UNL     1       1.836  -0.603  -2.962  1.00  0.00     0.212 HD
ENDBRANCH  16  17
BRANCH  16  19
HETATM   19  C11 UNL     1       3.967  -0.147  -1.714  1.00  0.00     0.248 C 
HETATM   20  O3  UNL     1       4.076  -0.306  -2.984  1.00  0.00    -0.284 OA
BRANCH  19  21
HETATM   21  C12 UNL     1       5.185  -0.038  -0.925  1.00  0.00     0.156 A 
HETATM   22  N3  UNL     1       6.437  -0.107  -1.476  1.00  0.00    -0.348 N 
HETATM   23  C13 UNL     1       7.371   0.024  -0.529  1.00  0.00     0.107 A 
ATOM     24  H3  UNL     1       6.629  -0.240  -2.469  1.00  0.00     0.167 HD
HETATM   25  C14 UNL     1       6.701   0.180   0.658  1.00  0.00     0.107 A 
HETATM   26  N4  UNL     1       5.385   0.137   0.380  1.00  0.00    -0.348 N 
ATOM     27  H4  UNL     1       4.643   0.226   1.074  1.00  0.00     0.167 HD
ENDBRANCH  19  21
ENDBRANCH  16  19
ENDBRANCH   1  16
TORSDOF 8
