REMARK  9 active torsions:
REMARK  status: ('A' for Active; 'I' for Inactive)
REMARK    1  A    between atoms: N1_1  and  C1_5 
REMARK    2  A    between atoms: C1_5  and  C2_6 
REMARK    3  A    between atoms: C2_6  and  C3_7 
REMARK    4  A    between atoms: C3_7  and  N2_8 
REMARK    5  A    between atoms: C3_7  and  C11_18 
REMARK    6  A    between atoms: N2_8  and  C4_11 
REMARK    7  A    between atoms: C4_11  and  C5_12 
REMARK    8  A    between atoms: C11_18  and  O1_19 
REMARK    9  A    between atoms: N3_21  and  N4_23 
ROOT
HETATM    1  C3  UNL     1      -1.351   0.112  -0.667  1.00  0.00     0.262 C 
ENDROOT
BRANCH   1   2
HETATM    2  C2  UNL     1      -1.462   1.525  -0.362  1.00  0.00     0.069 C 
BRANCH   2   3
HETATM    3  C1  UNL     1      -2.676   2.289  -0.743  1.00  0.00     0.232 C 
BRANCH   3   4
HETATM    4  N1  UNL     1      -2.465   3.695  -0.296  1.00  0.00    -0.079 N 
ATOM      5  H13 UNL     1      -2.239   3.770   0.696  1.00  0.00     0.274 HD
ATOM      6  H12 UNL     1      -1.604   4.105  -0.657  1.00  0.00     0.274 HD
ATOM      7  H11 UNL     1      -3.299   4.220  -0.558  1.00  0.00     0.274 HD
ENDBRANCH   3   4
ENDBRANCH   2   3
ENDBRANCH   1   2
BRANCH   1   8
HETATM    8  N2  UNL     1      -0.037  -0.419  -0.283  1.00  0.00    -0.063 N 
ATOM      9  H22 UNL     1       0.114  -0.342   0.723  1.00  0.00     0.278 HD
ATOM     10  H21 UNL     1      -0.007  -1.435  -0.373  1.00  0.00     0.278 HD
BRANCH   8  11
HETATM   11  C4  UNL     1       1.025   0.200  -1.018  1.00  0.00     0.237 C 
BRANCH  11  12
HETATM   12  C5  UNL     1       2.364  -0.450  -0.599  1.00  0.00     0.011 C 
HETATM   13  C6  UNL     1       2.535  -0.227   0.883  1.00  0.00     0.006 C 
HETATM   14  C7  UNL     1       3.966  -0.028   1.280  1.00  0.00     0.000 C 
HETATM   15  C8  UNL     1       4.933  -0.727   0.350  1.00  0.00     0.000 C 
HETATM   16  C9  UNL     1       4.801  -0.300  -1.076  1.00  0.00     0.000 C 
HETATM   17  C10 UNL     1       3.446   0.331  -1.302  1.00  0.00     0.006 C 
ENDBRANCH  11  12
ENDBRANCH   8  11
ENDBRANCH   1   8
BRANCH   1  18
HETATM   18  C11 UNL     1      -2.334  -0.862  -0.132  1.00  0.00     0.162 C 
HETATM   19  N3  UNL     1      -3.498  -0.683   0.559  1.00  0.00    -0.274 N 
ATOM     20  H3  UNL     1      -3.773   0.275   0.774  1.00  0.00     0.189 HD
BRANCH  18  21
HETATM   21  O1  UNL     1      -1.964  -2.083  -0.393  1.00  0.00    -0.347 OA
ATOM     22  H1  UNL     1      -2.593  -2.707  -0.050  1.00  0.00     0.219 HD
ENDBRANCH  18  21
BRANCH  19  23
HETATM   23  N4  UNL     1      -4.340  -1.704   0.994  1.00  0.00    -0.243 N 
HETATM   24  C12 UNL     1      -5.499  -1.538   1.697  1.00  0.00     0.224 A 
HETATM   25  N5  UNL     1      -5.996  -2.744   1.907  1.00  0.00    -0.293 N 
HETATM   26  N6  UNL     1      -5.241  -3.673   1.392  1.00  0.00    -0.293 N 
ATOM     27  H5  UNL     1      -6.864  -2.926   2.411  1.00  0.00     0.187 HD
HETATM   28  C13 UNL     1      -4.193  -3.007   0.815  1.00  0.00     0.224 A 
ATOM     29  H6  UNL     1      -5.397  -4.681   1.414  1.00  0.00     0.187 HD
ENDBRANCH  19  23
ENDBRANCH   1  18
TORSDOF 9
