REMARK  8 active torsions:
REMARK  status: ('A' for Active; 'I' for Inactive)
REMARK    1  A    between atoms: C2_2  and  C3_3 
REMARK    2  A    between atoms: C3_3  and  N1_4 
REMARK    3  A    between atoms: N1_4  and  C4_7 
REMARK    4  A    between atoms: C4_7  and  C5_8 
REMARK    5  A    between atoms: C5_8  and  C6_9 
REMARK    6  A    between atoms: C6_9  and  C7_11 
REMARK    7  A    between atoms: C7_11  and  S1_13 
REMARK    8  A    between atoms: S1_13  and  C9_14 
ROOT
HETATM    1  C9  UNL     1       3.435  -0.131  -0.834  1.00  0.00     0.164 A 
HETATM    2  N2  UNL     1       3.786  -1.419  -0.837  1.00  0.00    -0.288 N 
ATOM      3  H2  UNL     1       3.094  -2.131  -1.071  1.00  0.00     0.172 HD
HETATM    4  C10 UNL     1       5.064  -1.792  -0.530  1.00  0.00     0.340 A 
HETATM    5  O2  UNL     1       5.415  -2.994  -0.526  1.00  0.00    -0.246 OA
HETATM    6  N3  UNL     1       5.976  -0.866  -0.224  1.00  0.00    -0.141 N 
ATOM      7  H3  UNL     1       6.931  -1.142   0.005  1.00  0.00     0.189 HD
HETATM    8  C11 UNL     1       5.631   0.416  -0.220  1.00  0.00     0.681 A 
HETATM    9  N4  UNL     1       6.441   1.385   0.063  1.00  0.00    -0.234 N 
ATOM     10  H41 UNL     1       6.176   2.370   0.066  1.00  0.00     0.174 HD
ATOM     11  H42 UNL     1       7.395   1.106   0.292  1.00  0.00     0.174 HD
HETATM   12  N5  UNL     1       4.350   0.791  -0.527  1.00  0.00    -0.170 N 
ATOM     13  H5  UNL     1       4.094   1.778  -0.521  1.00  0.00     0.186 HD
ENDROOT
BRANCH   1  14
HETATM   14  S1  UNL     1       1.780   0.342  -1.232  1.00  0.00    -0.081 SA
BRANCH  14  15
HETATM   15  C7  UNL     1       0.800   0.382   0.266  1.00  0.00     0.120 C 
HETATM   16  C8  UNL     1       0.852  -0.934   1.009  1.00  0.00     0.030 C 
BRANCH  15  17
HETATM   17  C6  UNL     1      -0.606   0.769   0.035  1.00  0.00     0.142 C 
HETATM   18  O1  UNL     1      -1.102   0.940  -1.063  1.00  0.00    -0.297 OA
BRANCH  17  19
HETATM   19  C5  UNL     1      -1.470   0.963   1.232  1.00  0.00     0.107 C 
BRANCH  19  20
HETATM   20  C4  UNL     1      -2.883   1.357   0.854  1.00  0.00     0.240 C 
BRANCH  20  21
HETATM   21  N1  UNL     1      -3.417   0.284   0.040  1.00  0.00    -0.072 N 
ATOM     22  H12 UNL     1      -3.344  -0.609   0.528  1.00  0.00     0.277 HD
ATOM     23  H11 UNL     1      -2.805   0.095  -0.754  1.00  0.00     0.277 HD
BRANCH  21  24
HETATM   24  C3  UNL     1      -4.758   0.510  -0.400  1.00  0.00     0.259 C 
BRANCH  24  25
HETATM   25  C2  UNL     1      -5.181  -0.653  -1.217  1.00  0.00    -0.010 C 
HETATM   26  C1  UNL     1      -6.227  -1.369  -0.835  1.00  0.00     0.008 C 
ENDBRANCH  24  25
ENDBRANCH  21  24
ENDBRANCH  20  21
ENDBRANCH  19  20
ENDBRANCH  17  19
ENDBRANCH  15  17
ENDBRANCH  14  15
ENDBRANCH   1  14
TORSDOF 8
