REMARK  9 active torsions:
REMARK  status: ('A' for Active; 'I' for Inactive)
REMARK    1  A    between atoms: N1_1  and  C1_5 
REMARK    2  A    between atoms: C1_5  and  C2_6 
REMARK    3  A    between atoms: C2_6  and  C3_7 
REMARK    4  A    between atoms: C3_7  and  N2_8 
REMARK    5  A    between atoms: C4_10  and  N3_11 
REMARK    6  A    between atoms: N3_11  and  N4_13 
REMARK    7  A    between atoms: C5_15  and  C6_17 
REMARK    8  A    between atoms: C9_24  and  N8_25 
REMARK    9  A    between atoms: N8_25  and  C10_27 
ROOT
HETATM    1  N4  UNL     1      -0.176   0.151  -0.067  1.00  0.00    -0.285 N 
ATOM      2  H4  UNL     1      -0.790  -0.649  -0.223  1.00  0.00     0.188 HD
HETATM    3  C5  UNL     1      -0.695   1.287   0.116  1.00  0.00     0.161 C 
HETATM    4  N5  UNL     1       0.273   2.352   0.328  1.00  0.00    -0.079 NA
ENDROOT
BRANCH   3   5
HETATM    5  C6  UNL     1      -2.097   1.614   0.135  1.00  0.00     0.119 A 
HETATM    6  N6  UNL     1      -2.425   2.938   0.357  1.00  0.00    -0.359 N 
HETATM    7  C7  UNL     1      -3.668   3.395   0.403  1.00  0.00     0.105 A 
ATOM      8  H6  UNL     1      -1.664   3.604   0.494  1.00  0.00     0.165 HD
HETATM    9  C8  UNL     1      -4.683   2.457   0.212  1.00  0.00     0.106 A 
HETATM   10  N7  UNL     1      -4.424   1.174  -0.004  1.00  0.00    -0.349 N 
HETATM   11  C9  UNL     1      -3.107   0.735  -0.045  1.00  0.00     0.132 A 
ATOM     12  H7  UNL     1      -5.189   0.513  -0.139  1.00  0.00     0.167 HD
BRANCH  11  13
HETATM   13  N8  UNL     1      -2.889  -0.641  -0.278  1.00  0.00    -0.370 N 
ATOM     14  H8  UNL     1      -1.941  -1.016  -0.317  1.00  0.00     0.161 HD
BRANCH  13  15
HETATM   15  C10 UNL     1      -4.064  -1.536  -0.466  1.00  0.00     0.083 A 
HETATM   16  C11 UNL     1      -5.021  -1.618   0.646  1.00  0.00     0.027 A 
HETATM   17  C12 UNL     1      -4.086  -2.776   0.446  1.00  0.00     0.027 A 
ENDBRANCH  13  15
ENDBRANCH  11  13
ENDBRANCH   3   5
BRANCH   1  18
HETATM   18  N3  UNL     1       1.195  -0.053  -0.065  1.00  0.00    -0.295 N 
ATOM     19  H3  UNL     1       1.766   0.393  -0.783  1.00  0.00     0.187 HD
BRANCH  18  20
HETATM   20  C4  UNL     1       1.824  -0.869   0.915  1.00  0.00     0.192 C 
HETATM   21  N2  UNL     1       2.900  -1.475   0.609  1.00  0.00    -0.385 N 
ATOM     22  H2  UNL     1       3.326  -2.053   1.333  1.00  0.00     0.160 HD
BRANCH  21  23
HETATM   23  C3  UNL     1       3.569  -1.423  -0.655  1.00  0.00     0.122 C 
BRANCH  23  24
HETATM   24  C2  UNL     1       4.679  -0.387  -0.601  1.00  0.00     0.047 C 
BRANCH  24  25
HETATM   25  C1  UNL     1       5.633  -0.833   0.502  1.00  0.00     0.231 C 
BRANCH  25  26
HETATM   26  N1  UNL     1       6.703   0.140   0.573  1.00  0.00    -0.079 N 
ATOM     27  H13 UNL     1       7.170   0.283  -0.322  1.00  0.00     0.274 HD
ATOM     28  H12 UNL     1       6.365   1.094   0.701  1.00  0.00     0.274 HD
ATOM     29  H11 UNL     1       7.341  -0.158   1.311  1.00  0.00     0.274 HD
ENDBRANCH  25  26
ENDBRANCH  24  25
ENDBRANCH  23  24
ENDBRANCH  21  23
ENDBRANCH  18  20
ENDBRANCH   1  18
TORSDOF 9
