REMARK  9 active torsions:
REMARK  status: ('A' for Active; 'I' for Inactive)
REMARK    1  A    between atoms: N1_1  and  C1_5 
REMARK    2  A    between atoms: C1_5  and  C2_6 
REMARK    3  A    between atoms: C1_5  and  C12_26 
REMARK    4  A    between atoms: C2_6  and  C3_7 
REMARK    5  A    between atoms: C3_7  and  C4_8 
REMARK    6  A    between atoms: C4_8  and  N2_9 
REMARK    7  A    between atoms: C4_8  and  C9_20 
REMARK    8  A    between atoms: N2_9  and  C5_12 
REMARK    9  A    between atoms: C5_12  and  C6_13 
ROOT
HETATM    1  C4  UNL     1      -0.177   1.394   0.680  1.00  0.00     0.244 C 
ENDROOT
BRANCH   1   2
HETATM    2  C3  UNL     1      -1.337   0.790  -0.060  1.00  0.00     0.042 C 
BRANCH   2   3
HETATM    3  C2  UNL     1      -1.895  -0.390   0.714  1.00  0.00     0.046 C 
BRANCH   3   4
HETATM    4  C1  UNL     1      -3.065  -1.002  -0.025  1.00  0.00     0.283 C 
BRANCH   4   5
HETATM    5  N1  UNL     1      -2.711  -1.478  -1.327  1.00  0.00    -0.065 N 
ATOM      6  H13 UNL     1      -2.276  -0.740  -1.880  1.00  0.00     0.275 HD
ATOM      7  H12 UNL     1      -1.929  -2.131  -1.277  1.00  0.00     0.275 HD
ATOM      8  H11 UNL     1      -3.500  -1.891  -1.825  1.00  0.00     0.275 HD
ENDBRANCH   4   5
BRANCH   4   9
HETATM    9  C12 UNL     1      -3.691  -2.095   0.750  1.00  0.00     0.204 C 
HETATM   10  O2  UNL     1      -3.832  -3.219   0.204  1.00  0.00    -0.646 OA
HETATM   11  O3  UNL     1      -4.123  -1.893   2.073  1.00  0.00    -0.646 OA
ENDBRANCH   4   9
ENDBRANCH   3   4
ENDBRANCH   2   3
ENDBRANCH   1   2
BRANCH   1  12
HETATM   12  N2  UNL     1       0.901   0.472   0.888  1.00  0.00    -0.060 N 
ATOM     13  H22 UNL     1       1.608   0.877   1.502  1.00  0.00     0.278 HD
ATOM     14  H21 UNL     1       0.599  -0.310   1.469  1.00  0.00     0.278 HD
BRANCH  12  15
HETATM   15  C5  UNL     1       1.497  -0.001  -0.326  1.00  0.00     0.291 C 
BRANCH  15  16
HETATM   16  C6  UNL     1       2.606  -0.948  -0.041  1.00  0.00     0.051 A 
HETATM   17  C7  UNL     1       3.408  -1.573  -0.970  1.00  0.00     0.115 A 
HETATM   18  N3  UNL     1       4.309  -2.365  -0.325  1.00  0.00    -0.360 N 
HETATM   19  C8  UNL     1       4.049  -2.216   0.987  1.00  0.00     0.180 A 
ATOM     20  H3  UNL     1       5.030  -2.949  -0.748  1.00  0.00     0.166 HD
HETATM   21  N4  UNL     1       3.024  -1.363   1.169  1.00  0.00    -0.353 N 
ATOM     22  H4  UNL     1       2.632  -1.080   2.067  1.00  0.00     0.166 HD
ENDBRANCH  15  16
ENDBRANCH  12  15
ENDBRANCH   1  12
BRANCH   1  23
HETATM   23  C9  UNL     1       0.292   2.579  -0.076  1.00  0.00     0.100 A 
HETATM   24  C10 UNL     1       1.437   3.338   0.085  1.00  0.00     0.124 A 
HETATM   25  N5  UNL     1       1.410   4.309  -0.851  1.00  0.00    -0.354 N 
HETATM   26  C11 UNL     1       0.290   4.157  -1.565  1.00  0.00     0.233 A 
ATOM     27  H5  UNL     1       2.118   5.030  -0.989  1.00  0.00     0.166 HD
HETATM   28  O1  UNL     1      -0.348   3.133  -1.089  1.00  0.00    -0.307 OA
ENDBRANCH   1  23
TORSDOF 9
