REMARK  8 active torsions:
REMARK  status: ('A' for Active; 'I' for Inactive)
REMARK    1  A    between atoms: C3_7  and  C4_8 
REMARK    2  A    between atoms: C4_8  and  C7_11 
REMARK    3  A    between atoms: C7_11  and  N3_12 
REMARK    4  A    between atoms: N3_12  and  C8_15 
REMARK    5  A    between atoms: C8_15  and  C9_16 
REMARK    6  A    between atoms: C8_15  and  C10_21 
REMARK    7  A    between atoms: C9_16  and  S1_17 
REMARK    8  A    between atoms: S1_17  and  N4_18 
ROOT
HETATM    1  C7  UNL     1      -0.033   0.474  -0.045  1.00  0.00     0.250 C 
ENDROOT
BRANCH   1   2
HETATM    2  C4  UNL     1      -0.876  -0.572  -0.796  1.00  0.00     0.036 C 
HETATM    3  C5  UNL     1      -0.714  -1.945  -0.190  1.00  0.00     0.025 C 
HETATM    4  C6  UNL     1      -0.519  -0.670  -2.248  1.00  0.00     0.025 C 
BRANCH   2   5
HETATM    5  C3  UNL     1      -2.280  -0.119  -0.608  1.00  0.00     0.107 A 
HETATM    6  N2  UNL     1      -2.959   0.816  -1.280  1.00  0.00    -0.287 N 
HETATM    7  N1  UNL     1      -4.172   0.885  -0.718  1.00  0.00    -0.288 N 
ATOM      8  H2  UNL     1      -2.619   1.369  -2.067  1.00  0.00     0.188 HD
HETATM    9  C2  UNL     1      -4.262   0.014   0.289  1.00  0.00     0.093 A 
ATOM     10  H1  UNL     1      -4.919   1.512  -1.016  1.00  0.00     0.188 HD
HETATM   11  C1  UNL     1      -5.388  -0.290   1.220  1.00  0.00     0.090 C 
HETATM   12  N6  UNL     1      -3.079  -0.598   0.343  1.00  0.00    -0.333 N 
ATOM     13  H6  UNL     1      -2.824  -1.324   1.012  1.00  0.00     0.168 HD
ENDBRANCH   2   5
ENDBRANCH   1   2
BRANCH   1  14
HETATM   14  N3  UNL     1       1.348   0.123  -0.150  1.00  0.00    -0.061 N 
ATOM     15  H32 UNL     1       1.489  -0.870   0.033  1.00  0.00     0.278 HD
ATOM     16  H31 UNL     1       1.663   0.158  -1.120  1.00  0.00     0.278 HD
BRANCH  14  17
HETATM   17  C8  UNL     1       2.201   0.943   0.710  1.00  0.00     0.285 C 
BRANCH  17  18
HETATM   18  C9  UNL     1       3.599   0.396   0.347  1.00  0.00     0.139 C 
BRANCH  18  19
HETATM   19  S1  UNL     1       3.508  -1.373   0.757  1.00  0.00    -0.060 SA
BRANCH  19  20
HETATM   20  N4  UNL     1       4.843  -2.293   0.129  1.00  0.00    -0.374 N 
ATOM     21  H42 UNL     1       5.595  -1.868  -0.414  1.00  0.00     0.164 HD
ATOM     22  H41 UNL     1       4.792  -3.285   0.359  1.00  0.00     0.164 HD
ENDBRANCH  19  20
ENDBRANCH  18  19
ENDBRANCH  17  18
BRANCH  17  23
HETATM   23  C10 UNL     1       2.061   2.365   0.468  1.00  0.00     0.262 C 
HETATM   24  N5  UNL     1       2.328   3.284   1.546  1.00  0.00    -0.060 NA
HETATM   25  O1  UNL     1       1.717   2.892  -0.624  1.00  0.00    -0.275 OA
ENDBRANCH  17  23
ENDBRANCH  14  17
ENDBRANCH   1  14
TORSDOF 8
