REMARK  9 active torsions:
REMARK  status: ('A' for Active; 'I' for Inactive)
REMARK    1  A    between atoms: O1_2  and  C2_3 
REMARK    2  A    between atoms: C5_6  and  C6_7 
REMARK    3  A    between atoms: C6_7  and  C7_8 
REMARK    4  A    between atoms: C7_8  and  N1_9 
REMARK       I    between atoms: C8_11  and  N3_13 
REMARK    5  A    between atoms: N3_13  and  N4_15 
REMARK    6  A    between atoms: N4_15  and  O2_16 
REMARK    7  A    between atoms: N5_18  and  N6_20 
REMARK    8  A    between atoms: C9_23  and  N7_24 
REMARK    9  A    between atoms: N7_24  and  C10_26 
ROOT
HETATM    1  C7  UNL     1       0.846  -0.124  -1.407  1.00  0.00     0.127 C 
ENDROOT
BRANCH   1   2
HETATM    2  C6  UNL     1       0.080  -1.066  -0.473  1.00  0.00     0.060 C 
BRANCH   2   3
HETATM    3  C5  UNL     1      -1.372  -0.759  -0.472  1.00  0.00    -0.030 A 
HETATM    4  C4  UNL     1      -2.245  -1.537  -1.233  1.00  0.00     0.012 A 
HETATM    5  C3  UNL     1      -3.590  -1.230  -1.250  1.00  0.00     0.037 A 
HETATM    6  C2  UNL     1      -4.082  -0.172  -0.530  1.00  0.00     0.070 A 
HETATM    7  C11 UNL     1      -3.173   0.571   0.211  1.00  0.00     0.066 A 
HETATM    8  C9  UNL     1      -1.831   0.336   0.283  1.00  0.00     0.043 A 
BRANCH   6   9
HETATM    9  O1  UNL     1      -5.424   0.114  -0.564  1.00  0.00    -0.356 OA
HETATM   10  C1  UNL     1      -6.272  -0.699  -1.347  1.00  0.00     0.210 C 
ENDBRANCH   6   9
BRANCH   8  11
HETATM   11  N7  UNL     1      -0.910   1.069   1.056  1.00  0.00    -0.334 N 
ATOM     12  H7  UNL     1       0.055   0.738   1.079  1.00  0.00     0.168 HD
BRANCH  11  13
HETATM   13  C10 UNL     1      -1.218   2.219   1.797  1.00  0.00     0.353 C 
HETATM   14  O3  UNL     1      -2.318   2.792   1.909  1.00  0.00    -0.283 OA
ENDBRANCH  11  13
ENDBRANCH   8  11
ENDBRANCH   2   3
ENDBRANCH   1   2
BRANCH   1  15
HETATM   15  N1  UNL     1       2.234  -0.519  -1.309  1.00  0.00    -0.363 N 
HETATM   16  C8  UNL     1       3.069   0.294  -0.776  1.00  0.00     0.206 C 
HETATM   17  N2  UNL     1       2.697   1.575  -0.272  1.00  0.00    -0.062 NA
HETATM   18  N3  UNL     1       4.427  -0.102  -0.684  1.00  0.00    -0.230 N 
ATOM     19  H3  UNL     1       4.933  -0.426  -1.508  1.00  0.00     0.194 HD
ATOM     20  H1  UNL     1       2.542  -1.427  -1.657  1.00  0.00     0.162 HD
BRANCH  18  21
HETATM   21  N4  UNL     1       5.053  -0.039   0.553  1.00  0.00    -0.078 N 
HETATM   22  N5  UNL     1       6.150  -0.644   0.707  1.00  0.00    -0.207 N 
ATOM     23  H5  UNL     1       6.558  -1.165  -0.069  1.00  0.00     0.212 HD
BRANCH  21  24
HETATM   24  O2  UNL     1       4.497   0.662   1.588  1.00  0.00    -0.252 OA
ATOM     25  H2  UNL     1       4.926   0.705   2.435  1.00  0.00     0.248 HD
ENDBRANCH  21  24
BRANCH  22  26
HETATM   26  N6  UNL     1       6.804  -0.601   1.935  1.00  0.00    -0.328 N 
ATOM     27  H62 UNL     1       6.383  -0.076   2.701  1.00  0.00     0.178 HD
ATOM     28  H61 UNL     1       7.690  -1.090   2.059  1.00  0.00     0.178 HD
ENDBRANCH  22  26
ENDBRANCH  18  21
ENDBRANCH   1  15
TORSDOF 9
