REMARK  11 active torsions:
REMARK  status: ('A' for Active; 'I' for Inactive)
REMARK    1  A    between atoms: C2_2  and  C4_4 
REMARK    2  A    between atoms: C4_4  and  C5_5 
REMARK    3  A    between atoms: C5_5  and  O1_6 
REMARK    4  A    between atoms: C5_5  and  C6_8 
REMARK    5  A    between atoms: C6_8  and  N1_9 
REMARK    6  A    between atoms: C6_8  and  C8_12 
REMARK    7  A    between atoms: N1_9  and  C7_10 
REMARK    8  A    between atoms: C8_12  and  O3_13 
REMARK    9  A    between atoms: C8_12  and  C9_15 
REMARK   10  A    between atoms: C9_15  and  O4_16 
REMARK   11  A    between atoms: C9_15  and  C10_18 
ROOT
HETATM    1  C8  UNL     1       0.677   0.949  -0.493  1.00  0.00     0.191 C 
ENDROOT
BRANCH   1   2
HETATM    2  C6  UNL     1       0.143  -0.376  -0.111  1.00  0.00     0.226 C 
BRANCH   2   3
HETATM    3  C5  UNL     1      -1.296  -0.330   0.485  1.00  0.00     0.157 C 
BRANCH   3   4
HETATM    4  C4  UNL     1      -2.272   0.506  -0.183  1.00  0.00     0.039 C 
BRANCH   4   5
HETATM    5  C2  UNL     1      -3.657   0.289   0.463  1.00  0.00    -0.020 C 
HETATM    6  C1  UNL     1      -4.139  -1.105   0.332  1.00  0.00     0.009 C 
HETATM    7  C3  UNL     1      -4.653   1.260  -0.133  1.00  0.00     0.009 C 
ENDBRANCH   4   5
ENDBRANCH   3   4
BRANCH   3   8
HETATM    8  O1  UNL     1      -1.671  -1.693   0.392  1.00  0.00    -0.392 OA
ATOM      9  H1  UNL     1      -1.031  -2.241   0.830  1.00  0.00     0.210 HD
ENDBRANCH   3   8
ENDBRANCH   2   3
BRANCH   2  10
HETATM   10  N1  UNL     1       0.864  -1.161   0.644  1.00  0.00    -0.412 NA
BRANCH  10  11
HETATM   11  C7  UNL     1       1.646  -2.012   1.464  1.00  0.00     0.435 C 
HETATM   12  O2  UNL     1       1.917  -1.903   2.648  1.00  0.00    -0.269 OA
ENDBRANCH  10  11
ENDBRANCH   2  10
ENDBRANCH   1   2
BRANCH   1  13
HETATM   13  O3  UNL     1      -0.281   1.666  -1.283  1.00  0.00    -0.389 OA
ATOM     14  H3  UNL     1       0.062   2.517  -1.528  1.00  0.00     0.210 HD
ENDBRANCH   1  13
BRANCH   1  15
HETATM   15  C9  UNL     1       1.886   0.791  -1.423  1.00  0.00     0.201 C 
BRANCH  15  16
HETATM   16  O4  UNL     1       2.233   2.132  -1.821  1.00  0.00    -0.387 OA
ATOM     17  H4  UNL     1       2.982   2.034  -2.397  1.00  0.00     0.210 HD
ENDBRANCH  15  16
BRANCH  15  18
HETATM   18  C10 UNL     1       3.099   0.261  -0.798  1.00  0.00     0.056 A 
HETATM   19  C11 UNL     1       3.664   0.988   0.242  1.00  0.00     0.115 A 
HETATM   20  N2  UNL     1       4.809   0.514   0.759  1.00  0.00    -0.372 N 
HETATM   21  C12 UNL     1       5.402  -0.599   0.320  1.00  0.00     0.104 A 
ATOM     22  H2  UNL     1       5.247   1.029   1.523  1.00  0.00     0.164 HD
HETATM   23  C13 UNL     1       4.829  -1.319  -0.721  1.00  0.00     0.105 A 
HETATM   24  N3  UNL     1       3.694  -0.849  -1.233  1.00  0.00    -0.365 N 
ATOM     25  H3  UNL     1       3.257  -1.365  -1.997  1.00  0.00     0.165 HD
ENDBRANCH  15  18
ENDBRANCH   1  15
TORSDOF 11
