REMARK  7 active torsions:
REMARK  status: ('A' for Active; 'I' for Inactive)
REMARK    1  A    between atoms: N1_1  and  N2_4 
REMARK       I    between atoms: N2_4  and  C1_5 
REMARK       I    between atoms: C1_5  and  N3_6 
REMARK       I    between atoms: C1_5  and  N4_10 
REMARK       I    between atoms: N4_10  and  C2_12 
REMARK    2  A    between atoms: C2_12  and  C3_14 
REMARK    3  A    between atoms: C3_14  and  C4_15 
REMARK    4  A    between atoms: C4_15  and  C5_16 
REMARK    5  A    between atoms: C5_16  and  N5_17 
REMARK    6  A    between atoms: N5_17  and  C6_19 
REMARK    7  A    between atoms: C9_22  and  N6_23 
ROOT
HETATM    1  C3  UNL     1       0.916  -2.436   0.562  1.00  0.00     0.104 C 
ENDROOT
BRANCH   1   2
HETATM    2  C2  UNL     1       1.517  -1.368   1.378  1.00  0.00     0.220 C 
HETATM    3  N4  UNL     1       2.894  -1.032   1.184  1.00  0.00    -0.319 N 
HETATM    4  C1  UNL     1       3.551   0.000   1.944  1.00  0.00     0.398 C 
ATOM      5  H4  UNL     1       3.430  -1.542   0.482  1.00  0.00     0.165 HD
HETATM    6  N2  UNL     1       4.027   1.081   1.102  1.00  0.00    -0.093 NA
HETATM    7  N3  UNL     1       4.615  -0.551   2.754  1.00  0.00    -0.042 N 
ATOM      8  H33 UNL     1       5.406  -0.845   2.181  1.00  0.00     0.278 HD
ATOM      9  H32 UNL     1       5.078   0.173   3.303  1.00  0.00     0.278 HD
ATOM     10  H31 UNL     1       4.280  -1.311   3.346  1.00  0.00     0.278 HD
HETATM   11  O1  UNL     1       0.884  -0.725   2.247  1.00  0.00    -0.274 OA
BRANCH   6  12
HETATM   12  N1  UNL     1       3.036   1.630   0.318  1.00  0.00    -0.345 N 
ATOM     13  H12 UNL     1       2.071   1.299   0.339  1.00  0.00     0.172 HD
ATOM     14  H11 UNL     1       3.371   2.390  -0.274  1.00  0.00     0.172 HD
ENDBRANCH   6  12
ENDBRANCH   1   2
BRANCH   1  15
HETATM   15  C4  UNL     1      -0.533  -2.674   0.756  1.00  0.00     0.029 C 
BRANCH  15  16
HETATM   16  C5  UNL     1      -1.438  -1.516   0.424  1.00  0.00     0.120 C 
BRANCH  16  17
HETATM   17  N5  UNL     1      -1.307  -1.105  -0.955  1.00  0.00    -0.390 N 
ATOM     18  H5  UNL     1      -0.651  -1.604  -1.555  1.00  0.00     0.159 HD
BRANCH  17  19
HETATM   19  C6  UNL     1      -2.057  -0.032  -1.507  1.00  0.00     0.028 A 
HETATM   20  C7  UNL     1      -2.964   0.694  -0.763  1.00  0.00     0.031 A 
HETATM   21  C8  UNL     1      -3.674   1.730  -1.333  1.00  0.00     0.038 A 
HETATM   22  C9  UNL     1      -3.519   2.093  -2.662  1.00  0.00     0.103 A 
HETATM   23  C10 UNL     1      -2.610   1.362  -3.398  1.00  0.00     0.038 A 
HETATM   24  C11 UNL     1      -1.898   0.325  -2.830  1.00  0.00     0.031 A 
BRANCH  22  25
HETATM   25  N6  UNL     1      -4.263   3.163  -3.222  1.00  0.00    -0.116 N 
HETATM   26  O2  UNL     1      -5.079   3.816  -2.554  1.00  0.00    -0.532 OA
HETATM   27  O3  UNL     1      -4.086   3.496  -4.538  1.00  0.00    -0.532 OA
ENDBRANCH  22  25
ENDBRANCH  17  19
ENDBRANCH  16  17
ENDBRANCH  15  16
ENDBRANCH   1  15
TORSDOF 7
