REMARK  9 active torsions:
REMARK  status: ('A' for Active; 'I' for Inactive)
REMARK    1  A    between atoms: C2_2  and  O1_5 
REMARK    2  A    between atoms: O1_5  and  N1_6 
REMARK    3  A    between atoms: C5_8  and  C6_9 
REMARK    4  A    between atoms: C6_9  and  N2_10 
REMARK    5  A    between atoms: C6_9  and  C12_21 
REMARK    6  A    between atoms: N2_10  and  O2_11 
REMARK    7  A    between atoms: O2_11  and  C7_12 
REMARK    8  A    between atoms: C7_12  and  C8_13 
REMARK    9  A    between atoms: C8_13  and  C9_14 
ROOT
HETATM    1  C6  UNL     1      -0.267  -0.447  -0.139  1.00  0.00     0.235 C 
ENDROOT
BRANCH   1   2
HETATM    2  C5  UNL     1      -0.641  -0.166   1.245  1.00  0.00     0.119 C 
HETATM    3  N1  UNL     1      -1.849   0.024   1.509  1.00  0.00    -0.279 N 
ATOM      4  H1  UNL     1      -1.987   0.206   2.503  1.00  0.00     0.193 HD
BRANCH   3   5
HETATM    5  O1  UNL     1      -2.952   0.052   0.877  1.00  0.00    -0.271 OA
BRANCH   5   6
HETATM    6  C2  UNL     1      -3.837   0.790   0.154  1.00  0.00     0.078 C 
HETATM    7  C1  UNL     1      -5.034  -0.164  -0.146  1.00  0.00     0.048 C 
HETATM    8  C3  UNL     1      -3.370   1.256  -1.177  1.00  0.00     0.048 C 
HETATM    9  C4  UNL     1      -4.400   1.976   0.910  1.00  0.00     0.048 C 
ENDBRANCH   5   6
ENDBRANCH   3   5
ENDBRANCH   1   2
BRANCH   1  10
HETATM   10  N2  UNL     1       1.114  -0.442  -0.468  1.00  0.00    -0.082 NA
BRANCH  10  11
HETATM   11  O2  UNL     1       1.791  -1.218   0.343  1.00  0.00    -0.285 OA
BRANCH  11  12
HETATM   12  C7  UNL     1       2.977  -1.719  -0.245  1.00  0.00     0.202 C 
BRANCH  12  13
HETATM   13  C8  UNL     1       4.023  -1.064   0.689  1.00  0.00     0.086 C 
BRANCH  13  14
HETATM   14  C9  UNL     1       4.487   0.251   0.243  1.00  0.00     0.027 A 
HETATM   15  C10 UNL     1       5.701   0.325  -0.550  1.00  0.00     0.114 A 
HETATM   16  N3  UNL     1       5.949   1.592  -0.910  1.00  0.00    -0.360 N 
HETATM   17  C11 UNL     1       4.958   2.334  -0.396  1.00  0.00     0.180 A 
ATOM     18  H3  UNL     1       6.737   1.926  -1.466  1.00  0.00     0.166 HD
HETATM   19  N4  UNL     1       4.094   1.532   0.295  1.00  0.00    -0.355 N 
ATOM     20  H4  UNL     1       3.262   1.863   0.784  1.00  0.00     0.166 HD
ENDBRANCH  13  14
ENDBRANCH  12  13
ENDBRANCH  11  12
ENDBRANCH  10  11
ENDBRANCH   1  10
BRANCH   1  21
HETATM   21  C12 UNL     1      -0.785  -1.723  -0.677  1.00  0.00     0.257 C 
HETATM   22  N5  UNL     1      -1.469  -2.717   0.019  1.00  0.00    -0.060 NA
HETATM   23  O3  UNL     1      -0.547  -1.880  -1.936  1.00  0.00    -0.275 OA
ENDBRANCH   1  21
TORSDOF 9
