REMARK  9 active torsions:
REMARK  status: ('A' for Active; 'I' for Inactive)
REMARK    1  A    between atoms: C1_2  and  C2_4 
REMARK    2  A    between atoms: C2_4  and  C3_5 
REMARK    3  A    between atoms: C2_4  and  N3_12 
REMARK    4  A    between atoms: C3_5  and  N1_6 
REMARK    5  A    between atoms: N3_12  and  C7_14 
REMARK    6  A    between atoms: C7_14  and  C8_15 
REMARK    7  A    between atoms: C8_15  and  C9_16 
REMARK    8  A    between atoms: C9_16  and  O3_17 
REMARK    9  A    between atoms: C9_16  and  C10_19 
ROOT
HETATM    1  N3  UNL     1      -0.869   0.188   0.771  1.00  0.00    -0.407 N 
ATOM      2  H3  UNL     1      -0.717  -0.820   0.810  1.00  0.00     0.154 HD
ENDROOT
BRANCH   1   3
HETATM    3  C2  UNL     1      -2.118   0.774   1.112  1.00  0.00     0.197 C 
BRANCH   3   4
HETATM    4  C1  UNL     1      -2.078   1.636   2.299  1.00  0.00     0.198 C 
HETATM    5  O1  UNL     1      -1.057   1.823   2.980  1.00  0.00    -0.646 OA
HETATM    6  O2  UNL     1      -3.267   2.271   2.665  1.00  0.00    -0.646 OA
ENDBRANCH   3   4
BRANCH   3   7
HETATM    7  C3  UNL     1      -3.197  -0.311   1.247  1.00  0.00     0.165 C 
BRANCH   7   8
HETATM    8  N1  UNL     1      -3.218  -1.140   0.059  1.00  0.00    -0.349 N 
HETATM    9  C4  UNL     1      -3.963  -0.929  -1.063  1.00  0.00     0.108 A 
HETATM   10  C5  UNL     1      -3.734  -1.917  -1.993  1.00  0.00     0.106 A 
HETATM   11  N2  UNL     1      -2.827  -2.749  -1.424  1.00  0.00    -0.361 N 
HETATM   12  C6  UNL     1      -2.522  -2.270  -0.183  1.00  0.00     0.182 A 
ATOM     13  H2  UNL     1      -2.439  -3.590  -1.851  1.00  0.00     0.166 HD
ENDBRANCH   7   8
ENDBRANCH   3   7
ENDBRANCH   1   3
BRANCH   1  14
HETATM   14  C7  UNL     1       0.170   1.099   0.367  1.00  0.00     0.117 C 
BRANCH  14  15
HETATM   15  C8  UNL     1       1.401   0.263   0.072  1.00  0.00     0.057 C 
BRANCH  15  16
HETATM   16  C9  UNL     1       2.566   1.119  -0.364  1.00  0.00     0.170 C 
BRANCH  16  17
HETATM   17  O3  UNL     1       2.182   1.790  -1.516  1.00  0.00    -0.389 OA
ATOM     18  H3  UNL     1       2.915   2.329  -1.790  1.00  0.00     0.210 HD
ENDBRANCH  16  17
BRANCH  16  19
HETATM   19  C10 UNL     1       3.727   0.235  -0.580  1.00  0.00     0.054 A 
HETATM   20  C11 UNL     1       3.912  -0.610  -1.647  1.00  0.00     0.116 A 
HETATM   21  N4  UNL     1       5.096  -1.260  -1.493  1.00  0.00    -0.360 N 
HETATM   22  C12 UNL     1       5.640  -0.826  -0.344  1.00  0.00     0.180 A 
ATOM     23  H4  UNL     1       5.496  -1.948  -2.130  1.00  0.00     0.166 HD
HETATM   24  N5  UNL     1       4.798   0.089   0.211  1.00  0.00    -0.352 N 
ATOM     25  H5  UNL     1       4.957   0.584   1.089  1.00  0.00     0.166 HD
ENDBRANCH  16  19
ENDBRANCH  15  16
ENDBRANCH  14  15
ENDBRANCH   1  14
TORSDOF 9
