REMARK  9 active torsions:
REMARK  status: ('A' for Active; 'I' for Inactive)
REMARK    1  A    between atoms: C1_4  and  C2_5 
REMARK    2  A    between atoms: C2_5  and  N2_6 
REMARK    3  A    between atoms: C2_5  and  C3_9 
REMARK    4  A    between atoms: N2_6  and  O1_7 
REMARK       I    between atoms: C3_9  and  N3_11 
REMARK    5  A    between atoms: N3_11  and  C4_13 
REMARK    6  A    between atoms: C4_13  and  C5_14 
REMARK    7  A    between atoms: C4_13  and  C12_21 
REMARK    8  A    between atoms: C5_14  and  C6_15 
REMARK    9  A    between atoms: C12_21  and  N4_22 
ROOT
HETATM    1  C3  UNL     1      -1.687  -0.180   0.224  1.00  0.00     0.244 C 
HETATM    2  O2  UNL     1      -1.657  -0.954   1.211  1.00  0.00    -0.271 OA
HETATM    3  N3  UNL     1      -0.846  -0.401  -0.898  1.00  0.00    -0.353 N 
ATOM      4  H3  UNL     1      -0.877   0.235  -1.695  1.00  0.00     0.163 HD
ENDROOT
BRANCH   3   5
HETATM    5  C4  UNL     1       0.054  -1.531  -0.907  1.00  0.00     0.112 C 
BRANCH   5   6
HETATM    6  C5  UNL     1       1.487  -1.137  -1.103  1.00  0.00     0.065 C 
BRANCH   6   7
HETATM    7  C6  UNL     1       1.981  -0.233  -0.038  1.00  0.00    -0.056 A 
HETATM    8  C7  UNL     1       2.556  -0.758   1.112  1.00  0.00     0.007 A 
HETATM    9  C8  UNL     1       3.031   0.051   2.126  1.00  0.00     0.001 A 
HETATM   10  C9  UNL     1       2.948   1.424   2.027  1.00  0.00     0.000 A 
HETATM   11  C10 UNL     1       2.381   1.964   0.894  1.00  0.00     0.001 A 
HETATM   12  C11 UNL     1       1.905   1.141  -0.124  1.00  0.00     0.007 A 
ENDBRANCH   6   7
ENDBRANCH   5   6
BRANCH   5  13
HETATM   13  C12 UNL     1      -0.419  -2.428  -2.056  1.00  0.00     0.226 C 
BRANCH  13  14
HETATM   14  N4  UNL     1       0.450  -3.576  -2.108  1.00  0.00    -0.154 N 
HETATM   15  O3  UNL     1       1.124  -3.836  -3.125  1.00  0.00    -0.536 OA
HETATM   16  O4  UNL     1       0.534  -4.397  -1.011  1.00  0.00    -0.536 OA
ENDBRANCH  13  14
ENDBRANCH   5  13
ENDBRANCH   3   5
BRANCH   1  17
HETATM   17  C2  UNL     1      -2.625   0.967   0.268  1.00  0.00     0.235 C 
BRANCH  17  18
HETATM   18  C1  UNL     1      -1.816   2.220   0.244  1.00  0.00     0.086 C 
HETATM   19  N1  UNL     1      -2.224   3.225  -0.424  1.00  0.00    -0.409 N 
ATOM     20  H12 UNL     1      -3.104   3.157  -0.936  1.00  0.00     0.155 HD
ATOM     21  H11 UNL     1      -1.671   4.082  -0.440  1.00  0.00     0.155 HD
ENDBRANCH  17  18
BRANCH  17  22
HETATM   22  N2  UNL     1      -3.363   0.971   1.505  1.00  0.00    -0.084 NA
BRANCH  22  23
HETATM   23  O1  UNL     1      -4.176   2.041   1.591  1.00  0.00    -0.295 OA
ATOM     24  H1  UNL     1      -4.663   2.044   2.407  1.00  0.00     0.238 HD
ENDBRANCH  22  23
ENDBRANCH  17  22
ENDBRANCH   1  17
TORSDOF 9
