REMARK  9 active torsions:
REMARK  status: ('A' for Active; 'I' for Inactive)
REMARK    1  A    between atoms: C2_2  and  C4_4 
REMARK    2  A    between atoms: C12_12  and  N1_13 
REMARK       I    between atoms: N1_13  and  C13_15 
REMARK    3  A    between atoms: C13_15  and  C14_17 
REMARK    4  A    between atoms: C14_17  and  N2_20 
REMARK    5  A    between atoms: N2_20  and  C17_21 
REMARK    6  A    between atoms: C17_21  and  C18_22 
REMARK    7  A    between atoms: C18_22  and  C19_23 
REMARK    8  A    between atoms: C19_23  and  C20_24 
REMARK    9  A    between atoms: C20_24  and  O2_25 
ROOT
HETATM    1  N1  UNL     1      -0.458  -0.737   0.434  1.00  0.00    -0.354 N 
ATOM      2  H1  UNL     1      -0.634  -1.258   1.293  1.00  0.00     0.162 HD
HETATM    3  C13 UNL     1       0.888  -0.558   0.016  1.00  0.00     0.254 C 
HETATM    4  O1  UNL     1       1.060   0.088  -1.045  1.00  0.00    -0.271 OA
ENDROOT
BRANCH   3   5
HETATM    5  C14 UNL     1       2.037  -1.088   0.763  1.00  0.00     0.202 C 
HETATM    6  C15 UNL     1       1.856  -2.538   0.977  1.00  0.00     0.057 C 
HETATM    7  C16 UNL     1       2.069  -0.393   2.110  1.00  0.00     0.057 C 
BRANCH   5   8
HETATM    8  N2  UNL     1       3.337  -0.758   0.113  1.00  0.00    -0.044 N 
HETATM    9  C21 UNL     1       3.398  -1.353  -1.173  1.00  0.00     0.266 A 
HETATM   10  C22 UNL     1       4.425  -2.417  -1.134  1.00  0.00    -0.002 A 
HETATM   11  C23 UNL     1       4.944  -2.453   0.070  1.00  0.00    -0.002 A 
HETATM   12  C24 UNL     1       4.310  -1.430   0.914  1.00  0.00     0.266 A 
BRANCH   8  13
HETATM   13  C17 UNL     1       3.550   0.644   0.175  1.00  0.00     0.240 C 
BRANCH  13  14
HETATM   14  C18 UNL     1       4.104   1.420  -0.923  1.00  0.00     0.035 C 
BRANCH  14  15
HETATM   15  C19 UNL     1       5.504   1.211  -1.392  1.00  0.00     0.078 C 
BRANCH  15  16
HETATM   16  C20 UNL     1       6.522   1.505  -0.325  1.00  0.00     0.110 C 
HETATM   17  S1  UNL     1       7.724   0.488   0.069  1.00  0.00    -0.058 SA
BRANCH  16  18
HETATM   18  O2  UNL     1       6.421   2.710   0.349  1.00  0.00    -0.354 OA
ATOM     19  H2  UNL     1       7.064   2.896   1.023  1.00  0.00     0.218 HD
ENDBRANCH  16  18
ENDBRANCH  15  16
ENDBRANCH  14  15
ENDBRANCH  13  14
ENDBRANCH   8  13
ENDBRANCH   5   8
ENDBRANCH   3   5
BRANCH   1  20
HETATM   20  C12 UNL     1      -1.591  -0.216  -0.300  1.00  0.00     0.089 C 
HETATM   21  C10 UNL     1      -2.484  -1.318  -0.782  1.00  0.00     0.013 C 
HETATM   22  C8  UNL     1      -3.541  -0.768  -1.699  1.00  0.00    -0.007 C 
HETATM   23  C11 UNL     1      -3.167  -1.968   0.376  1.00  0.00     0.011 C 
HETATM   24  C7  UNL     1      -4.811  -1.457  -1.218  1.00  0.00     0.010 C 
HETATM   25  C9  UNL     1      -3.768   0.728  -1.457  1.00  0.00     0.015 C 
HETATM   26  C6  UNL     1      -4.575  -1.435   0.295  1.00  0.00    -0.013 C 
HETATM   27  C5  UNL     1      -4.674  -0.016   0.765  1.00  0.00     0.014 C 
HETATM   28  C4  UNL     1      -3.792   0.935   0.023  1.00  0.00    -0.035 C 
HETATM   29  C25 UNL     1      -2.374   0.760   0.539  1.00  0.00     0.035 C 
BRANCH  28  30
HETATM   30  C2  UNL     1      -4.269   2.345   0.375  1.00  0.00    -0.014 C 
HETATM   31  C1  UNL     1      -3.469   3.405  -0.304  1.00  0.00     0.010 C 
HETATM   32  C3  UNL     1      -5.723   2.511   0.046  1.00  0.00     0.010 C 
ENDBRANCH  28  30
ENDBRANCH   1  20
TORSDOF 9
