REMARK  7 active torsions:
REMARK  status: ('A' for Active; 'I' for Inactive)
REMARK    1  A    between atoms: C2_2  and  C3_3 
REMARK    2  A    between atoms: C6_6  and  N1_7 
REMARK       I    between atoms: N1_7  and  C7_9 
REMARK       I    between atoms: C7_9  and  N2_11 
REMARK    3  A    between atoms: N2_11  and  C8_13 
REMARK       I    between atoms: N3_25  and  C20_26 
REMARK    4  A    between atoms: C20_26  and  C21_28 
REMARK    5  A    between atoms: C21_28  and  C22_29 
REMARK    6  A    between atoms: C22_29  and  C23_30 
REMARK    7  A    between atoms: C23_30  and  C24_31 
ROOT
HETATM    1  C3  UNL     1       1.832  -1.708  -0.902  1.00  0.00     0.115 C 
HETATM    2  C4  UNL     1       0.461  -2.024  -0.468  1.00  0.00     0.031 C 
HETATM    3  C5  UNL     1       0.408  -3.316   0.330  1.00  0.00     0.014 C 
HETATM    4  C6  UNL     1      -0.208  -0.892   0.270  1.00  0.00     0.093 C 
HETATM    5  C18 UNL     1       0.753  -0.529   1.411  1.00  0.00     0.045 C 
HETATM    6  C19 UNL     1       1.870   0.232   0.750  1.00  0.00     0.128 C 
HETATM    7  N3  UNL     1       2.510  -0.642  -0.211  1.00  0.00    -0.344 N 
HETATM    8  C20 UNL     1       3.874  -0.433  -0.486  1.00  0.00     0.220 C 
HETATM    9  O2  UNL     1       4.470  -1.153  -1.308  1.00  0.00    -0.273 OA
ENDROOT
BRANCH   4  10
HETATM   10  N1  UNL     1      -1.518  -1.170   0.731  1.00  0.00    -0.338 N 
HETATM   11  C7  UNL     1      -2.619  -0.418   0.257  1.00  0.00     0.317 C 
HETATM   12  O1  UNL     1      -2.438   0.494  -0.573  1.00  0.00    -0.247 OA
HETATM   13  N2  UNL     1      -3.918  -0.704   0.724  1.00  0.00    -0.334 N 
ATOM     14  H2  UNL     1      -4.054  -1.458   1.397  1.00  0.00     0.165 HD
ATOM     15  H1  UNL     1      -1.669  -1.917   1.409  1.00  0.00     0.164 HD
BRANCH  13  16
HETATM   16  C8  UNL     1      -5.050   0.046   0.270  1.00  0.00     0.035 C 
HETATM   17  C9  UNL     1      -4.943   1.480   0.651  1.00  0.00     0.035 C 
HETATM   18  C10 UNL     1      -6.211   2.243   0.237  1.00  0.00    -0.012 C 
HETATM   19  C11 UNL     1      -6.312   2.109  -1.259  1.00  0.00     0.009 C 
HETATM   20  C15 UNL     1      -7.357   1.638   0.978  1.00  0.00     0.009 C 
HETATM   21  C12 UNL     1      -6.502   0.667  -1.600  1.00  0.00    -0.012 C 
HETATM   22  C13 UNL     1      -7.725   0.069  -0.932  1.00  0.00     0.009 C 
HETATM   23  C17 UNL     1      -5.320  -0.167  -1.205  1.00  0.00     0.035 C 
HETATM   24  C14 UNL     1      -7.521   0.178   0.547  1.00  0.00    -0.012 C 
HETATM   25  C16 UNL     1      -6.288  -0.535   0.977  1.00  0.00     0.035 C 
ENDBRANCH  13  16
ENDBRANCH   4  10
BRANCH   1  26
HETATM   26  C2  UNL     1       2.697  -2.920  -0.832  1.00  0.00    -0.012 C 
HETATM   27  C1  UNL     1       2.868  -3.753  -1.825  1.00  0.00     0.009 C 
ENDBRANCH   1  26
BRANCH   8  28
HETATM   28  C21 UNL     1       4.616   0.644   0.196  1.00  0.00     0.103 C 
BRANCH  28  29
HETATM   29  C22 UNL     1       6.055   0.718  -0.222  1.00  0.00     0.010 C 
BRANCH  29  30
HETATM   30  C23 UNL     1       6.690   1.867   0.559  1.00  0.00     0.004 C 
BRANCH  30  31
HETATM   31  C24 UNL     1       8.151   2.020   0.200  1.00  0.00    -0.023 C 
HETATM   32  C25 UNL     1       8.940   0.776   0.507  1.00  0.00     0.009 C 
HETATM   33  C26 UNL     1       8.266   2.447  -1.225  1.00  0.00     0.009 C 
ENDBRANCH  30  31
ENDBRANCH  29  30
ENDBRANCH  28  29
ENDBRANCH   8  28
TORSDOF 7
