REMARK  3 active torsions:
REMARK  status: ('A' for Active; 'I' for Inactive)
REMARK    1  A    between atoms: C2_2  and  C3_3 
REMARK    2  A    between atoms: C2_2  and  C6_7 
REMARK    3  A    between atoms: C14_21  and  N3_22 
ROOT
HETATM    1  C3  UNL     1       2.023  -1.435  -0.867  1.00  0.00    -0.049 C 
HETATM    2  C4  UNL     1       2.640  -1.835  -1.805  1.00  0.00     0.018 C 
HETATM    3  C5  UNL     1       3.381  -2.275  -2.883  1.00  0.00     0.152 C 
HETATM    4  N1  UNL     1       4.018  -2.625  -3.762  1.00  0.00    -0.182 NA
ENDROOT
BRANCH   1   5
HETATM    5  C2  UNL     1       1.149  -0.809   0.520  1.00  0.00     0.044 C 
HETATM    6  C1  UNL     1       1.680  -1.719   1.201  1.00  0.00     0.036 C 
BRANCH   5   7
HETATM    7  C6  UNL     1       0.596   0.138  -0.192  1.00  0.00     0.113 C 
HETATM    8  C7  UNL     1       0.145   1.266   0.203  1.00  0.00     0.071 C 
HETATM    9  C8  UNL     1       0.337   0.929   1.549  1.00  0.00     0.052 C 
HETATM   10  C14 UNL     1      -0.396   2.410  -0.599  1.00  0.00     0.189 C 
HETATM   11 CL1  UNL     1       1.349   1.006   2.713  1.00  0.00    -0.083 Cl
HETATM   12  C9  UNL     1      -0.923   0.259   1.960  1.00  0.00     0.044 C 
HETATM   13  C10 UNL     1      -2.153  -0.145   1.501  1.00  0.00     0.019 C 
HETATM   14 CL2  UNL     1      -3.386  -0.862   2.337  1.00  0.00    -0.089 Cl
HETATM   15  C11 UNL     1      -2.880  -0.007  -0.096  1.00  0.00     0.114 C 
HETATM   16  C12 UNL     1      -1.881   0.646  -0.763  1.00  0.00     0.092 C 
HETATM   17  C13 UNL     1      -1.272  -0.438  -1.144  1.00  0.00     0.311 C 
HETATM   18  N2  UNL     1      -1.587   2.042  -1.158  1.00  0.00    -0.335 N 
HETATM   19  O1  UNL     1      -1.580  -1.655  -1.042  1.00  0.00    -0.258 OA
HETATM   20  O2  UNL     1       0.218  -0.084  -1.735  1.00  0.00    -0.272 OA
ATOM     21  H2  UNL     1      -2.175   2.630  -1.748  1.00  0.00     0.167 HD
BRANCH  10  22
HETATM   22  N3  UNL     1       0.160   3.621  -0.794  1.00  0.00    -0.097 N 
HETATM   23  O3  UNL     1       0.526   3.967  -1.958  1.00  0.00    -0.530 OA
HETATM   24  O4  UNL     1       0.375   4.539   0.206  1.00  0.00    -0.530 OA
ENDBRANCH  10  22
ENDBRANCH   5   7
ENDBRANCH   1   5
TORSDOF 3
