REMARK  3 active torsions:
REMARK  status: ('A' for Active; 'I' for Inactive)
REMARK       I    between atoms: C2_2  and  N1_4 
REMARK    1  A    between atoms: N1_4  and  C3_6 
REMARK    2  A    between atoms: C5_8  and  C6_9 
REMARK    3  A    between atoms: C9_15  and  C10_16 
REMARK       I    between atoms: C10_16  and  N3_18 
ROOT
HETATM    1  C10 UNL     1      -2.228  -0.008   0.629  1.00  0.00     0.269 C 
HETATM    2  O3  UNL     1      -1.264   0.565   1.279  1.00  0.00    -0.266 OA
HETATM    3  N3  UNL     1      -3.231  -0.529   1.449  1.00  0.00    -0.259 N 
ATOM      4  H3  UNL     1      -4.030  -0.995   1.019  1.00  0.00     0.181 HD
HETATM    5  C11 UNL     1      -3.172  -0.429   2.868  1.00  0.00     0.184 C 
HETATM    6  N4  UNL     1      -3.107  -0.358   4.023  1.00  0.00    -0.172 NA
ENDROOT
BRANCH   1   7
HETATM    7  C9  UNL     1      -2.135  -0.024  -0.803  1.00  0.00     0.093 A 
HETATM    8  C6  UNL     1      -1.052   0.476  -1.530  1.00  0.00     0.085 A 
HETATM    9  N2  UNL     1      -1.397   0.325  -2.822  1.00  0.00    -0.259 N 
HETATM   10  O2  UNL     1      -2.564  -0.211  -2.912  1.00  0.00    -0.241 OA
ATOM     11  H2  UNL     1      -0.817   0.596  -3.616  1.00  0.00     0.195 HD
HETATM   12  C7  UNL     1      -3.076  -0.454  -1.712  1.00  0.00     0.090 A 
HETATM   13  C8  UNL     1      -4.419  -1.077  -1.466  1.00  0.00     0.080 C 
BRANCH   8  14
HETATM   14  C5  UNL     1       0.184   1.063  -1.045  1.00  0.00     0.018 A 
HETATM   15  C4  UNL     1       1.136   0.260  -0.367  1.00  0.00     0.046 A 
HETATM   16  C3  UNL     1       2.337   0.708   0.064  1.00  0.00     0.057 A 
HETATM   17  C14 UNL     1       2.618   2.062  -0.199  1.00  0.00     0.062 A 
HETATM   18  C13 UNL     1       1.711   2.854  -0.853  1.00  0.00     0.051 A 
HETATM   19 CL2  UNL     1       4.152   2.698   0.332  1.00  0.00    -0.082 Cl
HETATM   20  C12 UNL     1       0.496   2.375  -1.281  1.00  0.00     0.048 A 
HETATM   21 CL1  UNL     1      -0.611   3.448  -2.104  1.00  0.00    -0.083 Cl
BRANCH  16  22
HETATM   22  N1  UNL     1       3.286  -0.077   0.735  1.00  0.00    -0.326 N 
HETATM   23  C2  UNL     1       3.181  -1.425   1.081  1.00  0.00     0.218 C 
HETATM   24  C1  UNL     1       4.358  -2.077   1.816  1.00  0.00     0.117 C 
HETATM   25  O1  UNL     1       2.208  -2.148   0.844  1.00  0.00    -0.274 OA
ATOM     26  H1  UNL     1       4.152   0.391   1.001  1.00  0.00     0.169 HD
ENDBRANCH  16  22
ENDBRANCH   8  14
ENDBRANCH   1   7
TORSDOF 3
