REMARK  4 active torsions:
REMARK  status: ('A' for Active; 'I' for Inactive)
REMARK    1  A    between atoms: C2_2  and  O2_4 
REMARK    2  A    between atoms: O2_4  and  C3_5 
REMARK    3  A    between atoms: C7_11  and  O3_12 
REMARK    4  A    between atoms: C14_21  and  C15_22 
ROOT
HETATM    1  C3  UNL     1       3.223  -0.485   0.022  1.00  0.00     0.147 C 
HETATM    2  C4  UNL     1       3.665  -1.559   0.966  1.00  0.00     0.093 C 
HETATM    3  C5  UNL     1       2.835  -2.785   0.661  1.00  0.00     0.184 C 
HETATM    4  F1  UNL     1       3.413  -3.387  -0.466  1.00  0.00    -0.225 F 
HETATM    5 CL1  UNL     1       3.072  -3.971   1.992  1.00  0.00    -0.082 Cl
HETATM    6  C6  UNL     1       1.424  -2.538   0.365  1.00  0.00     0.099 C 
HETATM    7  C7  UNL     1       0.915  -1.144   0.735  1.00  0.00     0.076 C 
HETATM    8  C8  UNL     1      -0.531  -1.034   0.479  1.00  0.00     0.030 C 
HETATM    9  C9  UNL     1      -1.327  -0.819   1.782  1.00  0.00     0.011 C 
HETATM   10  C10 UNL     1      -2.737  -1.216   1.532  1.00  0.00     0.039 C 
HETATM   11  C11 UNL     1      -3.301  -0.317   0.458  1.00  0.00     0.068 C 
HETATM   12  C12 UNL     1      -4.033  -1.154  -0.547  1.00  0.00     0.047 C 
HETATM   13  O4  UNL     1      -4.249   0.513   1.092  1.00  0.00    -0.351 OA
HETATM   14  C13 UNL     1      -4.604   1.735   0.562  1.00  0.00     0.146 C 
HETATM   15  C14 UNL     1      -3.977   2.230  -0.488  1.00  0.00     0.002 C 
HETATM   16  C16 UNL     1      -2.853   1.491  -1.153  1.00  0.00     0.052 C 
HETATM   17  C17 UNL     1      -2.260   0.578  -0.133  1.00  0.00     0.033 C 
HETATM   18  C18 UNL     1      -1.001  -0.123  -0.598  1.00  0.00    -0.031 C 
HETATM   19  C19 UNL     1      -1.241  -0.896  -1.898  1.00  0.00     0.016 C 
HETATM   20  C20 UNL     1      -0.042   0.978  -0.967  1.00  0.00     0.011 C 
HETATM   21  C21 UNL     1       1.328   0.448  -1.168  1.00  0.00     0.016 C 
HETATM   22  C22 UNL     1       1.792  -0.071   0.177  1.00  0.00     0.015 C 
HETATM   23  C23 UNL     1       1.787   1.141   1.117  1.00  0.00     0.021 C 
ENDROOT
BRANCH   1  24
HETATM   24  O2  UNL     1       4.019   0.668   0.036  1.00  0.00    -0.315 OA
BRANCH  24  25
HETATM   25  C2  UNL     1       4.771   1.145  -0.985  1.00  0.00     0.255 C 
HETATM   26  C1  UNL     1       5.562   2.382  -0.818  1.00  0.00     0.126 C 
HETATM   27  O1  UNL     1       4.795   0.543  -2.059  1.00  0.00    -0.266 OA
ENDBRANCH  24  25
ENDBRANCH   1  24
BRANCH   7  28
HETATM   28  O3  UNL     1       1.105  -1.073   2.142  1.00  0.00    -0.388 OA
ATOM     29  H3  UNL     1       0.789  -0.207   2.372  1.00  0.00     0.210 HD
ENDBRANCH   7  28
BRANCH  15  30
HETATM   30  C15 UNL     1      -4.391   3.542  -1.022  1.00  0.00     0.267 C 
HETATM   31  O5  UNL     1      -3.821   4.027  -2.003  1.00  0.00    -0.302 OA
ENDBRANCH  15  30
TORSDOF 4
