REMARK  16 active torsions:
REMARK  status: ('A' for Active; 'I' for Inactive)
REMARK    1  A    between atoms: C4_4  and  C5_5 
REMARK    2  A    between atoms: C6_6  and  C7_7 
REMARK    3  A    between atoms: C7_7  and  O2_9 
REMARK    4  A    between atoms: O2_9  and  C8_10 
REMARK    5  A    between atoms: C9_11  and  O3_12 
REMARK    6  A    between atoms: C10_14  and  C11_15 
REMARK    7  A    between atoms: C11_15  and  O4_16 
REMARK    8  A    between atoms: C12_19  and  S1_20 
REMARK    9  A    between atoms: S1_20  and  C13_21 
REMARK   10  A    between atoms: C16_24  and  O6_25 
REMARK   11  A    between atoms: C16_24  and  C17_27 
REMARK   12  A    between atoms: C19_31  and  C20_32 
REMARK   13  A    between atoms: C20_32  and  C21_33 
REMARK   14  A    between atoms: C21_33  and  O9_34 
REMARK   15  A    between atoms: C21_33  and  C22_36 
REMARK   16  A    between atoms: C25_39  and  O10_40 
ROOT
HETATM    1  C1  UNL     1       5.848   6.079   2.114  1.00  0.00     0.027 C 
HETATM    2  C2  UNL     1       6.076   5.250   1.267  1.00  0.00    -0.026 C 
HETATM    3  C3  UNL     1       6.341   4.273   0.283  1.00  0.00    -0.011 C 
HETATM    4  C4  UNL     1       6.585   3.436  -0.579  1.00  0.00    -0.064 C 
ENDROOT
BRANCH   4   5
HETATM    5  C5  UNL     1       6.888   2.478  -1.595  1.00  0.00     0.071 C 
HETATM    6  C6  UNL     1       6.197   1.394  -1.755  1.00  0.00     0.091 C 
BRANCH   6   7
HETATM    7  C7  UNL     1       5.044   1.027  -0.928  1.00  0.00     0.284 C 
HETATM    8  O1  UNL     1       4.615   1.733   0.020  1.00  0.00    -0.260 OA
BRANCH   7   9
HETATM    9  O2  UNL     1       4.337  -0.154  -1.148  1.00  0.00    -0.307 OA
BRANCH   9  10
HETATM   10  C8  UNL     1       3.220  -0.565  -0.389  1.00  0.00     0.195 C 
HETATM   11  C9  UNL     1       3.387  -1.941   0.185  1.00  0.00     0.181 C 
HETATM   12  C10 UNL     1       2.093  -2.502   0.666  1.00  0.00     0.178 C 
HETATM   13  O5  UNL     1       1.067  -2.410  -0.274  1.00  0.00    -0.363 OA
HETATM   14  C12 UNL     1       0.861  -1.078  -0.529  1.00  0.00     0.215 C 
HETATM   15  C25 UNL     1       2.053  -0.631  -1.373  1.00  0.00     0.192 C 
BRANCH  11  16
HETATM   16  O3  UNL     1       4.047  -2.756  -0.719  1.00  0.00    -0.390 OA
ATOM     17  H3  UNL     1       4.153  -3.627  -0.356  1.00  0.00     0.210 HD
ENDBRANCH  11  16
BRANCH  12  18
HETATM   18  C11 UNL     1       2.206  -3.912   1.147  1.00  0.00     0.198 C 
BRANCH  18  19
HETATM   19  O4  UNL     1       0.990  -4.296   1.738  1.00  0.00    -0.398 OA
ATOM     20  H4  UNL     1       1.062  -5.193   2.044  1.00  0.00     0.209 HD
ENDBRANCH  18  19
ENDBRANCH  12  18
BRANCH  14  21
HETATM   21  S1  UNL     1      -0.698  -0.635  -1.258  1.00  0.00    -0.126 SA
BRANCH  21  22
HETATM   22  C13 UNL     1      -2.065  -0.960  -0.112  1.00  0.00     0.076 C 
HETATM   23  C14 UNL     1      -2.167  -2.407   0.067  1.00  0.00    -0.012 C 
HETATM   24  C15 UNL     1      -3.284  -2.958   0.445  1.00  0.00     0.019 C 
HETATM   25  C16 UNL     1      -4.474  -2.149   0.704  1.00  0.00     0.163 C 
HETATM   26  C18 UNL     1      -4.580  -0.862  -0.062  1.00  0.00     0.059 C 
HETATM   27  C19 UNL     1      -3.333  -0.304  -0.565  1.00  0.00     0.009 C 
BRANCH  25  28
HETATM   28  O6  UNL     1      -4.482  -1.903   2.097  1.00  0.00    -0.375 OA
ATOM     29  H6  UNL     1      -5.255  -1.377   2.265  1.00  0.00     0.211 HD
ENDBRANCH  25  28
BRANCH  25  30
HETATM   30  C17 UNL     1      -5.694  -3.000   0.452  1.00  0.00     0.213 C 
HETATM   31  O7  UNL     1      -5.953  -3.382  -0.719  1.00  0.00    -0.645 OA
HETATM   32  O8  UNL     1      -6.555  -3.385   1.461  1.00  0.00    -0.645 OA
ENDBRANCH  25  30
BRANCH  27  33
HETATM   33  C20 UNL     1      -3.199   1.179  -0.425  1.00  0.00     0.042 C 
BRANCH  33  34
HETATM   34  C21 UNL     1      -2.922   1.697   0.941  1.00  0.00     0.141 C 
BRANCH  34  35
HETATM   35  O9  UNL     1      -3.880   1.406   1.896  1.00  0.00    -0.392 OA
ATOM     36  H9  UNL     1      -3.703   1.737   2.769  1.00  0.00     0.210 HD
ENDBRANCH  34  35
BRANCH  34  37
HETATM   37  C22 UNL     1      -2.916   3.205   0.832  1.00  0.00     0.000 C 
HETATM   38  C23 UNL     1      -3.980   3.925   1.094  1.00  0.00    -0.033 C 
HETATM   39  C24 UNL     1      -3.970   5.401   0.987  1.00  0.00     0.036 C 
ENDBRANCH  34  37
ENDBRANCH  33  34
ENDBRANCH  27  33
ENDBRANCH  21  22
ENDBRANCH  14  21
BRANCH  15  40
HETATM   40  O10 UNL     1       2.328  -1.654  -2.251  1.00  0.00    -0.385 OA
HETATM   41  C26 UNL     1       2.324  -1.270  -3.576  1.00  0.00     0.202 C 
ENDBRANCH  15  40
ENDBRANCH   9  10
ENDBRANCH   7   9
ENDBRANCH   6   7
ENDBRANCH   4   5
TORSDOF 16
