REMARK  14 active torsions:
REMARK  status: ('A' for Active; 'I' for Inactive)
REMARK    1  A    between atoms: C3_3  and  C4_4 
REMARK    2  A    between atoms: C5_5  and  C6_6 
REMARK    3  A    between atoms: C8_8  and  O1_9 
REMARK    4  A    between atoms: O1_9  and  C9_10 
REMARK    5  A    between atoms: C10_11  and  O2_12 
REMARK    6  A    between atoms: O2_12  and  C11_13 
REMARK    7  A    between atoms: C11_13  and  C13_15 
REMARK    8  A    between atoms: C20_22  and  O3_23 
REMARK    9  A    between atoms: O3_23  and  C21_24 
REMARK   10  A    between atoms: C23_27  and  O5_28 
REMARK   11  A    between atoms: C24_30  and  O6_31 
REMARK   12  A    between atoms: C25_33  and  O7_34 
REMARK   13  A    between atoms: C26_36  and  O8_37 
REMARK   14  A    between atoms: C27_40  and  C28_41 
ROOT
HETATM    1  C9  UNL     1      -0.425  -0.335   0.203  1.00  0.00     0.184 C 
HETATM    2  C10 UNL     1      -1.054   1.014  -0.045  1.00  0.00     0.156 C 
HETATM    3  C19 UNL     1      -2.546   0.815   0.179  1.00  0.00     0.069 C 
HETATM    4  C20 UNL     1      -2.702  -0.463   0.979  1.00  0.00     0.158 C 
HETATM    5  C26 UNL     1      -1.303  -0.970   1.271  1.00  0.00     0.178 C 
ENDROOT
BRANCH   1   6
HETATM    6  O1  UNL     1       0.902  -0.305   0.531  1.00  0.00    -0.351 OA
BRANCH   6   7
HETATM    7  C8  UNL     1       1.685  -1.089  -0.350  1.00  0.00     0.262 C 
HETATM    8  C7  UNL     1       2.725  -0.159  -0.976  1.00  0.00     0.072 C 
HETATM    9  C6  UNL     1       3.853  -0.419   0.023  1.00  0.00     0.052 C 
HETATM   10  C27 UNL     1       3.744  -1.911   0.086  1.00  0.00     0.233 C 
HETATM   11  O9  UNL     1       2.360  -1.980   0.487  1.00  0.00    -0.345 OA
BRANCH   9  12
HETATM   12  C5  UNL     1       5.071   0.248  -0.195  1.00  0.00    -0.019 C 
HETATM   13  C4  UNL     1       6.261  -0.278  -0.295  1.00  0.00    -0.004 C 
BRANCH  13  14
HETATM   14  C3  UNL     1       7.447   0.572  -0.532  1.00  0.00    -0.005 C 
HETATM   15  C2  UNL     1       8.621   0.016  -0.627  1.00  0.00    -0.031 C 
HETATM   16  C1  UNL     1       8.763  -1.450  -0.500  1.00  0.00     0.036 C 
ENDBRANCH  13  14
ENDBRANCH   9  12
BRANCH  10  17
HETATM   17  C28 UNL     1       3.837  -2.605  -1.198  1.00  0.00     0.203 C 
HETATM   18  O10 UNL     1       4.879  -2.728  -1.846  1.00  0.00    -0.646 OA
HETATM   19  O11 UNL     1       2.690  -3.183  -1.767  1.00  0.00    -0.646 OA
ENDBRANCH  10  17
ENDBRANCH   6   7
ENDBRANCH   1   6
BRANCH   2  20
HETATM   20  O2  UNL     1      -0.658   1.988   0.840  1.00  0.00    -0.374 OA
BRANCH  20  21
HETATM   21  C11 UNL     1      -0.142   3.063   0.125  1.00  0.00     0.151 C 
HETATM   22  C12 UNL     1       1.279   3.376   0.485  1.00  0.00     0.045 C 
BRANCH  21  23
HETATM   23  C13 UNL     1      -0.962   4.301   0.359  1.00  0.00    -0.030 A 
HETATM   24  C14 UNL     1      -1.314   5.106  -0.700  1.00  0.00     0.010 A 
HETATM   25  C15 UNL     1      -2.069   6.261  -0.532  1.00  0.00     0.001 A 
HETATM   26  C16 UNL     1      -2.493   6.637   0.725  1.00  0.00     0.000 A 
HETATM   27  C17 UNL     1      -2.139   5.829   1.785  1.00  0.00     0.001 A 
HETATM   28  C18 UNL     1      -1.385   4.676   1.616  1.00  0.00     0.010 A 
ENDBRANCH  21  23
ENDBRANCH  20  21
ENDBRANCH   2  20
BRANCH   5  29
HETATM   29  O8  UNL     1      -0.883  -0.662   2.558  1.00  0.00    -0.390 OA
ATOM     30  H8  UNL     1      -1.431  -1.059   3.225  1.00  0.00     0.210 HD
ENDBRANCH   5  29
BRANCH   4  31
HETATM   31  O3  UNL     1      -3.421  -1.347   0.190  1.00  0.00    -0.351 OA
BRANCH  31  32
HETATM   32  C21 UNL     1      -4.554  -1.784   0.829  1.00  0.00     0.291 C 
HETATM   33  O4  UNL     1      -5.725  -1.429   0.149  1.00  0.00    -0.356 OA
HETATM   34  C22 UNL     1      -5.705  -1.877  -1.167  1.00  0.00     0.205 C 
HETATM   35  C23 UNL     1      -5.535  -3.373  -1.266  1.00  0.00     0.173 C 
HETATM   36  C24 UNL     1      -4.462  -3.900  -0.373  1.00  0.00     0.182 C 
HETATM   37  C25 UNL     1      -4.608  -3.290   1.005  1.00  0.00     0.204 C 
BRANCH  35  38
HETATM   38  O5  UNL     1      -6.752  -3.998  -1.081  1.00  0.00    -0.391 OA
ATOM     39  H5  UNL     1      -6.645  -4.940  -1.143  1.00  0.00     0.210 HD
ENDBRANCH  35  38
BRANCH  36  40
HETATM   40  O6  UNL     1      -4.577  -5.281  -0.253  1.00  0.00    -0.390 OA
ATOM     41  H6  UNL     1      -3.894  -5.617   0.316  1.00  0.00     0.210 HD
ENDBRANCH  36  40
BRANCH  37  42
HETATM   42  O7  UNL     1      -5.851  -3.574   1.573  1.00  0.00    -0.388 OA
ATOM     43  H7  UNL     1      -5.885  -4.517   1.683  1.00  0.00     0.210 HD
ENDBRANCH  37  42
ENDBRANCH  31  32
ENDBRANCH   4  31
TORSDOF 14
