REMARK  14 active torsions:
REMARK  status: ('A' for Active; 'I' for Inactive)
REMARK    1  A    between atoms: C5_5  and  O1_7 
REMARK    2  A    between atoms: C7_9  and  C8_10 
REMARK    3  A    between atoms: C14_19  and  C15_20 
REMARK    4  A    between atoms: C15_20  and  O6_22 
REMARK    5  A    between atoms: O6_22  and  C16_23 
REMARK    6  A    between atoms: C16_23  and  C17_24 
REMARK    7  A    between atoms: C17_24  and  O7_25 
REMARK    8  A    between atoms: C17_24  and  C18_27 
REMARK    9  A    between atoms: C18_27  and  C20_29 
REMARK   10  A    between atoms: C20_29  and  C21_30 
REMARK   11  A    between atoms: C20_29  and  C25_34 
REMARK   12  A    between atoms: C21_30  and  C22_31 
REMARK   13  A    between atoms: C25_34  and  O8_35 
REMARK   14  A    between atoms: C25_34  and  N1_37 
REMARK       I    between atoms: N1_37  and  C26_39 
ROOT
HETATM    1  C15 UNL     1       1.418   0.199  -0.476  1.00  0.00     0.302 C 
HETATM    2  O5  UNL     1       0.633   1.142  -0.120  1.00  0.00    -0.261 OA
ENDROOT
BRANCH   1   3
HETATM    3  C14 UNL     1       2.843   0.381  -0.275  1.00  0.00     0.213 C 
HETATM    4  C2  UNL     1       3.633   0.354  -1.541  1.00  0.00    -0.034 C 
HETATM    5  C1  UNL     1       3.522  -0.623  -2.428  1.00  0.00     0.018 C 
HETATM    6  C3  UNL     1       4.589   1.455  -1.845  1.00  0.00     0.053 C 
HETATM    7  C4  UNL     1       5.740   0.942  -2.716  1.00  0.00     0.018 C 
HETATM    8  C5  UNL     1       5.209   2.062  -0.620  1.00  0.00     0.128 C 
HETATM    9  C6  UNL     1       4.946   3.558  -0.677  1.00  0.00     0.053 C 
HETATM   10  C7  UNL     1       4.484   1.529   0.600  1.00  0.00     0.291 C 
HETATM   11  O4  UNL     1       4.753   0.173   0.796  1.00  0.00    -0.320 OA
HETATM   12  O10 UNL     1       3.118   1.647   0.303  1.00  0.00    -0.314 OA
HETATM   13  C9  UNL     1       3.504  -0.474   0.751  1.00  0.00     0.146 A 
HETATM   14  C10 UNL     1       2.946  -0.380   2.094  1.00  0.00     0.019 A 
HETATM   15  C13 UNL     1       3.605  -1.890   0.461  1.00  0.00     0.019 A 
HETATM   16  C11 UNL     1       2.743  -1.596   2.547  1.00  0.00    -0.001 A 
HETATM   17  C12 UNL     1       3.157  -2.542   1.521  1.00  0.00    -0.001 A 
BRANCH   8  18
HETATM   18  O1  UNL     1       6.574   1.887  -0.547  1.00  0.00    -0.383 OA
ATOM     19  H1  UNL     1       6.966   2.271   0.228  1.00  0.00     0.210 HD
ENDBRANCH   8  18
BRANCH  10  20
HETATM   20  C8  UNL     1       4.867   2.247   1.831  1.00  0.00     0.242 C 
HETATM   21  O2  UNL     1       4.736   3.503   1.957  1.00  0.00    -0.644 OA
HETATM   22  O3  UNL     1       5.404   1.599   2.955  1.00  0.00    -0.644 OA
ENDBRANCH  10  20
ENDBRANCH   1   3
BRANCH   1  23
HETATM   23  O6  UNL     1       0.832  -0.902  -1.022  1.00  0.00    -0.316 OA
BRANCH  23  24
HETATM   24  C16 UNL     1      -0.509  -1.151  -1.255  1.00  0.00     0.211 C 
BRANCH  24  25
HETATM   25  C17 UNL     1      -1.384  -1.146  -0.005  1.00  0.00     0.150 C 
BRANCH  25  26
HETATM   26  O7  UNL     1      -0.849  -2.185   0.793  1.00  0.00    -0.393 OA
ATOM     27  H7  UNL     1      -1.394  -2.182   1.571  1.00  0.00     0.210 HD
ENDBRANCH  25  26
BRANCH  25  28
HETATM   28  C18 UNL     1      -2.779  -1.556  -0.389  1.00  0.00     0.045 C 
HETATM   29  C19 UNL     1      -2.646  -2.957  -0.980  1.00  0.00     0.017 C 
BRANCH  28  30
HETATM   30  C20 UNL     1      -3.814  -1.505   0.693  1.00  0.00    -0.029 C 
BRANCH  30  31
HETATM   31  C21 UNL     1      -5.167  -1.916   0.302  1.00  0.00    -0.015 C 
BRANCH  31  32
HETATM   32  C22 UNL     1      -5.986  -1.323  -0.728  1.00  0.00     0.000 C 
HETATM   33  C23 UNL     1      -6.326   0.134  -0.540  1.00  0.00     0.013 C 
HETATM   34  C24 UNL     1      -5.651  -1.497  -2.174  1.00  0.00     0.013 C 
ENDBRANCH  31  32
ENDBRANCH  30  31
BRANCH  30  35
HETATM   35  C25 UNL     1      -3.665  -0.484   1.754  1.00  0.00     0.251 C 
BRANCH  35  36
HETATM   36  O8  UNL     1      -2.461  -0.641   2.519  1.00  0.00    -0.373 OA
ATOM     37  H8  UNL     1      -2.365   0.014   3.200  1.00  0.00     0.212 HD
ENDBRANCH  35  36
BRANCH  35  38
HETATM   38  N1  UNL     1      -3.599   0.892   1.351  1.00  0.00    -0.331 N 
HETATM   39  C26 UNL     1      -4.225   1.872   2.162  1.00  0.00     0.215 C 
HETATM   40  C27 UNL     1      -4.215   3.320   1.835  1.00  0.00     0.117 C 
HETATM   41  O9  UNL     1      -4.828   1.539   3.220  1.00  0.00    -0.274 OA
ATOM     42  H1  UNL     1      -3.111   1.160   0.497  1.00  0.00     0.165 HD
ENDBRANCH  35  38
ENDBRANCH  30  35
ENDBRANCH  28  30
ENDBRANCH  25  28
ENDBRANCH  24  25
ENDBRANCH  23  24
ENDBRANCH   1  23
TORSDOF 14
