REMARK  14 active torsions:
REMARK  status: ('A' for Active; 'I' for Inactive)
REMARK    1  A    between atoms: C2_2  and  C19_41 
REMARK    2  A    between atoms: N1_3  and  N2_5 
REMARK    3  A    between atoms: C3_7  and  C4_9 
REMARK       I    between atoms: C4_9  and  N4_11 
REMARK    4  A    between atoms: N4_11  and  N5_13 
REMARK    5  A    between atoms: C5_15  and  C6_16 
REMARK    6  A    between atoms: C5_15  and  N6_21 
REMARK    7  A    between atoms: C6_16  and  O2_17 
REMARK    8  A    between atoms: C6_16  and  O3_19 
REMARK    9  A    between atoms: N6_21  and  O4_22 
REMARK   10  A    between atoms: N6_21  and  C7_24 
REMARK   11  A    between atoms: C11_28  and  C12_29 
REMARK       I    between atoms: C12_29  and  N7_31 
REMARK   12  A    between atoms: N7_31  and  C13_33 
REMARK   13  A    between atoms: C13_33  and  C14_34 
REMARK   14  A    between atoms: C13_33  and  C15_37 
ROOT
HETATM    1  N5  UNL     1       1.020  -1.541  -1.986  1.00  0.00    -0.284 N 
ATOM      2  H5  UNL     1       0.950  -0.588  -2.342  1.00  0.00     0.188 HD
HETATM    3  C5  UNL     1      -0.069  -2.210  -1.851  1.00  0.00     0.158 C 
ENDROOT
BRANCH   3   4
HETATM    4  C6  UNL     1       0.027  -3.598  -1.332  1.00  0.00     0.321 C 
BRANCH   4   5
HETATM    5  O2  UNL     1      -0.698  -3.767  -0.138  1.00  0.00    -0.365 OA
ATOM      6  H2  UNL     1      -0.637  -4.655   0.194  1.00  0.00     0.213 HD
ENDBRANCH   4   5
BRANCH   4   7
HETATM    7  O3  UNL     1      -0.505  -4.518  -2.234  1.00  0.00    -0.365 OA
ATOM      8  H3  UNL     1      -0.444  -5.406  -1.902  1.00  0.00     0.213 HD
ENDBRANCH   4   7
ENDBRANCH   3   4
BRANCH   3   9
HETATM    9  N6  UNL     1      -1.348  -1.711  -2.164  1.00  0.00    -0.111 NA
BRANCH   9  10
HETATM   10  O4  UNL     1      -1.198  -0.998  -3.329  1.00  0.00    -0.302 OA
ATOM     11  H4  UNL     1      -2.061  -0.661  -3.540  1.00  0.00     0.238 HD
ENDBRANCH   9  10
BRANCH   9  12
HETATM   12  C7  UNL     1      -1.892  -0.867  -1.189  1.00  0.00     0.044 A 
HETATM   13  C8  UNL     1      -1.217  -0.557  -0.044  1.00  0.00     0.026 A 
HETATM   14  C9  UNL     1      -1.819   0.280   0.872  1.00  0.00     0.003 A 
HETATM   15  C10 UNL     1      -3.077   0.817   0.676  1.00  0.00     0.017 A 
HETATM   16  C11 UNL     1      -3.777   0.512  -0.482  1.00  0.00     0.033 A 
HETATM   17  C18 UNL     1      -3.147  -0.340  -1.398  1.00  0.00     0.043 A 
BRANCH  16  18
HETATM   18  C12 UNL     1      -5.099   1.034  -0.754  1.00  0.00     0.252 C 
HETATM   19  O5  UNL     1      -5.647   0.766  -1.844  1.00  0.00    -0.268 OA
HETATM   20  N7  UNL     1      -5.785   1.838   0.181  1.00  0.00    -0.342 N 
ATOM     21  H7  UNL     1      -5.342   2.060   1.073  1.00  0.00     0.163 HD
BRANCH  20  22
HETATM   22  C13 UNL     1      -7.125   2.360  -0.109  1.00  0.00     0.189 C 
BRANCH  22  23
HETATM   23  C14 UNL     1      -7.120   3.825  -0.055  1.00  0.00     0.197 C 
HETATM   24  O6  UNL     1      -6.077   4.475   0.210  1.00  0.00    -0.646 OA
HETATM   25  O7  UNL     1      -8.271   4.548  -0.296  1.00  0.00    -0.646 OA
ENDBRANCH  22  23
BRANCH  22  26
HETATM   26  C15 UNL     1      -8.134   1.800   0.873  1.00  0.00     0.011 C 
HETATM   27  C16 UNL     1      -8.219   0.311   0.829  1.00  0.00     0.012 C 
HETATM   28  C17 UNL     1      -7.900   2.261   2.270  1.00  0.00     0.012 C 
ENDBRANCH  22  26
ENDBRANCH  20  22
ENDBRANCH  16  18
ENDBRANCH   9  12
ENDBRANCH   3   9
BRANCH   1  29
HETATM   29  N4  UNL     1       2.275  -2.021  -1.683  1.00  0.00    -0.262 N 
HETATM   30  C4  UNL     1       3.099  -1.419  -0.691  1.00  0.00     0.302 C 
HETATM   31  O1  UNL     1       2.643  -0.409  -0.079  1.00  0.00    -0.263 OA
ATOM     32  H4  UNL     1       2.626  -2.836  -2.187  1.00  0.00     0.190 HD
BRANCH  30  33
HETATM   33  C3  UNL     1       4.413  -1.934  -0.383  1.00  0.00     0.200 C 
HETATM   34  N2  UNL     1       5.139  -1.385   0.507  1.00  0.00    -0.283 N 
ATOM     35  H2  UNL     1       4.717  -0.576   0.963  1.00  0.00     0.188 HD
HETATM   36  N3  UNL     1       4.895  -3.062  -1.081  1.00  0.00    -0.075 NA
BRANCH  34  37
HETATM   37  N1  UNL     1       6.367  -1.697   0.942  1.00  0.00    -0.303 N 
HETATM   38  C2  UNL     1       7.460  -1.130   1.095  1.00  0.00     0.032 C 
HETATM   39  C1  UNL     1       8.585  -1.996   1.653  1.00  0.00     0.070 C 
ATOM     40  H1  UNL     1       6.418  -2.675   1.228  1.00  0.00     0.186 HD
BRANCH  38  41
HETATM   41  C19 UNL     1       7.810   0.271   0.806  1.00  0.00    -0.013 A 
HETATM   42  C20 UNL     1       9.113   0.721   1.049  1.00  0.00     0.013 A 
HETATM   43  C21 UNL     1       9.480   2.021   0.794  1.00  0.00     0.001 A 
HETATM   44  C22 UNL     1       8.592   2.942   0.291  1.00  0.00     0.000 A 
HETATM   45  C23 UNL     1       7.317   2.514   0.051  1.00  0.00     0.001 A 
HETATM   46  C24 UNL     1       6.927   1.191   0.305  1.00  0.00     0.013 A 
ENDBRANCH  38  41
ENDBRANCH  34  37
ENDBRANCH  30  33
ENDBRANCH   1  29
TORSDOF 14
