REMARK  16 active torsions:
REMARK  status: ('A' for Active; 'I' for Inactive)
REMARK    1  A    between atoms: C2_2  and  N1_3 
REMARK    2  A    between atoms: N1_3  and  C4_5 
REMARK    3  A    between atoms: C5_6  and  O1_7 
REMARK    4  A    between atoms: C6_9  and  C7_10 
REMARK    5  A    between atoms: C7_10  and  O2_11 
REMARK    6  A    between atoms: O2_11  and  C8_12 
REMARK    7  A    between atoms: C9_14  and  C10_15 
REMARK    8  A    between atoms: C10_15  and  O4_16 
REMARK    9  A    between atoms: C11_18  and  O5_19 
REMARK   10  A    between atoms: C12_21  and  O6_22 
REMARK   11  A    between atoms: O6_22  and  C13_23 
REMARK   12  A    between atoms: C13_23  and  C14_25 
REMARK   13  A    between atoms: C20_31  and  O8_32 
REMARK   14  A    between atoms: C21_35  and  C22_36 
REMARK   15  A    between atoms: C22_36  and  O10_37 
REMARK   16  A    between atoms: C22_36  and  C23_39 
ROOT
HETATM    1  C8  UNL     1       1.469  -1.625  -0.456  1.00  0.00     0.291 C 
HETATM    2  O3  UNL     1       2.106  -2.668  -1.080  1.00  0.00    -0.348 OA
HETATM    3  C9  UNL     1       3.468  -2.729  -0.872  1.00  0.00     0.179 C 
HETATM    4  C11 UNL     1       4.151  -1.414  -1.262  1.00  0.00     0.181 C 
HETATM    5  C12 UNL     1       3.564  -0.374  -0.366  1.00  0.00     0.197 C 
HETATM    6  C20 UNL     1       2.090  -0.286  -0.685  1.00  0.00     0.205 C 
ENDROOT
BRANCH   1   7
HETATM    7  O2  UNL     1       0.124  -1.671  -0.788  1.00  0.00    -0.356 OA
BRANCH   7   8
HETATM    8  C7  UNL     1      -0.686  -1.962   0.301  1.00  0.00     0.205 C 
BRANCH   8   9
HETATM    9  C6  UNL     1      -2.148  -1.999  -0.087  1.00  0.00     0.176 C 
HETATM   10  C5  UNL     1      -3.048  -2.360   1.034  1.00  0.00     0.174 C 
HETATM   11  C4  UNL     1      -3.600  -1.019   1.479  1.00  0.00     0.146 C 
HETATM   12  C21 UNL     1      -3.430  -0.188   0.249  1.00  0.00     0.180 C 
HETATM   13  O9  UNL     1      -2.501  -0.768  -0.577  1.00  0.00    -0.371 OA
BRANCH  10  14
HETATM   14  O1  UNL     1      -2.466  -3.072   2.057  1.00  0.00    -0.391 OA
ATOM     15  H1  UNL     1      -2.120  -3.912   1.778  1.00  0.00     0.210 HD
ENDBRANCH  10  14
BRANCH  11  16
HETATM   16  N1  UNL     1      -4.879  -1.134   2.007  1.00  0.00    -0.388 N 
HETATM   17  C3  UNL     1      -5.110  -0.809   3.360  1.00  0.00     0.149 C 
BRANCH  16  18
HETATM   18  C2  UNL     1      -5.948  -1.586   1.236  1.00  0.00     0.054 C 
HETATM   19  C1  UNL     1      -6.410  -2.933   1.683  1.00  0.00     0.054 C 
ENDBRANCH  16  18
ENDBRANCH  11  16
BRANCH  12  20
HETATM   20  C22 UNL     1      -2.932   1.217   0.574  1.00  0.00     0.182 C 
BRANCH  20  21
HETATM   21  O10 UNL     1      -3.792   1.906   1.405  1.00  0.00    -0.388 OA
ATOM     22  H10 UNL     1      -3.482   2.781   1.607  1.00  0.00     0.210 HD
ENDBRANCH  20  21
BRANCH  20  23
HETATM   23  C23 UNL     1      -2.775   1.973  -0.688  1.00  0.00    -0.027 A 
HETATM   24  C24 UNL     1      -3.907   2.496  -1.296  1.00  0.00     0.010 A 
HETATM   25  C25 UNL     1      -3.817   3.207  -2.472  1.00  0.00     0.001 A 
HETATM   26  C26 UNL     1      -2.596   3.412  -3.070  1.00  0.00     0.000 A 
HETATM   27  C27 UNL     1      -1.461   2.887  -2.461  1.00  0.00     0.001 A 
HETATM   28  C28 UNL     1      -1.548   2.176  -1.285  1.00  0.00     0.010 A 
ENDBRANCH  20  23
ENDBRANCH  12  20
ENDBRANCH   8   9
ENDBRANCH   7   8
ENDBRANCH   1   7
BRANCH   6  29
HETATM   29  O8  UNL     1       1.907   0.185  -1.981  1.00  0.00    -0.388 OA
ATOM     30  H8  UNL     1       2.302   1.037  -2.127  1.00  0.00     0.210 HD
ENDBRANCH   6  29
BRANCH   3  31
HETATM   31  C10 UNL     1       4.015  -3.783  -1.808  1.00  0.00     0.198 C 
BRANCH  31  32
HETATM   32  O4  UNL     1       3.752  -3.455  -3.137  1.00  0.00    -0.398 OA
ATOM     33  H4  UNL     1       4.096  -4.117  -3.725  1.00  0.00     0.209 HD
ENDBRANCH  31  32
ENDBRANCH   3  31
BRANCH   5  34
HETATM   34  O6  UNL     1       4.207   0.866  -0.391  1.00  0.00    -0.306 OA
BRANCH  34  35
HETATM   35  C13 UNL     1       4.808   1.455   0.702  1.00  0.00     0.293 C 
HETATM   36  O7  UNL     1       4.766   0.822   1.779  1.00  0.00    -0.259 OA
BRANCH  35  37
HETATM   37  C14 UNL     1       5.465   2.774   0.583  1.00  0.00     0.039 A 
HETATM   38  C15 UNL     1       5.491   3.441  -0.619  1.00  0.00     0.017 A 
HETATM   39  C16 UNL     1       6.095   4.675  -0.758  1.00  0.00     0.001 A 
HETATM   40  C17 UNL     1       6.680   5.227   0.360  1.00  0.00     0.000 A 
HETATM   41  C18 UNL     1       6.675   4.588   1.583  1.00  0.00     0.001 A 
HETATM   42  C19 UNL     1       6.060   3.362   1.670  1.00  0.00     0.017 A 
ENDBRANCH  35  37
ENDBRANCH  34  35
ENDBRANCH   5  34
BRANCH   4  43
HETATM   43  O5  UNL     1       5.520  -1.591  -1.078  1.00  0.00    -0.390 OA
ATOM     44  H5  UNL     1       5.943  -0.776  -1.320  1.00  0.00     0.210 HD
ENDBRANCH   4  43
TORSDOF 16
