REMARK  19 active torsions:
REMARK  status: ('A' for Active; 'I' for Inactive)
REMARK    1  A    between atoms: C2_2  and  C3_3 
REMARK    2  A    between atoms: C2_2  and  C10_12 
REMARK    3  A    between atoms: C4_4  and  C5_5 
REMARK    4  A    between atoms: C6_6  and  C8_8 
REMARK    5  A    between atoms: C8_8  and  O1_10 
REMARK    6  A    between atoms: C12_14  and  O2_15 
REMARK    7  A    between atoms: C16_20  and  O3_21 
REMARK    8  A    between atoms: C16_20  and  C17_23 
REMARK    9  A    between atoms: C17_23  and  O5_25 
REMARK   10  A    between atoms: O5_25  and  C18_26 
REMARK   11  A    between atoms: C18_26  and  O6_27 
REMARK   12  A    between atoms: C18_26  and  C22_32 
REMARK   13  A    between atoms: O6_27  and  C19_28 
REMARK   14  A    between atoms: C19_28  and  C20_30 
REMARK   15  A    between atoms: C22_32  and  O8_33 
REMARK   16  A    between atoms: C22_32  and  C23_35 
REMARK   17  A    between atoms: C24_38  and  O11_39 
REMARK   18  A    between atoms: O11_39  and  C25_40 
REMARK   19  A    between atoms: C28_45  and  O14_46 
ROOT
HETATM    1  C10 UNL     1      -2.030  -0.211   0.495  1.00  0.00     0.051 C 
HETATM    2  C11 UNL     1      -2.546  -0.753  -0.824  1.00  0.00     0.027 C 
HETATM    3  C12 UNL     1      -2.108   1.308   0.471  1.00  0.00     0.138 C 
HETATM    4  C13 UNL     1      -0.800   1.846  -0.015  1.00  0.00     0.070 C 
HETATM    5  C14 UNL     1       0.014   0.664  -0.331  1.00  0.00    -0.035 C 
HETATM    6  C15 UNL     1       0.985   0.430  -1.143  1.00  0.00     0.030 C 
HETATM    7  C16 UNL     1       1.695  -0.912  -1.302  1.00  0.00     0.197 C 
HETATM    8  C24 UNL     1       1.485  -1.666  -0.068  1.00  0.00     0.253 C 
HETATM    9  C27 UNL     1      -0.013  -1.704   0.160  1.00  0.00     0.199 C 
HETATM   10  O13 UNL     1      -0.675  -2.674  -0.020  1.00  0.00    -0.291 OA
HETATM   11  C28 UNL     1      -0.564  -0.423   0.623  1.00  0.00     0.158 C 
ENDROOT
BRANCH   7  12
HETATM   12  O3  UNL     1       1.043  -1.442  -2.447  1.00  0.00    -0.373 OA
ATOM     13  H3  UNL     1       1.485  -2.277  -2.546  1.00  0.00     0.211 HD
ENDBRANCH   7  12
BRANCH   7  14
HETATM   14  C17 UNL     1       3.097  -0.631  -1.701  1.00  0.00     0.303 C 
HETATM   15  O4  UNL     1       3.446  -0.622  -2.909  1.00  0.00    -0.261 OA
BRANCH  14  16
HETATM   16  O5  UNL     1       4.051  -0.368  -0.747  1.00  0.00    -0.283 OA
BRANCH  16  17
HETATM   17  C18 UNL     1       5.382  -0.055  -0.940  1.00  0.00     0.318 C 
BRANCH  17  18
HETATM   18  O6  UNL     1       5.725   1.184  -0.368  1.00  0.00    -0.286 OA
BRANCH  18  19
HETATM   19  C19 UNL     1       6.158   2.256  -1.107  1.00  0.00     0.260 C 
HETATM   20  O7  UNL     1       6.256   2.132  -2.361  1.00  0.00    -0.265 OA
BRANCH  19  21
HETATM   21  C20 UNL     1       6.510   3.557  -0.442  1.00  0.00     0.107 C 
HETATM   22  C21 UNL     1       6.944   4.536  -1.503  1.00  0.00     0.015 C 
ENDBRANCH  19  21
ENDBRANCH  18  19
ENDBRANCH  17  18
BRANCH  17  23
HETATM   23  C22 UNL     1       6.326  -1.157  -0.494  1.00  0.00     0.275 C 
BRANCH  23  24
HETATM   24  O8  UNL     1       7.617  -0.608  -0.660  1.00  0.00    -0.380 OA
ATOM     25  H8  UNL     1       8.208  -1.298  -0.381  1.00  0.00     0.210 HD
ENDBRANCH  23  24
BRANCH  23  26
HETATM   26  C23 UNL     1       6.300  -2.336  -1.391  1.00  0.00     0.208 C 
HETATM   27  O9  UNL     1       7.316  -2.625  -2.058  1.00  0.00    -0.646 OA
HETATM   28  O10 UNL     1       5.190  -3.124  -1.513  1.00  0.00    -0.646 OA
ENDBRANCH  23  26
ENDBRANCH  17  23
ENDBRANCH  16  17
ENDBRANCH  14  16
ENDBRANCH   7  14
BRANCH   8  29
HETATM   29  O11 UNL     1       2.047  -2.929   0.084  1.00  0.00    -0.304 OA
BRANCH  29  30
HETATM   30  C25 UNL     1       2.839  -3.296   1.172  1.00  0.00     0.255 C 
HETATM   31  C26 UNL     1       3.380  -4.664   1.236  1.00  0.00     0.126 C 
HETATM   32  O12 UNL     1       3.036  -2.416   2.035  1.00  0.00    -0.266 OA
ENDBRANCH  29  30
ENDBRANCH   8  29
BRANCH  11  33
HETATM   33  O14 UNL     1      -0.027  -0.043   1.833  1.00  0.00    -0.376 OA
ATOM     34  H14 UNL     1       0.910  -0.178   1.915  1.00  0.00     0.211 HD
ENDBRANCH  11  33
BRANCH   3  35
HETATM   35  O2  UNL     1      -2.456   1.810   1.726  1.00  0.00    -0.394 OA
ATOM     36  H2  UNL     1      -2.505   2.759   1.711  1.00  0.00     0.210 HD
ENDBRANCH   3  35
BRANCH   1  37
HETATM   37  C2  UNL     1      -2.853  -0.784   1.576  1.00  0.00    -0.053 C 
HETATM   38  C1  UNL     1      -2.182  -1.529   2.496  1.00  0.00     0.020 C 
BRANCH  37  39
HETATM   39  C3  UNL     1      -4.243  -0.680   1.840  1.00  0.00     0.007 C 
HETATM   40  C4  UNL     1      -5.339  -0.189   1.420  1.00  0.00     0.001 C 
BRANCH  40  41
HETATM   41  C5  UNL     1      -5.798   0.609   0.334  1.00  0.00     0.005 C 
HETATM   42  C6  UNL     1      -6.948   1.063   0.005  1.00  0.00    -0.056 C 
HETATM   43  C7  UNL     1      -6.937   1.906  -1.310  1.00  0.00     0.046 C 
BRANCH  42  44
HETATM   44  C8  UNL     1      -8.276   0.991   0.562  1.00  0.00     0.142 C 
HETATM   45  C9  UNL     1      -8.590   0.293   1.810  1.00  0.00     0.044 C 
BRANCH  44  46
HETATM   46  O1  UNL     1      -9.160   0.435  -0.431  1.00  0.00    -0.392 OA
ATOM     47  H1  UNL     1     -10.035   0.388  -0.064  1.00  0.00     0.210 HD
ENDBRANCH  44  46
ENDBRANCH  42  44
ENDBRANCH  40  41
ENDBRANCH  37  39
ENDBRANCH   1  37
TORSDOF 19
