REMARK  17 active torsions:
REMARK  status: ('A' for Active; 'I' for Inactive)
REMARK    1  A    between atoms: C5_7  and  C6_8 
REMARK    2  A    between atoms: C6_8  and  C7_9 
REMARK    3  A    between atoms: C10_12  and  O1_13 
REMARK    4  A    between atoms: N2_15  and  C11_16 
REMARK    5  A    between atoms: C11_16  and  N3_17 
REMARK    6  A    between atoms: N4_20  and  C14_21 
REMARK    7  A    between atoms: C14_21  and  C15_22 
REMARK    8  A    between atoms: C15_22  and  O2_23 
REMARK    9  A    between atoms: C15_22  and  C16_25 
REMARK   10  A    between atoms: C16_25  and  O3_26 
REMARK   11  A    between atoms: O3_26  and  C17_27 
REMARK   12  A    between atoms: C18_28  and  O4_29 
REMARK   13  A    between atoms: C21_32  and  C22_33 
REMARK   14  A    between atoms: C22_33  and  O5_34 
REMARK   15  A    between atoms: C22_33  and  O6_36 
REMARK   16  A    between atoms: C25_39  and  N5_40 
REMARK   17  A    between atoms: C28_45  and  O9_46 
ROOT
HETATM    1  N3  UNL     1      -2.096   0.790   0.593  1.00  0.00    -0.374 N 
HETATM    2  C12 UNL     1      -1.668  -0.540   0.551  1.00  0.00     0.074 C 
HETATM    3  C13 UNL     1      -0.638  -0.678  -0.546  1.00  0.00     0.139 C 
HETATM    4  N4  UNL     1       0.587   0.010  -0.104  1.00  0.00    -0.284 NA
HETATM    5  C26 UNL     1       0.334   1.258   0.433  1.00  0.00     0.115 C 
HETATM    6  C27 UNL     1      -1.122   1.732   0.232  1.00  0.00     0.138 C 
ENDROOT
BRANCH   4   7
HETATM    7  C14 UNL     1       1.544  -0.198  -1.094  1.00  0.00     0.094 C 
BRANCH   7   8
HETATM    8  C15 UNL     1       2.891   0.344  -1.099  1.00  0.00     0.077 C 
BRANCH   8   9
HETATM    9  O2  UNL     1       3.056   1.689  -1.130  1.00  0.00    -0.362 OA
ATOM     10  H2  UNL     1       3.937   2.044  -1.133  1.00  0.00     0.217 HD
ENDBRANCH   8   9
BRANCH   8  11
HETATM   11  C16 UNL     1       3.899  -0.379  -0.164  1.00  0.00     0.241 C 
BRANCH  11  12
HETATM   12  O3  UNL     1       5.099  -0.338  -0.778  1.00  0.00    -0.339 OA
BRANCH  12  13
HETATM   13  C17 UNL     1       6.379  -0.680  -0.552  1.00  0.00     0.135 A 
HETATM   14  C18 UNL     1       7.309   0.278  -0.107  1.00  0.00     0.105 A 
HETATM   15  C20 UNL     1       8.626  -0.028   0.102  1.00  0.00     0.056 A 
HETATM   16  C21 UNL     1       9.155  -1.272  -0.095  1.00  0.00     0.027 A 
HETATM   17  C24 UNL     1       8.271  -2.242  -0.520  1.00  0.00     0.055 A 
HETATM   18  C25 UNL     1       6.913  -1.933  -0.738  1.00  0.00     0.140 A 
BRANCH  14  19
HETATM   19  O4  UNL     1       6.812   1.559   0.095  1.00  0.00    -0.353 OA
HETATM   20  C19 UNL     1       7.625   2.644   0.466  1.00  0.00     0.210 C 
ENDBRANCH  14  19
BRANCH  16  21
HETATM   21  C22 UNL     1      10.586  -1.526   0.069  1.00  0.00     0.188 C 
BRANCH  21  22
HETATM   22  O5  UNL     1      11.034  -2.730  -0.150  1.00  0.00    -0.340 OA
ATOM     23  H5  UNL     1      11.963  -2.895  -0.043  1.00  0.00     0.220 HD
ENDBRANCH  21  22
BRANCH  21  24
HETATM   24  O6  UNL     1      11.513  -0.691   0.420  1.00  0.00    -0.335 OA
HETATM   25  C23 UNL     1      12.588  -0.059   0.749  1.00  0.00     0.212 C 
ENDBRANCH  21  24
ENDBRANCH  16  21
BRANCH  18  26
HETATM   26  N5  UNL     1       6.067  -3.005  -1.147  1.00  0.00    -0.113 N 
HETATM   27  O7  UNL     1       5.114  -2.836  -1.920  1.00  0.00    -0.532 OA
HETATM   28  O8  UNL     1       6.286  -4.306  -0.709  1.00  0.00    -0.532 OA
ENDBRANCH  18  26
ENDBRANCH  12  13
ENDBRANCH  11  12
ENDBRANCH   8  11
ENDBRANCH   7   8
ENDBRANCH   4   7
BRANCH   1  29
HETATM   29  C11 UNL     1      -3.044   1.198   1.546  1.00  0.00     0.258 C 
BRANCH  29  30
HETATM   30  N2  UNL     1      -4.378   0.626   1.347  1.00  0.00    -0.290 N 
HETATM   31  C10 UNL     1      -4.779  -0.521   1.891  1.00  0.00     0.153 A 
HETATM   32  C8  UNL     1      -6.091  -0.705   1.510  1.00  0.00     0.012 A 
HETATM   33  C7  UNL     1      -6.479   0.391   0.707  1.00  0.00     0.073 A 
HETATM   34  C9  UNL     1      -6.907  -1.885   1.849  1.00  0.00     0.054 C 
HETATM   35  C28 UNL     1      -5.380   1.189   0.636  1.00  0.00     0.165 A 
BRANCH  31  36
HETATM   36  O1  UNL     1      -4.092  -1.429   2.708  1.00  0.00    -0.345 OA
ATOM     37  H1  UNL     1      -3.188  -1.302   2.971  1.00  0.00     0.219 HD
ENDBRANCH  31  36
BRANCH  33  38
HETATM   38  C6  UNL     1      -7.791   0.480   0.154  1.00  0.00    -0.080 C 
BRANCH  38  39
HETATM   39  C5  UNL     1      -8.898   0.565  -0.301  1.00  0.00     0.103 A 
HETATM   40  C3  UNL     1      -9.165  -0.320  -1.427  1.00  0.00     0.042 A 
HETATM   41  N1  UNL     1     -10.434  -0.166  -1.731  1.00  0.00    -0.344 N 
HETATM   42  C4  UNL     1      -8.199  -1.236  -2.074  1.00  0.00     0.071 C 
HETATM   43  C2  UNL     1     -11.006   0.706  -0.934  1.00  0.00     0.096 A 
ATOM     44  H1  UNL     1     -10.911  -0.659  -2.486  1.00  0.00     0.167 HD
HETATM   45  C1  UNL     1     -12.296   1.091  -0.855  1.00  0.00     0.063 C 
HETATM   46  N6  UNL     1     -10.089   1.171  -0.048  1.00  0.00    -0.335 N 
ATOM     47  H6  UNL     1     -10.264   1.859   0.684  1.00  0.00     0.168 HD
ENDBRANCH  38  39
ENDBRANCH  33  38
BRANCH  35  48
HETATM   48  O9  UNL     1      -5.294   2.370  -0.052  1.00  0.00    -0.345 OA
ATOM     49  H9  UNL     1      -4.526   2.927  -0.102  1.00  0.00     0.219 HD
ENDBRANCH  35  48
ENDBRANCH  29  30
ENDBRANCH   1  29
TORSDOF 17
