REMARK  20 active torsions:
REMARK  status: ('A' for Active; 'I' for Inactive)
REMARK    1  A    between atoms: C2_2  and  O2_4 
REMARK    2  A    between atoms: O2_4  and  C3_5 
REMARK    3  A    between atoms: C7_9  and  C8_10 
REMARK    4  A    between atoms: C8_10  and  O3_11 
REMARK    5  A    between atoms: O3_11  and  C9_12 
REMARK    6  A    between atoms: C15_22  and  C16_23 
REMARK    7  A    between atoms: C16_23  and  O8_24 
REMARK    8  A    between atoms: C16_23  and  C19_28 
REMARK    9  A    between atoms: O8_24  and  C17_25 
REMARK   10  A    between atoms: C19_28  and  O10_29 
REMARK   11  A    between atoms: C19_28  and  O11_31 
REMARK   12  A    between atoms: C19_28  and  C22_35 
REMARK   13  A    between atoms: O11_31  and  C20_32 
REMARK   14  A    between atoms: C22_35  and  O13_36 
REMARK   15  A    between atoms: C22_35  and  C23_38 
REMARK   16  A    between atoms: C23_38  and  O14_39 
REMARK   17  A    between atoms: C23_38  and  C24_41 
REMARK   18  A    between atoms: C24_41  and  C25_42 
REMARK   19  A    between atoms: C25_42  and  C26_43 
REMARK   20  A    between atoms: C26_43  and  O15_44 
ROOT
HETATM    1  C3  UNL     1       1.635  -0.204   1.743  1.00  0.00     0.170 C 
HETATM    2  C4  UNL     1       2.856  -0.137   0.834  1.00  0.00     0.052 C 
HETATM    3  C5  UNL     1       2.338  -0.458  -0.532  1.00  0.00     0.010 C 
HETATM    4  C6  UNL     1       2.987  -1.618  -1.151  1.00  0.00    -0.009 C 
HETATM    5  C7  UNL     1       3.439  -1.323  -2.360  1.00  0.00    -0.056 C 
HETATM    6  C10 UNL     1       3.128   0.090  -2.676  1.00  0.00     0.069 C 
HETATM    7  C11 UNL     1       2.601   0.698  -1.432  1.00  0.00     0.141 C 
HETATM    8  O6  UNL     1       1.395   1.336  -1.685  1.00  0.00    -0.349 OA
HETATM    9  C12 UNL     1       0.984   2.138  -0.634  1.00  0.00     0.158 C 
HETATM   10  C13 UNL     1       2.059   3.246  -0.544  1.00  0.00     0.078 C 
HETATM   11  C14 UNL     1      -0.234   2.888  -1.166  1.00  0.00     0.078 C 
HETATM   12  O7  UNL     1       0.887   1.598   0.567  1.00  0.00    -0.339 OA
HETATM   13  C15 UNL     1       0.543   0.285   0.791  1.00  0.00     0.124 C 
HETATM   14  C27 UNL     1       0.846  -0.677  -0.314  1.00  0.00     0.060 C 
ENDROOT
BRANCH  13  15
HETATM   15  C16 UNL     1      -0.817   0.274   1.340  1.00  0.00     0.234 C 
BRANCH  15  16
HETATM   16  O8  UNL     1      -0.811   0.999   2.620  1.00  0.00    -0.307 OA
BRANCH  16  17
HETATM   17  C17 UNL     1      -1.470   2.144   2.862  1.00  0.00     0.255 C 
HETATM   18  C18 UNL     1      -1.393   2.790   4.193  1.00  0.00     0.126 C 
HETATM   19  O9  UNL     1      -2.135   2.635   1.952  1.00  0.00    -0.266 OA
ENDBRANCH  16  17
ENDBRANCH  15  16
BRANCH  15  20
HETATM   20  C19 UNL     1      -1.587  -1.000   1.528  1.00  0.00     0.229 C 
BRANCH  20  21
HETATM   21  O10 UNL     1      -1.109  -1.962   2.324  1.00  0.00    -0.361 OA
ATOM     22  H10 UNL     1      -1.597  -2.769   2.443  1.00  0.00     0.213 HD
ENDBRANCH  20  21
BRANCH  20  23
HETATM   23  O11 UNL     1      -2.778  -0.567   2.266  1.00  0.00    -0.278 OA
BRANCH  23  24
HETATM   24  C20 UNL     1      -3.670  -1.393   2.860  1.00  0.00     0.257 C 
HETATM   25  C21 UNL     1      -4.874  -0.852   3.541  1.00  0.00     0.126 C 
HETATM   26  O12 UNL     1      -3.527  -2.626   2.865  1.00  0.00    -0.266 OA
ENDBRANCH  23  24
ENDBRANCH  20  23
BRANCH  20  27
HETATM   27  C22 UNL     1      -2.134  -1.529   0.234  1.00  0.00     0.212 C 
BRANCH  27  28
HETATM   28  O13 UNL     1      -3.176  -2.430   0.388  1.00  0.00    -0.387 OA
ATOM     29  H13 UNL     1      -3.522  -2.765  -0.431  1.00  0.00     0.210 HD
ENDBRANCH  27  28
BRANCH  27  30
HETATM   30  C23 UNL     1      -2.771  -0.407  -0.623  1.00  0.00     0.152 C 
BRANCH  30  31
HETATM   31  O14 UNL     1      -3.823   0.200   0.002  1.00  0.00    -0.393 OA
ATOM     32  H14 UNL     1      -4.214   0.888  -0.524  1.00  0.00     0.210 HD
ENDBRANCH  30  31
BRANCH  30  33
HETATM   33  C24 UNL     1      -3.358  -1.057  -1.889  1.00  0.00     0.036 C 
BRANCH  33  34
HETATM   34  C25 UNL     1      -3.990   0.013  -2.752  1.00  0.00     0.029 C 
BRANCH  34  35
HETATM   35  C26 UNL     1      -4.548  -0.704  -3.981  1.00  0.00     0.164 C 
BRANCH  35  36
HETATM   36  O15 UNL     1      -5.150   0.182  -4.842  1.00  0.00    -0.401 OA
ATOM     37  H15 UNL     1      -5.497  -0.264  -5.606  1.00  0.00     0.209 HD
ENDBRANCH  35  36
ENDBRANCH  34  35
ENDBRANCH  33  34
ENDBRANCH  30  33
ENDBRANCH  27  30
ENDBRANCH  20  27
ENDBRANCH  15  20
ENDBRANCH  13  15
BRANCH   1  38
HETATM   38  O2  UNL     1       1.918   0.676   2.774  1.00  0.00    -0.313 OA
BRANCH  38  39
HETATM   39  C2  UNL     1       2.076   0.223   4.048  1.00  0.00     0.255 C 
HETATM   40  C1  UNL     1       2.378   1.163   5.143  1.00  0.00     0.126 C 
HETATM   41  O1  UNL     1       1.967  -0.993   4.300  1.00  0.00    -0.266 OA
ENDBRANCH  38  39
ENDBRANCH   1  38
BRANCH   5  42
HETATM   42  C8  UNL     1       4.154  -2.311  -3.247  1.00  0.00     0.216 C 
BRANCH  42  43
HETATM   43  O3  UNL     1       5.471  -1.817  -3.538  1.00  0.00    -0.292 OA
BRANCH  43  44
HETATM   44  C9  UNL     1       6.346  -2.530  -4.336  1.00  0.00     0.333 C 
HETATM   45  O4  UNL     1       5.931  -3.631  -4.793  1.00  0.00    -0.624 OA
HETATM   46  O5  UNL     1       7.638  -2.070  -4.636  1.00  0.00    -0.624 OA
ENDBRANCH  43  44
ENDBRANCH  42  43
ENDBRANCH   5  42
TORSDOF 20
