REMARK  14 active torsions:
REMARK  status: ('A' for Active; 'I' for Inactive)
REMARK    1  A    between atoms: C2_2  and  O1_3 
REMARK    2  A    between atoms: O1_3  and  C3_4 
REMARK    3  A    between atoms: C3_4  and  C15_29 
REMARK    4  A    between atoms: N1_5  and  N2_7 
REMARK       I    between atoms: N2_7  and  C4_9 
REMARK    5  A    between atoms: C4_9  and  C5_11 
REMARK    6  A    between atoms: C8_17  and  N4_18 
REMARK    7  A    between atoms: N4_18  and  C9_20 
REMARK    8  A    between atoms: C15_29  and  C16_30 
REMARK    9  A    between atoms: C15_29  and  C18_41 
REMARK       I    between atoms: C16_30  and  N6_32 
REMARK   10  A    between atoms: N6_32  and  N7_34 
REMARK       I    between atoms: N7_34  and  C17_36 
REMARK   11  A    between atoms: C18_41  and  O5_42 
REMARK   12  A    between atoms: C18_41  and  C21_46 
REMARK   13  A    between atoms: O5_42  and  C19_43 
REMARK   14  A    between atoms: C21_46  and  O8_48 
ROOT
HETATM    1  C3  UNL     1      -0.982  -0.327   0.308  1.00  0.00     0.149 C 
HETATM    2  N1  UNL     1      -0.121  -0.831  -0.379  1.00  0.00    -0.280 N 
ATOM      3  H1  UNL     1      -0.624  -1.300  -1.132  1.00  0.00     0.189 HD
ENDROOT
BRANCH   1   4
HETATM    4  O1  UNL     1      -0.616   0.393   1.440  1.00  0.00    -0.338 OA
BRANCH   4   5
HETATM    5  C2  UNL     1       0.514   1.168   1.613  1.00  0.00     0.172 C 
HETATM    6  C1  UNL     1       0.666   2.314   0.660  1.00  0.00     0.034 C 
ENDBRANCH   4   5
ENDBRANCH   1   4
BRANCH   1   7
HETATM    7  C15 UNL     1      -2.415  -0.489  -0.071  1.00  0.00     0.195 C 
BRANCH   7   8
HETATM    8  C16 UNL     1      -3.178  -1.336   0.871  1.00  0.00     0.251 C 
HETATM    9  O4  UNL     1      -2.668  -1.802   1.929  1.00  0.00    -0.271 OA
HETATM   10  N6  UNL     1      -4.524  -1.649   0.600  1.00  0.00    -0.267 N 
ATOM     11  H6  UNL     1      -4.963  -1.284  -0.245  1.00  0.00     0.190 HD
BRANCH  10  12
HETATM   12  N7  UNL     1      -5.264  -2.446   1.464  1.00  0.00    -0.271 N 
HETATM   13  C17 UNL     1      -6.563  -2.930   1.128  1.00  0.00     0.200 C 
HETATM   14  N8  UNL     1      -6.783  -4.198   1.120  1.00  0.00    -0.372 N 
HETATM   15  N9  UNL     1      -7.621  -2.043   0.801  1.00  0.00    -0.062 NA
ATOM     16  H82 UNL     1      -6.022  -4.836   1.355  1.00  0.00     0.158 HD
ATOM     17  H81 UNL     1      -7.712  -4.544   0.880  1.00  0.00     0.158 HD
ATOM     18  H7  UNL     1      -4.865  -2.694   2.369  1.00  0.00     0.189 HD
ENDBRANCH  10  12
ENDBRANCH   7   8
BRANCH   7  19
HETATM   19  C18 UNL     1      -3.122   0.849  -0.174  1.00  0.00     0.252 C 
BRANCH  19  20
HETATM   20  O5  UNL     1      -2.511   1.674  -1.152  1.00  0.00    -0.305 OA
BRANCH  20  21
HETATM   21  C19 UNL     1      -3.131   2.059  -2.334  1.00  0.00     0.255 C 
HETATM   22  C20 UNL     1      -2.477   2.924  -3.348  1.00  0.00     0.126 C 
HETATM   23  O6  UNL     1      -4.287   1.620  -2.479  1.00  0.00    -0.266 OA
ENDBRANCH  20  21
ENDBRANCH  19  20
BRANCH  19  24
HETATM   24  C21 UNL     1      -3.319   1.499   1.113  1.00  0.00     0.289 C 
HETATM   25  O7  UNL     1      -3.859   0.889   2.050  1.00  0.00    -0.262 OA
BRANCH  24  26
HETATM   26  O8  UNL     1      -2.926   2.792   1.354  1.00  0.00    -0.324 OA
HETATM   27  C22 UNL     1      -3.136   3.382   2.621  1.00  0.00     0.213 C 
ENDBRANCH  24  26
ENDBRANCH  19  24
ENDBRANCH   7  19
ENDBRANCH   1   7
BRANCH   2  28
HETATM   28  N2  UNL     1       1.159  -1.065  -0.621  1.00  0.00    -0.263 N 
HETATM   29  C4  UNL     1       1.687  -2.216  -1.293  1.00  0.00     0.287 C 
HETATM   30  O2  UNL     1       0.849  -3.062  -1.680  1.00  0.00    -0.264 OA
ATOM     31  H2  UNL     1       1.828  -0.365  -0.301  1.00  0.00     0.190 HD
BRANCH  29  32
HETATM   32  C5  UNL     1       3.093  -2.443  -1.540  1.00  0.00     0.123 A 
HETATM   33  C6  UNL     1       3.474  -3.574  -2.239  1.00  0.00     0.110 A 
HETATM   34  C7  UNL     1       4.796  -3.813  -2.482  1.00  0.00     0.261 A 
HETATM   35  O3  UNL     1       5.125  -4.858  -3.125  1.00  0.00    -0.268 OA
HETATM   36  N3  UNL     1       5.715  -2.933  -2.031  1.00  0.00    -0.156 N 
HETATM   37  C8  UNL     1       5.379  -1.829  -1.352  1.00  0.00     0.686 A 
ATOM     38  H3  UNL     1       6.702  -3.116  -2.214  1.00  0.00     0.187 HD
HETATM   39  N5  UNL     1       4.064  -1.607  -1.120  1.00  0.00    -0.186 N 
ATOM     40  H5  UNL     1       3.795  -0.769  -0.604  1.00  0.00     0.184 HD
BRANCH  37  41
HETATM   41  N4  UNL     1       6.307  -1.025  -0.942  1.00  0.00    -0.190 N 
ATOM     42  H4  UNL     1       7.281  -1.248  -1.146  1.00  0.00     0.184 HD
BRANCH  41  43
HETATM   43  C9  UNL     1       6.007   0.162  -0.215  1.00  0.00     0.070 A 
HETATM   44  C10 UNL     1       5.562   1.289  -0.870  1.00  0.00     0.032 A 
HETATM   45  C11 UNL     1       5.268   2.442  -0.157  1.00  0.00     0.002 A 
HETATM   46  C12 UNL     1       5.436   2.415   1.209  1.00  0.00     0.002 A 
HETATM   47  C13 UNL     1       5.886   1.278   1.879  1.00  0.00     0.026 A 
HETATM   48  C14 UNL     1       6.174   0.140   1.158  1.00  0.00     0.061 A 
HETATM   49 CL1  UNL     1       6.742  -1.296   1.991  1.00  0.00    -0.082 Cl
ENDBRANCH  41  43
ENDBRANCH  37  41
ENDBRANCH  29  32
ENDBRANCH   2  28
TORSDOF 14
