REMARK  18 active torsions:
REMARK  status: ('A' for Active; 'I' for Inactive)
REMARK    1  A    between atoms: C2_2  and  O1_5 
REMARK    2  A    between atoms: O1_5  and  C5_6 
REMARK    3  A    between atoms: C5_6  and  C6_8 
REMARK    4  A    between atoms: C6_8  and  N1_9 
REMARK    5  A    between atoms: N1_9  and  C7_10 
REMARK    6  A    between atoms: C7_10  and  O3_11 
REMARK    7  A    between atoms: C7_10  and  C16_22 
REMARK    8  A    between atoms: O3_11  and  C8_12 
REMARK    9  A    between atoms: C8_12  and  O4_13 
REMARK   10  A    between atoms: O4_13  and  C9_14 
REMARK   11  A    between atoms: C9_14  and  C10_16 
REMARK   12  A    between atoms: C17_26  and  C18_27 
REMARK       I    between atoms: C18_27  and  N3_29 
REMARK   13  A    between atoms: N3_29  and  C19_31 
REMARK   14  A    between atoms: C19_31  and  C20_32 
REMARK   15  A    between atoms: C19_31  and  C21_35 
REMARK   16  A    between atoms: C21_35  and  O9_36 
REMARK   17  A    between atoms: C21_35  and  O10_38 
REMARK   18  A    between atoms: C23_41  and  C24_42 
ROOT
HETATM    1  C16 UNL     1       0.975   0.231   0.514  1.00  0.00     0.307 C 
HETATM    2  N2  UNL     1       1.990   0.815  -0.334  1.00  0.00    -0.042 N 
ATOM      3  H21 UNL     1       1.983   1.798  -0.604  1.00  0.00     0.280 HD
ATOM      4  H22 UNL     1       2.067   0.601  -1.328  1.00  0.00     0.280 HD
HETATM    5  C17 UNL     1       2.937   0.264   0.688  1.00  0.00     0.310 C 
HETATM    6  C22 UNL     1       2.010  -0.850   0.766  1.00  0.00     0.005 C 
HETATM    7  C23 UNL     1       1.848  -2.121   0.939  1.00  0.00     0.092 C 
ENDROOT
BRANCH   1   8
HETATM    8  C7  UNL     1      -0.231  -0.255  -0.232  1.00  0.00     0.229 C 
BRANCH   8   9
HETATM    9  N1  UNL     1      -1.315   0.200   0.016  1.00  0.00    -0.389 NA
BRANCH   9  10
HETATM   10  C6  UNL     1      -2.570   0.617   0.192  1.00  0.00     0.267 C 
BRANCH  10  11
HETATM   11  C5  UNL     1      -2.832   2.082  -0.081  1.00  0.00     0.312 C 
HETATM   12  O2  UNL     1      -1.867   2.784  -0.436  1.00  0.00    -0.257 OA
BRANCH  11  13
HETATM   13  O1  UNL     1      -4.076   2.655   0.046  1.00  0.00    -0.306 OA
BRANCH  13  14
HETATM   14  C2  UNL     1      -4.348   4.017  -0.202  1.00  0.00     0.060 C 
HETATM   15  C1  UNL     1      -4.027   4.417  -1.613  1.00  0.00     0.046 C 
HETATM   16  C3  UNL     1      -5.860   4.180  -0.028  1.00  0.00     0.046 C 
HETATM   17  C4  UNL     1      -3.683   4.955   0.751  1.00  0.00     0.046 C 
ENDBRANCH  13  14
ENDBRANCH  11  13
ENDBRANCH  10  11
ENDBRANCH   9  10
ENDBRANCH   8   9
BRANCH   8  18
HETATM   18  O3  UNL     1       0.030  -1.241  -1.198  1.00  0.00    -0.300 OA
BRANCH  18  19
HETATM   19  C8  UNL     1      -0.943  -1.603  -2.147  1.00  0.00     0.358 C 
BRANCH  19  20
HETATM   20  O4  UNL     1      -2.122  -2.122  -1.628  1.00  0.00    -0.291 OA
BRANCH  20  21
HETATM   21  C9  UNL     1      -2.264  -3.258  -0.858  1.00  0.00     0.295 C 
HETATM   22  O5  UNL     1      -1.249  -3.909  -0.584  1.00  0.00    -0.259 OA
BRANCH  21  23
HETATM   23  C10 UNL     1      -3.573  -3.703  -0.365  1.00  0.00     0.039 A 
HETATM   24  C11 UNL     1      -4.735  -3.018  -0.637  1.00  0.00     0.017 A 
HETATM   25  C12 UNL     1      -5.960  -3.452  -0.165  1.00  0.00     0.001 A 
HETATM   26  C13 UNL     1      -6.060  -4.592   0.599  1.00  0.00     0.000 A 
HETATM   27  C14 UNL     1      -4.895  -5.284   0.875  1.00  0.00     0.001 A 
HETATM   28  C15 UNL     1      -3.675  -4.845   0.400  1.00  0.00     0.017 A 
ENDBRANCH  21  23
ENDBRANCH  20  21
ENDBRANCH  19  20
ENDBRANCH  18  19
ENDBRANCH   8  18
ENDBRANCH   1   8
BRANCH   5  29
HETATM   29  C18 UNL     1       4.246   0.128   0.067  1.00  0.00     0.253 C 
HETATM   30  O6  UNL     1       4.327  -0.221  -1.132  1.00  0.00    -0.271 OA
HETATM   31  N3  UNL     1       5.442   0.386   0.783  1.00  0.00    -0.340 N 
ATOM     32  H3  UNL     1       5.400   0.671   1.761  1.00  0.00     0.163 HD
BRANCH  31  33
HETATM   33  C19 UNL     1       6.714   0.245   0.129  1.00  0.00     0.240 C 
BRANCH  33  34
HETATM   34  C20 UNL     1       7.569  -0.670   0.919  1.00  0.00     0.201 C 
HETATM   35  O7  UNL     1       7.127  -1.160   1.968  1.00  0.00    -0.646 OA
HETATM   36  O8  UNL     1       8.864  -1.004   0.524  1.00  0.00    -0.646 OA
ENDBRANCH  33  34
BRANCH  33  37
HETATM   37  C21 UNL     1       7.367   1.615   0.047  1.00  0.00     0.287 C 
BRANCH  37  38
HETATM   38  O9  UNL     1       6.589   2.504  -0.670  1.00  0.00    -0.369 OA
ATOM     39  H9  UNL     1       6.997   3.360  -0.721  1.00  0.00     0.212 HD
ENDBRANCH  37  38
BRANCH  37  40
HETATM   40  O10 UNL     1       8.618   1.530  -0.568  1.00  0.00    -0.369 OA
ATOM     41  H10 UNL     1       9.026   2.386  -0.619  1.00  0.00     0.212 HD
ENDBRANCH  37  40
ENDBRANCH  33  37
ENDBRANCH  31  33
ENDBRANCH   5  29
BRANCH   7  42
HETATM   42  C24 UNL     1       2.899  -3.091   1.176  1.00  0.00     0.198 C 
HETATM   43  O11 UNL     1       2.610  -4.318   1.331  1.00  0.00    -0.644 OA
HETATM   44  O12 UNL     1       4.243  -2.791   1.251  1.00  0.00    -0.644 OA
ENDBRANCH   7  42
TORSDOF 18
