REMARK  14 active torsions:
REMARK  status: ('A' for Active; 'I' for Inactive)
REMARK    1  A    between atoms: O1_2  and  C2_3 
REMARK    2  A    between atoms: C3_4  and  O2_5 
REMARK    3  A    between atoms: C4_7  and  C5_8 
REMARK    4  A    between atoms: C5_8  and  O3_9 
REMARK    5  A    between atoms: C6_12  and  O5_13 
REMARK    6  A    between atoms: O5_13  and  C7_14 
REMARK    7  A    between atoms: C8_15  and  O6_16 
REMARK    8  A    between atoms: O6_16  and  C9_17 
REMARK    9  A    between atoms: C10_18  and  O7_19 
REMARK   10  A    between atoms: C18_30  and  O10_31 
REMARK   11  A    between atoms: C19_33  and  O11_34 
REMARK   12  A    between atoms: C20_36  and  O12_37 
REMARK   13  A    between atoms: O12_37  and  C21_38 
REMARK   14  A    between atoms: C21_38  and  C22_39 
ROOT
HETATM    1  C7  UNL     1      -0.235   0.531   2.146  1.00  0.00     0.189 C 
HETATM    2  C8  UNL     1      -1.322   1.278   1.457  1.00  0.00     0.177 C 
HETATM    3  C17 UNL     1      -1.416   2.591   2.235  1.00  0.00     0.205 C 
HETATM    4  O9  UNL     1      -1.557   2.357   3.558  1.00  0.00    -0.356 OA
HETATM    5  C18 UNL     1      -1.772   1.103   4.023  1.00  0.00     0.288 C 
HETATM    6  C19 UNL     1      -0.850   0.047   3.464  1.00  0.00     0.204 C 
ENDROOT
BRANCH   1   7
HETATM    7  O5  UNL     1       0.322  -0.456   1.406  1.00  0.00    -0.348 OA
BRANCH   7   8
HETATM    8  C6  UNL     1       1.718  -0.370   1.341  1.00  0.00     0.292 C 
HETATM    9  O4  UNL     1       2.160  -1.554   1.931  1.00  0.00    -0.348 OA
HETATM   10  C4  UNL     1       3.539  -1.719   1.830  1.00  0.00     0.179 C 
HETATM   11  C3  UNL     1       3.952  -1.895   0.385  1.00  0.00     0.180 C 
HETATM   12  C2  UNL     1       2.756  -1.663  -0.528  1.00  0.00     0.185 C 
HETATM   13  C20 UNL     1       2.143  -0.346  -0.089  1.00  0.00     0.208 C 
BRANCH  10  14
HETATM   14  C5  UNL     1       4.029  -2.870   2.637  1.00  0.00     0.198 C 
BRANCH  14  15
HETATM   15  O3  UNL     1       3.752  -2.738   3.999  1.00  0.00    -0.398 OA
ATOM     16  H3  UNL     1       4.065  -3.473   4.514  1.00  0.00     0.209 HD
ENDBRANCH  14  15
ENDBRANCH  10  14
BRANCH  11  17
HETATM   17  O2  UNL     1       4.447  -3.187   0.243  1.00  0.00    -0.390 OA
ATOM     18  H2  UNL     1       5.193  -3.332   0.813  1.00  0.00     0.210 HD
ENDBRANCH  11  17
BRANCH  12  19
HETATM   19  O1  UNL     1       1.812  -2.649  -0.421  1.00  0.00    -0.385 OA
HETATM   20  C1  UNL     1       1.545  -3.357  -1.566  1.00  0.00     0.202 C 
ENDBRANCH  12  19
BRANCH  13  21
HETATM   21  O12 UNL     1       2.984   0.723  -0.383  1.00  0.00    -0.378 OA
BRANCH  21  22
HETATM   22  C21 UNL     1       2.543   1.580  -1.346  1.00  0.00     0.179 C 
BRANCH  22  23
HETATM   23  C22 UNL     1       2.370   0.910  -2.682  1.00  0.00     0.111 C 
HETATM   24 BR1  UNL     1       1.742   2.175  -4.020  1.00  0.00    -0.094 Br
ENDBRANCH  22  23
ENDBRANCH  21  22
ENDBRANCH  13  21
ENDBRANCH   7   8
ENDBRANCH   1   7
BRANCH   2  25
HETATM   25  O6  UNL     1      -1.102   1.407   0.137  1.00  0.00    -0.370 OA
BRANCH  25  26
HETATM   26  C9  UNL     1      -2.038   0.906  -0.719  1.00  0.00     0.187 C 
HETATM   27  C10 UNL     1      -1.679  -0.075  -1.740  1.00  0.00     0.183 C 
HETATM   28  C11 UNL     1      -2.661   0.180  -2.893  1.00  0.00     0.083 C 
HETATM   29  C12 UNL     1      -3.848  -0.777  -2.785  1.00  0.00     0.048 C 
HETATM   30  C13 UNL     1      -2.012  -0.091  -4.233  1.00  0.00     0.048 C 
HETATM   31  O8  UNL     1      -3.032   1.485  -2.770  1.00  0.00    -0.365 OA
HETATM   32  C14 UNL     1      -2.769   1.976  -1.527  1.00  0.00     0.083 C 
HETATM   33  C15 UNL     1      -1.901   3.213  -1.690  1.00  0.00     0.048 C 
HETATM   34  C16 UNL     1      -4.032   2.425  -0.824  1.00  0.00     0.048 C 
BRANCH  27  35
HETATM   35  O7  UNL     1      -1.934  -1.404  -1.329  1.00  0.00    -0.390 OA
ATOM     36  H7  UNL     1      -1.701  -2.042  -1.993  1.00  0.00     0.210 HD
ENDBRANCH  27  35
ENDBRANCH  25  26
ENDBRANCH   2  25
BRANCH   6  37
HETATM   37  O11 UNL     1       0.119  -0.317   4.379  1.00  0.00    -0.388 OA
ATOM     38  H11 UNL     1      -0.262  -0.617   5.196  1.00  0.00     0.210 HD
ENDBRANCH   6  37
BRANCH   5  39
HETATM   39  O10 UNL     1      -3.116   0.685   3.923  1.00  0.00    -0.369 OA
ATOM     40  H10 UNL     1      -3.267  -0.194   4.249  1.00  0.00     0.212 HD
ENDBRANCH   5  39
TORSDOF 14
