REMARK  16 active torsions:
REMARK  status: ('A' for Active; 'I' for Inactive)
REMARK    1  A    between atoms: C2_2  and  O1_4 
REMARK    2  A    between atoms: O1_4  and  C4_5 
REMARK    3  A    between atoms: C4_5  and  C5_6 
REMARK    4  A    between atoms: C5_6  and  O3_8 
REMARK    5  A    between atoms: O3_8  and  C6_9 
REMARK    6  A    between atoms: C7_10  and  C8_11 
REMARK    7  A    between atoms: C9_12  and  C10_13 
REMARK    8  A    between atoms: C14_19  and  O4_20 
REMARK    9  A    between atoms: O4_20  and  C15_21 
REMARK   10  A    between atoms: C18_25  and  O6_26 
REMARK   11  A    between atoms: O6_26  and  C19_27 
REMARK   12  A    between atoms: C21_30  and  O8_31 
REMARK   13  A    between atoms: C22_33  and  O9_34 
REMARK   14  A    between atoms: C23_36  and  O10_37 
REMARK   15  A    between atoms: C24_39  and  O11_40 
REMARK   16  A    between atoms: C25_42  and  O12_43 
ROOT
HETATM    1  C6  UNL     1       3.418  -1.328  -0.003  1.00  0.00     0.170 C 
HETATM    2  C7  UNL     1       3.517  -2.333  -1.099  1.00  0.00     0.041 C 
HETATM    3  C11 UNL     1       2.441  -2.244  -2.149  1.00  0.00     0.033 C 
HETATM    4  C12 UNL     1       1.074  -2.362  -1.480  1.00  0.00     0.125 C 
HETATM    5  C13 UNL     1       0.102  -2.389  -2.563  1.00  0.00     0.066 C 
HETATM    6  N1  UNL     1      -0.670  -2.430  -3.447  1.00  0.00    -0.197 NA
HETATM    7  C14 UNL     1       0.948  -1.147  -0.622  1.00  0.00     0.173 C 
HETATM    8  C25 UNL     1       2.012  -1.070   0.436  1.00  0.00     0.178 C 
ENDROOT
BRANCH   7   9
HETATM    9  O4  UNL     1      -0.269  -1.040   0.018  1.00  0.00    -0.349 OA
BRANCH   9  10
HETATM   10  C15 UNL     1      -0.884   0.137  -0.313  1.00  0.00     0.292 C 
HETATM   11  O5  UNL     1      -1.033   0.992   0.779  1.00  0.00    -0.351 OA
HETATM   12  C16 UNL     1      -2.388   1.127   1.026  1.00  0.00     0.152 C 
HETATM   13  C17 UNL     1      -2.773   2.422   1.664  1.00  0.00     0.042 C 
HETATM   14  C18 UNL     1      -3.050   1.036  -0.359  1.00  0.00     0.187 C 
HETATM   15  C24 UNL     1      -2.215  -0.070  -0.954  1.00  0.00     0.204 C 
BRANCH  14  16
HETATM   16  O6  UNL     1      -4.344   0.622  -0.257  1.00  0.00    -0.348 OA
BRANCH  16  17
HETATM   17  C19 UNL     1      -5.287   1.388  -0.879  1.00  0.00     0.291 C 
HETATM   18  O7  UNL     1      -6.064   1.974   0.106  1.00  0.00    -0.356 OA
HETATM   19  C20 UNL     1      -6.788   0.958   0.738  1.00  0.00     0.205 C 
HETATM   20  C21 UNL     1      -7.927   0.584  -0.198  1.00  0.00     0.173 C 
HETATM   21  C22 UNL     1      -7.590   1.020  -1.614  1.00  0.00     0.182 C 
HETATM   22  C23 UNL     1      -6.116   0.764  -1.909  1.00  0.00     0.204 C 
BRANCH  20  23
HETATM   23  O8  UNL     1      -9.041   1.307   0.208  1.00  0.00    -0.391 OA
ATOM     24  H8  UNL     1      -9.752   1.073  -0.377  1.00  0.00     0.210 HD
ENDBRANCH  20  23
BRANCH  21  25
HETATM   25  O9  UNL     1      -7.955   2.339  -1.850  1.00  0.00    -0.390 OA
ATOM     26  H9  UNL     1      -7.744   2.612  -2.735  1.00  0.00     0.210 HD
ENDBRANCH  21  25
BRANCH  22  27
HETATM   27  O10 UNL     1      -6.007  -0.649  -1.938  1.00  0.00    -0.388 OA
ATOM     28  H10 UNL     1      -6.546  -1.054  -2.607  1.00  0.00     0.210 HD
ENDBRANCH  22  27
ENDBRANCH  16  17
ENDBRANCH  14  16
BRANCH  15  29
HETATM   29  O11 UNL     1      -2.800  -1.284  -0.550  1.00  0.00    -0.388 OA
ATOM     30  H11 UNL     1      -3.648  -1.416  -0.958  1.00  0.00     0.210 HD
ENDBRANCH  15  29
ENDBRANCH   9  10
ENDBRANCH   7   9
BRANCH   2  31
HETATM   31  C8  UNL     1       3.581  -3.745  -0.680  1.00  0.00    -0.022 C 
HETATM   32  C9  UNL     1       3.395  -4.235   0.512  1.00  0.00    -0.015 C 
BRANCH  32  33
HETATM   33  C10 UNL     1       3.508  -5.722   0.723  1.00  0.00     0.141 C 
HETATM   34 CL1  UNL     1       1.977  -6.391   1.335  1.00  0.00    -0.126 Cl
ENDBRANCH  32  33
ENDBRANCH   2  31
BRANCH   8  35
HETATM   35  O12 UNL     1       1.990   0.183   1.087  1.00  0.00    -0.390 OA
ATOM     36  H12 UNL     1       1.097   0.347   1.366  1.00  0.00     0.210 HD
ENDBRANCH   8  35
BRANCH   1  37
HETATM   37  O3  UNL     1       3.931  -0.065  -0.342  1.00  0.00    -0.311 OA
BRANCH  37  38
HETATM   38  C5  UNL     1       4.937   0.556   0.378  1.00  0.00     0.283 C 
HETATM   39  O2  UNL     1       5.343  -0.115   1.355  1.00  0.00    -0.263 OA
BRANCH  38  40
HETATM   40  C4  UNL     1       5.456   1.894  -0.011  1.00  0.00     0.279 C 
BRANCH  40  41
HETATM   41  O1  UNL     1       6.470   2.351   0.774  1.00  0.00    -0.377 OA
BRANCH  41  42
HETATM   42  C2  UNL     1       6.211   2.519   2.104  1.00  0.00     0.114 C 
HETATM   43  C1  UNL     1       7.197   1.742   2.926  1.00  0.00     0.039 C 
HETATM   44  C3  UNL     1       6.387   4.016   2.457  1.00  0.00     0.039 C 
ENDBRANCH  41  42
ENDBRANCH  40  41
ENDBRANCH  38  40
ENDBRANCH  37  38
ENDBRANCH   1  37
TORSDOF 16
