REMARK  16 active torsions:
REMARK  status: ('A' for Active; 'I' for Inactive)
REMARK    1  A    between atoms: O1_2  and  C2_3 
REMARK    2  A    between atoms: C2_3  and  O2_4 
REMARK    3  A    between atoms: C2_3  and  C3_6 
REMARK    4  A    between atoms: C4_7  and  C5_8 
REMARK    5  A    between atoms: C5_8  and  O4_10 
REMARK    6  A    between atoms: C7_12  and  O5_13 
REMARK    7  A    between atoms: O5_13  and  C8_14 
REMARK    8  A    between atoms: C8_14  and  C9_15 
REMARK    9  A    between atoms: C9_15  and  C10_16 
REMARK   10  A    between atoms: C16_23  and  O6_24 
REMARK   11  A    between atoms: O6_24  and  C17_25 
REMARK   12  A    between atoms: C19_29  and  O7_30 
REMARK   13  A    between atoms: C21_33  and  O8_34 
REMARK   14  A    between atoms: C22_36  and  C23_37 
REMARK   15  A    between atoms: C24_40  and  O11_41 
REMARK   16  A    between atoms: C24_40  and  N2_43 
ROOT
HETATM    1  C3  UNL     1      -1.996  -1.447   0.189  1.00  0.00     0.054 C 
HETATM    2  C4  UNL     1      -1.059  -0.853  -0.543  1.00  0.00     0.075 C 
HETATM    3  C7  UNL     1      -0.111   0.162   0.132  1.00  0.00     0.184 C 
HETATM    4  C16 UNL     1      -1.045   1.090   0.751  1.00  0.00     0.218 C 
HETATM    5  C21 UNL     1      -1.119   0.082   1.875  1.00  0.00     0.182 C 
HETATM    6  C22 UNL     1      -2.160  -0.907   1.586  1.00  0.00     0.076 C 
HETATM    7  C24 UNL     1       0.273  -0.457   1.443  1.00  0.00     0.273 C 
ENDROOT
BRANCH   3   8
HETATM    8  O5  UNL     1       0.896   0.445  -0.706  1.00  0.00    -0.366 OA
BRANCH   8   9
HETATM    9  C8  UNL     1       1.725   1.462  -0.527  1.00  0.00     0.174 C 
BRANCH   9  10
HETATM   10  C9  UNL     1       2.901   1.411  -1.484  1.00  0.00     0.065 C 
BRANCH  10  11
HETATM   11  C10 UNL     1       3.799   0.270  -1.267  1.00  0.00    -0.056 A 
HETATM   12  C11 UNL     1       3.689  -0.912  -1.919  1.00  0.00     0.010 A 
HETATM   13  C12 UNL     1       4.607  -1.929  -1.611  1.00  0.00     0.043 A 
HETATM   14  C13 UNL     1       5.590  -1.726  -0.673  1.00  0.00     0.116 A 
HETATM   15  F1  UNL     1       6.486  -2.691  -0.360  1.00  0.00    -0.206 F 
HETATM   16  C14 UNL     1       5.686  -0.503  -0.015  1.00  0.00     0.043 A 
HETATM   17  C15 UNL     1       4.802   0.479  -0.310  1.00  0.00     0.010 A 
ENDBRANCH  10  11
ENDBRANCH   9  10
ENDBRANCH   8   9
ENDBRANCH   3   8
BRANCH   2  18
HETATM   18  C5  UNL     1      -0.836  -1.108  -1.964  1.00  0.00     0.293 C 
HETATM   19  O3  UNL     1      -1.427  -1.909  -2.663  1.00  0.00    -0.259 OA
BRANCH  18  20
HETATM   20  O4  UNL     1       0.153  -0.376  -2.691  1.00  0.00    -0.323 OA
HETATM   21  C6  UNL     1       0.308  -0.652  -4.093  1.00  0.00     0.213 C 
ENDBRANCH  18  20
ENDBRANCH   2  18
BRANCH   4  22
HETATM   22  O6  UNL     1      -0.646   2.386   1.095  1.00  0.00    -0.337 OA
BRANCH  22  23
HETATM   23  C17 UNL     1      -1.326   3.554   0.824  1.00  0.00     0.089 A 
HETATM   24  C18 UNL     1      -2.517   3.762   0.178  1.00  0.00     0.127 A 
HETATM   25  N1  UNL     1      -2.765   5.073   0.161  1.00  0.00    -0.344 N 
HETATM   26  C19 UNL     1      -1.773   5.730   0.777  1.00  0.00     0.142 A 
ATOM     27  H1  UNL     1      -3.586   5.509  -0.258  1.00  0.00     0.167 HD
HETATM   28  C20 UNL     1      -0.858   4.796   1.202  1.00  0.00     0.094 A 
BRANCH  26  29
HETATM   29  O7  UNL     1      -1.676   7.119   0.961  1.00  0.00    -0.346 OA
ATOM     30  H7  UNL     1      -0.973   7.585   1.398  1.00  0.00     0.219 HD
ENDBRANCH  26  29
ENDBRANCH  22  23
ENDBRANCH   4  22
BRANCH   7  31
HETATM   31  O11 UNL     1       0.376  -1.798   1.430  1.00  0.00    -0.355 OA
HETATM   32  C25 UNL     1       1.274  -2.468   0.718  1.00  0.00     0.205 C 
ENDBRANCH   7  31
BRANCH   7  33
HETATM   33  N2  UNL     1       1.275   0.108   2.303  1.00  0.00    -0.110 N 
HETATM   34  O12 UNL     1       2.364  -0.453   2.519  1.00  0.00    -0.534 OA
HETATM   35  O13 UNL     1       1.185   1.293   2.997  1.00  0.00    -0.534 OA
ENDBRANCH   7  33
BRANCH   1  36
HETATM   36  C2  UNL     1      -2.935  -2.442  -0.268  1.00  0.00     0.190 C 
BRANCH  36  37
HETATM   37  O1  UNL     1      -3.133  -3.015  -1.492  1.00  0.00    -0.335 OA
HETATM   38  C1  UNL     1      -4.145  -4.011  -1.746  1.00  0.00     0.212 C 
ENDBRANCH  36  37
BRANCH  36  39
HETATM   39  O2  UNL     1      -3.796  -2.943   0.589  1.00  0.00    -0.340 OA
ATOM     40  H2  UNL     1      -3.658  -2.544   1.440  1.00  0.00     0.220 HD
ENDBRANCH  36  39
ENDBRANCH   1  36
BRANCH   5  41
HETATM   41  O8  UNL     1      -1.068   0.609   3.150  1.00  0.00    -0.377 OA
ATOM     42  H8  UNL     1      -1.115  -0.025   3.856  1.00  0.00     0.211 HD
ENDBRANCH   5  41
BRANCH   6  43
HETATM   43  C23 UNL     1      -2.540  -1.813   2.661  1.00  0.00     0.209 C 
HETATM   44  O9  UNL     1      -1.788  -2.921   2.921  1.00  0.00    -0.644 OA
HETATM   45  O10 UNL     1      -3.893  -1.898   2.883  1.00  0.00    -0.644 OA
ENDBRANCH   6  43
TORSDOF 16
