REMARK  18 active torsions:
REMARK  status: ('A' for Active; 'I' for Inactive)
REMARK    1  A    between atoms: C2_2  and  C3_3 
REMARK    2  A    between atoms: C3_3  and  C5_5 
REMARK    3  A    between atoms: C5_5  and  O1_6 
REMARK    4  A    between atoms: C5_5  and  C26_46 
REMARK    5  A    between atoms: O1_6  and  C6_7 
REMARK    6  A    between atoms: C7_8  and  O2_9 
REMARK    7  A    between atoms: C8_11  and  O3_12 
REMARK    8  A    between atoms: O3_12  and  C9_13 
REMARK    9  A    between atoms: C11_16  and  O5_17 
REMARK   10  A    between atoms: C12_19  and  O6_20 
REMARK   11  A    between atoms: C13_22  and  O7_23 
REMARK   12  A    between atoms: C14_25  and  O8_26 
REMARK   13  A    between atoms: C15_28  and  O9_29 
REMARK   14  A    between atoms: C16_31  and  O10_32 
REMARK   15  A    between atoms: O10_32  and  N1_33 
REMARK   16  A    between atoms: C17_35  and  C18_36 
REMARK   17  A    between atoms: C21_39  and  C22_40 
REMARK   18  A    between atoms: C22_40  and  O12_42 
ROOT
HETATM    1  C6  UNL     1      -0.048  -0.568   0.250  1.00  0.00     0.187 C 
HETATM    2  C7  UNL     1      -0.726   0.550   1.008  1.00  0.00     0.181 C 
HETATM    3  C8  UNL     1      -1.673   1.363   0.185  1.00  0.00     0.187 C 
HETATM    4  C14 UNL     1      -1.199   1.681  -1.199  1.00  0.00     0.181 C 
HETATM    5  C15 UNL     1      -0.447   0.528  -1.866  1.00  0.00     0.183 C 
HETATM    6  C16 UNL     1       0.632   0.136  -0.919  1.00  0.00     0.215 C 
ENDROOT
BRANCH   6   7
HETATM    7  O10 UNL     1       1.743  -0.484  -1.439  1.00  0.00    -0.270 OA
BRANCH   7   8
HETATM    8  N1  UNL     1       3.025  -0.064  -1.452  1.00  0.00    -0.277 N 
HETATM    9  C17 UNL     1       3.274   1.197  -1.520  1.00  0.00     0.125 C 
ATOM     10  H1  UNL     1       3.789  -0.739  -1.408  1.00  0.00     0.193 HD
BRANCH   9  11
HETATM   11  C18 UNL     1       4.667   1.639  -1.534  1.00  0.00    -0.019 A 
HETATM   12  C19 UNL     1       5.700   0.714  -1.483  1.00  0.00     0.014 A 
HETATM   13  C20 UNL     1       7.006   1.156  -1.497  1.00  0.00     0.018 A 
HETATM   14  C21 UNL     1       7.300   2.503  -1.562  1.00  0.00     0.039 A 
HETATM   15  C24 UNL     1       6.292   3.433  -1.613  1.00  0.00     0.018 A 
HETATM   16  C25 UNL     1       5.003   2.968  -1.597  1.00  0.00     0.014 A 
BRANCH  14  17
HETATM   17  C22 UNL     1       8.684   2.941  -1.578  1.00  0.00     0.292 C 
HETATM   18  O11 UNL     1       8.937   4.159  -1.635  1.00  0.00    -0.259 OA
BRANCH  17  19
HETATM   19  O12 UNL     1       9.733   2.039  -1.533  1.00  0.00    -0.323 OA
HETATM   20  C23 UNL     1      11.091   2.400  -1.546  1.00  0.00     0.213 C 
ENDBRANCH  17  19
ENDBRANCH  14  17
ENDBRANCH   9  11
ENDBRANCH   7   8
ENDBRANCH   6   7
BRANCH   1  21
HETATM   21  O1  UNL     1      -0.954  -1.506  -0.063  1.00  0.00    -0.374 OA
BRANCH  21  22
HETATM   22  C5  UNL     1      -0.733  -2.830   0.342  1.00  0.00     0.129 C 
BRANCH  22  23
HETATM   23  C3  UNL     1      -1.708  -3.340   1.294  1.00  0.00     0.011 C 
HETATM   24  C4  UNL     1      -3.147  -2.911   1.173  1.00  0.00     0.012 C 
BRANCH  23  25
HETATM   25  C2  UNL     1      -1.573  -4.740   1.828  1.00  0.00     0.002 C 
HETATM   26  C1  UNL     1      -2.247  -5.828   1.079  1.00  0.00     0.005 C 
ENDBRANCH  23  25
ENDBRANCH  22  23
BRANCH  22  27
HETATM   27  C26 UNL     1      -0.450  -3.543  -0.939  1.00  0.00     0.007 C 
HETATM   28  C27 UNL     1      -1.663  -3.688  -1.850  1.00  0.00     0.012 C 
HETATM   29  C28 UNL     1       0.414  -4.745  -0.891  1.00  0.00     0.012 C 
ENDBRANCH  22  27
ENDBRANCH  21  22
ENDBRANCH   1  21
BRANCH   5  30
HETATM   30  O9  UNL     1       0.145   1.054  -3.013  1.00  0.00    -0.390 OA
ATOM     31  H9  UNL     1       0.612   0.338  -3.427  1.00  0.00     0.210 HD
ENDBRANCH   5  30
BRANCH   2  32
HETATM   32  O2  UNL     1      -1.328   0.081   2.154  1.00  0.00    -0.390 OA
ATOM     33  H2  UNL     1      -1.754   0.784   2.630  1.00  0.00     0.210 HD
ENDBRANCH   2  32
BRANCH   4  34
HETATM   34  O8  UNL     1      -0.280   2.751  -1.096  1.00  0.00    -0.390 OA
ATOM     35  H8  UNL     1       0.021   2.953  -1.974  1.00  0.00     0.210 HD
ENDBRANCH   4  34
BRANCH   3  36
HETATM   36  O3  UNL     1      -2.977   0.885   0.155  1.00  0.00    -0.348 OA
BRANCH  36  37
HETATM   37  C9  UNL     1      -3.870   1.754   0.751  1.00  0.00     0.291 C 
HETATM   38  O4  UNL     1      -4.781   2.223  -0.216  1.00  0.00    -0.356 OA
HETATM   39  C10 UNL     1      -5.372   3.359   0.336  1.00  0.00     0.205 C 
HETATM   40  C11 UNL     1      -6.083   3.044   1.638  1.00  0.00     0.173 C 
HETATM   41  C12 UNL     1      -6.063   1.529   1.805  1.00  0.00     0.182 C 
HETATM   42  C13 UNL     1      -4.600   1.134   1.922  1.00  0.00     0.204 C 
BRANCH  40  43
HETATM   43  O5  UNL     1      -5.499   3.690   2.720  1.00  0.00    -0.391 OA
ATOM     44  H5  UNL     1      -5.944   3.493   3.536  1.00  0.00     0.210 HD
ENDBRANCH  40  43
BRANCH  41  45
HETATM   45  O6  UNL     1      -6.712   1.142   2.972  1.00  0.00    -0.390 OA
ATOM     46  H6  UNL     1      -6.700   0.198   3.076  1.00  0.00     0.210 HD
ENDBRANCH  41  45
BRANCH  42  47
HETATM   47  O7  UNL     1      -4.162   1.687   3.146  1.00  0.00    -0.388 OA
ATOM     48  H7  UNL     1      -4.620   1.298   3.881  1.00  0.00     0.210 HD
ENDBRANCH  42  47
ENDBRANCH  36  37
ENDBRANCH   3  36
TORSDOF 18
