REMARK  16 active torsions:
REMARK  status: ('A' for Active; 'I' for Inactive)
REMARK    1  A    between atoms: O1_2  and  C2_3 
REMARK    2  A    between atoms: C4_6  and  C5_7 
REMARK    3  A    between atoms: C7_11  and  O5_12 
REMARK    4  A    between atoms: O5_12  and  C8_13 
REMARK    5  A    between atoms: C9_15  and  S1_16 
REMARK    6  A    between atoms: S1_16  and  C10_17 
REMARK    7  A    between atoms: C10_17  and  C11_18 
REMARK    8  A    between atoms: C12_19  and  C14_21 
REMARK    9  A    between atoms: C14_21  and  C16_23 
REMARK   10  A    between atoms: C16_23  and  C17_24 
REMARK   11  A    between atoms: C17_24  and  C19_26 
REMARK   12  A    between atoms: C20_29  and  O9_30 
REMARK   13  A    between atoms: C21_32  and  O10_33 
REMARK   14  A    between atoms: C22_35  and  O11_36 
REMARK   15  A    between atoms: C24_40  and  O13_41 
REMARK   16  A    between atoms: C25_43  and  O14_44 
ROOT
HETATM    1  C8  UNL     1      -0.558   0.326   0.118  1.00  0.00     0.295 C 
HETATM    2  O6  UNL     1       0.295  -0.292  -0.770  1.00  0.00    -0.340 OA
HETATM    3  C9  UNL     1       1.405   0.417  -1.099  1.00  0.00     0.217 C 
HETATM    4  C20 UNL     1       1.316   1.883  -1.311  1.00  0.00     0.188 C 
HETATM    5  C21 UNL     1       0.265   2.544  -0.491  1.00  0.00     0.183 C 
HETATM    6  C22 UNL     1      -0.956   1.688  -0.404  1.00  0.00     0.204 C 
ENDROOT
BRANCH   1   7
HETATM    7  O5  UNL     1      -1.740  -0.424   0.302  1.00  0.00    -0.326 OA
BRANCH   7   8
HETATM    8  C7  UNL     1      -1.803  -0.809   1.623  1.00  0.00     0.300 C 
HETATM    9  O4  UNL     1      -2.098  -2.182   1.683  1.00  0.00    -0.326 OA
HETATM   10  C6  UNL     1      -3.368  -1.951   2.193  1.00  0.00     0.300 C 
HETATM   11  O3  UNL     1      -4.425  -1.961   1.286  1.00  0.00    -0.325 OA
HETATM   12  C23 UNL     1      -3.079  -0.461   2.352  1.00  0.00     0.235 C 
HETATM   13  C5  UNL     1      -5.081  -0.775   1.613  1.00  0.00     0.299 C 
HETATM   14  O12 UNL     1      -4.070   0.160   1.634  1.00  0.00    -0.342 OA
BRANCH  13  15
HETATM   15  C4  UNL     1      -6.176  -0.439   0.639  1.00  0.00     0.027 C 
HETATM   16  C3  UNL     1      -6.125   0.628  -0.145  1.00  0.00     0.148 C 
HETATM   17  O2  UNL     1      -7.139   0.918  -1.036  1.00  0.00    -0.329 OA
HETATM   18  C2  UNL     1      -8.486   0.678  -0.600  1.00  0.00     0.295 C 
HETATM   19  C25 UNL     1      -8.646  -0.533   0.225  1.00  0.00     0.206 C 
HETATM   20  C24 UNL     1      -7.385  -1.307   0.523  1.00  0.00     0.187 C 
BRANCH  18  21
HETATM   21  O1  UNL     1      -9.295   0.740  -1.736  1.00  0.00    -0.363 OA
HETATM   22  C1  UNL     1     -10.053   1.890  -1.788  1.00  0.00     0.204 C 
ENDBRANCH  18  21
BRANCH  19  23
HETATM   23  O14 UNL     1      -9.199  -0.194   1.487  1.00  0.00    -0.388 OA
ATOM     24  H14 UNL     1      -9.302  -0.974   2.019  1.00  0.00     0.210 HD
ENDBRANCH  19  23
BRANCH  20  25
HETATM   25  O13 UNL     1      -7.144  -2.241  -0.466  1.00  0.00    -0.388 OA
ATOM     26  H13 UNL     1      -7.913  -2.793  -0.540  1.00  0.00     0.210 HD
ENDBRANCH  20  25
ENDBRANCH  13  15
ENDBRANCH   7   8
ENDBRANCH   1   7
BRANCH   6  27
HETATM   27  O11 UNL     1      -1.445   1.516  -1.715  1.00  0.00    -0.388 OA
ATOM     28  H11 UNL     1      -1.695   2.372  -2.043  1.00  0.00     0.210 HD
ENDBRANCH   6  27
BRANCH   3  29
HETATM   29  S1  UNL     1       2.281  -0.312  -2.489  1.00  0.00    -0.131 SA
BRANCH  29  30
HETATM   30  C10 UNL     1       3.963  -0.774  -2.201  1.00  0.00     0.104 C 
BRANCH  30  31
HETATM   31  C11 UNL     1       4.251  -1.848  -1.243  1.00  0.00    -0.014 C 
HETATM   32  C12 UNL     1       5.046  -1.773  -0.205  1.00  0.00    -0.083 C 
HETATM   33  C13 UNL     1       5.181  -3.037   0.640  1.00  0.00     0.043 C 
BRANCH  32  34
HETATM   34  C14 UNL     1       5.830  -0.591   0.223  1.00  0.00     0.010 C 
HETATM   35  C15 UNL     1       5.437  -0.306   1.673  1.00  0.00     0.015 C 
BRANCH  34  36
HETATM   36  C16 UNL     1       7.294  -0.918   0.129  1.00  0.00     0.023 C 
BRANCH  36  37
HETATM   37  C17 UNL     1       8.232   0.162   0.558  1.00  0.00     0.083 C 
HETATM   38  C18 UNL     1       9.644  -0.459   0.371  1.00  0.00     0.021 C 
BRANCH  37  39
HETATM   39  C19 UNL     1       8.245   1.404  -0.237  1.00  0.00     0.176 C 
HETATM   40  O7  UNL     1       9.394   1.917  -0.496  1.00  0.00    -0.648 OA
HETATM   41  O8  UNL     1       7.135   2.049  -0.717  1.00  0.00    -0.648 OA
ENDBRANCH  37  39
ENDBRANCH  36  37
ENDBRANCH  34  36
ENDBRANCH  32  34
ENDBRANCH  30  31
ENDBRANCH  29  30
ENDBRANCH   3  29
BRANCH   5  42
HETATM   42  O10 UNL     1      -0.040   3.809  -1.015  1.00  0.00    -0.390 OA
ATOM     43  H10 UNL     1      -0.711   4.231  -0.491  1.00  0.00     0.210 HD
ENDBRANCH   5  42
BRANCH   4  44
HETATM   44  O9  UNL     1       1.261   2.224  -2.669  1.00  0.00    -0.389 OA
ATOM     45  H9  UNL     1       1.204   3.163  -2.805  1.00  0.00     0.210 HD
ENDBRANCH   4  44
TORSDOF 16
