REMARK  16 active torsions:
REMARK  status: ('A' for Active; 'I' for Inactive)
REMARK    1  A    between atoms: O1_2  and  C2_3 
REMARK    2  A    between atoms: C5_7  and  O3_8 
REMARK    3  A    between atoms: O3_8  and  C6_9 
REMARK    4  A    between atoms: C7_11  and  O5_12 
REMARK    5  A    between atoms: O5_12  and  C8_13 
REMARK    6  A    between atoms: C11_16  and  C12_17 
REMARK    7  A    between atoms: C18_24  and  C19_25 
REMARK    8  A    between atoms: C19_25  and  O7_26 
REMARK    9  A    between atoms: C20_28  and  O8_29 
REMARK   10  A    between atoms: C21_31  and  O9_32 
REMARK   11  A    between atoms: O9_32  and  C22_33 
REMARK   12  A    between atoms: C23_35  and  C24_36 
REMARK   13  A    between atoms: C24_36  and  O11_37 
REMARK   14  A    between atoms: C25_39  and  O12_40 
REMARK   15  A    between atoms: C26_42  and  O13_43 
REMARK   16  A    between atoms: C27_45  and  O14_46 
ROOT
HETATM    1  C2  UNL     1      -2.959   1.021   1.156  1.00  0.00     0.183 C 
HETATM    2  C3  UNL     1      -2.284   0.074   2.092  1.00  0.00     0.152 C 
HETATM    3  C4  UNL     1      -3.050  -0.064   3.404  1.00  0.00     0.042 C 
HETATM    4  O2  UNL     1      -2.187  -1.168   1.440  1.00  0.00    -0.351 OA
HETATM    5  C5  UNL     1      -1.960  -0.778   0.093  1.00  0.00     0.295 C 
HETATM    6  C21 UNL     1      -3.220   0.099  -0.052  1.00  0.00     0.211 C 
ENDROOT
BRANCH   5   7
HETATM    7  O3  UNL     1      -0.839   0.024   0.153  1.00  0.00    -0.326 OA
BRANCH   7   8
HETATM    8  C6  UNL     1       0.188  -0.333  -0.718  1.00  0.00     0.299 C 
HETATM    9  O4  UNL     1       1.301  -0.753  -0.065  1.00  0.00    -0.305 OA
HETATM   10  C7  UNL     1       2.351  -0.012   0.272  1.00  0.00     0.421 C 
HETATM   11  O6  UNL     1       2.615   1.099  -0.637  1.00  0.00    -0.328 OA
HETATM   12  C18 UNL     1       1.364   1.757  -0.609  1.00  0.00     0.184 C 
HETATM   13  C20 UNL     1       0.521   0.913  -1.545  1.00  0.00     0.204 C 
BRANCH  10  14
HETATM   14  O5  UNL     1       3.486  -0.748   0.472  1.00  0.00    -0.297 OA
BRANCH  14  15
HETATM   15  C8  UNL     1       4.806  -0.645   0.414  1.00  0.00     0.074 A 
HETATM   16  C9  UNL     1       5.635  -1.651   0.932  1.00  0.00     0.037 A 
HETATM   17  C10 UNL     1       7.005  -1.600   0.871  1.00  0.00     0.011 A 
HETATM   18  C11 UNL     1       7.644  -0.536   0.287  1.00  0.00    -0.050 A 
HETATM   19  C16 UNL     1       6.858   0.465  -0.222  1.00  0.00     0.011 A 
HETATM   20  C17 UNL     1       5.473   0.420  -0.168  1.00  0.00     0.037 A 
BRANCH  18  21
HETATM   21  C12 UNL     1       9.131  -0.444   0.183  1.00  0.00    -0.024 C 
HETATM   22  C13 UNL     1       9.529   0.691  -0.715  1.00  0.00     0.019 C 
HETATM   23  C14 UNL     1       9.692  -0.225   1.576  1.00  0.00     0.019 C 
HETATM   24  C15 UNL     1       9.686  -1.729  -0.402  1.00  0.00     0.019 C 
ENDBRANCH  18  21
ENDBRANCH  14  15
ENDBRANCH  10  14
BRANCH  12  25
HETATM   25  C19 UNL     1       1.412   3.203  -0.837  1.00  0.00     0.199 C 
BRANCH  25  26
HETATM   26  O7  UNL     1       1.909   3.658  -2.031  1.00  0.00    -0.398 OA
ATOM     27  H7  UNL     1       1.940   4.596  -2.179  1.00  0.00     0.209 HD
ENDBRANCH  25  26
ENDBRANCH  12  25
BRANCH  13  28
HETATM   28  O8  UNL     1      -0.558   1.528  -2.094  1.00  0.00    -0.388 OA
ATOM     29  H8  UNL     1      -0.352   2.301  -2.607  1.00  0.00     0.210 HD
ENDBRANCH  13  28
ENDBRANCH   7   8
ENDBRANCH   5   7
BRANCH   6  30
HETATM   30  O9  UNL     1      -4.314  -0.677   0.200  1.00  0.00    -0.346 OA
BRANCH  30  31
HETATM   31  C22 UNL     1      -5.247  -0.829  -0.795  1.00  0.00     0.292 C 
HETATM   32  O10 UNL     1      -6.358  -0.014  -0.359  1.00  0.00    -0.348 OA
HETATM   33  C23 UNL     1      -7.504  -0.478  -0.996  1.00  0.00     0.179 C 
HETATM   34  C25 UNL     1      -8.014  -1.747  -0.339  1.00  0.00     0.180 C 
HETATM   35  C26 UNL     1      -6.780  -2.422   0.237  1.00  0.00     0.183 C 
HETATM   36  C27 UNL     1      -5.693  -2.258  -0.837  1.00  0.00     0.204 C 
BRANCH  33  37
HETATM   37  C24 UNL     1      -8.570   0.573  -0.880  1.00  0.00     0.198 C 
BRANCH  37  38
HETATM   38  O11 UNL     1      -8.234   1.787  -1.441  1.00  0.00    -0.398 OA
ATOM     39  H11 UNL     1      -8.908   2.452  -1.368  1.00  0.00     0.209 HD
ENDBRANCH  37  38
ENDBRANCH  33  37
BRANCH  34  40
HETATM   40  O12 UNL     1      -8.544  -2.601  -1.308  1.00  0.00    -0.390 OA
ATOM     41  H12 UNL     1      -8.863  -3.396  -0.897  1.00  0.00     0.210 HD
ENDBRANCH  34  40
BRANCH  35  42
HETATM   42  O13 UNL     1      -7.016  -3.734   0.558  1.00  0.00    -0.390 OA
ATOM     43  H13 UNL     1      -6.245  -4.156   0.918  1.00  0.00     0.210 HD
ENDBRANCH  35  42
BRANCH  36  44
HETATM   44  O14 UNL     1      -4.687  -3.165  -0.497  1.00  0.00    -0.388 OA
ATOM     45  H14 UNL     1      -4.970  -4.072  -0.524  1.00  0.00     0.210 HD
ENDBRANCH  36  44
ENDBRANCH  30  31
ENDBRANCH   6  30
BRANCH   1  46
HETATM   46  O1  UNL     1      -2.208   2.060   0.717  1.00  0.00    -0.385 OA
HETATM   47  C1  UNL     1      -2.901   3.263   0.895  1.00  0.00     0.202 C 
ENDBRANCH   1  46
TORSDOF 16
