REMARK  19 active torsions:
REMARK  status: ('A' for Active; 'I' for Inactive)
REMARK    1  A    between atoms: C2_2  and  O2_4 
REMARK    2  A    between atoms: O2_4  and  C3_5 
REMARK    3  A    between atoms: C4_6  and  O3_7 
REMARK    4  A    between atoms: C5_9  and  O4_10 
REMARK    5  A    between atoms: O4_10  and  C6_11 
REMARK    6  A    between atoms: C6_11  and  C7_13 
REMARK    7  A    between atoms: C8_14  and  C9_15 
REMARK    8  A    between atoms: C9_15  and  O6_18 
REMARK    9  A    between atoms: C12_20  and  O7_21 
REMARK   10  A    between atoms: C13_23  and  O8_24 
REMARK   11  A    between atoms: C14_26  and  C15_27 
REMARK   12  A    between atoms: C15_27  and  O9_28 
REMARK   13  A    between atoms: C15_27  and  C23_37 
REMARK   14  A    between atoms: O9_28  and  C16_29 
REMARK   15  A    between atoms: C16_29  and  C17_31 
REMARK   16  A    between atoms: C23_37  and  O12_39 
REMARK   17  A    between atoms: O12_39  and  C24_40 
REMARK       I    between atoms: C24_40  and  N1_42 
REMARK   18  A    between atoms: N1_42  and  N2_44 
REMARK   19  A    between atoms: N2_44  and  C25_46 
ROOT
HETATM    1  C3  UNL     1      -0.559  -0.536   1.094  1.00  0.00     0.172 C 
HETATM    2  C4  UNL     1       0.900  -0.060   1.385  1.00  0.00     0.180 C 
HETATM    3  C5  UNL     1       1.558  -0.095   0.033  1.00  0.00     0.194 C 
HETATM    4  C12 UNL     1       0.914   0.749  -1.012  1.00  0.00     0.179 C 
HETATM    5  C13 UNL     1      -0.568   0.834  -0.986  1.00  0.00     0.159 C 
HETATM    6  C14 UNL     1      -1.174   0.608   0.376  1.00  0.00     0.088 C 
ENDROOT
BRANCH   6   7
HETATM    7  C15 UNL     1      -2.660   0.580   0.402  1.00  0.00     0.241 C 
BRANCH   7   8
HETATM    8  O9  UNL     1      -3.281  -0.515  -0.172  1.00  0.00    -0.301 OA
BRANCH   8   9
HETATM    9  C16 UNL     1      -4.141  -1.397   0.429  1.00  0.00     0.294 C 
HETATM   10  O10 UNL     1      -4.377  -1.159   1.658  1.00  0.00    -0.259 OA
BRANCH   9  11
HETATM   11  C17 UNL     1      -4.764  -2.532  -0.237  1.00  0.00     0.039 A 
HETATM   12  C18 UNL     1      -5.602  -3.355   0.485  1.00  0.00     0.017 A 
HETATM   13  C19 UNL     1      -6.237  -4.450  -0.061  1.00  0.00     0.001 A 
HETATM   14  C20 UNL     1      -6.019  -4.728  -1.396  1.00  0.00     0.000 A 
HETATM   15  C21 UNL     1      -5.194  -3.936  -2.150  1.00  0.00     0.001 A 
HETATM   16  C22 UNL     1      -4.570  -2.835  -1.553  1.00  0.00     0.017 A 
ENDBRANCH   9  11
ENDBRANCH   8   9
ENDBRANCH   7   8
BRANCH   7  17
HETATM   17  C23 UNL     1      -3.253   1.879  -0.046  1.00  0.00     0.298 C 
HETATM   18  O11 UNL     1      -4.173   1.935  -0.873  1.00  0.00    -0.262 OA
BRANCH  17  19
HETATM   19  O12 UNL     1      -2.762   3.045   0.479  1.00  0.00    -0.224 OA
BRANCH  19  20
HETATM   20  C24 UNL     1      -3.274   4.300   0.104  1.00  0.00     0.387 C 
HETATM   21  O13 UNL     1      -4.203   4.265  -0.744  1.00  0.00    -0.236 OA
HETATM   22  N1  UNL     1      -2.796   5.523   0.627  1.00  0.00    -0.243 N 
ATOM     23  H1  UNL     1      -2.042   5.533   1.314  1.00  0.00     0.192 HD
BRANCH  22  24
HETATM   24  N2  UNL     1      -3.370   6.711   0.191  1.00  0.00    -0.273 N 
ATOM     25  H2  UNL     1      -3.106   7.100  -0.714  1.00  0.00     0.189 HD
BRANCH  24  26
HETATM   26  C25 UNL     1      -4.330   7.392   1.006  1.00  0.00     0.368 C 
HETATM   27  O14 UNL     1      -4.662   6.920   2.125  1.00  0.00    -0.282 OA
ENDBRANCH  24  26
ENDBRANCH  22  24
ENDBRANCH  19  20
ENDBRANCH  17  19
ENDBRANCH   7  17
ENDBRANCH   6   7
BRANCH   1  28
HETATM   28  O2  UNL     1      -0.455  -1.654   0.235  1.00  0.00    -0.313 OA
BRANCH  28  29
HETATM   29  C2  UNL     1      -0.732  -2.954   0.543  1.00  0.00     0.255 C 
HETATM   30  C1  UNL     1      -0.574  -4.027  -0.460  1.00  0.00     0.126 C 
HETATM   31  O1  UNL     1      -1.128  -3.191   1.725  1.00  0.00    -0.266 OA
ENDBRANCH  28  29
ENDBRANCH   1  28
BRANCH   5  32
HETATM   32  O8  UNL     1      -1.076  -0.043  -1.940  1.00  0.00    -0.392 OA
ATOM     33  H8  UNL     1      -2.024   0.011  -1.923  1.00  0.00     0.210 HD
ENDBRANCH   5  32
BRANCH   2  34
HETATM   34  O3  UNL     1       0.799   1.217   1.890  1.00  0.00    -0.390 OA
ATOM     35  H3  UNL     1       1.686   1.506   2.067  1.00  0.00     0.210 HD
ENDBRANCH   2  34
BRANCH   4  36
HETATM   36  O7  UNL     1       1.370   0.392  -2.308  1.00  0.00    -0.390 OA
ATOM     37  H7  UNL     1       0.959   0.930  -2.974  1.00  0.00     0.210 HD
ENDBRANCH   4  36
BRANCH   3  38
HETATM   38  O4  UNL     1       2.959   0.068   0.118  1.00  0.00    -0.307 OA
BRANCH  38  39
HETATM   39  C6  UNL     1       3.859  -0.945  -0.180  1.00  0.00     0.283 C 
HETATM   40  O5  UNL     1       3.340  -2.051  -0.542  1.00  0.00    -0.260 OA
BRANCH  39  41
HETATM   41  C7  UNL     1       5.304  -0.828  -0.108  1.00  0.00     0.081 C 
HETATM   42  C8  UNL     1       5.931   0.268   0.251  1.00  0.00     0.016 C 
BRANCH  42  43
HETATM   43  C9  UNL     1       7.387   0.409   0.332  1.00  0.00     0.069 C 
HETATM   44  C10 UNL     1       8.171  -0.369  -0.670  1.00  0.00     0.050 C 
HETATM   45  C11 UNL     1       7.927   0.018   1.713  1.00  0.00     0.050 C 
BRANCH  43  46
HETATM   46  O6  UNL     1       7.717   1.765   0.133  1.00  0.00    -0.387 OA
ATOM     47  H6  UNL     1       8.661   1.856   0.186  1.00  0.00     0.211 HD
ENDBRANCH  43  46
ENDBRANCH  42  43
ENDBRANCH  39  41
ENDBRANCH  38  39
ENDBRANCH   3  38
TORSDOF 19
