REMARK  15 active torsions:
REMARK  status: ('A' for Active; 'I' for Inactive)
REMARK    1  A    between atoms: O1_2  and  C2_3 
REMARK    2  A    between atoms: C5_7  and  O3_8 
REMARK    3  A    between atoms: O3_8  and  C6_9 
REMARK    4  A    between atoms: C7_10  and  C8_11 
REMARK    5  A    between atoms: C8_11  and  O4_12 
REMARK    6  A    between atoms: C9_15  and  O6_16 
REMARK    7  A    between atoms: O6_16  and  C10_17 
REMARK    8  A    between atoms: C11_18  and  O7_19 
REMARK    9  A    between atoms: C13_21  and  N1_22 
REMARK   10  A    between atoms: C15_27  and  N2_28 
REMARK   11  A    between atoms: C16_32  and  O8_33 
REMARK   12  A    between atoms: O8_33  and  C17_34 
REMARK   13  A    between atoms: C22_40  and  S1_41 
REMARK   14  A    between atoms: C23_43  and  O9_44 
REMARK   15  A    between atoms: C24_46  and  O10_47 
ROOT
HETATM    1  C6  UNL     1       2.481  -0.226  -0.755  1.00  0.00     0.183 C 
HETATM    2  C7  UNL     1       1.449   0.811  -0.903  1.00  0.00     0.179 C 
HETATM    3  O5  UNL     1       0.156   0.396  -1.135  1.00  0.00    -0.350 OA
HETATM    4  C9  UNL     1      -0.170  -0.803  -0.555  1.00  0.00     0.278 C 
HETATM    5  C22 UNL     1       0.673  -1.862  -1.220  1.00  0.00     0.146 C 
HETATM    6  C23 UNL     1       2.104  -1.650  -0.821  1.00  0.00     0.169 C 
ENDROOT
BRANCH   4   7
HETATM    7  O6  UNL     1      -1.508  -1.064  -0.937  1.00  0.00    -0.349 OA
BRANCH   7   8
HETATM    8  C10 UNL     1      -2.330  -1.285   0.137  1.00  0.00     0.186 C 
HETATM    9  C11 UNL     1      -2.759  -2.759   0.045  1.00  0.00     0.182 C 
HETATM   10  C13 UNL     1      -4.051  -2.774  -0.766  1.00  0.00     0.216 C 
HETATM   11  C14 UNL     1      -5.140  -2.318   0.176  1.00  0.00     0.071 C 
HETATM   12  C15 UNL     1      -4.757  -0.993   0.739  1.00  0.00     0.217 C 
HETATM   13  C16 UNL     1      -3.527  -0.381   0.092  1.00  0.00     0.186 C 
BRANCH   9  14
HETATM   14  O7  UNL     1      -2.949  -3.321   1.285  1.00  0.00    -0.386 OA
HETATM   15  C12 UNL     1      -2.136  -4.448   1.388  1.00  0.00     0.202 C 
ENDBRANCH   9  14
BRANCH  10  16
HETATM   16  N1  UNL     1      -4.328  -4.075  -1.326  1.00  0.00    -0.072 N 
ATOM     17  H13 UNL     1      -3.541  -4.414  -1.879  1.00  0.00     0.274 HD
ATOM     18  H12 UNL     1      -4.338  -4.794  -0.602  1.00  0.00     0.274 HD
ATOM     19  H11 UNL     1      -5.192  -4.085  -1.868  1.00  0.00     0.274 HD
ENDBRANCH  10  16
BRANCH  12  20
HETATM   20  N2  UNL     1      -4.616  -0.972   2.172  1.00  0.00    -0.072 N 
ATOM     21  H23 UNL     1      -5.467  -1.315   2.618  1.00  0.00     0.274 HD
ATOM     22  H22 UNL     1      -3.958  -1.690   2.475  1.00  0.00     0.274 HD
ATOM     23  H21 UNL     1      -4.354  -0.065   2.557  1.00  0.00     0.274 HD
ENDBRANCH  12  20
BRANCH  13  24
HETATM   24  O8  UNL     1      -3.320   0.830   0.773  1.00  0.00    -0.347 OA
BRANCH  24  25
HETATM   25  C17 UNL     1      -3.561   1.898  -0.062  1.00  0.00     0.358 C 
HETATM   26  C18 UNL     1      -2.405   2.828  -0.206  1.00  0.00     0.066 C 
HETATM   27  C19 UNL     1      -3.079   4.169  -0.473  1.00  0.00     0.035 C 
HETATM   28  C20 UNL     1      -4.569   3.853  -0.528  1.00  0.00     0.275 C 
HETATM   29  N3  UNL     1      -4.640   2.745   0.408  1.00  0.00     0.113 N 
HETATM   30  C21 UNL     1      -4.414   3.266   1.723  1.00  0.00     0.313 C 
ENDBRANCH  24  25
ENDBRANCH  13  24
ENDBRANCH   7   8
ENDBRANCH   4   7
BRANCH   5  31
HETATM   31  S1  UNL     1       0.513  -1.673  -3.016  1.00  0.00    -0.073 SA
HETATM   32  S2  UNL     1      -1.455  -2.104  -3.667  1.00  0.00    -0.013 SA
ENDBRANCH   5  31
BRANCH   2  33
HETATM   33  C8  UNL     1       1.816   1.737  -2.047  1.00  0.00     0.198 C 
BRANCH  33  34
HETATM   34  O4  UNL     1       3.100   2.241  -1.963  1.00  0.00    -0.398 OA
ATOM     35  H4  UNL     1       3.330   2.821  -2.679  1.00  0.00     0.209 HD
ENDBRANCH  33  34
ENDBRANCH   2  33
BRANCH   6  36
HETATM   36  O9  UNL     1       2.224  -2.293   0.444  1.00  0.00    -0.392 OA
ATOM     37  H9  UNL     1       1.981  -3.210   0.401  1.00  0.00     0.210 HD
ENDBRANCH   6  36
BRANCH   1  38
HETATM   38  O3  UNL     1       3.165  -0.064   0.487  1.00  0.00    -0.370 OA
BRANCH  38  39
HETATM   39  C5  UNL     1       4.491   0.218   0.351  1.00  0.00     0.184 C 
HETATM   40  C3  UNL     1       5.390  -0.784   1.054  1.00  0.00     0.152 C 
HETATM   41  O2  UNL     1       6.349  -0.087   1.743  1.00  0.00    -0.351 OA
HETATM   42  C4  UNL     1       6.124  -1.649   0.023  1.00  0.00     0.042 C 
HETATM   43  C2  UNL     1       6.369   1.224   1.276  1.00  0.00     0.290 C 
HETATM   44  C24 UNL     1       4.865   1.481   1.096  1.00  0.00     0.204 C 
BRANCH  43  45
HETATM   45  O1  UNL     1       6.939   2.106   2.154  1.00  0.00    -0.363 OA
HETATM   46  C1  UNL     1       7.929   2.816   1.439  1.00  0.00     0.204 C 
ENDBRANCH  43  45
BRANCH  44  47
HETATM   47  O10 UNL     1       4.242   1.417   2.351  1.00  0.00    -0.388 OA
ATOM     48  H10 UNL     1       3.312   1.576   2.240  1.00  0.00     0.210 HD
ENDBRANCH  44  47
ENDBRANCH  38  39
ENDBRANCH   1  38
TORSDOF 15
