REMARK  16 active torsions:
REMARK  status: ('A' for Active; 'I' for Inactive)
REMARK    1  A    between atoms: O1_2  and  C2_3 
REMARK       I    between atoms: C2_3  and  N1_5 
REMARK    2  A    between atoms: N1_5  and  C4_7 
REMARK    3  A    between atoms: C4_7  and  C5_8 
REMARK    4  A    between atoms: C4_7  and  C6_11 
REMARK    5  A    between atoms: C7_12  and  O5_13 
REMARK    6  A    between atoms: C8_15  and  O6_16 
REMARK    7  A    between atoms: C10_18  and  O7_19 
REMARK    8  A    between atoms: C13_23  and  O8_24 
REMARK    9  A    between atoms: O8_24  and  C14_25 
REMARK   10  A    between atoms: C14_25  and  C15_27 
REMARK   11  A    between atoms: C16_28  and  C17_29 
REMARK   12  A    between atoms: C20_32  and  O10_33 
REMARK   13  A    between atoms: C24_37  and  O11_38 
REMARK   14  A    between atoms: C24_37  and  C25_40 
REMARK   15  A    between atoms: C25_40  and  O12_41 
REMARK   16  A    between atoms: C26_43  and  N2_44 
ROOT
HETATM    1  C6  UNL     1      -3.105  -0.413   0.837  1.00  0.00     0.093 C 
HETATM    2  C7  UNL     1      -3.479  -1.669   0.080  1.00  0.00     0.159 C 
HETATM    3  C8  UNL     1      -2.738  -2.741   0.970  1.00  0.00     0.191 C 
HETATM    4  C10 UNL     1      -1.383  -2.099   0.908  1.00  0.00     0.140 C 
HETATM    5  C11 UNL     1      -0.896  -2.244  -0.489  1.00  0.00     0.015 C 
HETATM    6  C12 UNL     1      -0.386  -1.251  -1.190  1.00  0.00     0.007 C 
HETATM    7  C13 UNL     1      -0.236   0.138  -0.663  1.00  0.00     0.194 C 
HETATM    8  C24 UNL     1      -0.561   0.153   0.784  1.00  0.00     0.145 C 
HETATM    9  C26 UNL     1      -1.732  -0.624   1.226  1.00  0.00     0.204 C 
ENDROOT
BRANCH   7  10
HETATM   10  O8  UNL     1       1.169   0.420  -0.807  1.00  0.00    -0.305 OA
BRANCH  10  11
HETATM   11  C14 UNL     1       1.650   1.391  -1.668  1.00  0.00     0.283 C 
HETATM   12  O9  UNL     1       0.839   2.040  -2.340  1.00  0.00    -0.260 OA
BRANCH  11  13
HETATM   13  C15 UNL     1       3.110   1.616  -1.754  1.00  0.00     0.083 C 
HETATM   14  C16 UNL     1       3.918   0.895  -1.016  1.00  0.00     0.017 C 
BRANCH  14  15
HETATM   15  C17 UNL     1       5.350   1.012  -1.004  1.00  0.00    -0.036 A 
HETATM   16  C18 UNL     1       5.981   1.930  -1.801  1.00  0.00     0.014 A 
HETATM   17  C19 UNL     1       7.369   2.028  -1.775  1.00  0.00     0.037 A 
HETATM   18  C20 UNL     1       8.121   1.218  -0.961  1.00  0.00     0.068 A 
HETATM   19  C22 UNL     1       7.452   0.308  -0.175  1.00  0.00     0.037 A 
HETATM   20  C23 UNL     1       6.097   0.172  -0.163  1.00  0.00     0.014 A 
BRANCH  18  21
HETATM   21  O10 UNL     1       9.502   1.343  -0.961  1.00  0.00    -0.356 OA
HETATM   22  C21 UNL     1      10.246   0.496  -0.114  1.00  0.00     0.210 C 
ENDBRANCH  18  21
ENDBRANCH  14  15
ENDBRANCH  11  13
ENDBRANCH  10  11
ENDBRANCH   7  10
BRANCH   8  23
HETATM   23  O11 UNL     1       0.532  -0.671   1.285  1.00  0.00    -0.382 OA
ATOM     24  H11 UNL     1       0.324  -0.661   2.212  1.00  0.00     0.210 HD
ENDBRANCH   8  23
BRANCH   8  25
HETATM   25  C25 UNL     1      -0.330   1.442   1.504  1.00  0.00     0.207 C 
BRANCH  25  26
HETATM   26  O12 UNL     1       0.927   2.004   1.228  1.00  0.00    -0.398 OA
ATOM     27  H12 UNL     1       1.074   2.823   1.686  1.00  0.00     0.209 HD
ENDBRANCH  25  26
ENDBRANCH   8  25
BRANCH   9  28
HETATM   28  N2  UNL     1      -1.576  -0.612   2.712  1.00  0.00    -0.063 N 
ATOM     29  H23 UNL     1      -1.952   0.244   3.120  1.00  0.00     0.275 HD
ATOM     30  H22 UNL     1      -2.198  -1.286   3.158  1.00  0.00     0.275 HD
ATOM     31  H21 UNL     1      -0.605  -0.761   2.987  1.00  0.00     0.275 HD
ENDBRANCH   9  28
BRANCH   4  32
HETATM   32  O7  UNL     1      -0.580  -2.671   1.857  1.00  0.00    -0.380 OA
ATOM     33  H7  UNL     1       0.278  -2.265   1.818  1.00  0.00     0.211 HD
ENDBRANCH   4  32
BRANCH   1  34
HETATM   34  C4  UNL     1      -3.725   0.850   0.473  1.00  0.00     0.199 C 
BRANCH  34  35
HETATM   35  N1  UNL     1      -3.626   1.466  -0.799  1.00  0.00    -0.317 N 
HETATM   36  C2  UNL     1      -3.921   1.007  -2.089  1.00  0.00     0.362 C 
HETATM   37  O2  UNL     1      -3.652   1.815  -3.069  1.00  0.00    -0.238 OA
HETATM   38  C3  UNL     1      -3.103   2.869  -0.830  1.00  0.00     0.156 C 
BRANCH  36  39
HETATM   39  O1  UNL     1      -4.462  -0.182  -2.479  1.00  0.00    -0.309 OA
HETATM   40  C1  UNL     1      -4.690  -0.459  -3.844  1.00  0.00     0.215 C 
ENDBRANCH  36  39
ENDBRANCH  34  35
BRANCH  34  41
HETATM   41  C5  UNL     1      -5.222   0.818   0.752  1.00  0.00     0.197 C 
HETATM   42  O3  UNL     1      -6.071   1.268  -0.051  1.00  0.00    -0.646 OA
HETATM   43  O4  UNL     1      -5.679   0.270   1.939  1.00  0.00    -0.646 OA
ENDBRANCH  34  41
ENDBRANCH   1  34
BRANCH   3  44
HETATM   44  O6  UNL     1      -3.304  -2.620   2.215  1.00  0.00    -0.385 OA
HETATM   45  C9  UNL     1      -3.880  -3.816   2.662  1.00  0.00     0.202 C 
ENDBRANCH   3  44
BRANCH   2  46
HETATM   46  O5  UNL     1      -4.795  -2.052   0.226  1.00  0.00    -0.392 OA
ATOM     47  H5  UNL     1      -5.030  -2.840  -0.249  1.00  0.00     0.210 HD
ENDBRANCH   2  46
TORSDOF 16
