REMARK  15 active torsions:
REMARK  status: ('A' for Active; 'I' for Inactive)
REMARK    1  A    between atoms: O1_2  and  C2_3 
REMARK    2  A    between atoms: C3_4  and  C4_5 
REMARK    3  A    between atoms: C4_5  and  O2_6 
REMARK    4  A    between atoms: C7_12  and  O5_13 
REMARK    5  A    between atoms: O5_13  and  C8_14 
REMARK    6  A    between atoms: C11_17  and  O6_18 
REMARK    7  A    between atoms: C12_20  and  N1_21 
REMARK    8  A    between atoms: C12_20  and  O7_32 
REMARK    9  A    between atoms: N1_21  and  C13_23 
REMARK   10  A    between atoms: C15_25  and  C16_26 
REMARK   11  A    between atoms: C16_26  and  N2_27 
REMARK   12  A    between atoms: N2_27  and  N3_28 
REMARK   13  A    between atoms: O7_32  and  C18_33 
REMARK   14  A    between atoms: C21_37  and  C22_38 
REMARK   15  A    between atoms: C24_43  and  O12_44 
ROOT
HETATM    1  C2  UNL     1      -4.428  -0.714   0.668  1.00  0.00     0.183 C 
HETATM    2  C3  UNL     1      -4.297   0.751   0.365  1.00  0.00     0.179 C 
HETATM    3  O3  UNL     1      -2.960   1.164   0.424  1.00  0.00    -0.348 OA
HETATM    4  C5  UNL     1      -2.315   0.506  -0.665  1.00  0.00     0.292 C 
HETATM    5  O4  UNL     1      -1.167   1.238  -0.902  1.00  0.00    -0.350 OA
HETATM    6  C6  UNL     1      -0.158   0.868  -0.035  1.00  0.00     0.168 C 
HETATM    7  C7  UNL     1       0.876   1.940   0.152  1.00  0.00     0.185 C 
HETATM    8  C11 UNL     1       2.073   1.498  -0.644  1.00  0.00     0.205 C 
HETATM    9  C12 UNL     1       2.014  -0.043  -0.640  1.00  0.00     0.177 C 
HETATM   10  C20 UNL     1       0.553  -0.367  -0.462  1.00  0.00     0.115 C 
HETATM   11  C21 UNL     1      -0.114  -1.195  -1.457  1.00  0.00     0.234 C 
HETATM   12  O11 UNL     1      -1.292  -1.709  -0.919  1.00  0.00    -0.362 OA
HETATM   13  C23 UNL     1      -2.105  -0.889  -0.243  1.00  0.00     0.209 C 
HETATM   14  C24 UNL     1      -3.506  -1.537  -0.232  1.00  0.00     0.183 C 
ENDROOT
BRANCH   9  15
HETATM   15  N1  UNL     1       2.857  -0.441   0.420  1.00  0.00    -0.384 N 
ATOM     16  H1  UNL     1       3.652   0.156   0.648  1.00  0.00     0.156 HD
BRANCH  15  17
HETATM   17  C13 UNL     1       2.674  -1.587   1.167  1.00  0.00     0.081 C 
HETATM   18  C14 UNL     1       2.755  -2.945   0.518  1.00  0.00     0.036 C 
HETATM   19  C15 UNL     1       4.211  -3.098   0.895  1.00  0.00     0.044 C 
HETATM   20  C17 UNL     1       3.976  -1.962   1.899  1.00  0.00     0.036 C 
BRANCH  19  21
HETATM   21  C16 UNL     1       4.572  -4.362   1.565  1.00  0.00     0.185 C 
BRANCH  21  22
HETATM   22  N2  UNL     1       4.497  -5.458   0.959  1.00  0.00    -0.350 NA
BRANCH  22  23
HETATM   23  N3  UNL     1       4.773  -6.544   0.404  1.00  0.00    -0.281 N 
ATOM     24  H32 UNL     1       5.775  -6.464   0.578  1.00  0.00     0.191 HD
ATOM     25  H31 UNL     1       4.712  -7.435  -0.089  1.00  0.00     0.191 HD
ENDBRANCH  22  23
ENDBRANCH  21  22
ENDBRANCH  19  21
ENDBRANCH  15  17
ENDBRANCH   9  15
BRANCH   9  26
HETATM   26  O7  UNL     1       2.559  -0.582  -1.827  1.00  0.00    -0.286 OA
BRANCH  26  27
HETATM   27  C18 UNL     1       3.843  -0.381  -2.225  1.00  0.00     0.257 C 
HETATM   28  C19 UNL     1       4.335  -0.983  -3.486  1.00  0.00     0.126 C 
HETATM   29  O8  UNL     1       4.621   0.312  -1.535  1.00  0.00    -0.266 OA
ENDBRANCH  26  27
ENDBRANCH   9  26
BRANCH   8  30
HETATM   30  O6  UNL     1       2.193   2.044  -1.889  1.00  0.00    -0.388 OA
ATOM     31  H6  UNL     1       2.949   1.765  -2.392  1.00  0.00     0.210 HD
ENDBRANCH   8  30
BRANCH   7  32
HETATM   32  O5  UNL     1       0.346   3.149  -0.204  1.00  0.00    -0.376 OA
BRANCH  32  33
HETATM   33  C8  UNL     1       0.310   4.070   0.836  1.00  0.00     0.114 C 
HETATM   34  C9  UNL     1       1.177   5.257   0.479  1.00  0.00     0.039 C 
HETATM   35  C10 UNL     1      -1.051   4.553   1.186  1.00  0.00     0.039 C 
ENDBRANCH  32  33
ENDBRANCH   7  32
BRANCH  11  36
HETATM   36  C22 UNL     1      -0.369  -0.777  -2.807  1.00  0.00     0.203 C 
HETATM   37  O9  UNL     1      -1.525  -0.958  -3.282  1.00  0.00    -0.646 OA
HETATM   38  O10 UNL     1       0.476  -0.178  -3.726  1.00  0.00    -0.646 OA
ENDBRANCH  11  36
BRANCH  14  39
HETATM   39  O12 UNL     1      -3.478  -2.846   0.161  1.00  0.00    -0.390 OA
ATOM     40  H12 UNL     1      -2.905  -3.357  -0.398  1.00  0.00     0.210 HD
ENDBRANCH  14  39
BRANCH   2  41
HETATM   41  C4  UNL     1      -5.089   1.593   1.327  1.00  0.00     0.198 C 
BRANCH  41  42
HETATM   42  O2  UNL     1      -6.434   1.270   1.298  1.00  0.00    -0.398 OA
ATOM     43  H2  UNL     1      -6.934   1.802   1.906  1.00  0.00     0.209 HD
ENDBRANCH  41  42
ENDBRANCH   2  41
BRANCH   1  44
HETATM   44  O1  UNL     1      -4.183  -1.042   1.994  1.00  0.00    -0.385 OA
HETATM   45  C1  UNL     1      -5.188  -1.714   2.633  1.00  0.00     0.202 C 
ENDBRANCH   1  44
TORSDOF 15
