REMARK  13 active torsions:
REMARK  status: ('A' for Active; 'I' for Inactive)
REMARK    1  A    between atoms: O1_2  and  C2_3 
REMARK    2  A    between atoms: C2_3  and  O2_4 
REMARK    3  A    between atoms: O2_4  and  C3_5 
REMARK    4  A    between atoms: C3_5  and  C4_6 
REMARK    5  A    between atoms: C5_10  and  O6_11 
REMARK    6  A    between atoms: C5_10  and  C20_37 
REMARK    7  A    between atoms: O6_11  and  C6_12 
REMARK    8  A    between atoms: C7_13  and  O7_14 
REMARK    9  A    between atoms: C9_17  and  O8_18 
REMARK   10  A    between atoms: C11_20  and  O9_21 
REMARK   11  A    between atoms: C12_23  and  N1_24 
REMARK       I    between atoms: N1_24  and  C13_26 
REMARK   12  A    between atoms: C18_33  and  C19_34 
REMARK   13  A    between atoms: C19_34  and  O11_35 
ROOT
HETATM    1  C6  UNL     1       0.495  -0.470  -0.234  1.00  0.00     0.164 C 
HETATM    2  C7  UNL     1       0.995   1.018  -0.050  1.00  0.00     0.154 C 
HETATM    3  C8  UNL     1       2.344   1.092   0.507  1.00  0.00     0.056 C 
HETATM    4  C9  UNL     1       3.233   2.178  -0.024  1.00  0.00     0.158 C 
HETATM    5  C11 UNL     1       4.547   1.510  -0.381  1.00  0.00     0.170 C 
HETATM    6  C12 UNL     1       4.531   0.374   0.578  1.00  0.00     0.121 C 
HETATM    7  C15 UNL     1       3.150  -0.196   0.469  1.00  0.00     0.038 C 
HETATM    8  C16 UNL     1       2.875  -1.089  -0.645  1.00  0.00     0.108 C 
HETATM    9  C17 UNL     1       2.912  -2.511  -0.278  1.00  0.00     0.065 C 
HETATM   10  N2  UNL     1       2.962  -3.649   0.021  1.00  0.00    -0.197 NA
HETATM   11  C18 UNL     1       1.493  -0.907  -1.289  1.00  0.00     0.059 C 
ENDROOT
BRANCH  11  12
HETATM   12  C19 UNL     1       1.107  -2.105  -2.081  1.00  0.00     0.172 C 
BRANCH  12  13
HETATM   13  O11 UNL     1       2.110  -2.369  -2.987  1.00  0.00    -0.400 OA
ATOM     14  H11 UNL     1       1.863  -3.134  -3.493  1.00  0.00     0.209 HD
ENDBRANCH  12  13
ENDBRANCH  11  12
BRANCH   6  15
HETATM   15  N1  UNL     1       5.613  -0.531   0.505  1.00  0.00    -0.354 N 
HETATM   16  C13 UNL     1       6.564  -0.823   1.496  1.00  0.00     0.214 C 
HETATM   17  C14 UNL     1       7.638  -1.794   1.271  1.00  0.00     0.117 C 
HETATM   18  O10 UNL     1       6.478  -0.232   2.591  1.00  0.00    -0.274 OA
ATOM     19  H1  UNL     1       5.716  -1.034  -0.376  1.00  0.00     0.163 HD
ENDBRANCH   6  15
BRANCH   1  20
HETATM   20  O6  UNL     1      -0.731  -0.461  -0.736  1.00  0.00    -0.324 OA
BRANCH  20  21
HETATM   21  C5  UNL     1      -1.873  -0.913  -0.172  1.00  0.00     0.289 C 
HETATM   22  O5  UNL     1      -2.310  -0.374   0.977  1.00  0.00    -0.282 OA
HETATM   23  C3  UNL     1      -3.420   0.526   0.734  1.00  0.00     0.293 C 
HETATM   24  C23 UNL     1      -3.829   0.170  -0.603  1.00  0.00     0.127 C 
HETATM   25  O12 UNL     1      -2.885  -0.722  -1.130  1.00  0.00    -0.316 OA
HETATM   26  C24 UNL     1      -5.156  -0.506  -0.782  1.00  0.00     0.052 C 
HETATM   27  C25 UNL     1      -3.834   1.324  -1.611  1.00  0.00     0.052 C 
BRANCH  23  28
HETATM   28  O2  UNL     1      -4.214   0.259   1.775  1.00  0.00    -0.319 OA
BRANCH  28  29
HETATM   29  C2  UNL     1      -5.335   0.802   2.168  1.00  0.00     0.341 C 
BRANCH  29  30
HETATM   30  O1  UNL     1      -6.498   0.887   1.480  1.00  0.00    -0.372 OA
HETATM   31  C1  UNL     1      -7.440   1.545   2.275  1.00  0.00     0.204 C 
ENDBRANCH  29  30
ENDBRANCH  28  29
ENDBRANCH  23  28
BRANCH  23  32
HETATM   32  C4  UNL     1      -2.831   1.895   0.865  1.00  0.00     0.242 C 
HETATM   33  O3  UNL     1      -2.955   2.453   1.975  1.00  0.00    -0.644 OA
HETATM   34  O4  UNL     1      -2.180   2.596  -0.107  1.00  0.00    -0.644 OA
ENDBRANCH  23  32
BRANCH  21  35
HETATM   35  C20 UNL     1      -1.807  -2.443  -0.027  1.00  0.00     0.071 C 
HETATM   36  C21 UNL     1      -3.197  -3.035   0.284  1.00  0.00     0.017 C 
HETATM   37  C22 UNL     1      -0.952  -2.894   1.131  1.00  0.00     0.017 C 
ENDBRANCH  21  35
ENDBRANCH  20  21
ENDBRANCH   1  20
BRANCH   2  38
HETATM   38  O7  UNL     1       0.784   1.544  -1.314  1.00  0.00    -0.392 OA
ATOM     39  H7  UNL     1       1.085   2.438  -1.203  1.00  0.00     0.210 HD
ENDBRANCH   2  38
BRANCH   4  40
HETATM   40  O8  UNL     1       2.705   2.904  -1.070  1.00  0.00    -0.388 OA
HETATM   41  C10 UNL     1       2.677   4.271  -0.850  1.00  0.00     0.202 C 
ENDBRANCH   4  40
BRANCH   5  42
HETATM   42  O9  UNL     1       4.626   1.186  -1.706  1.00  0.00    -0.391 OA
ATOM     43  H9  UNL     1       5.449   0.768  -1.930  1.00  0.00     0.210 HD
ENDBRANCH   5  42
TORSDOF 13
