REMARK  18 active torsions:
REMARK  status: ('A' for Active; 'I' for Inactive)
REMARK    1  A    between atoms: O1_2  and  C2_3 
REMARK    2  A    between atoms: C2_3  and  O3_5 
REMARK    3  A    between atoms: O3_5  and  N1_6 
REMARK    4  A    between atoms: C3_7  and  C4_8 
REMARK    5  A    between atoms: C4_8  and  C5_10 
REMARK    6  A    between atoms: C5_10  and  C6_11 
REMARK    7  A    between atoms: C9_14  and  O5_15 
REMARK    8  A    between atoms: C9_14  and  C10_17 
REMARK    9  A    between atoms: C13_20  and  C14_21 
REMARK   10  A    between atoms: C14_21  and  O6_22 
REMARK   11  A    between atoms: C14_21  and  N2_24 
REMARK   12  A    between atoms: N2_24  and  C15_26 
REMARK   13  A    between atoms: C15_26  and  C16_27 
REMARK       I    between atoms: C16_27  and  N3_29 
REMARK   14  A    between atoms: N3_29  and  C17_31 
REMARK   15  A    between atoms: C17_31  and  C18_32 
REMARK   16  A    between atoms: C17_31  and  C20_36 
REMARK   17  A    between atoms: C18_32  and  O9_34 
REMARK   18  A    between atoms: C20_36  and  N6_41 
REMARK       I    between atoms: N6_41  and  C22_43 
ROOT
HETATM    1  C20 UNL     1       6.024   0.660   1.018  1.00  0.00     0.126 C 
HETATM    2  N4  UNL     1       6.104   1.452   2.052  1.00  0.00    -0.281 N 
ATOM      3  H4  UNL     1       6.820   1.292   2.760  1.00  0.00     0.179 HD
HETATM    4  C21 UNL     1       5.212   2.519   2.193  1.00  0.00     0.183 C 
HETATM    5  N5  UNL     1       4.469   3.408   2.328  1.00  0.00    -0.172 NA
ENDROOT
BRANCH   1   6
HETATM    6  C17 UNL     1       4.980   0.894  -0.013  1.00  0.00     0.253 C 
BRANCH   6   7
HETATM    7  N3  UNL     1       4.151  -0.314  -0.048  1.00  0.00    -0.340 N 
HETATM    8  C16 UNL     1       2.775  -0.230   0.237  1.00  0.00     0.236 C 
HETATM    9  O7  UNL     1       2.271   0.868   0.517  1.00  0.00    -0.272 OA
ATOM     10  H3  UNL     1       4.571  -1.215  -0.279  1.00  0.00     0.163 HD
BRANCH   8  11
HETATM   11  C15 UNL     1       1.962  -1.464   0.195  1.00  0.00     0.224 C 
BRANCH  11  12
HETATM   12  N2  UNL     1       0.598  -1.152   0.483  1.00  0.00    -0.364 N 
ATOM     13  H2  UNL     1       0.200  -1.568   1.325  1.00  0.00     0.161 HD
BRANCH  12  14
HETATM   14  C14 UNL     1      -0.246  -0.335  -0.272  1.00  0.00     0.135 C 
BRANCH  14  15
HETATM   15  C13 UNL     1      -1.608   0.075  -0.118  1.00  0.00     0.198 C 
HETATM   16  N1  UNL     1      -2.367  -0.695   0.825  1.00  0.00    -0.156 NA
HETATM   17  C3  UNL     1      -3.563  -0.474   0.008  1.00  0.00     0.194 C 
HETATM   18  C9  UNL     1      -2.644  -0.043  -1.144  1.00  0.00     0.111 C 
BRANCH  16  19
HETATM   19  O3  UNL     1      -2.058  -1.987   1.031  1.00  0.00    -0.199 OA
BRANCH  19  20
HETATM   20  C2  UNL     1      -2.620  -2.821   1.954  1.00  0.00     0.423 C 
HETATM   21  O2  UNL     1      -3.521  -2.351   2.697  1.00  0.00    -0.228 OA
BRANCH  20  22
HETATM   22  O1  UNL     1      -2.271  -4.146   2.132  1.00  0.00    -0.302 OA
HETATM   23  C1  UNL     1      -2.912  -4.944   3.123  1.00  0.00     0.215 C 
ENDBRANCH  20  22
ENDBRANCH  19  20
ENDBRANCH  16  19
BRANCH  17  24
HETATM   24  C4  UNL     1      -4.353   0.634   0.584  1.00  0.00     0.150 C 
HETATM   25  O4  UNL     1      -3.950   1.188   1.584  1.00  0.00    -0.296 OA
BRANCH  24  26
HETATM   26  C5  UNL     1      -5.634   1.113  -0.008  1.00  0.00     0.084 C 
BRANCH  26  27
HETATM   27  C6  UNL     1      -6.212   2.262   0.793  1.00  0.00    -0.016 C 
HETATM   28  C7  UNL     1      -5.293   3.436   0.852  1.00  0.00     0.010 C 
HETATM   29  C8  UNL     1      -7.565   2.648   0.268  1.00  0.00     0.010 C 
ENDBRANCH  26  27
ENDBRANCH  24  26
ENDBRANCH  17  24
BRANCH  18  30
HETATM   30  O5  UNL     1      -3.083   1.229  -1.591  1.00  0.00    -0.385 OA
ATOM     31  H5  UNL     1      -2.514   1.496  -2.304  1.00  0.00     0.210 HD
ENDBRANCH  18  30
BRANCH  18  32
HETATM   32  C10 UNL     1      -2.603  -0.963  -2.276  1.00  0.00     0.016 C 
HETATM   33  C11 UNL     1      -4.045  -1.065  -2.820  1.00  0.00     0.012 C 
HETATM   34  C12 UNL     1      -2.161  -2.363  -2.048  1.00  0.00     0.012 C 
ENDBRANCH  18  32
ENDBRANCH  14  15
BRANCH  14  35
HETATM   35  O6  UNL     1       0.329   0.154  -1.332  1.00  0.00    -0.348 OA
ATOM     36  H6  UNL     1       1.233  -0.118  -1.434  1.00  0.00     0.219 HD
ENDBRANCH  14  35
ENDBRANCH  12  14
ENDBRANCH  11  12
ENDBRANCH   8  11
ENDBRANCH   6   7
BRANCH   6  37
HETATM   37  C18 UNL     1       5.559   1.157  -1.356  1.00  0.00     0.289 C 
HETATM   38  O8  UNL     1       5.317   0.398  -2.323  1.00  0.00    -0.262 OA
BRANCH  37  39
HETATM   39  O9  UNL     1       6.372   2.246  -1.552  1.00  0.00    -0.325 OA
HETATM   40  C19 UNL     1       6.973   2.594  -2.768  1.00  0.00     0.213 C 
ENDBRANCH  37  39
ENDBRANCH   6  37
ENDBRANCH   1   6
BRANCH   1  41
HETATM   41  N6  UNL     1       6.910  -0.415   0.860  1.00  0.00    -0.318 N 
HETATM   42  C22 UNL     1       8.296  -0.288   0.662  1.00  0.00     0.187 C 
HETATM   43  N7  UNL     1       8.782  -0.391  -0.508  1.00  0.00    -0.373 N 
HETATM   44  N8  UNL     1       9.165  -0.042   1.774  1.00  0.00    -0.064 NA
ATOM     45  H72 UNL     1       8.163  -0.566  -1.300  1.00  0.00     0.158 HD
ATOM     46  H71 UNL     1       9.788  -0.299  -0.652  1.00  0.00     0.158 HD
ATOM     47  H6  UNL     1       6.521  -1.357   0.891  1.00  0.00     0.170 HD
ENDBRANCH   1  41
TORSDOF 18
