REMARK  16 active torsions:
REMARK  status: ('A' for Active; 'I' for Inactive)
REMARK    1  A    between atoms: O1_2  and  C2_3 
REMARK    2  A    between atoms: C3_5  and  C4_6 
REMARK    3  A    between atoms: C4_6  and  O3_7 
REMARK    4  A    between atoms: C5_9  and  O4_10 
REMARK    5  A    between atoms: C6_12  and  O5_13 
REMARK    6  A    between atoms: O5_13  and  C7_14 
REMARK    7  A    between atoms: C8_15  and  O6_16 
REMARK    8  A    between atoms: C11_20  and  O7_21 
REMARK    9  A    between atoms: O7_21  and  C12_22 
REMARK   10  A    between atoms: C12_22  and  C14_24 
REMARK   11  A    between atoms: C15_27  and  O10_28 
REMARK   12  A    between atoms: C16_30  and  O11_31 
REMARK   13  A    between atoms: C17_33  and  O12_34 
REMARK   14  A    between atoms: O12_34  and  C18_35 
REMARK   15  A    between atoms: C18_35  and  C19_37 
REMARK   16  A    between atoms: C20_38  and  C21_39 
ROOT
HETATM    1  C2  UNL     1       2.452  -3.052  -0.937  1.00  0.00     0.291 C 
HETATM    2  O2  UNL     1       1.723  -4.147  -0.484  1.00  0.00    -0.348 OA
HETATM    3  C3  UNL     1       1.687  -3.993   0.894  1.00  0.00     0.179 C 
HETATM    4  C5  UNL     1       1.093  -2.689   1.333  1.00  0.00     0.180 C 
HETATM    5  C6  UNL     1       0.477  -1.904   0.156  1.00  0.00     0.188 C 
HETATM    6  C17 UNL     1       1.489  -1.888  -0.920  1.00  0.00     0.218 C 
ENDROOT
BRANCH   5   7
HETATM    7  O5  UNL     1      -0.073  -0.735   0.522  1.00  0.00    -0.370 OA
BRANCH   7   8
HETATM    8  C7  UNL     1      -1.419  -0.523   0.423  1.00  0.00     0.182 C 
HETATM    9  C8  UNL     1      -1.852   0.565  -0.500  1.00  0.00     0.156 C 
HETATM   10  C9  UNL     1      -3.369   0.552  -0.624  1.00  0.00     0.045 C 
HETATM   11  C10 UNL     1      -3.801  -0.775  -1.184  1.00  0.00     0.015 C 
HETATM   12  C11 UNL     1      -4.038   0.894   0.679  1.00  0.00     0.160 C 
HETATM   13  C15 UNL     1      -3.009   0.902   1.786  1.00  0.00     0.178 C 
HETATM   14  C16 UNL     1      -2.093  -0.285   1.751  1.00  0.00     0.180 C 
BRANCH   9  15
HETATM   15  O6  UNL     1      -1.402   0.452  -1.796  1.00  0.00    -0.392 OA
ATOM     16  H6  UNL     1      -1.678   1.145  -2.384  1.00  0.00     0.210 HD
ENDBRANCH   9  15
BRANCH  12  17
HETATM   17  O7  UNL     1      -4.521   2.197   0.588  1.00  0.00    -0.367 OA
BRANCH  17  18
HETATM   18  C12 UNL     1      -5.875   2.303   0.775  1.00  0.00     0.218 C 
HETATM   19  C13 UNL     1      -6.234   3.285   1.880  1.00  0.00     0.051 C 
BRANCH  18  20
HETATM   20  C14 UNL     1      -6.470   2.846  -0.470  1.00  0.00     0.202 C 
HETATM   21  O8  UNL     1      -7.736   3.014  -0.495  1.00  0.00    -0.646 OA
HETATM   22  O9  UNL     1      -5.774   3.186  -1.607  1.00  0.00    -0.646 OA
ENDBRANCH  18  20
ENDBRANCH  17  18
ENDBRANCH  12  17
BRANCH  13  23
HETATM   23  O10 UNL     1      -3.703   0.879   2.995  1.00  0.00    -0.390 OA
ATOM     24  H10 UNL     1      -3.056   0.884   3.691  1.00  0.00     0.210 HD
ENDBRANCH  13  23
BRANCH  14  25
HETATM   25  O11 UNL     1      -2.850  -1.385   2.085  1.00  0.00    -0.390 OA
ATOM     26  H11 UNL     1      -3.275  -1.235   2.922  1.00  0.00     0.210 HD
ENDBRANCH  14  25
ENDBRANCH   7   8
ENDBRANCH   5   7
BRANCH   4  27
HETATM   27  O4  UNL     1       0.169  -2.866   2.358  1.00  0.00    -0.390 OA
ATOM     28  H4  UNL     1      -0.208  -2.039   2.636  1.00  0.00     0.210 HD
ENDBRANCH   4  27
BRANCH   6  29
HETATM   29  O12 UNL     1       2.320  -0.758  -0.980  1.00  0.00    -0.305 OA
BRANCH  29  30
HETATM   30  C18 UNL     1       2.408   0.106  -2.059  1.00  0.00     0.283 C 
HETATM   31  O13 UNL     1       1.684  -0.159  -3.050  1.00  0.00    -0.260 OA
BRANCH  30  32
HETATM   32  C19 UNL     1       3.287   1.274  -2.078  1.00  0.00     0.083 C 
HETATM   33  C20 UNL     1       4.063   1.607  -1.090  1.00  0.00     0.017 C 
BRANCH  33  34
HETATM   34  C21 UNL     1       4.956   2.743  -1.036  1.00  0.00    -0.036 A 
HETATM   35  C22 UNL     1       5.730   2.984   0.083  1.00  0.00     0.011 A 
HETATM   36  C23 UNL     1       6.591   4.058   0.167  1.00  0.00     0.001 A 
HETATM   37  C24 UNL     1       6.708   4.941  -0.886  1.00  0.00     0.000 A 
HETATM   38  C25 UNL     1       5.953   4.726  -2.005  1.00  0.00     0.001 A 
HETATM   39  C26 UNL     1       5.095   3.642  -2.067  1.00  0.00     0.011 A 
ENDBRANCH  33  34
ENDBRANCH  30  32
ENDBRANCH  29  30
ENDBRANCH   6  29
BRANCH   3  40
HETATM   40  C4  UNL     1       0.842  -5.126   1.436  1.00  0.00     0.198 C 
BRANCH  40  41
HETATM   41  O3  UNL     1       1.391  -6.373   1.108  1.00  0.00    -0.398 OA
ATOM     42  H3  UNL     1       0.861  -7.084   1.448  1.00  0.00     0.209 HD
ENDBRANCH  40  41
ENDBRANCH   3  40
BRANCH   1  43
HETATM   43  O1  UNL     1       3.481  -2.771  -0.041  1.00  0.00    -0.363 OA
HETATM   44  C1  UNL     1       4.725  -2.755  -0.677  1.00  0.00     0.204 C 
ENDBRANCH   1  43
TORSDOF 16
