REMARK  16 active torsions:
REMARK  status: ('A' for Active; 'I' for Inactive)
REMARK    1  A    between atoms: O1_2  and  C2_3 
REMARK    2  A    between atoms: C2_3  and  C3_5 
REMARK    3  A    between atoms: C3_5  and  C5_7 
REMARK    4  A    between atoms: C6_8  and  C7_9 
REMARK    5  A    between atoms: C11_14  and  C12_15 
REMARK    6  A    between atoms: C12_15  and  O4_16 
REMARK    7  A    between atoms: O4_16  and  C13_17 
REMARK    8  A    between atoms: C13_17  and  C14_19 
REMARK    9  A    between atoms: C14_19  and  C15_20 
REMARK   10  A    between atoms: C14_19  and  C17_24 
REMARK   11  A    between atoms: C15_20  and  C16_21 
REMARK   12  A    between atoms: C17_24  and  C18_26 
REMARK   13  A    between atoms: C20_30  and  O11_31 
REMARK   14  A    between atoms: C21_33  and  O12_34 
REMARK   15  A    between atoms: C24_38  and  O13_39 
REMARK   16  A    between atoms: C25_41  and  O14_42 
ROOT
HETATM    1  C7  UNL     1       1.888   1.123   0.853  1.00  0.00     0.032 C 
HETATM    2  C8  UNL     1       1.052   0.751  -0.096  1.00  0.00     0.054 C 
HETATM    3  O3  UNL     1      -0.310   0.972  -0.202  1.00  0.00    -0.343 OA
HETATM    4  C9  UNL     1      -0.789   0.566  -1.465  1.00  0.00     0.077 C 
HETATM    5  C10 UNL     1      -1.619   1.682  -2.025  1.00  0.00     0.047 C 
HETATM    6  C11 UNL     1      -1.567  -0.729  -1.334  1.00  0.00     0.054 C 
HETATM    7  C19 UNL     1      -0.813  -1.885  -1.867  1.00  0.00     0.057 C 
HETATM    8  C20 UNL     1       0.396  -2.341  -1.172  1.00  0.00     0.154 C 
HETATM    9  C21 UNL     1       1.524  -1.459  -0.929  1.00  0.00     0.158 C 
HETATM   10  C22 UNL     1       1.459  -0.025  -1.300  1.00  0.00     0.083 C 
HETATM   11  C23 UNL     1       0.443   0.401  -2.278  1.00  0.00     0.065 C 
HETATM   12  C24 UNL     1       0.303  -0.451  -3.489  1.00  0.00     0.155 C 
HETATM   13  C25 UNL     1      -0.526  -1.675  -3.331  1.00  0.00     0.154 C 
ENDROOT
BRANCH   6  14
HETATM   14  C12 UNL     1      -2.096  -0.923   0.057  1.00  0.00     0.187 C 
BRANCH  14  15
HETATM   15  O4  UNL     1      -2.971   0.073   0.502  1.00  0.00    -0.317 OA
BRANCH  15  16
HETATM   16  C13 UNL     1      -4.191   0.415  -0.019  1.00  0.00     0.294 C 
HETATM   17  O5  UNL     1      -4.592  -0.237  -1.013  1.00  0.00    -0.259 OA
BRANCH  16  18
HETATM   18  C14 UNL     1      -4.987   1.517   0.587  1.00  0.00     0.084 C 
BRANCH  18  19
HETATM   19  C15 UNL     1      -6.331   1.730   0.012  1.00  0.00     0.162 C 
BRANCH  19  20
HETATM   20  C16 UNL     1      -7.308   0.661   0.077  1.00  0.00     0.177 C 
HETATM   21  O6  UNL     1      -8.110   0.555   1.065  1.00  0.00    -0.648 OA
HETATM   22  O7  UNL     1      -7.412  -0.283  -0.923  1.00  0.00    -0.648 OA
ENDBRANCH  19  20
ENDBRANCH  18  19
BRANCH  18  23
HETATM   23  C17 UNL     1      -4.883   1.526   2.059  1.00  0.00     0.260 C 
HETATM   24  O8  UNL     1      -4.565   2.607   2.676  1.00  0.00    -0.280 OA
BRANCH  23  25
HETATM   25  C18 UNL     1      -5.125   0.363   2.901  1.00  0.00     0.252 C 
HETATM   26  O9  UNL     1      -5.402  -0.775   2.430  1.00  0.00    -0.642 OA
HETATM   27  O10 UNL     1      -5.056   0.474   4.269  1.00  0.00    -0.642 OA
ENDBRANCH  23  25
ENDBRANCH  18  23
ENDBRANCH  16  18
ENDBRANCH  15  16
ENDBRANCH  14  15
ENDBRANCH   6  14
BRANCH   8  28
HETATM   28  O11 UNL     1      -0.026  -2.892   0.071  1.00  0.00    -0.392 OA
ATOM     29  H11 UNL     1       0.757  -3.187   0.521  1.00  0.00     0.210 HD
ENDBRANCH   8  28
BRANCH  13  30
HETATM   30  O14 UNL     1       0.267  -2.775  -3.737  1.00  0.00    -0.393 OA
ATOM     31  H14 UNL     1       0.448  -2.643  -4.660  1.00  0.00     0.210 HD
ENDBRANCH  13  30
BRANCH  12  32
HETATM   32  O13 UNL     1      -0.301   0.340  -4.494  1.00  0.00    -0.392 OA
ATOM     33  H13 UNL     1      -0.390  -0.204  -5.268  1.00  0.00     0.210 HD
ENDBRANCH  12  32
BRANCH   9  34
HETATM   34  O12 UNL     1       2.644  -1.975  -1.642  1.00  0.00    -0.392 OA
ATOM     35  H12 UNL     1       3.382  -1.398  -1.483  1.00  0.00     0.210 HD
ENDBRANCH   9  34
BRANCH   1  36
HETATM   36  C6  UNL     1       3.307   0.808   0.816  1.00  0.00    -0.001 C 
HETATM   37  C5  UNL     1       4.150   1.173   1.757  1.00  0.00    -0.012 C 
BRANCH  37  38
HETATM   38  C3  UNL     1       5.581   0.833   1.682  1.00  0.00     0.104 C 
HETATM   39  C4  UNL     1       6.343   2.165   1.676  1.00  0.00     0.025 C 
BRANCH  38  40
HETATM   40  C2  UNL     1       6.050   0.093   2.876  1.00  0.00     0.265 C 
HETATM   41  O2  UNL     1       5.244  -0.249   3.779  1.00  0.00    -0.265 OA
BRANCH  40  42
HETATM   42  O1  UNL     1       7.383  -0.248   3.044  1.00  0.00    -0.326 OA
HETATM   43  C1  UNL     1       7.854  -0.960   4.186  1.00  0.00     0.213 C 
ENDBRANCH  40  42
ENDBRANCH  38  40
ENDBRANCH  37  38
ENDBRANCH   1  36
TORSDOF 16
