REMARK  17 active torsions:
REMARK  status: ('A' for Active; 'I' for Inactive)
REMARK    1  A    between atoms: C2_2  and  C3_3 
REMARK    2  A    between atoms: C3_3  and  O1_4 
REMARK    3  A    between atoms: O1_4  and  C4_5 
REMARK    4  A    between atoms: C10_11  and  O2_12 
REMARK    5  A    between atoms: O2_12  and  C11_13 
REMARK    6  A    between atoms: C12_15  and  C13_16 
REMARK    7  A    between atoms: C13_16  and  O4_17 
REMARK    8  A    between atoms: C13_16  and  C14_19 
REMARK    9  A    between atoms: C14_19  and  O5_20 
REMARK   10  A    between atoms: O5_20  and  C15_21 
REMARK   11  A    between atoms: C17_23  and  O6_24 
REMARK   12  A    between atoms: C19_26  and  O7_27 
REMARK   13  A    between atoms: C20_29  and  C21_30 
REMARK   14  A    between atoms: C21_30  and  O8_31 
REMARK   15  A    between atoms: C22_34  and  O10_35 
REMARK   16  A    between atoms: C23_37  and  O11_38 
REMARK   17  A    between atoms: C24_40  and  O12_41 
ROOT
HETATM    1  C11 UNL     1      -1.594  -0.344  -0.830  1.00  0.00     0.292 C 
HETATM    2  O3  UNL     1      -1.003  -0.960   0.284  1.00  0.00    -0.348 OA
HETATM    3  C12 UNL     1       0.350  -0.615   0.361  1.00  0.00     0.186 C 
HETATM    4  C22 UNL     1       1.084  -1.306  -0.750  1.00  0.00     0.181 C 
HETATM    5  C23 UNL     1       0.152  -1.846  -1.769  1.00  0.00     0.183 C 
HETATM    6  C24 UNL     1      -1.040  -0.979  -2.096  1.00  0.00     0.204 C 
ENDROOT
BRANCH   3   7
HETATM    7  C13 UNL     1       0.851  -1.147   1.697  1.00  0.00     0.173 C 
BRANCH   7   8
HETATM    8  O4  UNL     1       0.061  -0.584   2.739  1.00  0.00    -0.391 OA
ATOM      9  H4  UNL     1       0.374  -0.916   3.572  1.00  0.00     0.210 HD
ENDBRANCH   7   8
BRANCH   7  10
HETATM   10  C14 UNL     1       2.253  -0.710   2.025  1.00  0.00     0.205 C 
BRANCH  10  11
HETATM   11  O5  UNL     1       3.226  -1.151   1.166  1.00  0.00    -0.359 OA
BRANCH  11  12
HETATM   12  C15 UNL     1       4.465  -0.664   1.598  1.00  0.00     0.262 C 
HETATM   13  C16 UNL     1       5.109   0.193   0.531  1.00  0.00     0.095 C 
HETATM   14  C17 UNL     1       6.601   0.183   0.765  1.00  0.00     0.156 C 
HETATM   15  C19 UNL     1       7.111  -1.210   0.409  1.00  0.00     0.178 C 
HETATM   16  C20 UNL     1       5.996  -2.171   0.773  1.00  0.00     0.179 C 
HETATM   17  O9  UNL     1       5.322  -1.725   1.917  1.00  0.00    -0.351 OA
BRANCH  14  18
HETATM   18  O6  UNL     1       7.223   1.154  -0.018  1.00  0.00    -0.388 OA
HETATM   19  C18 UNL     1       7.924   2.019   0.792  1.00  0.00     0.202 C 
ENDBRANCH  14  18
BRANCH  15  20
HETATM   20  O7  UNL     1       8.237  -1.519   1.184  1.00  0.00    -0.390 OA
ATOM     21  H7  UNL     1       8.555  -2.386   0.962  1.00  0.00     0.210 HD
ENDBRANCH  15  20
BRANCH  16  22
HETATM   22  C21 UNL     1       6.553  -3.532   1.063  1.00  0.00     0.198 C 
BRANCH  22  23
HETATM   23  O8  UNL     1       7.240  -4.073  -0.012  1.00  0.00    -0.398 OA
ATOM     24  H8  UNL     1       7.593  -4.936   0.172  1.00  0.00     0.209 HD
ENDBRANCH  22  23
ENDBRANCH  16  22
ENDBRANCH  11  12
ENDBRANCH  10  11
ENDBRANCH   7  10
ENDBRANCH   3   7
BRANCH   4  25
HETATM   25  O10 UNL     1       2.012  -0.409  -1.305  1.00  0.00    -0.390 OA
ATOM     26  H10 UNL     1       2.477  -0.847  -2.009  1.00  0.00     0.210 HD
ENDBRANCH   4  25
BRANCH   1  27
HETATM   27  O2  UNL     1      -2.952  -0.294  -0.762  1.00  0.00    -0.350 OA
BRANCH  27  28
HETATM   28  C10 UNL     1      -3.497   0.966  -0.624  1.00  0.00     0.163 C 
HETATM   29  C4  UNL     1      -4.500   0.989   0.475  1.00  0.00     0.156 C 
HETATM   30  C5  UNL     1      -5.877   1.206  -0.180  1.00  0.00     0.026 C 
HETATM   31  C6  UNL     1      -5.951   2.670  -0.494  1.00  0.00     0.009 C 
HETATM   32  C25 UNL     1      -5.619   0.631  -1.560  1.00  0.00    -0.032 C 
HETATM   33  C7  UNL     1      -4.806   2.821  -1.483  1.00  0.00     0.013 C 
HETATM   34  C8  UNL     1      -4.339   1.396  -1.808  1.00  0.00    -0.008 C 
HETATM   35  C9  UNL     1      -3.749   1.273  -3.134  1.00  0.00     0.019 C 
HETATM   36  C26 UNL     1      -6.707   1.041  -2.533  1.00  0.00     0.016 C 
HETATM   37  C27 UNL     1      -5.481  -0.848  -1.557  1.00  0.00     0.016 C 
BRANCH  29  38
HETATM   38  O1  UNL     1      -4.375   2.112   1.325  1.00  0.00    -0.379 OA
BRANCH  38  39
HETATM   39  C3  UNL     1      -4.495   1.776   2.639  1.00  0.00     0.195 C 
BRANCH  39  40
HETATM   40  C2  UNL     1      -3.527   0.828   3.188  1.00  0.00    -0.011 C 
HETATM   41  C1  UNL     1      -2.742   1.179   4.200  1.00  0.00     0.009 C 
ENDBRANCH  39  40
ENDBRANCH  38  39
ENDBRANCH  29  38
ENDBRANCH  27  28
ENDBRANCH   1  27
BRANCH   5  42
HETATM   42  O11 UNL     1       0.872  -2.002  -2.972  1.00  0.00    -0.390 OA
ATOM     43  H11 UNL     1       0.275  -2.348  -3.625  1.00  0.00     0.210 HD
ENDBRANCH   5  42
BRANCH   6  44
HETATM   44  O12 UNL     1      -2.024  -1.832  -2.596  1.00  0.00    -0.388 OA
ATOM     45  H12 UNL     1      -1.678  -2.229  -3.387  1.00  0.00     0.210 HD
ENDBRANCH   6  44
TORSDOF 17
