REMARK  18 active torsions:
REMARK  status: ('A' for Active; 'I' for Inactive)
REMARK    1  A    between atoms: C5_5  and  O1_6 
REMARK    2  A    between atoms: C5_5  and  C6_8 
REMARK    3  A    between atoms: C6_8  and  C7_10 
REMARK    4  A    between atoms: C7_10  and  O3_11 
REMARK    5  A    between atoms: C7_10  and  C10_15 
REMARK    6  A    between atoms: O3_11  and  C8_12 
REMARK    7  A    between atoms: C10_15  and  O5_16 
REMARK    8  A    between atoms: C10_15  and  C11_18 
REMARK    9  A    between atoms: C11_18  and  C13_20 
REMARK   10  A    between atoms: C14_21  and  C15_22 
REMARK   11  A    between atoms: C15_22  and  O6_24 
REMARK   12  A    between atoms: C15_22  and  C17_26 
REMARK   13  A    between atoms: C17_26  and  C18_27 
REMARK   14  A    between atoms: C18_27  and  O7_28 
REMARK   15  A    between atoms: C18_27  and  C19_30 
REMARK   16  A    between atoms: C19_30  and  O8_31 
REMARK   17  A    between atoms: C19_30  and  C22_35 
REMARK   18  A    between atoms: O8_31  and  C20_32 
ROOT
HETATM    1  C10 UNL     1      -2.245  -1.116  -0.547  1.00  0.00     0.162 C 
ENDROOT
BRANCH   1   2
HETATM    2  C7  UNL     1      -3.630  -1.179   0.058  1.00  0.00     0.236 C 
BRANCH   2   3
HETATM    3  C6  UNL     1      -4.051   0.069   0.730  1.00  0.00     0.220 C 
HETATM    4  O2  UNL     1      -4.363  -0.017   1.915  1.00  0.00    -0.289 OA
BRANCH   3   5
HETATM    5  C5  UNL     1      -4.139   1.414   0.130  1.00  0.00     0.236 C 
HETATM    6  C4  UNL     1      -5.525   2.009   0.285  1.00  0.00     0.082 C 
HETATM    7  C3  UNL     1      -5.562   3.336  -0.435  1.00  0.00     0.050 C 
HETATM    8  C2  UNL     1      -4.685   4.258   0.351  1.00  0.00     0.008 C 
HETATM    9  C1  UNL     1      -4.951   5.536   0.493  1.00  0.00     0.025 C 
HETATM   10  C23 UNL     1      -3.505   3.658   0.959  1.00  0.00     0.291 C 
HETATM   11  O12 UNL     1      -3.248   2.335   0.747  1.00  0.00    -0.272 OA
HETATM   12  O13 UNL     1      -2.726   4.339   1.671  1.00  0.00    -0.260 OA
BRANCH   5  13
HETATM   13  O1  UNL     1      -3.830   1.441  -1.222  1.00  0.00    -0.359 OA
ATOM     14  H1  UNL     1      -2.962   1.068  -1.319  1.00  0.00     0.213 HD
ENDBRANCH   5  13
ENDBRANCH   3   5
ENDBRANCH   2   3
BRANCH   2  15
HETATM   15  O3  UNL     1      -3.741  -2.301   0.925  1.00  0.00    -0.306 OA
BRANCH  15  16
HETATM   16  C8  UNL     1      -4.568  -3.368   0.712  1.00  0.00     0.255 C 
HETATM   17  C9  UNL     1      -4.607  -4.495   1.685  1.00  0.00     0.126 C 
HETATM   18  O4  UNL     1      -5.284  -3.382  -0.308  1.00  0.00    -0.266 OA
ENDBRANCH  15  16
ENDBRANCH   2  15
ENDBRANCH   1   2
BRANCH   1  19
HETATM   19  O5  UNL     1      -2.068  -2.326  -1.260  1.00  0.00    -0.392 OA
ATOM     20  H5  UNL     1      -1.198  -2.286  -1.640  1.00  0.00     0.210 HD
ENDBRANCH   1  19
BRANCH   1  21
HETATM   21  C11 UNL     1      -1.146  -1.028   0.458  1.00  0.00     0.035 C 
HETATM   22  C12 UNL     1      -1.118  -2.214   1.398  1.00  0.00     0.017 C 
BRANCH  21  23
HETATM   23  C13 UNL     1       0.143  -1.042  -0.284  1.00  0.00    -0.021 C 
HETATM   24  C14 UNL     1       0.990  -0.032  -0.220  1.00  0.00     0.007 C 
BRANCH  24  25
HETATM   25  C15 UNL     1       2.320  -0.090  -1.009  1.00  0.00     0.074 C 
HETATM   26  C16 UNL     1       2.036  -0.843  -2.247  1.00  0.00     0.050 C 
BRANCH  25  27
HETATM   27  O6  UNL     1       2.585   1.268  -1.283  1.00  0.00    -0.386 OA
ATOM     28  H6  UNL     1       3.401   1.232  -1.767  1.00  0.00     0.211 HD
ENDBRANCH  25  27
BRANCH  25  29
HETATM   29  C17 UNL     1       3.304  -0.616  -0.070  1.00  0.00     0.076 C 
BRANCH  29  30
HETATM   30  C18 UNL     1       4.720  -0.913  -0.423  1.00  0.00     0.161 C 
BRANCH  30  31
HETATM   31  O7  UNL     1       5.173  -1.375   0.929  1.00  0.00    -0.392 OA
ATOM     32  H7  UNL     1       6.076  -1.564   0.704  1.00  0.00     0.210 HD
ENDBRANCH  30  31
BRANCH  30  33
HETATM   33  C19 UNL     1       5.668   0.197  -0.675  1.00  0.00     0.261 C 
BRANCH  33  34
HETATM   34  O8  UNL     1       7.010  -0.287  -0.225  1.00  0.00    -0.303 OA
BRANCH  34  35
HETATM   35  C20 UNL     1       7.664   0.538   0.704  1.00  0.00     0.255 C 
HETATM   36  C21 UNL     1       9.000   0.116   1.193  1.00  0.00     0.126 C 
HETATM   37  O9  UNL     1       7.166   1.596   1.125  1.00  0.00    -0.266 OA
ENDBRANCH  34  35
ENDBRANCH  33  34
BRANCH  33  38
HETATM   38  C22 UNL     1       6.000   0.438  -2.118  1.00  0.00     0.206 C 
HETATM   39  O10 UNL     1       7.158   0.169  -2.599  1.00  0.00    -0.646 OA
HETATM   40  O11 UNL     1       5.091   0.955  -2.987  1.00  0.00    -0.646 OA
ENDBRANCH  33  38
ENDBRANCH  30  33
ENDBRANCH  29  30
ENDBRANCH  25  29
ENDBRANCH  24  25
ENDBRANCH  21  23
ENDBRANCH   1  21
TORSDOF 18
