REMARK  6 active torsions:
REMARK  status: ('A' for Active; 'I' for Inactive)
REMARK    1  A    between atoms: O1_2  and  C2_3 
REMARK    2  A    between atoms: C4_5  and  C5_6 
REMARK    3  A    between atoms: C10_11  and  O2_12 
REMARK    4  A    between atoms: O2_12  and  C11_13 
REMARK    5  A    between atoms: C15_21  and  O7_22 
REMARK    6  A    between atoms: C17_24  and  O8_25 
ROOT
HETATM    1  C5  UNL     1      -0.021  -0.121   0.036  1.00  0.00     0.158 C 
HETATM    2  C6  UNL     1       0.235  -1.091   1.159  1.00  0.00     0.042 C 
HETATM    3  C7  UNL     1       1.469  -1.821   0.670  1.00  0.00     0.071 C 
HETATM    4  C8  UNL     1       1.690  -1.283  -0.714  1.00  0.00     0.172 C 
HETATM    5  C9  UNL     1       2.774  -0.224  -0.747  1.00  0.00     0.130 C 
HETATM    6  C10 UNL     1       4.120  -0.847  -0.495  1.00  0.00     0.277 C 
HETATM    7  O4  UNL     1       4.306  -1.829  -1.478  1.00  0.00    -0.337 OA
HETATM    8  C13 UNL     1       3.309  -2.799  -1.380  1.00  0.00     0.344 C 
HETATM    9  O5  UNL     1       2.041  -2.304  -1.567  1.00  0.00    -0.331 OA
HETATM   10  O6  UNL     1       0.469  -0.778  -1.091  1.00  0.00    -0.345 OA
ENDROOT
BRANCH   1  11
HETATM   11  C4  UNL     1      -1.433   0.238  -0.117  1.00  0.00    -0.024 A 
HETATM   12  C3  UNL     1      -1.865   1.493   0.250  1.00  0.00     0.049 A 
HETATM   13  C2  UNL     1      -3.172   1.917   0.142  1.00  0.00     0.104 A 
HETATM   14  C17 UNL     1      -4.113   1.047  -0.361  1.00  0.00     0.135 A 
HETATM   15  C15 UNL     1      -3.713  -0.237  -0.745  1.00  0.00     0.104 A 
HETATM   16  C14 UNL     1      -2.395  -0.622  -0.621  1.00  0.00     0.049 A 
BRANCH  13  17
HETATM   17  O1  UNL     1      -3.600   3.184   0.515  1.00  0.00    -0.353 OA
HETATM   18  C1  UNL     1      -2.766   4.179   1.042  1.00  0.00     0.210 C 
ENDBRANCH  13  17
BRANCH  14  19
HETATM   19  O8  UNL     1      -5.440   1.433  -0.487  1.00  0.00    -0.351 OA
HETATM   20  C18 UNL     1      -6.302   1.202   0.603  1.00  0.00     0.210 C 
ENDBRANCH  14  19
BRANCH  15  21
HETATM   21  O7  UNL     1      -4.686  -1.094  -1.250  1.00  0.00    -0.353 OA
HETATM   22  C16 UNL     1      -4.307  -2.384  -1.640  1.00  0.00     0.210 C 
ENDBRANCH  15  21
ENDBRANCH   1  11
BRANCH   6  23
HETATM   23  O2  UNL     1       5.109   0.150  -0.664  1.00  0.00    -0.290 OA
BRANCH  23  24
HETATM   24  C11 UNL     1       6.023   0.436   0.353  1.00  0.00     0.257 C 
HETATM   25  C12 UNL     1       7.071   1.478   0.200  1.00  0.00     0.126 C 
HETATM   26  O3  UNL     1       5.923  -0.224   1.403  1.00  0.00    -0.266 OA
ENDBRANCH  23  24
ENDBRANCH   6  23
TORSDOF 6
