REMARK  7 active torsions:
REMARK  status: ('A' for Active; 'I' for Inactive)
REMARK    1  A    between atoms: O1_2  and  C2_3 
REMARK    2  A    between atoms: C4_5  and  C5_6 
REMARK       I    between atoms: N1_13  and  C11_14 
REMARK    3  A    between atoms: C11_14  and  O4_16 
REMARK    4  A    between atoms: O4_16  and  N2_17 
REMARK    5  A    between atoms: N2_17  and  O5_19 
REMARK    6  A    between atoms: C14_23  and  O6_24 
REMARK    7  A    between atoms: C16_26  and  O7_27 
ROOT
HETATM    1  C5  UNL     1      -0.452  -0.887  -0.376  1.00  0.00     0.047 C 
HETATM    2  C6  UNL     1      -0.825  -0.510  -1.791  1.00  0.00     0.180 C 
HETATM    3  O2  UNL     1      -1.944   0.290  -1.755  1.00  0.00    -0.360 OA
HETATM    4  C7  UNL     1      -2.619  -0.082  -0.571  1.00  0.00     0.141 C 
HETATM    5  C8  UNL     1      -3.241  -1.455  -0.729  1.00  0.00     0.063 C 
HETATM    6  C9  UNL     1      -4.713  -1.237  -0.983  1.00  0.00     0.025 C 
HETATM    7  C10 UNL     1      -4.784   0.270  -1.187  1.00  0.00     0.131 C 
HETATM    8  N1  UNL     1      -3.745   0.723  -0.280  1.00  0.00    -0.294 N 
HETATM    9  C11 UNL     1      -3.926   1.756   0.662  1.00  0.00     0.388 C 
HETATM   10  O3  UNL     1      -5.046   2.369   0.764  1.00  0.00    -0.236 OA
HETATM   11  C12 UNL     1      -1.495  -0.065   0.405  1.00  0.00     0.073 C 
ENDROOT
BRANCH   1  12
HETATM   12  C4  UNL     1       0.916  -0.526  -0.011  1.00  0.00    -0.046 A 
HETATM   13  C3  UNL     1       1.335   0.779  -0.128  1.00  0.00     0.047 A 
HETATM   14  C2  UNL     1       2.647   1.114   0.224  1.00  0.00     0.104 A 
HETATM   15  C16 UNL     1       3.509   0.142   0.683  1.00  0.00     0.135 A 
HETATM   16  C14 UNL     1       3.070  -1.165   0.793  1.00  0.00     0.104 A 
HETATM   17  C13 UNL     1       1.776  -1.501   0.448  1.00  0.00     0.047 A 
BRANCH  14  18
HETATM   18  O1  UNL     1       3.105   2.400   0.123  1.00  0.00    -0.353 OA
HETATM   19  C1  UNL     1       2.248   3.427  -0.345  1.00  0.00     0.210 C 
ENDBRANCH  14  18
BRANCH  15  20
HETATM   20  O7  UNL     1       4.822   0.438   1.042  1.00  0.00    -0.351 OA
HETATM   21  C17 UNL     1       5.883   0.384   0.119  1.00  0.00     0.210 C 
ENDBRANCH  15  20
BRANCH  16  22
HETATM   22  O6  UNL     1       3.914  -2.140   1.247  1.00  0.00    -0.353 OA
HETATM   23  C15 UNL     1       3.505  -3.469   1.372  1.00  0.00     0.210 C 
ENDBRANCH  16  22
ENDBRANCH   1  12
BRANCH   9  24
HETATM   24  O4  UNL     1      -2.962   2.212   1.549  1.00  0.00    -0.160 OA
BRANCH  24  25
HETATM   25  N2  UNL     1      -3.179   3.222   2.452  1.00  0.00    -0.164 N 
ATOM     26  H2  UNL     1      -2.794   4.154   2.295  1.00  0.00     0.224 HD
BRANCH  25  27
HETATM   27  O5  UNL     1      -3.856   2.976   3.468  1.00  0.00    -0.269 OA
ATOM     28  H5  UNL     1      -4.006   3.675   4.093  1.00  0.00     0.246 HD
ENDBRANCH  25  27
ENDBRANCH  24  25
ENDBRANCH   9  24
TORSDOF 7
