REMARK  7 active torsions:
REMARK  status: ('A' for Active; 'I' for Inactive)
REMARK    1  A    between atoms: N1_2  and  C1_4 
REMARK    2  A    between atoms: C2_7  and  C3_8 
REMARK    3  A    between atoms: C9_15  and  S1_16 
REMARK    4  A    between atoms: S1_16  and  C10_17 
REMARK    5  A    between atoms: C10_17  and  C11_18 
REMARK    6  A    between atoms: C11_18  and  N4_23 
REMARK    7  A    between atoms: N3_19  and  O4_21 
ROOT
HETATM    1  C1  UNL     1      -1.227   1.241  -1.264  1.00  0.00     0.216 A 
HETATM    2  N2  UNL     1      -2.446   0.780  -0.932  1.00  0.00    -0.318 N 
ATOM      3  H2  UNL     1      -3.201   0.554  -1.579  1.00  0.00     0.169 HD
HETATM    4  C2  UNL     1      -2.490   0.670   0.413  1.00  0.00     0.131 A 
HETATM    5  O3  UNL     1      -1.339   1.051   0.860  1.00  0.00    -0.286 OA
HETATM    6  C9  UNL     1      -0.514   1.414  -0.094  1.00  0.00     0.164 A 
ENDROOT
BRANCH   6   7
HETATM    7  S1  UNL     1       1.167   2.006   0.061  1.00  0.00    -0.093 SA
BRANCH   7   8
HETATM    8  C10 UNL     1       2.275   0.601  -0.012  1.00  0.00     0.159 C 
BRANCH   8   9
HETATM    9  C11 UNL     1       3.705   0.962   0.105  1.00  0.00     0.109 C 
HETATM   10  N3  UNL     1       4.149   2.149   0.241  1.00  0.00    -0.256 N 
ATOM     11  H3  UNL     1       5.161   2.260   0.309  1.00  0.00     0.195 HD
BRANCH  10  12
HETATM   12  O4  UNL     1       3.396   3.284   0.304  1.00  0.00    -0.288 OA
ATOM     13  H4  UNL     1       3.727   4.169   0.405  1.00  0.00     0.244 HD
ENDBRANCH  10  12
BRANCH   9  14
HETATM   14  N4  UNL     1       4.648  -0.107   0.058  1.00  0.00    -0.369 N 
HETATM   15  C12 UNL     1       4.466  -1.457  -0.444  1.00  0.00     0.124 C 
HETATM   16  C13 UNL     1       5.038  -2.268   0.719  1.00  0.00     0.021 C 
HETATM   17  C14 UNL     1       6.175  -1.394   1.203  1.00  0.00     0.021 C 
HETATM   18  C15 UNL     1       6.022  -0.060   0.518  1.00  0.00     0.124 C 
ENDBRANCH   9  14
ENDBRANCH   8   9
ENDBRANCH   7   8
ENDBRANCH   6   7
BRANCH   1  19
HETATM   19  N1  UNL     1      -0.745   1.507  -2.584  1.00  0.00    -0.094 N 
HETATM   20  O1  UNL     1       0.083   2.423  -2.748  1.00  0.00    -0.530 OA
HETATM   21  O2  UNL     1      -1.179   0.772  -3.654  1.00  0.00    -0.530 OA
ENDBRANCH   1  19
BRANCH   4  22
HETATM   22  C3  UNL     1      -3.685   0.189   1.160  1.00  0.00     0.061 C 
HETATM   23  C4  UNL     1      -3.963  -1.242   0.839  1.00  0.00     0.013 C 
HETATM   24  C5  UNL     1      -4.514  -1.493  -0.527  1.00  0.00     0.001 C 
HETATM   25  C6  UNL     1      -5.616  -0.528  -0.849  1.00  0.00     0.000 C 
HETATM   26  C7  UNL     1      -6.041   0.208   0.391  1.00  0.00     0.001 C 
HETATM   27  C8  UNL     1      -4.891   1.032   0.924  1.00  0.00     0.013 C 
ENDBRANCH   4  22
TORSDOF 7
