REMARK  8 active torsions:
REMARK  status: ('A' for Active; 'I' for Inactive)
REMARK    1  A    between atoms: C2_2  and  O1_3 
REMARK    2  A    between atoms: O1_3  and  C3_4 
REMARK    3  A    between atoms: C3_4  and  C4_6 
REMARK    4  A    between atoms: C6_10  and  C7_11 
REMARK    5  A    between atoms: N4_19  and  C12_20 
REMARK    6  A    between atoms: C13_21  and  C14_22 
REMARK    7  A    between atoms: C14_22  and  O4_24 
REMARK    8  A    between atoms: O4_24  and  C15_25 
ROOT
HETATM    1  C4  UNL     1      -1.158  -1.164  -0.320  1.00  0.00     0.254 C 
HETATM    2  C5  UNL     1      -2.616  -1.403  -0.023  1.00  0.00     0.133 A 
HETATM    3  N1  UNL     1      -3.349  -2.451  -0.375  1.00  0.00    -0.331 N 
ATOM      4  H1  UNL     1      -3.036  -3.263  -0.908  1.00  0.00     0.168 HD
HETATM    5  C6  UNL     1      -4.581  -2.235   0.106  1.00  0.00     0.097 A 
HETATM    6  N2  UNL     1      -4.582  -1.072   0.737  1.00  0.00    -0.285 N 
ATOM      7  H2  UNL     1      -5.386  -0.651   1.203  1.00  0.00     0.188 HD
HETATM    8  N3  UNL     1      -3.381  -0.547   0.667  1.00  0.00    -0.276 N 
HETATM    9  C9  UNL     1      -3.040   0.731   1.257  1.00  0.00     0.152 C 
HETATM   10  C10 UNL     1      -2.003   0.660   2.326  1.00  0.00     0.042 C 
HETATM   11  C11 UNL     1      -0.989  -0.422   2.174  1.00  0.00     0.125 C 
HETATM   12  N4  UNL     1      -0.500  -0.613   0.837  1.00  0.00    -0.370 N 
ENDROOT
BRANCH  12  13
HETATM   13  C12 UNL     1       0.835  -0.196   0.626  1.00  0.00     0.093 C 
HETATM   14  C13 UNL     1       1.317   0.960   0.966  1.00  0.00     0.099 C 
BRANCH  14  15
HETATM   15  C14 UNL     1       2.702   1.283   0.701  1.00  0.00     0.284 C 
HETATM   16  O3  UNL     1       3.159   2.387   1.026  1.00  0.00    -0.260 OA
BRANCH  15  17
HETATM   17  O4  UNL     1       3.547   0.371   0.080  1.00  0.00    -0.308 OA
BRANCH  17  18
HETATM   18  C15 UNL     1       4.879   0.708  -0.163  1.00  0.00     0.060 C 
HETATM   19  C16 UNL     1       5.574  -0.473  -0.851  1.00  0.00     0.046 C 
HETATM   20  C17 UNL     1       5.015   1.893  -1.123  1.00  0.00     0.046 C 
HETATM   21  C18 UNL     1       5.623   1.035   1.091  1.00  0.00     0.046 C 
ENDBRANCH  17  18
ENDBRANCH  15  17
ENDBRANCH  14  15
ENDBRANCH  12  13
BRANCH   1  22
HETATM   22  C3  UNL     1      -1.112  -0.264  -1.498  1.00  0.00     0.289 C 
HETATM   23  O2  UNL     1      -1.670  -0.689  -2.547  1.00  0.00    -0.262 OA
BRANCH  22  24
HETATM   24  O1  UNL     1      -0.522   0.967  -1.531  1.00  0.00    -0.320 OA
BRANCH  24  25
HETATM   25  C2  UNL     1      -0.547   1.725  -2.715  1.00  0.00     0.174 C 
HETATM   26  C1  UNL     1       0.151   3.052  -2.565  1.00  0.00     0.034 C 
ENDBRANCH  24  25
ENDBRANCH  22  24
ENDBRANCH   1  22
BRANCH   5  27
HETATM   27  C7  UNL     1      -5.729  -3.168  -0.062  1.00  0.00     0.073 C 
HETATM   28  C8  UNL     1      -5.772  -4.145   1.081  1.00  0.00     0.013 C 
ENDBRANCH   5  27
TORSDOF 8
