REMARK  4 active torsions:
REMARK  status: ('A' for Active; 'I' for Inactive)
REMARK    1  A    between atoms: C8_8  and  O1_9 
REMARK    2  A    between atoms: O1_9  and  C9_10 
REMARK    3  A    between atoms: C9_10  and  N2_14 
REMARK    4  A    between atoms: N2_14  and  C11_16 
ROOT
HETATM    1  C1  UNL     1       4.815  -1.334  -0.012  1.00  0.00     0.022 C 
HETATM    2  C2  UNL     1       3.648  -0.844  -0.396  1.00  0.00    -0.022 C 
HETATM    3  C3  UNL     1       3.608   0.441  -1.121  1.00  0.00     0.041 C 
HETATM    4  C4  UNL     1       3.265   1.615  -0.264  1.00  0.00     0.005 C 
HETATM    5  C5  UNL     1       2.942   1.280   1.154  1.00  0.00     0.000 C 
HETATM    6  C6  UNL     1       1.443   1.251   1.410  1.00  0.00     0.002 C 
HETATM    7  C7  UNL     1       1.067  -0.128   1.949  1.00  0.00     0.033 C 
HETATM    8  C8  UNL     1       0.302  -0.915   0.905  1.00  0.00     0.139 C 
HETATM    9  C14 UNL     1       1.112  -1.073  -0.363  1.00  0.00     0.116 C 
HETATM   10  C15 UNL     1       2.456  -1.615  -0.074  1.00  0.00     0.157 C 
HETATM   11  O2  UNL     1       2.538  -2.771   0.462  1.00  0.00    -0.293 OA
ENDROOT
BRANCH   8  12
HETATM   12  O1  UNL     1      -0.863  -0.182   0.609  1.00  0.00    -0.317 OA
BRANCH  12  13
HETATM   13  C9  UNL     1      -1.798  -0.621  -0.315  1.00  0.00     0.215 C 
HETATM   14  N1  UNL     1      -1.935  -1.887  -0.492  1.00  0.00    -0.361 N 
HETATM   15  C10 UNL     1      -2.853  -2.496  -1.405  1.00  0.00     0.150 C 
ATOM     16  H1  UNL     1      -1.343  -2.506   0.062  1.00  0.00     0.162 HD
BRANCH  13  17
HETATM   17  N2  UNL     1      -2.549   0.361  -1.012  1.00  0.00    -0.353 N 
ATOM     18  H2  UNL     1      -2.121   0.895  -1.768  1.00  0.00     0.163 HD
BRANCH  17  19
HETATM   19  C11 UNL     1      -3.939   0.599  -0.637  1.00  0.00     0.076 C 
HETATM   20  C12 UNL     1      -4.553   1.676  -1.495  1.00  0.00     0.032 C 
HETATM   21  C13 UNL     1      -4.043   0.965   0.836  1.00  0.00     0.032 C 
ENDBRANCH  17  19
ENDBRANCH  13  17
ENDBRANCH  12  13
ENDBRANCH   8  12
TORSDOF 4
