REMARK  5 active torsions:
REMARK  status: ('A' for Active; 'I' for Inactive)
REMARK    1  A    between atoms: C2_2  and  O2_4 
REMARK    2  A    between atoms: O2_4  and  C3_5 
REMARK    3  A    between atoms: C3_5  and  C4_6 
REMARK    4  A    between atoms: C7_12  and  N2_13 
REMARK    5  A    between atoms: N2_13  and  C8_15 
ROOT
HETATM    1  C4  UNL     1       2.002  -1.432   0.300  1.00  0.00     0.043 A 
HETATM    2  C5  UNL     1       1.909  -2.809   0.029  1.00  0.00     0.041 A 
HETATM    3  C6  UNL     1       3.037  -3.772   0.018  1.00  0.00     0.071 C 
HETATM    4  N1  UNL     1       0.626  -3.088  -0.216  1.00  0.00    -0.263 N 
ATOM      5  H1  UNL     1       0.250  -4.008  -0.445  1.00  0.00     0.194 HD
HETATM    6  O3  UNL     1      -0.054  -2.005  -0.115  1.00  0.00    -0.219 OA
HETATM    7  C7  UNL     1       0.714  -0.988   0.191  1.00  0.00     0.177 A 
ENDROOT
BRANCH   7   8
HETATM    8  N2  UNL     1       0.345   0.239   0.372  1.00  0.00    -0.364 N 
ATOM      9  H2  UNL     1       1.078   0.907   0.611  1.00  0.00     0.162 HD
BRANCH   8  10
HETATM   10  C8  UNL     1      -0.978   0.753   0.272  1.00  0.00     0.083 C 
HETATM   11  C9  UNL     1      -1.382   1.081  -1.150  1.00  0.00     0.025 C 
HETATM   12  C10 UNL     1      -2.377   2.214  -1.108  1.00  0.00     0.002 C 
HETATM   13  C11 UNL     1      -3.621   1.871  -0.336  1.00  0.00     0.000 C 
HETATM   14  C12 UNL     1      -4.044   0.438  -0.512  1.00  0.00     0.000 C 
HETATM   15  C13 UNL     1      -3.120  -0.571   0.053  1.00  0.00     0.002 C 
HETATM   16  C14 UNL     1      -2.042  -0.044   0.936  1.00  0.00     0.025 C 
ENDBRANCH   8  10
ENDBRANCH   7   8
BRANCH   1  17
HETATM   17  C3  UNL     1       3.281  -0.829   0.662  1.00  0.00     0.224 C 
BRANCH  17  18
HETATM   18  O2  UNL     1       3.377   0.521   0.829  1.00  0.00    -0.317 OA
BRANCH  18  19
HETATM   19  C2  UNL     1       3.257   1.499  -0.137  1.00  0.00     0.255 C 
HETATM   20  C1  UNL     1       3.361   2.957   0.195  1.00  0.00     0.126 C 
HETATM   21  O1  UNL     1       3.056   1.154  -1.324  1.00  0.00    -0.266 OA
ENDBRANCH  18  19
ENDBRANCH  17  18
ENDBRANCH   1  17
TORSDOF 5
