REMARK  9 active torsions:
REMARK  status: ('A' for Active; 'I' for Inactive)
REMARK    1  A    between atoms: C2_5  and  O2_6 
REMARK    2  A    between atoms: N2_10  and  C4_11 
REMARK    3  A    between atoms: N3_14  and  C7_15 
REMARK    4  A    between atoms: C7_15  and  C8_16 
REMARK    5  A    between atoms: C8_16  and  C9_17 
REMARK    6  A    between atoms: N4_20  and  C12_21 
REMARK    7  A    between atoms: N5_24  and  C15_25 
REMARK    8  A    between atoms: C15_25  and  C16_26 
REMARK    9  A    between atoms: C16_26  and  C17_27 
ROOT
HETATM    1  C9  UNL     1      -1.314   0.418  -1.497  1.00  0.00     0.024 C 
HETATM    2  C10 UNL     1      -0.997   0.756  -0.066  1.00  0.00     0.027 C 
HETATM    3  C11 UNL     1       0.518   0.948  -0.013  1.00  0.00     0.118 C 
HETATM    4  N4  UNL     1       1.213  -0.108  -0.639  1.00  0.00    -0.405 N 
HETATM    5  C23 UNL     1       0.475  -1.239  -1.035  1.00  0.00     0.154 C 
HETATM    6  C24 UNL     1      -0.559  -0.730  -2.065  1.00  0.00     0.191 C 
HETATM    7  F1  UNL     1      -1.299  -1.754  -2.577  1.00  0.00    -0.247 F 
ENDROOT
BRANCH   1   8
HETATM    8  C8  UNL     1      -2.766   0.363  -1.838  1.00  0.00     0.038 C 
BRANCH   8   9
HETATM    9  C7  UNL     1      -3.625  -0.573  -1.115  1.00  0.00     0.273 C 
BRANCH   9  10
HETATM   10  N3  UNL     1      -3.813  -0.432   0.287  1.00  0.00     0.088 N 
HETATM   11  C6  UNL     1      -4.557  -1.540   0.861  1.00  0.00     0.274 C 
HETATM   12  C5  UNL     1      -5.945  -1.238   1.280  1.00  0.00     0.056 C 
HETATM   13  C4  UNL     1      -6.663  -0.310   0.330  1.00  0.00     0.099 C 
HETATM   14  C26 UNL     1      -5.865   0.968   0.239  1.00  0.00     0.056 C 
HETATM   15  C25 UNL     1      -4.434   0.775   0.728  1.00  0.00     0.274 C 
BRANCH  13  16
HETATM   16  N2  UNL     1      -7.986  -0.011   0.787  1.00  0.00    -0.281 N 
HETATM   17  C1  UNL     1      -8.687  -0.394   1.840  1.00  0.00     0.330 A 
HETATM   18  O1  UNL     1      -8.273  -1.173   2.730  1.00  0.00    -0.246 OA
HETATM   19  N1  UNL     1      -9.920   0.149   1.863  1.00  0.00    -0.286 N 
HETATM   20  C2  UNL     1     -10.027   0.921   0.776  1.00  0.00     0.184 A 
ATOM     21  H1  UNL     1     -10.636  -0.000   2.574  1.00  0.00     0.172 HD
HETATM   22  C3  UNL     1      -8.817   0.824   0.099  1.00  0.00     0.161 A 
HETATM   23 CL1  UNL     1      -8.515   1.684  -1.398  1.00  0.00    -0.059 Cl
BRANCH  20  24
HETATM   24  O2  UNL     1     -11.136   1.677   0.392  1.00  0.00    -0.344 OA
ATOM     25  H2  UNL     1     -11.212   2.225  -0.380  1.00  0.00     0.219 HD
ENDBRANCH  20  24
ENDBRANCH  13  16
ENDBRANCH   9  10
ENDBRANCH   8   9
ENDBRANCH   1   8
BRANCH   4  26
HETATM   26  C12 UNL     1       2.565  -0.194  -0.317  1.00  0.00     0.088 C 
HETATM   27  C13 UNL     1       3.261   1.064  -0.811  1.00  0.00     0.069 C 
HETATM   28  C14 UNL     1       4.705   1.067  -0.482  1.00  0.00     0.065 C 
HETATM   29  N5  UNL     1       5.401  -0.138  -0.609  1.00  0.00    -0.374 N 
HETATM   30  C21 UNL     1       4.718  -1.345  -0.431  1.00  0.00     0.065 C 
HETATM   31  C22 UNL     1       3.297  -1.365  -0.927  1.00  0.00     0.069 C 
BRANCH  29  32
HETATM   32  C15 UNL     1       6.669  -0.142  -1.237  1.00  0.00     0.127 C 
BRANCH  32  33
HETATM   33  C16 UNL     1       7.618   0.623  -0.299  1.00  0.00     0.024 C 
BRANCH  33  34
HETATM   34  C17 UNL     1       7.640  -0.095   1.038  1.00  0.00    -0.013 C 
HETATM   35  C18 UNL     1       8.544   0.568   2.059  1.00  0.00     0.005 C 
HETATM   36  C19 UNL     1       9.640  -0.389   1.625  1.00  0.00     0.001 C 
HETATM   37  C20 UNL     1       8.556  -1.297   1.066  1.00  0.00     0.005 C 
ENDBRANCH  33  34
ENDBRANCH  32  33
ENDBRANCH  29  32
ENDBRANCH   4  26
TORSDOF 9
