REMARK  15 active torsions:
REMARK  status: ('A' for Active; 'I' for Inactive)
REMARK    1  A    between atoms: C2_2  and  O1_4 
REMARK    2  A    between atoms: C2_2  and  C4_6 
REMARK    3  A    between atoms: C4_6  and  O2_7 
REMARK    4  A    between atoms: C4_6  and  C5_9 
REMARK    5  A    between atoms: C5_9  and  O3_10 
REMARK    6  A    between atoms: C5_9  and  C6_12 
REMARK    7  A    between atoms: C6_12  and  O4_13 
REMARK    8  A    between atoms: C6_12  and  C7_15 
REMARK    9  A    between atoms: C7_15  and  O5_16 
REMARK   10  A    between atoms: C7_15  and  N1_18 
REMARK   11  A    between atoms: C8_20  and  C9_21 
REMARK   12  A    between atoms: N4_26  and  C10_27 
REMARK   13  A    between atoms: C11_31  and  O6_32 
REMARK   14  A    between atoms: C12_37  and  O7_38 
REMARK   15  A    between atoms: C14_42  and  O9_43 
ROOT
HETATM    1  C9  UNL     1       1.605   1.354  -0.234  1.00  0.00     0.103 A 
HETATM    2  N2  UNL     1       1.528   0.033  -0.587  1.00  0.00    -0.282 N 
ATOM      3  H2  UNL     1       0.618  -0.360  -0.826  1.00  0.00     0.188 HD
HETATM    4  N3  UNL     1       2.585  -0.746  -0.629  1.00  0.00    -0.235 N 
ATOM      5  H3  UNL     1       2.443  -1.719  -0.902  1.00  0.00     0.208 HD
HETATM    6  N4  UNL     1       3.823  -0.363  -0.343  1.00  0.00    -0.204 N 
HETATM    7  C13 UNL     1       3.946   0.928   0.009  1.00  0.00     0.300 A 
HETATM    8  O8  UNL     1       5.048   1.403   0.298  1.00  0.00    -0.263 OA
HETATM    9  C14 UNL     1       2.860   1.815   0.074  1.00  0.00     0.166 A 
ENDROOT
BRANCH   1  10
HETATM   10  C8  UNL     1       0.392   2.156  -0.210  1.00  0.00     0.119 C 
HETATM   11  N1  UNL     1      -0.743   1.664  -0.509  1.00  0.00    -0.369 N 
ATOM     12  H1  UNL     1      -0.804   0.681  -0.773  1.00  0.00     0.161 HD
BRANCH  11  13
HETATM   13  C7  UNL     1      -1.934   2.453  -0.485  1.00  0.00     0.249 C 
BRANCH  13  14
HETATM   14  C6  UNL     1      -3.010   1.695   0.279  1.00  0.00     0.197 C 
BRANCH  14  15
HETATM   15  C5  UNL     1      -3.366   0.400  -0.423  1.00  0.00     0.182 C 
BRANCH  15  16
HETATM   16  C4  UNL     1      -4.588  -0.158   0.287  1.00  0.00     0.183 C 
BRANCH  16  17
HETATM   17  C2  UNL     1      -5.138  -1.373  -0.408  1.00  0.00     0.079 C 
HETATM   18  C1  UNL     1      -4.209  -2.549  -0.319  1.00  0.00     0.048 C 
HETATM   19  C3  UNL     1      -6.437  -1.740   0.293  1.00  0.00     0.048 C 
BRANCH  17  20
HETATM   20  O1  UNL     1      -5.474  -1.098  -1.736  1.00  0.00    -0.388 OA
ATOM     21  H1  UNL     1      -6.062  -0.354  -1.792  1.00  0.00     0.210 HD
ENDBRANCH  17  20
ENDBRANCH  16  17
BRANCH  16  22
HETATM   22  O2  UNL     1      -4.280  -0.519   1.599  1.00  0.00    -0.390 OA
ATOM     23  H2  UNL     1      -3.933   0.248   2.038  1.00  0.00     0.210 HD
ENDBRANCH  16  22
ENDBRANCH  15  16
BRANCH  15  24
HETATM   24  O3  UNL     1      -3.750   0.736  -1.718  1.00  0.00    -0.390 OA
ATOM     25  H3  UNL     1      -2.986   1.085  -2.162  1.00  0.00     0.210 HD
ENDBRANCH  15  24
ENDBRANCH  14  15
BRANCH  14  26
HETATM   26  O4  UNL     1      -4.143   2.502   0.274  1.00  0.00    -0.389 OA
ATOM     27  H4  UNL     1      -3.920   3.314   0.714  1.00  0.00     0.210 HD
ENDBRANCH  14  26
ENDBRANCH  13  14
BRANCH  13  28
HETATM   28  O5  UNL     1      -1.729   3.659   0.207  1.00  0.00    -0.374 OA
ATOM     29  H5  UNL     1      -1.057   4.132  -0.270  1.00  0.00     0.212 HD
ENDBRANCH  13  28
ENDBRANCH  11  13
ENDBRANCH   1  10
BRANCH   9  30
HETATM   30  O9  UNL     1       3.042   3.125   0.441  1.00  0.00    -0.354 OA
ATOM     31  H9  UNL     1       3.911   3.444   0.654  1.00  0.00     0.218 HD
ENDBRANCH   9  30
BRANCH   6  32
HETATM   32  C10 UNL     1       4.925  -1.277  -0.413  1.00  0.00     0.372 C 
HETATM   33  N5  UNL     1       5.639  -1.466   0.804  1.00  0.00     0.004 N 
HETATM   34  C11 UNL     1       6.901  -2.011   0.329  1.00  0.00     0.527 C 
ATOM     35  H52 UNL     1       5.720  -0.636   1.392  1.00  0.00     0.285 HD
ATOM     36  H51 UNL     1       5.159  -2.032   1.504  1.00  0.00     0.285 HD
HETATM   37  N6  UNL     1       7.189  -1.071  -0.768  1.00  0.00     0.007 N 
HETATM   38  C12 UNL     1       5.910  -1.011  -1.492  1.00  0.00     0.376 C 
ATOM     39  H62 UNL     1       7.553  -0.166  -0.470  1.00  0.00     0.285 HD
ATOM     40  H61 UNL     1       7.994  -1.320  -1.343  1.00  0.00     0.285 HD
BRANCH  34  41
HETATM   41  O6  UNL     1       6.723  -3.286  -0.233  1.00  0.00    -0.349 OA
ATOM     42  H6  UNL     1       7.547  -3.642  -0.543  1.00  0.00     0.213 HD
ENDBRANCH  34  41
BRANCH  38  43
HETATM   43  O7  UNL     1       5.746   0.141  -2.198  1.00  0.00    -0.367 OA
ATOM     44  H7  UNL     1       6.376   0.311  -2.888  1.00  0.00     0.212 HD
ENDBRANCH  38  43
ENDBRANCH   6  32
TORSDOF 15
