REMARK  12 active torsions:
REMARK  status: ('A' for Active; 'I' for Inactive)
REMARK    1  A    between atoms: C2_6  and  C3_7 
REMARK    2  A    between atoms: C3_7  and  O2_8 
REMARK    3  A    between atoms: C3_7  and  N2_10 
REMARK    4  A    between atoms: N2_10  and  C4_12 
REMARK    5  A    between atoms: C4_12  and  C5_13 
REMARK    6  A    between atoms: C4_12  and  C6_18 
REMARK    7  A    between atoms: C5_13  and  O3_14 
REMARK    8  A    between atoms: O3_14  and  N3_15 
REMARK    9  A    between atoms: N5_26  and  N6_27 
REMARK   10  A    between atoms: N6_27  and  C9_29 
REMARK   11  A    between atoms: C11_33  and  N8_34 
REMARK   12  A    between atoms: C12_38  and  O8_39 
ROOT
HETATM    1  N1  UNL     1      -0.052   1.508   1.767  1.00  0.00    -0.380 N 
ATOM      2  H11 UNL     1       0.909   1.844   1.835  1.00  0.00     0.158 HD
ATOM      3  H12 UNL     1      -0.656   1.931   2.471  1.00  0.00     0.158 HD
HETATM    4  C1  UNL     1      -0.455   0.682   0.928  1.00  0.00     0.158 C 
HETATM    5  O1  UNL     1      -1.793   0.214   0.833  1.00  0.00    -0.317 OA
HETATM    6  C2  UNL     1      -2.056  -1.058   0.279  1.00  0.00     0.270 C 
HETATM    7  C7  UNL     1      -0.872  -1.918   0.329  1.00  0.00     0.264 C 
HETATM    8  O6  UNL     1      -0.879  -3.199   0.298  1.00  0.00    -0.270 OA
HETATM    9  N4  UNL     1       0.428  -1.363   0.402  1.00  0.00    -0.234 N 
HETATM   10  C8  UNL     1       1.802  -1.149   0.619  1.00  0.00     0.351 C 
HETATM   11  O7  UNL     1       2.697  -1.854   1.225  1.00  0.00    -0.245 OA
HETATM   12  N5  UNL     1       1.811   0.089  -0.058  1.00  0.00    -0.195 N 
HETATM   13  C13 UNL     1       0.424   0.066  -0.097  1.00  0.00     0.300 C 
ENDROOT
BRANCH  12  14
HETATM   14  N6  UNL     1       2.844   0.926  -0.509  1.00  0.00    -0.124 N 
ATOM     15  H6  UNL     1       2.651   1.724  -1.114  1.00  0.00     0.206 HD
BRANCH  14  16
HETATM   16  C9  UNL     1       4.190   0.618  -0.086  1.00  0.00     0.691 C 
HETATM   17  N7  UNL     1       4.749  -0.492  -0.440  1.00  0.00    -0.223 N 
HETATM   18  C10 UNL     1       6.093  -0.764   0.018  1.00  0.00     0.175 C 
ATOM     19  H7  UNL     1       4.253  -1.161  -1.029  1.00  0.00     0.177 HD
HETATM   20  C11 UNL     1       6.988   0.427   0.036  1.00  0.00     0.250 C 
HETATM   21  C12 UNL     1       6.355   1.678   0.577  1.00  0.00     0.267 C 
HETATM   22  N9  UNL     1       4.908   1.514   0.728  1.00  0.00    -0.197 N 
ATOM     23  H9  UNL     1       4.412   2.058   1.434  1.00  0.00     0.180 HD
BRANCH  20  24
HETATM   24  N8  UNL     1       7.667   0.651  -1.229  1.00  0.00    -0.069 N 
ATOM     25  H83 UNL     1       8.178  -0.183  -1.520  1.00  0.00     0.275 HD
ATOM     26  H82 UNL     1       6.996   0.712  -1.995  1.00  0.00     0.275 HD
ATOM     27  H81 UNL     1       8.280   1.466  -1.217  1.00  0.00     0.275 HD
ENDBRANCH  20  24
BRANCH  21  28
HETATM   28  O8  UNL     1       6.517   2.675  -0.398  1.00  0.00    -0.374 OA
ATOM     29  H8  UNL     1       6.117   3.466  -0.056  1.00  0.00     0.212 HD
ENDBRANCH  21  28
ENDBRANCH  14  16
ENDBRANCH  12  14
BRANCH   6  30
HETATM   30  C3  UNL     1      -3.307  -1.646   0.867  1.00  0.00     0.253 C 
BRANCH  30  31
HETATM   31  O2  UNL     1      -3.412  -2.943   0.250  1.00  0.00    -0.374 OA
ATOM     32  H2  UNL     1      -4.203  -3.315   0.622  1.00  0.00     0.212 HD
ENDBRANCH  30  31
BRANCH  30  33
HETATM   33  N2  UNL     1      -4.443  -0.959   0.537  1.00  0.00    -0.379 N 
ATOM     34  H2  UNL     1      -5.106  -1.556   0.043  1.00  0.00     0.156 HD
BRANCH  33  35
HETATM   35  C4  UNL     1      -4.929   0.296   0.686  1.00  0.00     0.207 C 
BRANCH  35  36
HETATM   36  C5  UNL     1      -6.479   0.289   0.920  1.00  0.00     0.236 C 
BRANCH  36  37
HETATM   37  O3  UNL     1      -7.048  -0.394  -0.064  1.00  0.00    -0.285 OA
BRANCH  37  38
HETATM   38  N3  UNL     1      -8.272  -0.603  -0.288  1.00  0.00    -0.311 N 
ATOM     39  H32 UNL     1      -8.900  -0.179   0.395  1.00  0.00     0.184 HD
ATOM     40  H31 UNL     1      -8.710  -1.128  -1.045  1.00  0.00     0.184 HD
ENDBRANCH  37  38
ENDBRANCH  36  37
ENDBRANCH  35  36
BRANCH  35  41
HETATM   41  C6  UNL     1      -4.678   1.164  -0.471  1.00  0.00     0.198 C 
HETATM   42  O4  UNL     1      -3.883   2.098  -0.500  1.00  0.00    -0.646 OA
HETATM   43  O5  UNL     1      -5.414   0.889  -1.664  1.00  0.00    -0.646 OA
ENDBRANCH  35  41
ENDBRANCH  33  35
ENDBRANCH  30  33
ENDBRANCH   6  30
TORSDOF 12
