REMARK  14 active torsions:
REMARK  status: ('A' for Active; 'I' for Inactive)
REMARK    1  A    between atoms: N1_1  and  C1_4 
REMARK    2  A    between atoms: N4_9  and  C2_10 
REMARK    3  A    between atoms: C3_12  and  C4_13 
REMARK    4  A    between atoms: C4_13  and  O2_14 
REMARK    5  A    between atoms: C4_13  and  C10_29 
REMARK    6  A    between atoms: O2_14  and  C5_15 
REMARK    7  A    between atoms: C5_15  and  C6_17 
REMARK    8  A    between atoms: C9_23  and  N6_24 
REMARK    9  A    between atoms: C10_29  and  N8_30 
REMARK   10  A    between atoms: C10_29  and  C11_34 
REMARK   11  A    between atoms: C11_34  and  O5_35 
REMARK   12  A    between atoms: C11_34  and  C12_37 
REMARK   13  A    between atoms: C12_37  and  O6_38 
REMARK   14  A    between atoms: C14_41  and  O7_42 
ROOT
HETATM    1  C4  UNL     1      -0.056   0.510   0.105  1.00  0.00     0.194 C 
ENDROOT
BRANCH   1   2
HETATM    2  C3  UNL     1      -1.008   0.059  -0.982  1.00  0.00     0.158 C 
HETATM    3  O1  UNL     1      -2.292   0.265  -0.604  1.00  0.00    -0.353 OA
HETATM    4  C2  UNL     1      -2.879  -0.956  -0.305  1.00  0.00     0.293 C 
HETATM    5  C14 UNL     1      -2.314  -1.819  -1.441  1.00  0.00     0.172 C 
HETATM    6  C13 UNL     1      -0.840  -1.396  -1.342  1.00  0.00     0.071 C 
BRANCH   4   7
HETATM    7  N4  UNL     1      -4.311  -0.914  -0.355  1.00  0.00    -0.172 N 
HETATM    8  N3  UNL     1      -5.069  -1.700   0.426  1.00  0.00    -0.209 N 
HETATM    9  N2  UNL     1      -6.327  -1.454   0.173  1.00  0.00    -0.115 N 
ATOM     10  H3  UNL     1      -4.721  -2.377   1.105  1.00  0.00     0.210 HD
HETATM   11  C1  UNL     1      -6.345  -0.503  -0.777  1.00  0.00     0.707 A 
ATOM     12  H2  UNL     1      -7.136  -1.896   0.610  1.00  0.00     0.207 HD
HETATM   13  N9  UNL     1      -5.085  -0.160  -1.113  1.00  0.00    -0.111 N 
ATOM     14  H9  UNL     1      -4.793   0.532  -1.803  1.00  0.00     0.207 HD
BRANCH  11  15
HETATM   15  N1  UNL     1      -7.428   0.006  -1.292  1.00  0.00    -0.232 N 
ATOM     16  H12 UNL     1      -8.381  -0.253  -1.038  1.00  0.00     0.174 HD
ATOM     17  H11 UNL     1      -7.442   0.728  -2.013  1.00  0.00     0.174 HD
ENDBRANCH  11  15
ENDBRANCH   4   7
BRANCH   5  18
HETATM   18  O7  UNL     1      -2.894  -1.363  -2.614  1.00  0.00    -0.391 OA
ATOM     19  H7  UNL     1      -2.544  -1.897  -3.317  1.00  0.00     0.210 HD
ENDBRANCH   5  18
ENDBRANCH   1   2
BRANCH   1  20
HETATM   20  O2  UNL     1       1.287   0.245  -0.303  1.00  0.00    -0.306 OA
BRANCH  20  21
HETATM   21  C5  UNL     1       2.091  -0.637   0.411  1.00  0.00     0.311 C 
HETATM   22  O3  UNL     1       1.564  -1.174   1.420  1.00  0.00    -0.258 OA
BRANCH  21  23
HETATM   23  C6  UNL     1       3.455  -0.940   0.041  1.00  0.00     0.129 A 
HETATM   24  C7  UNL     1       4.058  -0.368  -1.058  1.00  0.00     0.111 A 
HETATM   25  C8  UNL     1       5.381  -0.727  -1.331  1.00  0.00     0.261 A 
HETATM   26  O4  UNL     1       5.958  -0.220  -2.328  1.00  0.00    -0.268 OA
HETATM   27  N5  UNL     1       6.056  -1.596  -0.561  1.00  0.00    -0.156 N 
HETATM   28  C9  UNL     1       5.437  -2.135   0.503  1.00  0.00     0.679 A 
ATOM     29  H5  UNL     1       7.021  -1.842  -0.780  1.00  0.00     0.187 HD
HETATM   30  N7  UNL     1       4.162  -1.803   0.784  1.00  0.00    -0.186 N 
ATOM     31  H7  UNL     1       3.715  -2.227   1.597  1.00  0.00     0.184 HD
BRANCH  28  32
HETATM   32  N6  UNL     1       6.085  -2.978   1.252  1.00  0.00    -0.234 N 
ATOM     33  H62 UNL     1       7.050  -3.229   1.039  1.00  0.00     0.174 HD
ATOM     34  H61 UNL     1       5.615  -3.387   2.060  1.00  0.00     0.174 HD
ENDBRANCH  28  32
ENDBRANCH  21  23
ENDBRANCH  20  21
ENDBRANCH   1  20
BRANCH   1  35
HETATM   35  C10 UNL     1      -0.286   1.958   0.362  1.00  0.00     0.245 C 
BRANCH  35  36
HETATM   36  N8  UNL     1      -1.607   2.255   0.812  1.00  0.00    -0.070 N 
ATOM     37  H83 UNL     1      -2.301   1.890   0.160  1.00  0.00     0.274 HD
ATOM     38  H82 UNL     1      -1.840   1.701   1.636  1.00  0.00     0.274 HD
ATOM     39  H81 UNL     1      -1.765   3.247   0.988  1.00  0.00     0.274 HD
ENDBRANCH  35  36
BRANCH  35  40
HETATM   40  C11 UNL     1       0.722   2.599   1.285  1.00  0.00     0.174 C 
BRANCH  40  41
HETATM   41  O5  UNL     1       2.026   2.383   0.933  1.00  0.00    -0.391 OA
ATOM     42  H5  UNL     1       2.660   2.786   1.514  1.00  0.00     0.210 HD
ENDBRANCH  40  41
BRANCH  40  43
HETATM   43  C12 UNL     1       0.443   2.237   2.746  1.00  0.00     0.198 C 
BRANCH  43  44
HETATM   44  O6  UNL     1       1.276   3.046   3.527  1.00  0.00    -0.398 OA
ATOM     45  H6  UNL     1       1.103   2.821   4.434  1.00  0.00     0.209 HD
ENDBRANCH  43  44
ENDBRANCH  40  43
ENDBRANCH  35  40
ENDBRANCH   1  35
TORSDOF 14
