REMARK  14 active torsions:
REMARK  status: ('A' for Active; 'I' for Inactive)
REMARK    1  A    between atoms: N1_1  and  C1_4 
REMARK    2  A    between atoms: N6_18  and  C7_19 
REMARK    3  A    between atoms: C8_20  and  O2_21 
REMARK    4  A    between atoms: O2_21  and  C9_22 
REMARK    5  A    between atoms: C9_22  and  C10_24 
REMARK    6  A    between atoms: C10_24  and  O4_25 
REMARK    7  A    between atoms: C10_24  and  C11_27 
REMARK    8  A    between atoms: C11_27  and  O5_28 
REMARK    9  A    between atoms: C12_33  and  C13_34 
REMARK   10  A    between atoms: C13_34  and  O6_35 
REMARK   11  A    between atoms: C13_34  and  C14_37 
REMARK   12  A    between atoms: C14_37  and  O7_38 
REMARK   13  A    between atoms: C14_37  and  N8_40 
REMARK   14  A    between atoms: N8_40  and  N9_42 
ROOT
HETATM    1  C7  UNL     1      -0.124   0.339  -0.574  1.00  0.00     0.185 C 
HETATM    2  C8  UNL     1       1.050   0.527   0.349  1.00  0.00     0.356 C 
HETATM    3  N7  UNL     1       0.711   1.960   0.170  1.00  0.00    -0.037 N 
ATOM      4  H71 UNL     1       1.068   2.523  -0.602  1.00  0.00     0.281 HD
ATOM      5  H72 UNL     1       1.062   2.695   0.785  1.00  0.00     0.281 HD
HETATM    6  C12 UNL     1      -0.679   1.460   0.225  1.00  0.00     0.249 C 
ENDROOT
BRANCH   1   7
HETATM    7  N6  UNL     1      -0.744  -0.891  -0.713  1.00  0.00    -0.284 N 
HETATM    8  C3  UNL     1      -1.262  -1.650   0.266  1.00  0.00     0.143 A 
HETATM    9  N3  UNL     1      -1.190  -1.203   1.516  1.00  0.00    -0.336 N 
HETATM   10  C4  UNL     1      -1.861  -2.865   0.026  1.00  0.00     0.122 A 
HETATM   11  C2  UNL     1      -1.671  -1.873   2.567  1.00  0.00     0.183 A 
ATOM     12  H3  UNL     1      -0.744  -0.301   1.681  1.00  0.00     0.168 HD
HETATM   13  N2  UNL     1      -2.259  -3.061   2.349  1.00  0.00    -0.337 N 
HETATM   14  C1  UNL     1      -2.363  -3.565   1.117  1.00  0.00     0.131 A 
ATOM     15  H2  UNL     1      -2.633  -3.587   3.139  1.00  0.00     0.168 HD
HETATM   16  N4  UNL     1      -1.963  -3.368  -1.223  1.00  0.00    -0.334 N 
HETATM   17  C5  UNL     1      -1.455  -2.635  -2.225  1.00  0.00     0.185 A 
ATOM     18  H4  UNL     1      -2.408  -4.269  -1.397  1.00  0.00     0.167 HD
HETATM   19  N5  UNL     1      -1.528  -3.111  -3.590  1.00  0.00    -0.077 NA
HETATM   20  C6  UNL     1      -0.871  -1.444  -1.962  1.00  0.00     0.291 A 
HETATM   21  O1  UNL     1      -0.405  -0.787  -2.951  1.00  0.00    -0.264 OA
BRANCH  14  22
HETATM   22  N1  UNL     1      -2.924  -4.699   0.903  1.00  0.00    -0.383 N 
ATOM     23  H12 UNL     1      -3.292  -5.213   1.704  1.00  0.00     0.157 HD
ATOM     24  H11 UNL     1      -3.003  -5.084  -0.038  1.00  0.00     0.157 HD
ENDBRANCH  14  22
ENDBRANCH   1   7
BRANCH   2  25
HETATM   25  O2  UNL     1       2.303   0.177  -0.175  1.00  0.00    -0.283 OA
BRANCH  25  26
HETATM   26  C9  UNL     1       3.239  -0.406   0.672  1.00  0.00     0.292 C 
HETATM   27  O3  UNL     1       2.936  -0.600   1.879  1.00  0.00    -0.262 OA
BRANCH  26  28
HETATM   28  C10 UNL     1       4.586  -0.818   0.247  1.00  0.00     0.241 C 
BRANCH  28  29
HETATM   29  O4  UNL     1       5.294  -1.365   1.299  1.00  0.00    -0.383 OA
ATOM     30  H4  UNL     1       6.164  -1.631   1.025  1.00  0.00     0.210 HD
ENDBRANCH  28  29
BRANCH  28  31
HETATM   31  C11 UNL     1       5.362   0.284  -0.421  1.00  0.00     0.206 C 
BRANCH  31  32
HETATM   32  O5  UNL     1       6.552  -0.273  -0.895  1.00  0.00    -0.398 OA
ATOM     33  H5  UNL     1       7.042   0.423  -1.317  1.00  0.00     0.209 HD
ENDBRANCH  31  32
ENDBRANCH  28  31
ENDBRANCH  26  28
ENDBRANCH  25  26
ENDBRANCH   2  25
BRANCH   6  34
HETATM   34  C13 UNL     1      -1.676   2.261  -0.529  1.00  0.00     0.200 C 
BRANCH  34  35
HETATM   35  O6  UNL     1      -1.335   2.303  -1.881  1.00  0.00    -0.389 OA
ATOM     36  H6  UNL     1      -1.973   2.816  -2.363  1.00  0.00     0.210 HD
ENDBRANCH  34  35
BRANCH  34  37
HETATM   37  C14 UNL     1      -1.861   3.664  -0.055  1.00  0.00     0.263 C 
BRANCH  37  38
HETATM   38  O7  UNL     1      -0.671   4.358  -0.306  1.00  0.00    -0.373 OA
ATOM     39  H7  UNL     1      -0.789   5.251  -0.004  1.00  0.00     0.212 HD
ENDBRANCH  37  38
BRANCH  37  40
HETATM   40  N8  UNL     1      -2.211   3.828   1.294  1.00  0.00    -0.312 N 
ATOM     41  H8  UNL     1      -1.613   4.358   1.927  1.00  0.00     0.182 HD
BRANCH  40  42
HETATM   42  N9  UNL     1      -3.364   3.265   1.737  1.00  0.00    -0.347 N 
ATOM     43  H92 UNL     1      -3.952   2.738   1.091  1.00  0.00     0.176 HD
ATOM     44  H91 UNL     1      -3.618   3.384   2.718  1.00  0.00     0.176 HD
ENDBRANCH  40  42
ENDBRANCH  37  40
ENDBRANCH  34  37
ENDBRANCH   6  34
TORSDOF 14
