REMARK  6 active torsions:
REMARK  status: ('A' for Active; 'I' for Inactive)
REMARK    1  A    between atoms: C2_2  and  C3_3 
REMARK    2  A    between atoms: C4_6  and  N2_7 
REMARK    3  A    between atoms: N2_7  and  N3_9 
REMARK    4  A    between atoms: C5_11  and  O1_12 
REMARK    5  A    between atoms: C5_11  and  N4_17 
REMARK    6  A    between atoms: O1_12  and  C6_13 
ROOT
HETATM    1  N3  UNL     1       0.131  -0.068  -0.226  1.00  0.00    -0.251 N 
ATOM      2  H3  UNL     1       0.375   0.912  -0.367  1.00  0.00     0.191 HD
HETATM    3  C5  UNL     1      -1.037  -0.300   0.221  1.00  0.00     0.240 C 
ENDROOT
BRANCH   1   4
HETATM    4  N2  UNL     1       1.112  -1.000  -0.544  1.00  0.00    -0.128 N 
ATOM      5  H2  UNL     1       0.912  -1.991  -0.681  1.00  0.00     0.205 HD
BRANCH   4   6
HETATM    6  C4  UNL     1       2.325  -0.492  -0.653  1.00  0.00     0.712 A 
HETATM    7  N1  UNL     1       2.745   0.758  -0.504  1.00  0.00    -0.177 N 
HETATM    8  C3  UNL     1       4.063   0.840  -0.703  1.00  0.00     0.112 A 
ATOM      9  H1  UNL     1       2.144   1.548  -0.270  1.00  0.00     0.185 HD
HETATM   10  N6  UNL     1       4.460  -0.433  -0.987  1.00  0.00    -0.274 N 
HETATM   11  N5  UNL     1       3.417  -1.218  -0.954  1.00  0.00    -0.129 N 
ATOM     12  H6  UNL     1       5.416  -0.725  -1.192  1.00  0.00     0.189 HD
ATOM     13  H5  UNL     1       3.428  -2.223  -1.129  1.00  0.00     0.205 HD
BRANCH   8  14
HETATM   14  C2  UNL     1       4.931   2.059  -0.634  1.00  0.00     0.074 C 
HETATM   15  C1  UNL     1       6.365   1.609  -0.933  1.00  0.00     0.013 C 
ENDBRANCH   8  14
ENDBRANCH   4   6
ENDBRANCH   1   4
BRANCH   3  16
HETATM   16  O1  UNL     1      -1.843   0.824   0.466  1.00  0.00    -0.311 OA
BRANCH  16  17
HETATM   17  C6  UNL     1      -1.353   2.135   0.452  1.00  0.00     0.060 C 
HETATM   18  C7  UNL     1      -2.494   3.094   0.752  1.00  0.00     0.046 C 
HETATM   19  C8  UNL     1      -0.878   2.483  -0.959  1.00  0.00     0.046 C 
HETATM   20  C9  UNL     1      -0.262   2.383   1.445  1.00  0.00     0.046 C 
ENDBRANCH  16  17
ENDBRANCH   3  16
BRANCH   3  21
HETATM   21  N4  UNL     1      -1.561  -1.580   0.479  1.00  0.00    -0.310 N 
HETATM   22  C10 UNL     1      -1.543  -2.074   1.840  1.00  0.00     0.130 C 
HETATM   23  C11 UNL     1      -2.754  -2.904   2.124  1.00  0.00     0.020 C 
HETATM   24  C12 UNL     1      -3.837  -2.551   1.165  1.00  0.00     0.007 C 
HETATM   25  C13 UNL     1      -3.480  -2.881  -0.266  1.00  0.00     0.066 C 
HETATM   26  C14 UNL     1      -2.107  -2.347  -0.620  1.00  0.00     0.177 C 
HETATM   27  C15 UNL     1      -2.170  -1.466  -1.838  1.00  0.00     0.077 C 
HETATM   28  F1  UNL     1      -1.322  -3.443  -0.912  1.00  0.00    -0.219 F 
ENDBRANCH   3  21
TORSDOF 6
