REMARK  4 active torsions:
REMARK  status: ('A' for Active; 'I' for Inactive)
REMARK    1  A    between atoms: C7_9  and  C8_10 
REMARK    2  A    between atoms: C9_11  and  O2_12 
REMARK    3  A    between atoms: C11_15  and  O3_16 
REMARK    4  A    between atoms: C14_21  and  C15_22 
ROOT
HETATM    1  C1  UNL     1      -4.813  -0.076   0.638  1.00  0.00     0.309 C 
HETATM    2  N1  UNL     1      -3.835  -0.850  -0.087  1.00  0.00     0.084 N 
HETATM    3  C2  UNL     1      -3.436  -0.311  -1.345  1.00  0.00     0.272 C 
HETATM    4  C3  UNL     1      -2.307   0.729  -1.230  1.00  0.00     0.036 C 
HETATM    5  C4  UNL     1      -1.195   0.051  -0.549  1.00  0.00     0.008 C 
HETATM    6  C5  UNL     1      -1.586  -0.432   0.800  1.00  0.00     0.043 C 
HETATM    7  C6  UNL     1      -0.426  -1.271   1.334  1.00  0.00     0.175 C 
HETATM    8  O1  UNL     1       0.647  -1.188   0.410  1.00  0.00    -0.380 OA
HETATM    9  C7  UNL     1       1.049   0.171   0.352  1.00  0.00     0.169 C 
HETATM   10  C14 UNL     1       0.089   0.952  -0.438  1.00  0.00     0.085 C 
HETATM   11  C16 UNL     1      -2.775  -1.332   0.723  1.00  0.00     0.279 C 
ENDROOT
BRANCH   9  12
HETATM   12  C8  UNL     1       2.470   0.250   0.121  1.00  0.00     0.026 A 
HETATM   13  C9  UNL     1       3.199  -0.938  -0.181  1.00  0.00     0.078 A 
HETATM   14  C10 UNL     1       4.558  -0.984  -0.207  1.00  0.00     0.073 A 
HETATM   15  C11 UNL     1       5.305   0.119   0.052  1.00  0.00     0.070 A 
HETATM   16  C12 UNL     1       4.669   1.293   0.342  1.00  0.00     0.061 A 
HETATM   17  C13 UNL     1       3.262   1.346   0.372  1.00  0.00     0.048 A 
HETATM   18 CL1  UNL     1       2.604   2.879   0.789  1.00  0.00    -0.084 Cl
BRANCH  13  19
HETATM   19  O2  UNL     1       2.399  -2.045  -0.462  1.00  0.00    -0.360 OA
ATOM     20  H2  UNL     1       2.885  -2.836  -0.663  1.00  0.00     0.217 HD
ENDBRANCH  13  19
BRANCH  15  21
HETATM   21  O3  UNL     1       6.712   0.053   0.013  1.00  0.00    -0.361 OA
ATOM     22  H3  UNL     1       7.235   0.825   0.194  1.00  0.00     0.217 HD
ENDBRANCH  15  21
ENDBRANCH   9  12
BRANCH  10  23
HETATM   23  C15 UNL     1      -0.350   2.273  -0.063  1.00  0.00     0.238 C 
HETATM   24  O4  UNL     1      -0.961   2.538   0.983  1.00  0.00    -0.306 OA
ENDBRANCH  10  23
TORSDOF 4
