REMARK  4 active torsions:
REMARK  status: ('A' for Active; 'I' for Inactive)
REMARK    1  A    between atoms: C14_15  and  O1_16 
REMARK    2  A    between atoms: C14_15  and  C15_18 
REMARK    3  A    between atoms: N1_19  and  O2_21 
REMARK    4  A    between atoms: O2_21  and  O3_22 
ROOT
HETATM    1  C1  UNL     1      -3.787   0.662  -1.475  1.00  0.00     0.015 C 
HETATM    2  C2  UNL     1      -3.257   0.950  -0.088  1.00  0.00     0.017 C 
HETATM    3  C3  UNL     1      -3.764   0.005   0.951  1.00  0.00     0.009 C 
HETATM    4  C4  UNL     1      -3.835  -1.370   0.336  1.00  0.00     0.001 C 
HETATM    5  C5  UNL     1      -2.576  -2.121   0.545  1.00  0.00     0.005 C 
HETATM    6  C6  UNL     1      -1.404  -1.679  -0.246  1.00  0.00     0.042 C 
HETATM    7  C7  UNL     1      -1.042  -0.281  -0.200  1.00  0.00    -0.016 A 
HETATM    8  C8  UNL     1       0.337  -0.129  -0.235  1.00  0.00     0.082 A 
HETATM    9  C9  UNL     1       0.916   1.144  -0.202  1.00  0.00    -0.019 A 
HETATM   10  C10 UNL     1       0.127   2.260  -0.136  1.00  0.00     0.034 A 
HETATM   11  C11 UNL     1      -1.241   2.132  -0.101  1.00  0.00     0.042 A 
HETATM   12 CL1  UNL     1      -2.302   3.521  -0.016  1.00  0.00    -0.084 Cl
HETATM   13  C12 UNL     1      -1.794   0.872  -0.133  1.00  0.00    -0.024 A 
HETATM   14  C13 UNL     1       2.398   1.219  -0.245  1.00  0.00     0.087 C 
HETATM   15  C14 UNL     1       3.056   0.153   0.601  1.00  0.00     0.117 C 
HETATM   16  C16 UNL     1       2.434  -1.191   0.430  1.00  0.00     0.219 C 
HETATM   17  O4  UNL     1       1.226  -1.186  -0.302  1.00  0.00    -0.347 OA
ENDROOT
BRANCH  15  18
HETATM   18  O1  UNL     1       2.981   0.584   1.931  1.00  0.00    -0.382 OA
ATOM     19  H1  UNL     1       3.395  -0.086   2.463  1.00  0.00     0.211 HD
ENDBRANCH  15  18
BRANCH  15  20
HETATM   20  C15 UNL     1       4.496   0.121   0.204  1.00  0.00     0.130 C 
HETATM   21  N1  UNL     1       5.088  -0.995   0.028  1.00  0.00    -0.247 N 
ATOM     22  H1  UNL     1       4.554  -1.853   0.165  1.00  0.00     0.196 HD
BRANCH  21  23
HETATM   23  O2  UNL     1       6.389  -1.097  -0.331  1.00  0.00    -0.116 OA
BRANCH  23  24
HETATM   24  O3  UNL     1       7.202  -0.051  -0.555  1.00  0.00    -0.227 OA
ATOM     25  H3  UNL     1       8.115  -0.123  -0.807  1.00  0.00     0.256 HD
ENDBRANCH  23  24
ENDBRANCH  21  23
ENDBRANCH  15  20
TORSDOF 4
