REMARK  1 active torsions:
REMARK  status: ('A' for Active; 'I' for Inactive)
REMARK    1  A    between atoms: C4_5  and  C5_6 
ROOT
HETATM    1  C1  UNL     1      -0.309  -1.111  -1.582  1.00  0.00     0.035 C 
HETATM    2  C2  UNL     1      -0.876  -0.946  -0.179  1.00  0.00     0.090 C 
HETATM    3  C3  UNL     1      -1.183  -2.423   0.149  1.00  0.00     0.072 C 
HETATM    4  N1  UNL     1      -1.414  -3.521   0.426  1.00  0.00    -0.196 NA
HETATM    5  C4  UNL     1       0.218  -0.608   0.737  1.00  0.00     0.070 C 
HETATM    6  C11 UNL     1      -0.068   0.624   1.580  1.00  0.00     0.149 C 
HETATM    7  C12 UNL     1      -0.393   0.228   2.971  1.00  0.00     0.070 C 
HETATM    8  N2  UNL     1      -0.671  -0.099   4.037  1.00  0.00    -0.197 NA
HETATM    9  C13 UNL     1      -1.109   1.515   1.130  1.00  0.00     0.019 C 
HETATM   10  N3  UNL     1      -1.057   2.766   1.320  1.00  0.00    -0.403 N 
ATOM     11  H31 UNL     1      -1.793   3.396   1.002  1.00  0.00     0.155 HD
ATOM     12  H32 UNL     1      -0.224   3.098   1.806  1.00  0.00     0.155 HD
HETATM   13  C14 UNL     1      -2.322   1.031   0.422  1.00  0.00     0.177 C 
HETATM   14  C15 UNL     1      -2.664   2.052  -0.579  1.00  0.00     0.072 C 
HETATM   15  N4  UNL     1      -2.939   2.835  -1.390  1.00  0.00    -0.196 NA
HETATM   16  C16 UNL     1      -2.184  -0.312  -0.170  1.00  0.00     0.179 C 
HETATM   17  C17 UNL     1      -3.217  -1.157   0.495  1.00  0.00     0.088 C 
HETATM   18  N5  UNL     1      -4.016  -1.850   1.015  1.00  0.00    -0.195 NA
HETATM   19  C18 UNL     1      -2.688  -0.232  -1.569  1.00  0.00     0.088 C 
HETATM   20  N6  UNL     1      -3.054  -0.183  -2.666  1.00  0.00    -0.195 NA
ENDROOT
BRANCH   5  21
HETATM   21  C5  UNL     1       1.500  -0.285   0.020  1.00  0.00    -0.012 A 
HETATM   22  C6  UNL     1       1.697   0.807  -0.803  1.00  0.00     0.011 A 
HETATM   23  C7  UNL     1       2.923   1.137  -1.325  1.00  0.00     0.001 A 
HETATM   24  C8  UNL     1       4.032   0.356  -1.037  1.00  0.00     0.003 A 
HETATM   25  C9  UNL     1       3.865  -0.731  -0.229  1.00  0.00     0.043 A 
HETATM   26  C10 UNL     1       2.652  -1.046   0.289  1.00  0.00     0.123 A 
HETATM   27  F1  UNL     1       2.529  -2.177   1.061  1.00  0.00    -0.206 F 
ENDBRANCH   5  21
TORSDOF 1
