REMARK  2 active torsions:
REMARK  status: ('A' for Active; 'I' for Inactive)
REMARK    1  A    between atoms: C2_2  and  N1_5 
REMARK    2  A    between atoms: N2_7  and  C5_9 
ROOT
HETATM    1  C5  UNL     1       1.255  -0.771   1.379  1.00  0.00     0.130 A 
HETATM    2  S1  UNL     1       1.253  -2.182   0.426  1.00  0.00    -0.050 SA
HETATM    3  C6  UNL     1      -0.337  -2.071  -0.226  1.00  0.00     0.090 A 
HETATM    4  C7  UNL     1      -0.819  -0.934   0.321  1.00  0.00     0.045 A 
HETATM    5  C8  UNL     1       0.017  -0.246   1.167  1.00  0.00     0.162 A 
HETATM    6  F1  UNL     1      -0.321   0.942   1.815  1.00  0.00    -0.202 F 
HETATM    7  C9  UNL     1      -2.230  -0.749  -0.199  1.00  0.00     0.154 A 
HETATM    8  C10 UNL     1      -2.352   0.508  -1.007  1.00  0.00     0.036 C 
HETATM    9  C11 UNL     1      -3.539   1.348  -0.696  1.00  0.00     0.022 C 
HETATM   10  C12 UNL     1      -4.775   0.565  -0.338  1.00  0.00     0.122 C 
HETATM   11  N3  UNL     1      -4.514  -0.401   0.716  1.00  0.00    -0.360 N 
ATOM     12  H3  UNL     1      -5.274  -0.760   1.293  1.00  0.00     0.162 HD
HETATM   13  C13 UNL     1      -3.197  -0.828   0.922  1.00  0.00     0.240 C 
HETATM   14  O1  UNL     1      -2.885  -1.268   2.072  1.00  0.00    -0.272 OA
HETATM   15  C14 UNL     1      -2.447  -1.896  -1.072  1.00  0.00     0.245 A 
HETATM   16  O2  UNL     1      -3.524  -2.157  -1.740  1.00  0.00    -0.271 OA
HETATM   17  N4  UNL     1      -1.295  -2.694  -1.084  1.00  0.00    -0.319 N 
ATOM     18  H4  UNL     1      -1.165  -3.559  -1.608  1.00  0.00     0.169 HD
ENDROOT
BRANCH   1  19
HETATM   19  N2  UNL     1       2.311  -0.271   2.206  1.00  0.00    -0.295 N 
HETATM   20  N1  UNL     1       3.329   0.311   1.809  1.00  0.00    -0.327 N 
ATOM     21  H1  UNL     1       3.969   0.593   2.551  1.00  0.00     0.181 HD
ATOM     22  H2  UNL     1       2.216  -0.406   3.213  1.00  0.00     0.187 HD
BRANCH  20  23
HETATM   23  C2  UNL     1       3.760   0.654   0.501  1.00  0.00     0.035 C 
HETATM   24  C1  UNL     1       4.323  -0.605  -0.163  1.00  0.00     0.039 C 
HETATM   25  C3  UNL     1       4.919   1.658   0.557  1.00  0.00     0.039 C 
HETATM   26  C4  UNL     1       2.707   1.276  -0.376  1.00  0.00     0.039 C 
ENDBRANCH  20  23
ENDBRANCH   1  19
TORSDOF 2
