REMARK  4 active torsions:
REMARK  status: ('A' for Active; 'I' for Inactive)
REMARK    1  A    between atoms: C2_2  and  C4_5 
REMARK    2  A    between atoms: C5_6  and  O1_7 
REMARK    3  A    between atoms: C6_9  and  O2_10 
REMARK    4  A    between atoms: C10_16  and  N2_17 
ROOT
HETATM    1  C4  UNL     1       1.249   1.492   0.150  1.00  0.00     0.048 A 
HETATM    2  C5  UNL     1       1.091   2.913   0.243  1.00  0.00     0.129 A 
HETATM    3  C6  UNL     1      -0.220   3.229   0.278  1.00  0.00     0.181 A 
HETATM    4  N1  UNL     1      -0.906   2.084   0.210  1.00  0.00    -0.297 N 
HETATM    5  C7  UNL     1      -2.235   1.970   0.215  1.00  0.00     0.107 A 
HETATM    6  C8  UNL     1      -2.799   0.728   0.132  1.00  0.00    -0.034 A 
HETATM    7  C9  UNL     1      -1.967  -0.350   0.045  1.00  0.00    -0.022 A 
HETATM    8  C10 UNL     1      -0.552  -0.241   0.037  1.00  0.00     0.065 A 
HETATM    9  C15 UNL     1      -0.030   1.015   0.128  1.00  0.00     0.080 A 
HETATM   10  C16 UNL     1      -2.816  -1.538  -0.005  1.00  0.00     0.042 C 
HETATM   11  C17 UNL     1      -4.075  -0.997  -0.704  1.00  0.00     0.009 C 
HETATM   12  C18 UNL     1      -4.240   0.288   0.117  1.00  0.00     0.041 C 
ENDROOT
BRANCH   8  13
HETATM   13  N2  UNL     1       0.163  -1.420  -0.147  1.00  0.00    -0.374 N 
HETATM   14  C11 UNL     1       0.598  -2.003  -1.403  1.00  0.00     0.149 C 
HETATM   15  C12 UNL     1       0.154  -3.428  -1.562  1.00  0.00     0.187 C 
HETATM   16  O3  UNL     1       0.474  -4.162  -0.450  1.00  0.00    -0.388 OA
HETATM   17  C13 UNL     1       1.148  -3.513   0.546  1.00  0.00     0.187 C 
HETATM   18  C14 UNL     1       0.396  -2.280   1.004  1.00  0.00     0.149 C 
ENDBRANCH   8  13
BRANCH   1  19
HETATM   19  C2  UNL     1       2.574   0.933   0.130  1.00  0.00     0.128 C 
HETATM   20  C1  UNL     1       3.231   1.452   1.491  1.00  0.00     0.057 C 
HETATM   21  C3  UNL     1       3.482   1.650  -0.880  1.00  0.00     0.057 C 
HETATM   22  F1  UNL     1       2.909  -0.327   0.300  1.00  0.00    -0.238 F 
ENDBRANCH   1  19
BRANCH   2  23
HETATM   23  O1  UNL     1       2.102   3.864   0.291  1.00  0.00    -0.356 OA
ATOM     24  H1  UNL     1       1.997   4.806   0.353  1.00  0.00     0.218 HD
ENDBRANCH   2  23
BRANCH   3  25
HETATM   25  O2  UNL     1      -0.713   4.532   0.370  1.00  0.00    -0.344 OA
ATOM     26  H2  UNL     1      -1.636   4.755   0.395  1.00  0.00     0.219 HD
ENDBRANCH   3  25
TORSDOF 4
