REMARK  3 active torsions:
REMARK  status: ('A' for Active; 'I' for Inactive)
REMARK    1  A    between atoms: C2_2  and  N1_4 
REMARK    2  A    between atoms: C10_12  and  N2_13 
REMARK    3  A    between atoms: N3_21  and  O1_23 
ROOT
HETATM    1  N1  UNL     1       2.547  -0.111  -0.598  1.00  0.00     0.093 N 
HETATM    2  C4  UNL     1       1.589   0.415  -1.492  1.00  0.00     0.276 C 
HETATM    3  C5  UNL     1       0.326   0.936  -0.922  1.00  0.00     0.076 C 
HETATM    4  C6  UNL     1      -0.183   0.278   0.340  1.00  0.00     0.137 C 
HETATM    5  F1  UNL     1      -0.098   1.113   1.428  1.00  0.00    -0.240 F 
HETATM    6  C7  UNL     1      -1.674  -0.014   0.070  1.00  0.00     0.051 C 
HETATM    7  C8  UNL     1      -2.216   1.197  -0.612  1.00  0.00     0.026 C 
HETATM    8  C9  UNL     1      -3.506   1.749  -0.111  1.00  0.00     0.034 C 
HETATM    9  C10 UNL     1      -4.469   0.675   0.297  1.00  0.00     0.183 C 
HETATM   10  C11 UNL     1      -3.827  -0.002   1.460  1.00  0.00     0.034 C 
HETATM   11  C12 UNL     1      -2.428  -0.474   1.253  1.00  0.00     0.026 C 
HETATM   12  S1  UNL     1      -1.381  -1.390  -1.099  1.00  0.00    -0.100 SA
HETATM   13  C13 UNL     1       0.208  -1.948  -0.505  1.00  0.00     0.082 C 
HETATM   14  N3  UNL     1       0.951  -2.862  -0.844  1.00  0.00    -0.266 N 
ATOM     15  H3  UNL     1       1.788  -2.879  -0.261  1.00  0.00     0.194 HD
HETATM   16  C14 UNL     1       0.526  -0.969   0.588  1.00  0.00     0.071 C 
HETATM   17  C15 UNL     1       0.366  -1.644   1.918  1.00  0.00     0.028 C 
HETATM   18  C16 UNL     1       2.025  -0.641   0.589  1.00  0.00     0.292 C 
ENDROOT
BRANCH   9  19
HETATM   19  N2  UNL     1      -4.905  -0.167  -0.761  1.00  0.00    -0.075 N 
ATOM     20  H23 UNL     1      -5.299   0.392  -1.518  1.00  0.00     0.274 HD
ATOM     21  H22 UNL     1      -4.103  -0.575  -1.241  1.00  0.00     0.274 HD
ATOM     22  H21 UNL     1      -5.560  -0.898  -0.483  1.00  0.00     0.274 HD
ENDBRANCH   9  19
BRANCH  14  23
HETATM   23  O1  UNL     1       0.990  -3.827  -1.736  1.00  0.00    -0.289 OA
ATOM     24  H1  UNL     1       1.566  -4.535  -1.999  1.00  0.00     0.244 HD
ENDBRANCH  14  23
BRANCH   1  25
HETATM   25  C2  UNL     1       3.634   0.834  -0.392  1.00  0.00     0.215 C 
HETATM   26  C1  UNL     1       4.151   0.874   1.003  1.00  0.00     0.042 C 
HETATM   27  C3  UNL     1       4.762   0.411  -1.305  1.00  0.00     0.042 C 
ENDBRANCH   1  25
TORSDOF 3
