REMARK  0 active torsions:
REMARK  status: ('A' for Active; 'I' for Inactive)
ROOT
HETATM    1  C1  UNL     1       1.808  -0.457  -0.072  1.00  0.00     0.046 C 
HETATM    2  C2  UNL     1       0.540  -0.245   0.163  1.00  0.00     0.039 C 
HETATM    3  C3  UNL     1      -0.777  -0.365  -0.510  1.00  0.00     0.090 C 
HETATM    4  C4  UNL     1      -1.096   0.787   0.419  1.00  0.00     0.181 C 
HETATM    5  O1  UNL     1      -0.134   0.242   1.301  1.00  0.00    -0.356 OA
ENDROOT
TORSDOF 0
