REMARK  0 active torsions:
REMARK  status: ('A' for Active; 'I' for Inactive)
ROOT
HETATM    1  C1  UNL     1       2.545  -0.011  -0.264  1.00  0.00     0.014 C 
HETATM    2  C2  UNL     1       1.377  -0.298  -0.131  1.00  0.00    -0.092 C 
HETATM    3  C3  UNL     1      -0.034  -0.665   0.045  1.00  0.00     0.164 A 
HETATM    4  C4  UNL     1      -0.862   0.403   0.680  1.00  0.00     0.082 A 
HETATM    5  C5  UNL     1      -1.512   0.303  -0.655  1.00  0.00     0.059 A 
HETATM    6  N1  UNL     1      -0.797  -0.608  -1.182  1.00  0.00    -0.387 N 
ATOM      7  H1  UNL     1      -0.773  -1.090  -2.081  1.00  0.00     0.159 HD
ENDROOT
TORSDOF 0
