REMARK  0 active torsions:
REMARK  status: ('A' for Active; 'I' for Inactive)
ROOT
HETATM    1  C1  UNL     1       1.426  -0.892  -0.074  1.00  0.00     0.019 C 
HETATM    2  C2  UNL     1       0.301  -0.210  -0.011  1.00  0.00    -0.042 C 
HETATM    3  C3  UNL     1      -1.166  -0.388  -0.152  1.00  0.00     0.203 C 
HETATM    4  O1  UNL     1      -1.335   0.677   0.736  1.00  0.00    -0.383 OA
HETATM    5  C4  UNL     1      -0.122   1.186   0.250  1.00  0.00     0.203 C 
ENDROOT
TORSDOF 0
