REMARK  0 active torsions:
REMARK  status: ('A' for Active; 'I' for Inactive)
ROOT
HETATM    1  C1  UNL     1      -0.446   1.038   0.014  1.00  0.00     0.068 C 
HETATM    2  C2  UNL     1      -1.065  -0.220   0.496  1.00  0.00     0.275 C 
HETATM    3  N1  UNL     1       0.011  -1.048   0.152  1.00  0.00     0.097 N 
HETATM    4  C3  UNL     1       1.360  -0.696   0.020  1.00  0.00     0.308 A 
HETATM    5  C4  UNL     1       0.435   0.089  -0.789  1.00  0.00     0.253 A 
ENDROOT
TORSDOF 0
