REMARK  2 active torsions:
REMARK  status: ('A' for Active; 'I' for Inactive)
REMARK    1  A    between atoms: C3_7  and  N3_8 
REMARK    2  A    between atoms: C4_13  and  O1_14 
ROOT
HETATM    1  C1  UNL     1       3.071  -0.918  -0.050  1.00  0.00     0.147 C 
HETATM    2  N1  UNL     1       2.414   0.329  -0.093  1.00  0.00    -0.379 N 
ATOM      3  H1  UNL     1       3.032   1.126  -0.248  1.00  0.00     0.160 HD
HETATM    4  C2  UNL     1       1.183   0.634   0.028  1.00  0.00     0.145 A 
HETATM    5  N2  UNL     1       0.821   1.952  -0.058  1.00  0.00    -0.175 N 
ATOM      6  H2  UNL     1       1.525   2.673  -0.215  1.00  0.00     0.186 HD
HETATM    7  C3  UNL     1      -0.467   2.279   0.067  1.00  0.00     0.679 A 
HETATM    8  N4  UNL     1      -1.438   1.350   0.279  1.00  0.00    -0.169 N 
ATOM      9  H4  UNL     1      -2.409   1.650   0.369  1.00  0.00     0.186 HD
HETATM   10  C4  UNL     1      -1.138   0.047   0.372  1.00  0.00     0.185 A 
HETATM   11  C6  UNL     1       0.204  -0.310   0.243  1.00  0.00     0.141 A 
HETATM   12  N5  UNL     1       0.472  -1.696   0.348  1.00  0.00    -0.094 NA
ENDROOT
BRANCH   7  13
HETATM   13  N3  UNL     1      -0.822   3.532  -0.014  1.00  0.00    -0.234 N 
ATOM     14  H32 UNL     1      -0.094   4.229  -0.173  1.00  0.00     0.174 HD
ATOM     15  H31 UNL     1      -1.806   3.782   0.082  1.00  0.00     0.174 HD
ENDBRANCH   7  13
BRANCH  10  16
HETATM   16  O1  UNL     1      -2.104  -0.919   0.588  1.00  0.00    -0.339 OA
HETATM   17  C5  UNL     1      -2.889  -1.528  -0.391  1.00  0.00     0.211 C 
ENDBRANCH  10  16
TORSDOF 2
