REMARK  4 active torsions:
REMARK  status: ('A' for Active; 'I' for Inactive)
REMARK    1  A    between atoms: N1_2  and  C2_4 
REMARK    2  A    between atoms: C5_10  and  N4_11 
REMARK    3  A    between atoms: N4_11  and  C6_13 
REMARK    4  A    between atoms: C6_13  and  N5_15 
ROOT
HETATM    1  C2  UNL     1      -1.942   0.328   0.005  1.00  0.00     0.119 A 
HETATM    2  C3  UNL     1      -2.141   1.659  -0.280  1.00  0.00     0.094 A 
HETATM    3  C4  UNL     1      -1.035   2.465  -0.449  1.00  0.00     0.135 A 
HETATM    4  N2  UNL     1      -1.275   3.835  -0.744  1.00  0.00    -0.082 NA
HETATM    5  N3  UNL     1       0.197   1.932  -0.332  1.00  0.00    -0.179 N 
ATOM      6  H3  UNL     1       1.008   2.537  -0.461  1.00  0.00     0.185 HD
HETATM    7  C5  UNL     1       0.399   0.627  -0.051  1.00  0.00     0.682 A 
HETATM    8  N6  UNL     1      -0.675  -0.162   0.114  1.00  0.00    -0.177 N 
ATOM      9  H6  UNL     1      -0.539  -1.151   0.326  1.00  0.00     0.185 HD
ENDROOT
BRANCH   7  10
HETATM   10  N4  UNL     1       1.588   0.195   0.045  1.00  0.00    -0.197 N 
ATOM     11  H4  UNL     1       2.326   0.884  -0.100  1.00  0.00     0.180 HD
BRANCH  10  12
HETATM   12  C6  UNL     1       2.020  -1.121   0.328  1.00  0.00     0.293 C 
HETATM   13  C7  UNL     1       3.525  -1.099   0.557  1.00  0.00     0.063 C 
BRANCH  12  14
HETATM   14  N5  UNL     1       1.729  -2.104  -0.654  1.00  0.00    -0.058 N 
ATOM     15  H53 UNL     1       0.729  -2.106  -0.854  1.00  0.00     0.276 HD
ATOM     16  H52 UNL     1       2.098  -1.808  -1.558  1.00  0.00     0.276 HD
ATOM     17  H51 UNL     1       2.041  -3.054  -0.450  1.00  0.00     0.276 HD
ENDBRANCH  12  14
ENDBRANCH  10  12
ENDBRANCH   7  10
BRANCH   1  18
HETATM   18  N1  UNL     1      -2.969  -0.415   0.162  1.00  0.00    -0.380 N 
HETATM   19  C1  UNL     1      -2.793  -1.832   0.466  1.00  0.00     0.147 C 
ATOM     20  H1  UNL     1      -3.906  -0.021   0.076  1.00  0.00     0.160 HD
ENDBRANCH   1  18
TORSDOF 4
