REMARK  1 active torsions:
REMARK  status: ('A' for Active; 'I' for Inactive)
REMARK    1  A    between atoms: C2_2  and  N1_3 
ROOT
HETATM    1  N1  UNL     1       0.520   0.597  -0.156  1.00  0.00    -0.292 N 
HETATM    2  C3  UNL     1       0.035   1.779   0.268  1.00  0.00     0.328 A 
HETATM    3  O1  UNL     1       0.685   2.830   0.553  1.00  0.00    -0.246 OA
HETATM    4  N2  UNL     1      -1.299   1.637   0.335  1.00  0.00    -0.291 N 
ATOM      5  H2  UNL     1      -1.945   2.370   0.627  1.00  0.00     0.172 HD
HETATM    6  C4  UNL     1      -1.669   0.393  -0.036  1.00  0.00     0.157 A 
HETATM    7  N3  UNL     1      -2.711  -0.456  -0.223  1.00  0.00    -0.281 N 
ATOM      8  H3  UNL     1      -3.696  -0.240  -0.070  1.00  0.00     0.188 HD
HETATM    9  N4  UNL     1      -2.224  -1.612  -0.638  1.00  0.00    -0.263 N 
ATOM     10  H4  UNL     1      -2.784  -2.436  -0.856  1.00  0.00     0.190 HD
HETATM   11  C5  UNL     1      -0.885  -1.546  -0.731  1.00  0.00     0.290 A 
HETATM   12  O2  UNL     1      -0.070  -2.435  -1.088  1.00  0.00    -0.264 OA
HETATM   13  C6  UNL     1      -0.498  -0.266  -0.349  1.00  0.00     0.154 A 
ENDROOT
BRANCH   1  14
HETATM   14  C2  UNL     1       1.908   0.261  -0.383  1.00  0.00     0.130 C 
HETATM   15  C1  UNL     1       2.484  -0.297   0.922  1.00  0.00     0.027 C 
ENDBRANCH   1  14
TORSDOF 1
