REMARK  4 active torsions:
REMARK  status: ('A' for Active; 'I' for Inactive)
REMARK    1  A    between atoms: N1_2  and  C2_4 
REMARK    2  A    between atoms: C3_7  and  N3_8 
REMARK    3  A    between atoms: C4_13  and  N5_14 
REMARK    4  A    between atoms: N5_14  and  C5_16 
ROOT
HETATM    1  C2  UNL     1       2.330   0.547   0.082  1.00  0.00     0.706 A 
HETATM    2  N2  UNL     1       2.031   1.834  -0.155  1.00  0.00    -0.022 N 
ATOM      3  H2  UNL     1       2.782   2.524  -0.158  1.00  0.00     0.203 HD
HETATM    4  C3  UNL     1       0.770   2.241  -0.389  1.00  0.00     0.705 A 
HETATM    5  N4  UNL     1      -0.223   1.350  -0.389  1.00  0.00    -0.022 N 
ATOM      6  H4  UNL     1      -1.180   1.655  -0.566  1.00  0.00     0.203 HD
HETATM    7  C4  UNL     1       0.037   0.039  -0.154  1.00  0.00     0.707 A 
HETATM    8  N6  UNL     1       1.311  -0.329   0.076  1.00  0.00    -0.022 N 
ATOM      9  H6  UNL     1       1.511  -1.313   0.253  1.00  0.00     0.203 HD
ENDROOT
BRANCH   7  10
HETATM   10  N5  UNL     1      -0.871  -0.865  -0.140  1.00  0.00    -0.221 N 
ATOM     11  H5  UNL     1      -0.574  -1.823   0.046  1.00  0.00     0.178 HD
BRANCH  10  12
HETATM   12  C5  UNL     1      -2.268  -0.644  -0.364  1.00  0.00     0.091 C 
HETATM   13  C6  UNL     1      -2.851  -0.108   0.940  1.00  0.00     0.032 C 
HETATM   14  C7  UNL     1      -2.910  -1.977  -0.705  1.00  0.00     0.032 C 
ENDBRANCH  10  12
ENDBRANCH   7  10
BRANCH   4  15
HETATM   15  N3  UNL     1       0.511   3.496  -0.615  1.00  0.00    -0.234 N 
ATOM     16  H32 UNL     1       1.270   4.177  -0.615  1.00  0.00     0.174 HD
ATOM     17  H31 UNL     1      -0.445   3.805  -0.792  1.00  0.00     0.174 HD
ENDBRANCH   4  15
BRANCH   1  18
HETATM   18  N1  UNL     1       3.546   0.206   0.299  1.00  0.00    -0.229 N 
HETATM   19  C1  UNL     1       3.990  -1.126   0.563  1.00  0.00     0.165 C 
ATOM     20  H1  UNL     1       4.251   0.942   0.282  1.00  0.00     0.177 HD
ENDBRANCH   1  18
TORSDOF 4
