REMARK  13 active torsions:
REMARK  status: ('A' for Active; 'I' for Inactive)
REMARK    1  A    between atoms: C2_2  and  O1_3 
REMARK    2  A    between atoms: C2_2  and  C8_20 
REMARK    3  A    between atoms: O1_3  and  C3_4 
REMARK    4  A    between atoms: C3_4  and  C4_6 
REMARK    5  A    between atoms: C4_6  and  S1_7 
REMARK    6  A    between atoms: S1_7  and  C5_8 
REMARK    7  A    between atoms: C6_10  and  N1_11 
REMARK    8  A    between atoms: N1_11  and  N2_13 
REMARK    9  A    between atoms: C8_20  and  O4_22 
REMARK   10  A    between atoms: O4_22  and  C9_23 
REMARK   11  A    between atoms: C12_28  and  N5_29 
REMARK   12  A    between atoms: C14_31  and  C15_32 
REMARK   13  A    between atoms: C19_41  and  O7_42 
ROOT
HETATM    1  O4  UNL     1      -0.422  -0.197  -0.690  1.00  0.00    -0.311 OA
ENDROOT
BRANCH   1   2
HETATM    2  C8  UNL     1       0.386  -1.107  -1.313  1.00  0.00     0.288 C 
HETATM    3  O3  UNL     1      -0.041  -1.701  -2.335  1.00  0.00    -0.262 OA
BRANCH   2   4
HETATM    4  C2  UNL     1       1.764  -1.442  -0.845  1.00  0.00     0.227 C 
HETATM    5  C1  UNL     1       1.948  -2.904  -0.586  1.00  0.00     0.051 C 
BRANCH   4   6
HETATM    6  O1  UNL     1       2.112  -0.706   0.306  1.00  0.00    -0.306 OA
BRANCH   6   7
HETATM    7  C3  UNL     1       3.150   0.186   0.237  1.00  0.00     0.269 C 
HETATM    8  O2  UNL     1       3.773   0.327  -0.863  1.00  0.00    -0.264 OA
BRANCH   7   9
HETATM    9  C4  UNL     1       3.602   1.014   1.389  1.00  0.00     0.191 C 
BRANCH   9  10
HETATM   10  S1  UNL     1       4.885   0.170   2.347  1.00  0.00    -0.109 SA
BRANCH  10  11
HETATM   11  C5  UNL     1       6.391  -0.009   1.373  1.00  0.00     0.086 A 
HETATM   12  S2  UNL     1       6.878  -1.267   0.328  1.00  0.00    -0.042 SA
HETATM   13  C6  UNL     1       8.383  -0.627  -0.146  1.00  0.00     0.165 A 
HETATM   14  N3  UNL     1       8.446   0.527   0.520  1.00  0.00    -0.322 N 
HETATM   15  C7  UNL     1       7.452   0.856   1.291  1.00  0.00     0.142 A 
ATOM     16  H3  UNL     1       9.257   1.139   0.426  1.00  0.00     0.169 HD
HETATM   17  N4  UNL     1       7.435   2.099   2.059  1.00  0.00    -0.081 NA
BRANCH  13  18
HETATM   18  N1  UNL     1       9.272  -1.141  -0.969  1.00  0.00    -0.286 N 
ATOM     19  H1  UNL     1       9.094  -2.041  -1.415  1.00  0.00     0.188 HD
BRANCH  18  20
HETATM   20  N2  UNL     1      10.443  -0.464  -1.229  1.00  0.00    -0.343 N 
ATOM     21  H22 UNL     1      10.606   0.435  -0.775  1.00  0.00     0.176 HD
ATOM     22  H21 UNL     1      11.132  -0.862  -1.867  1.00  0.00     0.176 HD
ENDBRANCH  18  20
ENDBRANCH  13  18
ENDBRANCH  10  11
ENDBRANCH   9  10
ENDBRANCH   7   9
ENDBRANCH   6   7
ENDBRANCH   4   6
ENDBRANCH   2   4
ENDBRANCH   1   2
BRANCH   1  23
HETATM   23  C9  UNL     1      -1.745   0.136  -1.127  1.00  0.00     0.165 C 
HETATM   24  C10 UNL     1      -1.751   1.574  -1.479  1.00  0.00     0.066 C 
HETATM   25  C11 UNL     1      -1.812   2.545  -0.344  1.00  0.00     0.148 C 
HETATM   26 CL1  UNL     1      -0.470   2.436   0.775  1.00  0.00    -0.114 Cl
HETATM   27  S3  UNL     1      -3.426   2.258   0.488  1.00  0.00    -0.120 SA
HETATM   28  C12 UNL     1      -3.938   0.619  -0.160  1.00  0.00     0.188 C 
HETATM   29  C19 UNL     1      -2.740  -0.256  -0.055  1.00  0.00     0.181 C 
BRANCH  28  30
HETATM   30  N5  UNL     1      -5.140   0.134   0.444  1.00  0.00    -0.292 N 
HETATM   31  C13 UNL     1      -6.289   0.269  -0.235  1.00  0.00     0.114 A 
HETATM   32  C14 UNL     1      -7.535  -0.158   0.233  1.00  0.00     0.048 A 
HETATM   33  C17 UNL     1      -7.550  -0.746   1.465  1.00  0.00     0.261 A 
HETATM   34  O5  UNL     1      -8.606  -1.168   1.989  1.00  0.00    -0.267 OA
HETATM   35  N6  UNL     1      -6.372  -0.867   2.125  1.00  0.00    -0.275 N 
HETATM   36  C18 UNL     1      -5.202  -0.443   1.637  1.00  0.00     0.330 A 
ATOM     37  H6  UNL     1      -6.379  -1.306   3.046  1.00  0.00     0.173 HD
HETATM   38  O6  UNL     1      -4.153  -0.589   2.308  1.00  0.00    -0.246 OA
BRANCH  32  39
HETATM   39  C15 UNL     1      -8.694   0.057  -0.617  1.00  0.00     0.026 C 
HETATM   40  C16 UNL     1      -9.906  -0.270  -0.348  1.00  0.00     0.057 C 
HETATM   41 BR1  UNL     1     -11.299   0.118  -1.639  1.00  0.00    -0.064 Br
ENDBRANCH  32  39
ENDBRANCH  28  30
BRANCH  29  42
HETATM   42  O7  UNL     1      -3.120  -1.578  -0.224  1.00  0.00    -0.390 OA
ATOM     43  H7  UNL     1      -3.744  -1.824   0.449  1.00  0.00     0.210 HD
ENDBRANCH  29  42
ENDBRANCH   1  23
TORSDOF 13
