REMARK  15 active torsions:
REMARK  status: ('A' for Active; 'I' for Inactive)
REMARK    1  A    between atoms: C2_3  and  S1_4 
REMARK    2  A    between atoms: C2_3  and  C21_45 
REMARK    3  A    between atoms: S1_4  and  S2_5 
REMARK    4  A    between atoms: S2_5  and  C3_6 
REMARK    5  A    between atoms: C5_10  and  O1_11 
REMARK    6  A    between atoms: O1_11  and  C6_12 
REMARK    7  A    between atoms: C6_12  and  C7_13 
REMARK    8  A    between atoms: C8_14  and  C9_15 
REMARK    9  A    between atoms: C9_15  and  O2_16 
REMARK   10  A    between atoms: C9_15  and  C10_18 
REMARK   11  A    between atoms: N3_20  and  O4_21 
REMARK   12  A    between atoms: O4_21  and  C11_22 
REMARK   13  A    between atoms: C11_22  and  C12_24 
REMARK   14  A    between atoms: N4_33  and  O6_35 
REMARK   15  A    between atoms: O6_35  and  C19_36 
REMARK       I    between atoms: C19_36  and  N5_38 
REMARK       I    between atoms: N5_38  and  C20_40 
ROOT
HETATM    1  N1  UNL     1       5.543  -3.824   3.007  1.00  0.00    -0.195 NA
HETATM    2  C1  UNL     1       5.125  -4.028   1.953  1.00  0.00     0.086 C 
HETATM    3  C2  UNL     1       4.607  -4.266   0.626  1.00  0.00     0.265 C 
ENDROOT
BRANCH   3   4
HETATM    4  S1  UNL     1       4.714  -2.801  -0.435  1.00  0.00    -0.060 SA
BRANCH   4   5
HETATM    5  S2  UNL     1       3.453  -1.241   0.250  1.00  0.00    -0.034 SA
BRANCH   5   6
HETATM    6  C3  UNL     1       1.825  -1.348  -0.473  1.00  0.00     0.125 C 
HETATM    7  N2  UNL     1       1.550  -2.286  -1.272  1.00  0.00    -0.377 N 
HETATM    8  C4  UNL     1       0.271  -2.452  -1.903  1.00  0.00     0.176 C 
ATOM      9  H2  UNL     1       2.280  -2.967  -1.482  1.00  0.00     0.160 HD
HETATM   10  C5  UNL     1      -0.837  -1.924  -1.064  1.00  0.00     0.271 C 
HETATM   11  N3  UNL     1      -0.507  -0.535  -0.750  1.00  0.00    -0.197 N 
HETATM   12  C18 UNL     1       0.794  -0.373  -0.142  1.00  0.00     0.186 C 
HETATM   13  N4  UNL     1       0.993   0.612   0.651  1.00  0.00    -0.236 N 
ATOM     14  H4  UNL     1       0.251   1.278   0.865  1.00  0.00     0.197 HD
BRANCH  10  15
HETATM   15  O1  UNL     1      -1.024  -2.573   0.129  1.00  0.00    -0.351 OA
BRANCH  15  16
HETATM   16  C6  UNL     1      -2.264  -3.098   0.334  1.00  0.00     0.264 C 
BRANCH  16  17
HETATM   17  C7  UNL     1      -3.329  -2.102   0.311  1.00  0.00    -0.077 C 
HETATM   18  C8  UNL     1      -4.227  -1.281   0.308  1.00  0.00    -0.065 C 
BRANCH  18  19
HETATM   19  C9  UNL     1      -5.287  -0.293   0.323  1.00  0.00     0.258 C 
BRANCH  19  20
HETATM   20  O2  UNL     1      -5.129   0.529  -0.791  1.00  0.00    -0.377 OA
ATOM     21  H2  UNL     1      -5.824   1.177  -0.781  1.00  0.00     0.211 HD
ENDBRANCH  19  20
BRANCH  19  22
HETATM   22  C10 UNL     1      -6.644  -0.907   0.317  1.00  0.00     0.275 C 
HETATM   23  O3  UNL     1      -7.408  -0.650  -0.581  1.00  0.00    -0.303 OA
ENDBRANCH  19  22
ENDBRANCH  18  19
ENDBRANCH  16  17
ENDBRANCH  15  16
ENDBRANCH  10  15
BRANCH  11  24
HETATM   24  O4  UNL     1      -1.327   0.509  -0.997  1.00  0.00    -0.188 OA
BRANCH  24  25
HETATM   25  C11 UNL     1      -0.918   1.530  -1.835  1.00  0.00     0.318 C 
HETATM   26  O5  UNL     1       0.224   1.462  -2.352  1.00  0.00    -0.257 OA
BRANCH  25  27
HETATM   27  C12 UNL     1      -1.742   2.689  -2.155  1.00  0.00     0.084 A 
HETATM   28  C13 UNL     1      -1.710   3.844  -1.403  1.00  0.00     0.052 A 
HETATM   29 CL1  UNL     1      -0.667   3.977  -0.015  1.00  0.00    -0.083 Cl
HETATM   30  C14 UNL     1      -2.503   4.942  -1.720  1.00  0.00     0.025 A 
HETATM   31  C15 UNL     1      -3.347   4.898  -2.805  1.00  0.00     0.003 A 
HETATM   32  C16 UNL     1      -3.353   3.728  -3.533  1.00  0.00     0.025 A 
HETATM   33  C17 UNL     1      -2.592   2.629  -3.255  1.00  0.00     0.052 A 
HETATM   34 CL2  UNL     1      -2.634   1.168  -4.209  1.00  0.00    -0.083 Cl
ENDBRANCH  25  27
ENDBRANCH  24  25
ENDBRANCH  11  24
BRANCH  13  35
HETATM   35  O6  UNL     1       2.241   0.737   1.201  1.00  0.00    -0.179 OA
BRANCH  35  36
HETATM   36  C19 UNL     1       2.440   1.692   2.177  1.00  0.00     0.389 C 
HETATM   37  O7  UNL     1       1.471   2.409   2.522  1.00  0.00    -0.236 OA
HETATM   38  N5  UNL     1       3.706   1.875   2.788  1.00  0.00    -0.275 N 
HETATM   39  C20 UNL     1       3.897   2.862   3.791  1.00  0.00     0.190 C 
ATOM     40  H5  UNL     1       4.491   1.289   2.503  1.00  0.00     0.173 HD
HETATM   41  N6  UNL     1       5.041   3.034   4.350  1.00  0.00    -0.373 N 
HETATM   42  N7  UNL     1       2.808   3.675   4.187  1.00  0.00    -0.064 NA
ATOM     43  H62 UNL     1       5.826   2.448   4.065  1.00  0.00     0.158 HD
ATOM     44  H61 UNL     1       5.178   3.743   5.070  1.00  0.00     0.158 HD
ENDBRANCH  35  36
ENDBRANCH  13  35
ENDBRANCH   5   6
ENDBRANCH   4   5
ENDBRANCH   3   4
BRANCH   3  45
HETATM   45  C21 UNL     1       5.258  -5.401  -0.058  1.00  0.00     0.202 C 
HETATM   46  O8  UNL     1       4.639  -6.402  -0.448  1.00  0.00    -0.646 OA
HETATM   47  O9  UNL     1       6.645  -5.318  -0.265  1.00  0.00    -0.646 OA
ENDBRANCH   3  45
TORSDOF 15
