REMARK  15 active torsions:
REMARK  status: ('A' for Active; 'I' for Inactive)
REMARK    1  A    between atoms: O1_2  and  C2_3 
REMARK    2  A    between atoms: C2_3  and  O2_4 
REMARK    3  A    between atoms: C2_3  and  C3_6 
REMARK    4  A    between atoms: C5_8  and  C6_9 
REMARK    5  A    between atoms: C9_17  and  O5_18 
REMARK    6  A    between atoms: N2_20  and  C10_21 
REMARK    7  A    between atoms: C10_21  and  C11_22 
REMARK    8  A    between atoms: C11_22  and  C12_23 
REMARK    9  A    between atoms: C12_23  and  O7_25 
REMARK   10  A    between atoms: O7_25  and  C13_26 
REMARK   11  A    between atoms: C16_29  and  O8_30 
REMARK   12  A    between atoms: C17_32  and  C18_33 
REMARK   13  A    between atoms: C19_35  and  O10_36 
REMARK   14  A    between atoms: C19_35  and  C20_38 
REMARK   15  A    between atoms: C24_45  and  C25_46 
ROOT
HETATM    1  C3  UNL     1      -3.932  -1.013   0.103  1.00  0.00     0.101 C 
HETATM    2  C4  UNL     1      -3.577   0.235   0.143  1.00  0.00     0.020 C 
HETATM    3  C5  UNL     1      -2.113   0.589   0.105  1.00  0.00     0.019 C 
HETATM    4  C17 UNL     1      -1.935   1.595  -0.743  1.00  0.00     0.066 C 
HETATM    5  C19 UNL     1      -3.088   2.170  -1.550  1.00  0.00     0.288 C 
HETATM    6  O13 UNL     1      -4.335   1.860  -1.236  1.00  0.00    -0.328 OA
HETATM    7  C21 UNL     1      -4.522   1.414   0.073  1.00  0.00     0.193 C 
HETATM    8  C22 UNL     1      -5.910   1.051   0.326  1.00  0.00    -0.022 C 
HETATM    9  C23 UNL     1      -6.871   2.168   0.614  1.00  0.00     0.049 C 
HETATM   10  C24 UNL     1      -6.293  -0.198   0.314  1.00  0.00     0.079 C 
HETATM   11  N3  UNL     1      -5.373  -1.271   0.198  1.00  0.00    -0.350 N 
ATOM     12  H3  UNL     1      -5.716  -2.231   0.180  1.00  0.00     0.166 HD
ENDROOT
BRANCH   3  13
HETATM   13  C6  UNL     1      -1.238   0.062   1.114  1.00  0.00     0.070 C 
HETATM   14  N1  UNL     1      -1.822  -0.284   2.251  1.00  0.00    -0.279 N 
HETATM   15  S1  UNL     1      -0.712  -0.871   3.360  1.00  0.00     0.268 S 
ATOM     16  H1  UNL     1      -2.823  -0.203   2.429  1.00  0.00     0.179 HD
HETATM   17  O3  UNL     1      -1.032  -2.244   3.873  1.00  0.00    -0.200 OA
HETATM   18  O4  UNL     1      -0.400   0.071   4.486  1.00  0.00    -0.200 OA
HETATM   19  C7  UNL     1       0.640  -0.937   2.229  1.00  0.00     0.147 A 
HETATM   20  C8  UNL     1       0.163  -0.323   1.089  1.00  0.00     0.071 A 
HETATM   21  C16 UNL     1       1.909  -1.416   2.110  1.00  0.00     0.169 A 
HETATM   22  C9  UNL     1       1.282  -0.482   0.237  1.00  0.00     0.158 A 
HETATM   23  N2  UNL     1       2.287  -1.123   0.874  1.00  0.00    -0.306 N 
BRANCH  22  24
HETATM   24  O5  UNL     1       1.459  -0.105  -1.076  1.00  0.00    -0.345 OA
ATOM     25  H5  UNL     1       2.210  -0.212  -1.648  1.00  0.00     0.219 HD
ENDBRANCH  22  24
BRANCH  23  26
HETATM   26  C10 UNL     1       3.597  -1.444   0.274  1.00  0.00     0.143 C 
BRANCH  26  27
HETATM   27  C11 UNL     1       4.545  -0.291   0.531  1.00  0.00     0.131 C 
BRANCH  27  28
HETATM   28  C12 UNL     1       5.881  -0.543  -0.043  1.00  0.00     0.260 C 
HETATM   29  O6  UNL     1       6.088  -1.619  -0.649  1.00  0.00    -0.265 OA
BRANCH  28  30
HETATM   30  O7  UNL     1       6.907   0.370   0.068  1.00  0.00    -0.317 OA
BRANCH  30  31
HETATM   31  C13 UNL     1       8.190   0.114  -0.490  1.00  0.00     0.123 C 
HETATM   32  C14 UNL     1       9.182   0.068   0.644  1.00  0.00     0.040 C 
HETATM   33  C15 UNL     1       8.621   1.188  -1.452  1.00  0.00     0.040 C 
ENDBRANCH  30  31
ENDBRANCH  28  30
ENDBRANCH  27  28
ENDBRANCH  26  27
ENDBRANCH  23  26
BRANCH  21  34
HETATM   34  O8  UNL     1       2.629  -2.073   3.110  1.00  0.00    -0.345 OA
ATOM     35  H8  UNL     1       3.514  -2.407   3.027  1.00  0.00     0.219 HD
ENDBRANCH  21  34
ENDBRANCH   3  13
BRANCH   4  36
HETATM   36  C18 UNL     1      -0.674   2.221  -0.995  1.00  0.00     0.272 C 
HETATM   37  O9  UNL     1      -0.545   3.126  -1.874  1.00  0.00    -0.302 OA
ENDBRANCH   4  36
BRANCH   1  38
HETATM   38  C2  UNL     1      -3.063  -2.128  -0.017  1.00  0.00     0.206 C 
BRANCH  38  39
HETATM   39  O1  UNL     1      -1.774  -2.318  -0.299  1.00  0.00    -0.334 OA
HETATM   40  C1  UNL     1      -1.115  -3.578  -0.397  1.00  0.00     0.212 C 
ENDBRANCH  38  39
BRANCH  38  41
HETATM   41  O2  UNL     1      -3.654  -3.286   0.169  1.00  0.00    -0.339 OA
ATOM     42  H2  UNL     1      -4.573  -3.151   0.370  1.00  0.00     0.220 HD
ENDBRANCH  38  41
ENDBRANCH   1  38
BRANCH   5  43
HETATM   43  O10 UNL     1      -2.848   3.568  -1.521  1.00  0.00    -0.353 OA
ATOM     44  H10 UNL     1      -3.568   3.927  -2.025  1.00  0.00     0.214 HD
ENDBRANCH   5  43
BRANCH   5  45
HETATM   45  C20 UNL     1      -2.879   1.775  -2.993  1.00  0.00     0.244 C 
HETATM   46  O11 UNL     1      -2.999   0.590  -3.376  1.00  0.00    -0.644 OA
HETATM   47  O12 UNL     1      -2.551   2.742  -3.904  1.00  0.00    -0.644 OA
ENDBRANCH   5  45
BRANCH  10  48
HETATM   48  C25 UNL     1      -7.716  -0.614   0.556  1.00  0.00     0.403 C 
HETATM   49  F1  UNL     1      -8.633   0.375   0.490  1.00  0.00    -0.207 F 
HETATM   50  F2  UNL     1      -7.752  -1.114   1.866  1.00  0.00    -0.207 F 
ENDBRANCH  10  48
TORSDOF 15
