REMARK  13 active torsions:
REMARK  status: ('A' for Active; 'I' for Inactive)
REMARK    1  A    between atoms: C2_2  and  C3_4 
REMARK       I    between atoms: C3_4  and  N1_6 
REMARK    2  A    between atoms: N1_6  and  C4_8 
REMARK    3  A    between atoms: C5_11  and  C6_12 
REMARK    4  A    between atoms: C11_26  and  N7_27 
REMARK    5  A    between atoms: N7_27  and  N8_29 
REMARK    6  A    between atoms: C12_31  and  C13_32 
REMARK    7  A    between atoms: C15_34  and  N9_35 
REMARK    8  A    between atoms: N9_35  and  O2_36 
REMARK       I    between atoms: N9_35  and  C16_38 
REMARK    9  A    between atoms: C19_42  and  O4_43 
REMARK   10  A    between atoms: C20_45  and  C21_46 
REMARK   11  A    between atoms: C21_46  and  O5_47 
REMARK   12  A    between atoms: O5_47  and  N10_48 
REMARK   13  A    between atoms: N12_53  and  N13_54 
ROOT
HETATM    1  C6  UNL     1       2.816  -1.633  -0.102  1.00  0.00     0.125 A 
HETATM    2  N3  UNL     1       3.414  -2.812  -0.311  1.00  0.00    -0.346 N 
ATOM      3  H3  UNL     1       4.429  -2.834  -0.407  1.00  0.00     0.166 HD
HETATM    4  C7  UNL     1       2.735  -3.967  -0.400  1.00  0.00     0.093 A 
HETATM    5  C8  UNL     1       3.357  -5.176  -0.616  1.00  0.00     0.123 A 
HETATM    6  N4  UNL     1       2.663  -6.325  -0.703  1.00  0.00    -0.340 N 
ATOM      7  H4  UNL     1       3.155  -7.204  -0.864  1.00  0.00     0.167 HD
HETATM    8  C9  UNL     1       1.323  -6.320  -0.578  1.00  0.00     0.180 A 
HETATM    9 CL1  UNL     1       0.472  -7.850  -0.699  1.00  0.00    -0.045 Cl
HETATM   10  N5  UNL     1       0.694  -5.150  -0.366  1.00  0.00    -0.317 N 
ATOM     11  H5  UNL     1      -0.322  -5.149  -0.272  1.00  0.00     0.170 HD
HETATM   12  C10 UNL     1       1.355  -3.979  -0.273  1.00  0.00     0.137 A 
HETATM   13  N6  UNL     1       0.730  -2.795  -0.061  1.00  0.00    -0.324 N 
ATOM     14  H6  UNL     1      -0.285  -2.776   0.034  1.00  0.00     0.169 HD
HETATM   15  C11 UNL     1       1.420  -1.646   0.026  1.00  0.00     0.152 A 
ENDROOT
BRANCH  15  16
HETATM   16  N7  UNL     1       0.889  -0.504   0.224  1.00  0.00    -0.284 N 
ATOM     17  H7  UNL     1       1.524   0.293   0.268  1.00  0.00     0.188 HD
BRANCH  16  18
HETATM   18  N8  UNL     1      -0.445  -0.235   0.384  1.00  0.00    -0.309 N 
HETATM   19  C12 UNL     1      -1.401  -0.424  -0.461  1.00  0.00     0.119 C 
ATOM     20  H8  UNL     1      -0.716   0.164   1.283  1.00  0.00     0.186 HD
BRANCH  19  21
HETATM   21  C13 UNL     1      -2.754  -0.066  -0.087  1.00  0.00    -0.002 A 
HETATM   22  C14 UNL     1      -3.057   0.472   1.123  1.00  0.00     0.046 A 
HETATM   23  C15 UNL     1      -4.352   0.823   1.484  1.00  0.00     0.069 A 
HETATM   24  C18 UNL     1      -5.352   0.617   0.586  1.00  0.00     0.069 A 
HETATM   25  C19 UNL     1      -5.082   0.061  -0.682  1.00  0.00     0.081 A 
HETATM   26  C20 UNL     1      -3.795  -0.276  -1.008  1.00  0.00     0.033 A 
BRANCH  23  27
HETATM   27  N9  UNL     1      -4.628   1.387   2.760  1.00  0.00    -0.192 N 
HETATM   28  C16 UNL     1      -4.981   2.743   2.860  1.00  0.00     0.244 C 
HETATM   29  C17 UNL     1      -5.065   3.576   1.647  1.00  0.00     0.120 C 
HETATM   30  O3  UNL     1      -5.228   3.257   3.973  1.00  0.00    -0.271 OA
BRANCH  27  31
HETATM   31  O2  UNL     1      -4.535   0.572   3.853  1.00  0.00    -0.280 OA
ATOM     32  H2  UNL     1      -4.719   0.949   4.705  1.00  0.00     0.245 HD
ENDBRANCH  27  31
ENDBRANCH  23  27
BRANCH  25  33
HETATM   33  O4  UNL     1      -6.189  -0.090  -1.510  1.00  0.00    -0.360 OA
ATOM     34  H4  UNL     1      -6.007  -0.464  -2.364  1.00  0.00     0.217 HD
ENDBRANCH  25  33
BRANCH  26  35
HETATM   35  C21 UNL     1      -3.417  -0.786  -2.308  1.00  0.00     0.181 C 
BRANCH  35  36
HETATM   36  O5  UNL     1      -4.431  -1.115  -3.148  1.00  0.00    -0.256 OA
BRANCH  36  37
HETATM   37  N10 UNL     1      -5.172  -2.195  -2.750  1.00  0.00    -0.306 N 
ATOM     38 2H10 UNL     1      -4.966  -2.701  -1.889  1.00  0.00     0.184 HD
ATOM     39 1H10 UNL     1      -5.934  -2.442  -3.381  1.00  0.00     0.184 HD
ENDBRANCH  36  37
ENDBRANCH  35  36
ENDBRANCH  26  35
ENDBRANCH  19  21
ENDBRANCH  16  18
ENDBRANCH  15  16
BRANCH   1  40
HETATM   40  C5  UNL     1       3.547  -0.379   0.001  1.00  0.00     0.168 A 
HETATM   41  N2  UNL     1       4.880  -0.238  -0.095  1.00  0.00    -0.170 N 
HETATM   42  C4  UNL     1       5.216   1.054   0.042  1.00  0.00     0.723 A 
ATOM     43  H2  UNL     1       5.539  -1.001  -0.249  1.00  0.00     0.186 HD
HETATM   44  N12 UNL     1       4.088   1.757   0.229  1.00  0.00    -0.025 N 
HETATM   45  N11 UNL     1       3.084   0.862   0.200  1.00  0.00    -0.247 N 
ATOM     46  H11 UNL     1       2.098   1.098   0.315  1.00  0.00     0.191 HD
BRANCH  42  47
HETATM   47  N1  UNL     1       6.396   1.535   0.006  1.00  0.00    -0.152 N 
HETATM   48  C3  UNL     1       6.761   2.877   0.148  1.00  0.00     0.276 C 
HETATM   49  O1  UNL     1       6.807   3.463   1.278  1.00  0.00    -0.266 OA
ATOM     50  H1  UNL     1       7.155   0.870  -0.142  1.00  0.00     0.188 HD
BRANCH  48  51
HETATM   51  C2  UNL     1       7.108   3.671  -1.018  1.00  0.00     0.070 C 
HETATM   52  C1  UNL     1       7.448   4.928  -0.879  1.00  0.00     0.037 C 
HETATM   53 BR1  UNL     1       7.067   2.874  -2.760  1.00  0.00    -0.046 Br
ENDBRANCH  48  51
ENDBRANCH  42  47
BRANCH  44  54
HETATM   54  N13 UNL     1       3.966   3.132   0.414  1.00  0.00    -0.309 N 
ATOM     55 2H13 UNL     1       4.727   3.811   0.436  1.00  0.00     0.179 HD
ATOM     56 1H13 UNL     1       3.109   3.666   0.556  1.00  0.00     0.179 HD
ENDBRANCH  44  54
ENDBRANCH   1  40
TORSDOF 13
