REMARK  4 active torsions:
REMARK  status: ('A' for Active; 'I' for Inactive)
REMARK    1  A    between atoms: C4_5  and  N2_6 
REMARK    2  A    between atoms: C5_8  and  C6_9 
REMARK    3  A    between atoms: C5_8  and  N4_19 
REMARK    4  A    between atoms: C6_9  and  N3_16 
ROOT
HETATM    1  N2  UNL     1      -0.369   0.160  -0.219  1.00  0.00    -0.336 N 
ATOM      2  H2  UNL     1       0.219   0.938   0.080  1.00  0.00     0.168 HD
HETATM    3  C5  UNL     1       0.178  -0.899  -0.664  1.00  0.00     0.209 C 
ENDROOT
BRANCH   3   4
HETATM    4  C6  UNL     1       1.611  -1.014  -0.751  1.00  0.00     0.169 C 
HETATM    5  C7  UNL     1       2.514  -0.140  -0.429  1.00  0.00     0.037 C 
HETATM    6  C8  UNL     1       2.256   1.188   0.105  1.00  0.00     0.017 C 
HETATM    7  S1  UNL     1       4.259  -0.565  -0.624  1.00  0.00    -0.127 SA
HETATM    8  C9  UNL     1       3.000   1.635   1.119  1.00  0.00    -0.024 C 
HETATM    9  C10 UNL     1       4.074   0.825   1.715  1.00  0.00     0.037 C 
HETATM   10  C11 UNL     1       5.121   0.375   0.689  1.00  0.00     0.083 C 
BRANCH   4  11
HETATM   11  N3  UNL     1       2.116  -2.268  -1.270  1.00  0.00    -0.110 N 
HETATM   12  O1  UNL     1       2.129  -2.413  -2.495  1.00  0.00    -0.532 OA
HETATM   13  O2  UNL     1       2.537  -3.187  -0.358  1.00  0.00    -0.532 OA
ENDBRANCH   4  11
ENDBRANCH   3   4
BRANCH   3  14
HETATM   14  N4  UNL     1      -0.649  -1.975  -1.077  1.00  0.00    -0.095 N 
HETATM   15  O3  UNL     1      -0.575  -3.124  -0.603  1.00  0.00    -0.530 OA
HETATM   16  O4  UNL     1      -1.583  -1.701  -2.063  1.00  0.00    -0.530 OA
ENDBRANCH   3  14
BRANCH   1  17
HETATM   17  C4  UNL     1      -1.760   0.279  -0.131  1.00  0.00     0.034 A 
HETATM   18  C3  UNL     1      -2.409   1.263  -0.859  1.00  0.00     0.031 A 
HETATM   19  C2  UNL     1      -3.774   1.373  -0.768  1.00  0.00     0.029 A 
HETATM   20  C1  UNL     1      -4.564   0.558   0.013  1.00  0.00     0.046 A 
HETATM   21  N1  UNL     1      -5.970   0.722   0.066  1.00  0.00    -0.102 NA
HETATM   22  C13 UNL     1      -3.901  -0.423   0.736  1.00  0.00     0.029 A 
HETATM   23  C12 UNL     1      -2.530  -0.551   0.659  1.00  0.00     0.031 A 
ENDBRANCH   1  17
TORSDOF 4
