REMARK  6 active torsions:
REMARK  status: ('A' for Active; 'I' for Inactive)
REMARK    1  A    between atoms: C2_4  and  C4_7 
REMARK    2  A    between atoms: C6_9  and  C7_10 
REMARK    3  A    between atoms: C7_10  and  O2_11 
REMARK    4  A    between atoms: C9_13  and  C11_15 
REMARK    5  A    between atoms: C13_18  and  C14_19 
REMARK    6  A    between atoms: C18_23  and  O4_24 
ROOT
HETATM    1  C1  UNL     1      -1.726  -4.335   1.269  1.00  0.00     0.148 C 
HETATM    2  N1  UNL     1      -1.093  -3.110   0.900  1.00  0.00    -0.374 N 
ATOM      3  H1  UNL     1      -0.078  -3.094   0.804  1.00  0.00     0.161 HD
HETATM    4  C2  UNL     1      -1.780  -1.975   0.674  1.00  0.00     0.150 C 
HETATM    5  O1  UNL     1      -3.042  -2.190   0.842  1.00  0.00    -0.340 OA
HETATM    6  C3  UNL     1      -4.298  -2.402   1.010  1.00  0.00     0.211 C 
ENDROOT
BRANCH   4   7
HETATM    7  C4  UNL     1      -0.959  -0.823   0.308  1.00  0.00     0.049 A 
HETATM    8  C5  UNL     1       0.424  -1.017   0.230  1.00  0.00     0.033 A 
HETATM    9  C6  UNL     1       1.315  -0.025  -0.103  1.00  0.00    -0.001 A 
HETATM   10  C12 UNL     1       0.783   1.243  -0.374  1.00  0.00     0.025 A 
HETATM   11  C13 UNL     1      -0.555   1.487  -0.314  1.00  0.00    -0.015 A 
HETATM   12  C18 UNL     1      -1.405   0.431   0.031  1.00  0.00     0.087 A 
BRANCH   9  13
HETATM   13  C7  UNL     1       2.740  -0.221  -0.203  1.00  0.00     0.087 C 
HETATM   14  C9  UNL     1       3.325  -1.072  -0.987  1.00  0.00     0.010 C 
HETATM   15  C10 UNL     1       4.860  -1.106  -0.912  1.00  0.00     0.054 C 
BRANCH  13  16
HETATM   16  O2  UNL     1       3.497   0.621   0.654  1.00  0.00    -0.354 OA
HETATM   17  C8  UNL     1       3.662   0.300   2.016  1.00  0.00     0.210 C 
ENDBRANCH  13  16
BRANCH  14  18
HETATM   18  C11 UNL     1       2.735  -1.935  -1.967  1.00  0.00     0.268 C 
HETATM   19  O3  UNL     1       1.540  -2.031  -2.280  1.00  0.00    -0.302 OA
ENDBRANCH  14  18
ENDBRANCH   9  13
BRANCH  11  20
HETATM   20  C14 UNL     1      -1.043   2.828  -0.606  1.00  0.00    -0.021 C 
HETATM   21  C15 UNL     1      -1.991   2.729  -1.793  1.00  0.00     0.019 C 
HETATM   22  C16 UNL     1      -1.781   3.503   0.504  1.00  0.00     0.019 C 
HETATM   23  C17 UNL     1       0.092   3.724  -1.022  1.00  0.00     0.019 C 
ENDBRANCH  11  20
BRANCH  12  24
HETATM   24  O4  UNL     1      -2.709   0.751   0.070  1.00  0.00    -0.359 OA
ATOM     25  H4  UNL     1      -3.021   1.627  -0.124  1.00  0.00     0.217 HD
ENDBRANCH  12  24
ENDBRANCH   4   7
TORSDOF 6
