REMARK  3 active torsions:
REMARK  status: ('A' for Active; 'I' for Inactive)
REMARK    1  A    between atoms: N1_1  and  O1_4 
REMARK    2  A    between atoms: O1_4  and  C1_5 
REMARK    3  A    between atoms: C1_5  and  C2_7 
ROOT
HETATM    1  C1  UNL     1      -0.140  -0.304   0.013  1.00  0.00     0.305 C 
HETATM    2  O2  UNL     1       0.305  -1.301   0.635  1.00  0.00    -0.261 OA
ENDROOT
BRANCH   1   3
HETATM    3  O1  UNL     1       0.790   0.550  -0.560  1.00  0.00    -0.205 OA
BRANCH   3   4
HETATM    4  N1  UNL     1       2.128   0.281  -0.429  1.00  0.00    -0.302 N 
ATOM      5  H12 UNL     1       2.421  -0.547   0.090  1.00  0.00     0.184 HD
ATOM      6  H11 UNL     1       2.812   0.909  -0.851  1.00  0.00     0.184 HD
ENDBRANCH   3   4
ENDBRANCH   1   3
BRANCH   1   7
HETATM    7  C2  UNL     1      -1.587  -0.007  -0.132  1.00  0.00     0.230 C 
HETATM    8 BR1  UNL     1      -2.045   1.690   0.626  1.00  0.00    -0.068 Br
HETATM    9 BR2  UNL     1      -2.591  -1.461   0.679  1.00  0.00    -0.068 Br
ENDBRANCH   1   7
TORSDOF 3
