REMARK  3 active torsions:
REMARK  status: ('A' for Active; 'I' for Inactive)
REMARK    1  A    between atoms: N1_4  and  O1_5 
REMARK    2  A    between atoms: C3_7  and  O2_8 
REMARK    3  A    between atoms: C4_10  and  O3_11 
ROOT
HETATM    1  C1  UNL     1      -2.169   0.104  -0.140  1.00  0.00     0.062 C 
HETATM    2  C2  UNL     1      -0.799   0.099   0.488  1.00  0.00     0.171 C 
HETATM    3 CL1  UNL     1      -0.848  -0.049   2.232  1.00  0.00    -0.090 Cl
HETATM    4  N1  UNL     1      -0.081   1.287   0.030  1.00  0.00    -0.212 N 
HETATM    5  C3  UNL     1       1.162   1.053  -0.169  1.00  0.00     0.172 C 
HETATM    6  C4  UNL     1       1.439  -0.359   0.143  1.00  0.00     0.237 C 
HETATM    7  C5  UNL     1       0.093  -0.999  -0.099  1.00  0.00     0.187 C 
HETATM    8 CL2  UNL     1      -0.136  -1.182  -1.833  1.00  0.00    -0.094 Cl
HETATM    9 CL3  UNL     1      -0.010  -2.497   0.795  1.00  0.00    -0.094 Cl
ENDROOT
BRANCH   4  10
HETATM   10  O1  UNL     1      -0.676   2.532  -0.170  1.00  0.00    -0.284 OA
ATOM     11  H1  UNL     1      -0.209   3.304  -0.468  1.00  0.00     0.245 HD
ENDBRANCH   4  10
BRANCH   5  12
HETATM   12  O2  UNL     1       2.089   2.023  -0.615  1.00  0.00    -0.346 OA
ATOM     13  H2  UNL     1       3.011   1.849  -0.763  1.00  0.00     0.219 HD
ENDBRANCH   5  12
BRANCH   6  14
HETATM   14  O3  UNL     1       2.430  -0.903  -0.668  1.00  0.00    -0.384 OA
ATOM     15  H3  UNL     1       2.609  -1.814  -0.467  1.00  0.00     0.210 HD
ENDBRANCH   6  14
TORSDOF 3
