REMARK  1 active torsions:
REMARK  status: ('A' for Active; 'I' for Inactive)
REMARK    1  A    between atoms: C1_2  and  C2_3 
ROOT
HETATM    1  C2  UNL     1       1.741   0.214   0.371  1.00  0.00     0.173 C 
HETATM    2  C3  UNL     1       1.266  -1.069   0.891  1.00  0.00     0.231 C 
HETATM    3  O2  UNL     1       2.111  -1.842   1.430  1.00  0.00    -0.273 OA
HETATM    4  N1  UNL     1      -0.103  -1.392   0.772  1.00  0.00    -0.355 N 
ATOM      5  H1  UNL     1      -0.573  -1.995   1.448  1.00  0.00     0.162 HD
HETATM    6  C4  UNL     1      -0.794  -0.833  -0.339  1.00  0.00     0.097 C 
HETATM    7  C5  UNL     1      -2.275  -0.612  -0.180  1.00  0.00     0.068 C 
HETATM    8  C6  UNL     1      -1.907   0.849   0.133  1.00  0.00     0.123 C 
HETATM    9 CL1  UNL     1      -2.981   2.005  -0.719  1.00  0.00    -0.101 Cl
HETATM   10 CL2  UNL     1      -1.944   1.100   1.858  1.00  0.00    -0.101 Cl
HETATM   11  C7  UNL     1      -0.580   0.644  -0.527  1.00  0.00     0.082 C 
HETATM   12  C8  UNL     1       0.641   1.202   0.080  1.00  0.00     0.199 C 
HETATM   13  F1  UNL     1       0.430   1.928   1.241  1.00  0.00    -0.248 F 
ENDROOT
BRANCH   1  14
HETATM   14  C1  UNL     1       2.578  -0.036  -0.857  1.00  0.00     0.248 C 
HETATM   15  O1  UNL     1       2.453  -1.015  -1.551  1.00  0.00    -0.306 OA
ENDBRANCH   1  14
TORSDOF 1
