REMARK  3 active torsions:
REMARK  status: ('A' for Active; 'I' for Inactive)
REMARK    1  A    between atoms: C1_2  and  N1_3 
REMARK    2  A    between atoms: N1_3  and  C2_5 
REMARK    3  A    between atoms: C2_5  and  C3_6 
ROOT
HETATM    1  C3  UNL     1      -0.154   0.505   0.209  1.00  0.00     0.111 C 
HETATM    2  C4  UNL     1      -0.875  -0.127  -0.945  1.00  0.00     0.044 C 
HETATM    3  C5  UNL     1      -2.337   0.145  -0.558  1.00  0.00     0.165 C 
HETATM    4  S1  UNL     1      -2.230  -0.392   1.158  1.00  0.00     0.227 S 
HETATM    5  O2  UNL     1      -2.885   0.576   2.066  1.00  0.00    -0.206 OA
HETATM    6  O3  UNL     1      -2.745  -1.774   1.244  1.00  0.00    -0.206 OA
HETATM    7  N2  UNL     1      -0.484  -0.339   1.318  1.00  0.00    -0.313 N 
ATOM      8  H2  UNL     1       0.124  -0.783   2.006  1.00  0.00     0.172 HD
ENDROOT
BRANCH   1   9
HETATM    9  C2  UNL     1       1.310   0.670  -0.038  1.00  0.00     0.147 C 
BRANCH   9  10
HETATM   10  N1  UNL     1       2.007  -0.545  -0.282  1.00  0.00    -0.366 N 
ATOM     11  H1  UNL     1       1.501  -1.431  -0.278  1.00  0.00     0.161 HD
BRANCH  10  12
HETATM   12  C1  UNL     1       3.401  -0.530  -0.531  1.00  0.00     0.348 C 
HETATM   13  O1  UNL     1       4.045   0.570  -0.538  1.00  0.00    -0.284 OA
ENDBRANCH  10  12
ENDBRANCH   9  10
ENDBRANCH   1   9
TORSDOF 3
