REMARK  4 active torsions:
REMARK  status: ('A' for Active; 'I' for Inactive)
REMARK    1  A    between atoms: N1_1  and  S1_4 
REMARK    2  A    between atoms: S1_4  and  N2_7 
REMARK    3  A    between atoms: N2_7  and  C1_9 
REMARK    4  A    between atoms: C3_11  and  C4_12 
ROOT
HETATM    1  N2  UNL     1       0.707   0.429  -1.073  1.00  0.00    -0.297 N 
ATOM      2  H2  UNL     1       0.564   1.247  -1.665  1.00  0.00     0.174 HD
ENDROOT
BRANCH   1   3
HETATM    3  S1  UNL     1       2.204   0.135  -0.377  1.00  0.00     0.313 S 
HETATM    4  O1  UNL     1       2.608  -1.263  -0.206  1.00  0.00    -0.183 OA
HETATM    5  O2  UNL     1       3.258   0.816  -1.237  1.00  0.00    -0.183 OA
BRANCH   3   6
HETATM    6  N1  UNL     1       2.276   0.911   1.180  1.00  0.00    -0.312 N 
ATOM      7  H12 UNL     1       2.553   0.458   2.051  1.00  0.00     0.170 HD
ATOM      8  H11 UNL     1       1.995   1.884   1.061  1.00  0.00     0.170 HD
ENDBRANCH   3   6
ENDBRANCH   1   3
BRANCH   1   9
HETATM    9  C1  UNL     1      -0.354  -0.472  -0.829  1.00  0.00     0.106 A 
HETATM   10  C2  UNL     1      -1.553  -0.646  -1.625  1.00  0.00     0.040 A 
HETATM   11  C3  UNL     1      -1.654   0.223  -0.367  1.00  0.00     0.072 A 
BRANCH  11  12
HETATM   12  C4  UNL     1      -2.394  -0.354   0.756  1.00  0.00     0.237 C 
HETATM   13  O3  UNL     1      -2.386  -1.553   0.976  1.00  0.00    -0.306 OA
ENDBRANCH  11  12
ENDBRANCH   1   9
TORSDOF 4
