REMARK  4 active torsions:
REMARK  status: ('A' for Active; 'I' for Inactive)
REMARK    1  A    between atoms: N1_1  and  C1_5 
REMARK    2  A    between atoms: C1_5  and  C2_6 
REMARK    3  A    between atoms: C2_6  and  N2_7 
REMARK    4  A    between atoms: N2_7  and  C3_10 
ROOT
HETATM    1  N2  UNL     1      -0.873   0.425  -0.120  1.00  0.00    -0.068 N 
ATOM      2  H21 UNL     1      -0.939   0.287   0.889  1.00  0.00     0.277 HD
ATOM      3  H22 UNL     1      -1.358   1.318  -0.204  1.00  0.00     0.277 HD
ENDROOT
BRANCH   1   4
HETATM    4  C2  UNL     1      -1.581  -0.593  -0.809  1.00  0.00     0.260 C 
BRANCH   4   5
HETATM    5  C1  UNL     1      -3.027  -0.668  -0.354  1.00  0.00     0.257 C 
BRANCH   5   6
HETATM    6  N1  UNL     1      -3.116  -0.949   1.064  1.00  0.00    -0.078 N 
ATOM      7  H13 UNL     1      -2.601  -1.794   1.312  1.00  0.00     0.274 HD
ATOM      8  H12 UNL     1      -2.584  -0.274   1.614  1.00  0.00     0.274 HD
ATOM      9  H11 UNL     1      -4.088  -0.999   1.370  1.00  0.00     0.274 HD
ENDBRANCH   5   6
ENDBRANCH   4   5
ENDBRANCH   1   4
BRANCH   1  10
HETATM   10  C3  UNL     1       0.513   0.558  -0.527  1.00  0.00     0.200 C 
HETATM   11  C4  UNL     1       1.181   1.459   0.458  1.00  0.00     0.049 C 
HETATM   12  C5  UNL     1       2.644   1.260   0.463  1.00  0.00     0.142 C 
HETATM   13  S1  UNL     1       2.915  -0.370  -0.187  1.00  0.00     0.146 S 
HETATM   14  O1  UNL     1       3.774  -0.290  -1.396  1.00  0.00    -0.228 OA
HETATM   15  O2  UNL     1       3.431  -1.324   0.843  1.00  0.00    -0.228 OA
HETATM   16  C6  UNL     1       1.208  -0.747  -0.614  1.00  0.00     0.173 C 
ENDBRANCH   1  10
TORSDOF 4
