REMARK  4 active torsions:
REMARK  status: ('A' for Active; 'I' for Inactive)
REMARK    1  A    between atoms: N1_1  and  S1_4 
REMARK    2  A    between atoms: S1_4  and  N2_7 
REMARK    3  A    between atoms: N2_7  and  C1_9 
REMARK    4  A    between atoms: C1_9  and  C2_10 
ROOT
HETATM    1  N2  UNL     1       1.191  -0.045  -0.685  1.00  0.00    -0.301 N 
ATOM      2  H2  UNL     1       1.262  -0.004  -1.702  1.00  0.00     0.173 HD
ENDROOT
BRANCH   1   3
HETATM    3  S1  UNL     1       2.446  -0.643   0.314  1.00  0.00     0.312 S 
HETATM    4  O1  UNL     1       3.183  -1.685  -0.501  1.00  0.00    -0.183 OA
HETATM    5  O2  UNL     1       1.825  -1.231   1.542  1.00  0.00    -0.183 OA
BRANCH   3   6
HETATM    6  N1  UNL     1       3.526   0.652   0.692  1.00  0.00    -0.312 N 
ATOM      7  H12 UNL     1       4.504   0.693   0.404  1.00  0.00     0.170 HD
ATOM      8  H11 UNL     1       3.030   1.354   1.241  1.00  0.00     0.170 HD
ENDBRANCH   3   6
ENDBRANCH   1   3
BRANCH   1   9
HETATM    9  C1  UNL     1       0.028   0.395   0.037  1.00  0.00     0.165 C 
BRANCH   9  10
HETATM   10  C2  UNL     1      -1.146  -0.566  -0.118  1.00  0.00     0.142 C 
HETATM   11  C3  UNL     1      -2.369   0.172  -0.629  1.00  0.00     0.060 C 
HETATM   12  C4  UNL     1      -2.637   0.186   0.856  1.00  0.00     0.170 C 
HETATM   13  O3  UNL     1      -1.782  -0.881   1.078  1.00  0.00    -0.384 OA
ENDBRANCH   9  10
ENDBRANCH   1   9
TORSDOF 4
