REMARK  2 active torsions:
REMARK  status: ('A' for Active; 'I' for Inactive)
REMARK    1  A    between atoms: C1_4  and  C2_5 
REMARK    2  A    between atoms: N3_10  and  C5_12 
ROOT
HETATM    1  C2  UNL     1      -0.980   0.031  -0.431  1.00  0.00     0.108 C 
HETATM    2  C3  UNL     1      -0.930  -1.379   0.154  1.00  0.00     0.138 C 
HETATM    3  N2  UNL     1       0.404  -1.435  -0.374  1.00  0.00    -0.378 N 
ATOM      4  H2  UNL     1       1.016  -2.164  -0.741  1.00  0.00     0.160 HD
HETATM    5  C4  UNL     1       0.501  -0.042  -0.165  1.00  0.00     0.089 C 
HETATM    6  N3  UNL     1       1.390   0.841   0.122  1.00  0.00    -0.324 N 
ATOM      7  H3  UNL     1       1.121   1.821   0.207  1.00  0.00     0.169 HD
ENDROOT
BRANCH   1   8
HETATM    8  C1  UNL     1      -1.679   1.000   0.441  1.00  0.00     0.066 C 
HETATM    9  N1  UNL     1      -1.806   2.202   0.049  1.00  0.00    -0.410 N 
ATOM     10  H12 UNL     1      -1.426   2.478  -0.856  1.00  0.00     0.155 HD
ATOM     11  H11 UNL     1      -2.288   2.870   0.650  1.00  0.00     0.155 HD
ENDBRANCH   1   8
BRANCH   6  12
HETATM   12  C5  UNL     1       2.730   0.466   0.320  1.00  0.00     0.354 C 
HETATM   13  O1  UNL     1       3.469   0.308  -0.681  1.00  0.00    -0.283 OA
ENDBRANCH   6  12
TORSDOF 2
