REMARK  2 active torsions:
REMARK  status: ('A' for Active; 'I' for Inactive)
REMARK    1  A    between atoms: C2_2  and  C3_3 
REMARK    2  A    between atoms: C5_5  and  N1_6 
REMARK       I    between atoms: N1_6  and  C6_8 
ROOT
HETATM    1  C3  UNL     1      -1.044  -0.466   0.753  1.00  0.00     0.032 A 
HETATM    2  C4  UNL     1      -0.773   1.010   0.791  1.00  0.00     0.036 A 
HETATM    3  C5  UNL     1       0.058   0.037  -0.048  1.00  0.00     0.094 A 
ENDROOT
BRANCH   3   4
HETATM    4  N1  UNL     1       1.433  -0.004   0.311  1.00  0.00    -0.340 N 
HETATM    5  C6  UNL     1       2.523   0.003  -0.593  1.00  0.00     0.329 C 
HETATM    6  N2  UNL     1       3.861  -0.041  -0.137  1.00  0.00    -0.040 NA
HETATM    7  O1  UNL     1       2.379   0.048  -1.848  1.00  0.00    -0.251 OA
ATOM      8  H1  UNL     1       1.654  -0.042   1.306  1.00  0.00     0.164 HD
ENDBRANCH   3   4
BRANCH   1   9
HETATM    9  C2  UNL     1      -2.332  -0.805   0.036  1.00  0.00    -0.030 C 
HETATM   10  C1  UNL     1      -3.464  -0.204   0.335  1.00  0.00     0.007 C 
ENDBRANCH   1   9
TORSDOF 2
