REMARK  2 active torsions:
REMARK  status: ('A' for Active; 'I' for Inactive)
REMARK    1  A    between atoms: C4_7  and  N2_8 
REMARK    2  A    between atoms: N2_8  and  C5_11 
ROOT
HETATM    1  N2  UNL     1      -0.543  -0.945   0.484  1.00  0.00    -0.063 N 
ATOM      2  H21 UNL     1      -0.493  -1.248   1.457  1.00  0.00     0.278 HD
ATOM      3  H22 UNL     1      -0.811  -1.837   0.067  1.00  0.00     0.278 HD
ENDROOT
BRANCH   1   4
HETATM    4  C4  UNL     1       0.711  -0.480  -0.000  1.00  0.00     0.212 C 
HETATM    5  C3  UNL     1       1.769  -1.593  -0.049  1.00  0.00     0.265 C 
HETATM    6  N1  UNL     1       2.838  -1.036  -0.877  1.00  0.00    -0.073 N 
HETATM    7  C2  UNL     1       3.528  -0.002  -0.160  1.00  0.00     0.232 C 
ATOM      8  H12 UNL     1       2.492  -0.709  -1.779  1.00  0.00     0.277 HD
ATOM      9  H11 UNL     1       3.475  -1.758  -1.214  1.00  0.00     0.277 HD
HETATM   10  C1  UNL     1       2.672   1.003   0.503  1.00  0.00     0.029 C 
HETATM   11  C9  UNL     1       1.311   0.580   0.893  1.00  0.00     0.036 C 
ENDBRANCH   1   4
BRANCH   1  12
HETATM   12  C5  UNL     1      -1.536   0.069   0.282  1.00  0.00     0.213 C 
HETATM   13  C6  UNL     1      -2.895  -0.322   0.873  1.00  0.00     0.062 C 
HETATM   14  C7  UNL     1      -3.804   0.636   0.128  1.00  0.00     0.234 C 
HETATM   15  N3  UNL     1      -3.143   1.010  -1.082  1.00  0.00    -0.073 N 
HETATM   16  C8  UNL     1      -1.922   0.213  -1.178  1.00  0.00     0.265 C 
ATOM     17  H32 UNL     1      -3.740   0.924  -1.905  1.00  0.00     0.277 HD
ATOM     18  H31 UNL     1      -2.970   2.013  -1.147  1.00  0.00     0.277 HD
ENDBRANCH   1  12
TORSDOF 2
