REMARK  3 active torsions:
REMARK  status: ('A' for Active; 'I' for Inactive)
REMARK    1  A    between atoms: O1_2  and  C2_3 
REMARK    2  A    between atoms: C2_3  and  N2_7 
REMARK       I    between atoms: C3_9  and  N4_11 
REMARK    3  A    between atoms: N4_11  and  N5_13 
ROOT
HETATM    1  N2  UNL     1      -0.853   0.114   1.104  1.00  0.00    -0.295 N 
ATOM      2  H2  UNL     1      -0.510  -0.531   1.816  1.00  0.00     0.172 HD
HETATM    3  C3  UNL     1      -0.065   1.030   0.626  1.00  0.00     0.210 C 
HETATM    4  N3  UNL     1      -0.545   1.916  -0.355  1.00  0.00    -0.062 NA
HETATM    5  N4  UNL     1       1.258   1.079   1.134  1.00  0.00    -0.274 N 
ATOM      6  H4  UNL     1       1.538   1.914   1.649  1.00  0.00     0.189 HD
ENDROOT
BRANCH   1   7
HETATM    7  C2  UNL     1      -2.210   0.008   0.631  1.00  0.00     0.218 C 
HETATM    8  N1  UNL     1      -2.985   1.029   0.697  1.00  0.00    -0.365 N 
ATOM      9  H12 UNL     1      -3.946   0.954   0.362  1.00  0.00     0.159 HD
ATOM     10  H11 UNL     1      -2.624   1.900   1.085  1.00  0.00     0.159 HD
BRANCH   7  11
HETATM   11  O1  UNL     1      -2.695  -1.161   0.110  1.00  0.00    -0.327 OA
HETATM   12  C1  UNL     1      -4.101  -1.431   0.001  1.00  0.00     0.213 C 
ENDBRANCH   7  11
ENDBRANCH   1   7
BRANCH   5  13
HETATM   13  N5  UNL     1       2.196   0.072   0.979  1.00  0.00    -0.307 N 
HETATM   14  C4  UNL     1       2.590  -0.408  -0.141  1.00  0.00    -0.004 C 
HETATM   15  C5  UNL     1       2.106   0.037  -1.456  1.00  0.00     0.064 C 
HETATM   16  C6  UNL     1       3.621  -1.502  -0.068  1.00  0.00     0.064 C 
ATOM     17  H5  UNL     1       2.607  -0.320   1.827  1.00  0.00     0.186 HD
ENDBRANCH   5  13
TORSDOF 3
