REMARK  5 active torsions:
REMARK  status: ('A' for Active; 'I' for Inactive)
REMARK    1  A    between atoms: S1_2  and  C2_3 
REMARK    2  A    between atoms: C2_3  and  N2_13 
REMARK    3  A    between atoms: N1_4  and  C3_6 
REMARK    4  A    between atoms: C3_6  and  C6_9 
REMARK    5  A    between atoms: N2_13  and  C7_15 
ROOT
HETATM    1  C2  UNL     1      -1.229   1.166   0.166  1.00  0.00     0.136 C 
HETATM    2  N1  UNL     1      -2.111   0.553   0.765  1.00  0.00    -0.354 N 
ATOM      3  H1  UNL     1      -2.617   1.182   1.389  1.00  0.00     0.162 HD
ENDROOT
BRANCH   1   4
HETATM    4  S1  UNL     1      -1.055   2.931   0.515  1.00  0.00    -0.099 SA
HETATM    5  C1  UNL     1       0.202   3.670  -0.520  1.00  0.00     0.099 C 
ENDBRANCH   1   4
BRANCH   1   6
HETATM    6  N2  UNL     1      -0.344   0.615  -0.783  1.00  0.00    -0.366 N 
ATOM      7  H2  UNL     1      -0.620   0.669  -1.764  1.00  0.00     0.162 HD
BRANCH   6   8
HETATM    8  C7  UNL     1       0.904  -0.012  -0.491  1.00  0.00     0.083 C 
HETATM    9  C8  UNL     1       1.618  -0.484  -1.736  1.00  0.00     0.025 C 
HETATM   10  C9  UNL     1       3.113  -0.482  -1.585  1.00  0.00     0.002 C 
HETATM   11  C10 UNL     1       3.619  -0.748  -0.223  1.00  0.00     0.000 C 
HETATM   12  C11 UNL     1       2.850  -0.218   0.924  1.00  0.00     0.002 C 
HETATM   13  C12 UNL     1       1.832   0.802   0.385  1.00  0.00     0.025 C 
ENDBRANCH   6   8
ENDBRANCH   1   6
BRANCH   2  14
HETATM   14  C3  UNL     1      -2.631  -0.735   0.853  1.00  0.00     0.122 C 
HETATM   15  C4  UNL     1      -4.174  -0.587   0.804  1.00  0.00     0.047 C 
HETATM   16  C5  UNL     1      -2.308  -1.612  -0.334  1.00  0.00     0.047 C 
BRANCH  14  17
HETATM   17  C6  UNL     1      -2.318  -1.465   2.144  1.00  0.00     0.411 C 
HETATM   18  F1  UNL     1      -2.829  -0.773   3.238  1.00  0.00    -0.168 F 
HETATM   19  F2  UNL     1      -0.968  -1.593   2.381  1.00  0.00    -0.168 F 
HETATM   20  F3  UNL     1      -2.869  -2.731   2.157  1.00  0.00    -0.168 F 
ENDBRANCH  14  17
ENDBRANCH   2  14
TORSDOF 5
