REMARK  2 active torsions:
REMARK  status: ('A' for Active; 'I' for Inactive)
REMARK    1  A    between atoms: C11_12  and  N1_13 
REMARK    2  A    between atoms: N1_13  and  C12_15 
ROOT
HETATM    1  C1  UNL     1       1.433   2.847  -0.141  1.00  0.00     0.016 C 
HETATM    2  C2  UNL     1       0.343   1.836  -0.427  1.00  0.00     0.029 C 
HETATM    3  C3  UNL     1      -0.879   2.215   0.294  1.00  0.00    -0.000 C 
HETATM    4  C4  UNL     1      -1.741   1.324   0.706  1.00  0.00     0.017 C 
HETATM    5 CL1  UNL     1      -3.171   1.854   1.556  1.00  0.00    -0.088 Cl
HETATM    6  C5  UNL     1      -1.552  -0.109   0.484  1.00  0.00    -0.001 C 
HETATM    7  C6  UNL     1      -2.843  -0.688  -0.115  1.00  0.00     0.021 C 
HETATM    8  C7  UNL     1      -1.441  -0.755   1.860  1.00  0.00     0.021 C 
HETATM    9  C8  UNL     1      -0.372  -0.459  -0.384  1.00  0.00    -0.015 C 
HETATM   10  C9  UNL     1      -0.121  -1.919  -0.280  1.00  0.00     0.018 C 
HETATM   11  C10 UNL     1      -0.790  -0.166  -1.831  1.00  0.00     0.018 C 
HETATM   12  C11 UNL     1       0.771   0.435   0.015  1.00  0.00     0.099 C 
ENDROOT
BRANCH  12  13
HETATM   13  N1  UNL     1       2.044   0.094  -0.523  1.00  0.00    -0.367 N 
ATOM     14  H1  UNL     1       2.451   0.755  -1.184  1.00  0.00     0.161 HD
BRANCH  13  15
HETATM   15  C12 UNL     1       2.805  -1.065  -0.238  1.00  0.00     0.175 A 
HETATM   16  N2  UNL     1       3.193  -2.225  -0.827  1.00  0.00    -0.304 N 
HETATM   17  C13 UNL     1       3.636  -2.000   0.492  1.00  0.00     0.382 A 
ATOM     18  H2  UNL     1       3.176  -2.832  -1.647  1.00  0.00     0.167 HD
HETATM   19  F1  UNL     1       5.014  -1.763   0.597  1.00  0.00    -0.174 F 
HETATM   20  F2  UNL     1       3.172  -2.751   1.546  1.00  0.00    -0.174 F 
ENDBRANCH  13  15
ENDBRANCH  12  13
TORSDOF 2
