REMARK  3 active torsions:
REMARK  status: ('A' for Active; 'I' for Inactive)
REMARK    1  A    between atoms: C4_5  and  N2_6 
REMARK    2  A    between atoms: N3_9  and  C7_10 
REMARK    3  A    between atoms: C15_18  and  O1_19 
ROOT
HETATM    1  N2  UNL     1      -1.631   0.240   0.374  1.00  0.00    -0.374 N 
HETATM    2  C5  UNL     1      -0.943   1.385   0.930  1.00  0.00     0.153 C 
HETATM    3  C6  UNL     1       0.469   1.379   0.320  1.00  0.00     0.292 C 
HETATM    4  N3  UNL     1       1.193   0.213   0.700  1.00  0.00     0.096 N 
HETATM    5  C13 UNL     1       0.384  -0.945   0.762  1.00  0.00     0.292 C 
HETATM    6  C14 UNL     1      -0.832  -0.808  -0.167  1.00  0.00     0.153 C 
ENDROOT
BRANCH   1   7
HETATM    7  C4  UNL     1      -3.040   0.193   0.391  1.00  0.00     0.083 A 
HETATM    8  C3  UNL     1      -3.888   1.125   1.011  1.00  0.00     0.051 A 
HETATM    9  C2  UNL     1      -5.178   0.705   0.801  1.00  0.00     0.095 A 
HETATM   10  N1  UNL     1      -5.193  -0.422   0.094  1.00  0.00    -0.340 N 
HETATM   11  C1  UNL     1      -6.354  -1.181  -0.332  1.00  0.00     0.158 C 
HETATM   12  C15 UNL     1      -3.901  -0.731  -0.154  1.00  0.00     0.169 A 
BRANCH  12  13
HETATM   13  O1  UNL     1      -3.553  -1.881  -0.892  1.00  0.00    -0.344 OA
ATOM     14  H1  UNL     1      -2.645  -2.098  -1.066  1.00  0.00     0.219 HD
ENDBRANCH  12  13
ENDBRANCH   1   7
BRANCH   4  15
HETATM   15  C7  UNL     1       2.400   0.005  -0.071  1.00  0.00     0.223 C 
HETATM   16  C8  UNL     1       3.293  -0.928   0.686  1.00  0.00     0.036 C 
HETATM   17  C9  UNL     1       4.452  -1.224  -0.280  1.00  0.00     0.002 C 
HETATM   18  C10 UNL     1       5.258   0.063  -0.252  1.00  0.00     0.000 C 
HETATM   19  C11 UNL     1       4.490   1.224  -0.809  1.00  0.00     0.002 C 
HETATM   20  C12 UNL     1       3.060   1.281  -0.476  1.00  0.00     0.036 C 
ENDBRANCH   4  15
TORSDOF 3
