REMARK  3 active torsions:
REMARK  status: ('A' for Active; 'I' for Inactive)
REMARK    1  A    between atoms: C3_3  and  N1_4 
REMARK    2  A    between atoms: C5_6  and  C6_7 
REMARK    3  A    between atoms: C12_18  and  C13_19 
ROOT
HETATM    1  C1  UNL     1      -0.906   0.827   0.969  1.00  0.00     0.051 C 
HETATM    2  C2  UNL     1      -1.269  -0.189  -0.016  1.00  0.00    -0.025 A 
HETATM    3  C3  UNL     1      -0.278  -1.041  -0.508  1.00  0.00     0.059 A 
HETATM    4  C10 UNL     1      -0.602  -1.987  -1.428  1.00  0.00     0.117 A 
HETATM    5  N4  UNL     1      -1.841  -2.132  -1.882  1.00  0.00    -0.372 N 
ATOM      6  H4  UNL     1      -2.066  -2.848  -2.573  1.00  0.00     0.164 HD
HETATM    7  C11 UNL     1      -2.787  -1.311  -1.406  1.00  0.00     0.096 A 
HETATM    8  C12 UNL     1      -2.575  -0.318  -0.472  1.00  0.00    -0.027 A 
ENDROOT
BRANCH   3   9
HETATM    9  N1  UNL     1       1.085  -0.958  -0.111  1.00  0.00    -0.318 N 
HETATM   10  C4  UNL     1       1.956   0.154  -0.418  1.00  0.00     0.157 C 
HETATM   11  C5  UNL     1       3.062   0.057   0.623  1.00  0.00     0.106 C 
HETATM   12  N2  UNL     1       2.961  -1.314   1.034  1.00  0.00    -0.358 N 
HETATM   13  C9  UNL     1       1.874  -1.874   0.632  1.00  0.00     0.191 C 
ATOM     14  H2  UNL     1       3.673  -1.793   1.585  1.00  0.00     0.162 HD
HETATM   15  N3  UNL     1       1.514  -3.217   0.893  1.00  0.00    -0.063 NA
BRANCH  11  16
HETATM   16  C6  UNL     1       4.385   0.350  -0.051  1.00  0.00     0.002 C 
HETATM   17  C7  UNL     1       5.510   0.263   0.955  1.00  0.00     0.011 C 
HETATM   18  C8  UNL     1       4.359   1.719  -0.673  1.00  0.00     0.011 C 
ENDBRANCH  11  16
ENDBRANCH   3   9
BRANCH   8  19
HETATM   19  C13 UNL     1      -3.694   0.515  -0.011  1.00  0.00    -0.022 C 
HETATM   20  C14 UNL     1      -4.947   0.067  -0.785  1.00  0.00     0.019 C 
HETATM   21  C15 UNL     1      -4.081   0.294   1.437  1.00  0.00     0.019 C 
HETATM   22  C16 UNL     1      -3.507   1.978  -0.293  1.00  0.00     0.019 C 
ENDBRANCH   8  19
TORSDOF 3
