REMARK  3 active torsions:
REMARK  status: ('A' for Active; 'I' for Inactive)
REMARK    1  A    between atoms: C2_2  and  C3_3 
REMARK    2  A    between atoms: C3_3  and  C4_4 
REMARK    3  A    between atoms: C4_4  and  O1_5 
ROOT
HETATM    1  C3  UNL     1       1.620  -0.217  -0.052  1.00  0.00     0.119 C 
HETATM    2  O2  UNL     1       1.348  -1.622  -0.146  1.00  0.00    -0.369 OA
HETATM    3  C5  UNL     1       0.088  -1.811   0.358  1.00  0.00     0.126 C 
HETATM    4  C6  UNL     1      -0.572  -2.900  -0.450  1.00  0.00     0.040 C 
HETATM    5  C7  UNL     1      -0.597  -0.514   0.397  1.00  0.00     0.066 C 
HETATM    6  C8  UNL     1      -2.022  -0.425   0.134  1.00  0.00    -0.038 C 
HETATM    7  C9  UNL     1      -2.585  -0.828  -1.150  1.00  0.00     0.015 C 
HETATM    8  C10 UNL     1      -2.760  -1.190   1.242  1.00  0.00     0.015 C 
HETATM    9  C11 UNL     1      -2.390   1.054   0.375  1.00  0.00     0.012 C 
HETATM   10  C12 UNL     1      -1.595   1.837  -0.614  1.00  0.00     0.045 C 
HETATM   11  C13 UNL     1      -0.086   1.721  -0.384  1.00  0.00     0.130 C 
HETATM   12  C14 UNL     1       0.347   2.704   0.616  1.00  0.00     0.052 C 
HETATM   13  O3  UNL     1       0.502   1.747  -1.648  1.00  0.00    -0.226 OA
HETATM   14  O4  UNL     1       0.132   0.465  -1.747  1.00  0.00    -0.222 OA
HETATM   15  C15 UNL     1       0.339   0.354  -0.395  1.00  0.00     0.169 C 
ENDROOT
BRANCH   1  16
HETATM   16  C2  UNL     1       2.776  -0.043  -1.002  1.00  0.00     0.039 C 
HETATM   17  C1  UNL     1       3.469   1.276  -0.932  1.00  0.00     0.008 C 
ENDBRANCH   1  16
BRANCH   1  18
HETATM   18  C4  UNL     1       2.127  -0.046   1.356  1.00  0.00     0.205 C 
BRANCH  18  19
HETATM   19  O1  UNL     1       3.281  -0.848   1.474  1.00  0.00    -0.398 OA
ATOM     20  H1  UNL     1       3.601  -0.740   2.362  1.00  0.00     0.209 HD
ENDBRANCH  18  19
ENDBRANCH   1  18
TORSDOF 3
