REMARK  2 active torsions:
REMARK  status: ('A' for Active; 'I' for Inactive)
REMARK    1  A    between atoms: C2_2  and  C3_3 
REMARK    2  A    between atoms: C12_13  and  O2_14 
ROOT
HETATM    1  C3  UNL     1      -1.811   0.151  -0.388  1.00  0.00     0.023 C 
HETATM    2  C4  UNL     1      -3.100  -0.186   0.376  1.00  0.00     0.008 C 
HETATM    3  C5  UNL     1      -2.836  -1.613   0.719  1.00  0.00     0.004 C 
HETATM    4  C6  UNL     1      -1.342  -1.748   0.888  1.00  0.00     0.042 C 
HETATM    5  C7  UNL     1      -0.696  -0.503   0.285  1.00  0.00     0.102 C 
HETATM    6  O1  UNL     1       0.078   0.190   1.164  1.00  0.00    -0.359 OA
HETATM    7  C8  UNL     1       1.339   0.420   0.680  1.00  0.00     0.107 C 
HETATM    8  C9  UNL     1       2.360  -0.613   1.152  1.00  0.00     0.045 C 
HETATM    9  C10 UNL     1       2.537  -1.697   0.077  1.00  0.00     0.007 C 
HETATM   10  C11 UNL     1       1.098  -2.204  -0.131  1.00  0.00     0.047 C 
HETATM   11  C12 UNL     1       0.320  -1.051  -0.740  1.00  0.00     0.132 C 
HETATM   12  C13 UNL     1       1.187   0.187  -0.783  1.00  0.00     0.082 C 
HETATM   13  N1  UNL     1       1.702   0.901  -1.697  1.00  0.00    -0.269 N 
ATOM     14  H1  UNL     1       1.552   0.677  -2.681  1.00  0.00     0.194 HD
HETATM   15  O3  UNL     1       2.473   1.993  -1.327  1.00  0.00    -0.280 OA
HETATM   16  C14 UNL     1       2.971   2.136  -0.011  1.00  0.00     0.204 C 
HETATM   17  C15 UNL     1       1.933   1.748   1.025  1.00  0.00     0.073 C 
ENDROOT
BRANCH   1  18
HETATM   18  C2  UNL     1      -1.849   1.599  -0.621  1.00  0.00     0.003 C 
HETATM   19  C1  UNL     1      -1.924   2.449   0.624  1.00  0.00     0.005 C 
ENDBRANCH   1  18
BRANCH  11  20
HETATM   20  O2  UNL     1      -0.254  -1.337  -1.942  1.00  0.00    -0.381 OA
ATOM     21  H2  UNL     1       0.371  -1.674  -2.573  1.00  0.00     0.211 HD
ENDBRANCH  11  20
TORSDOF 2
