REMARK  4 active torsions:
REMARK  status: ('A' for Active; 'I' for Inactive)
REMARK    1  A    between atoms: C2_2  and  N1_4 
REMARK    2  A    between atoms: N1_4  and  C4_6 
REMARK    3  A    between atoms: C4_6  and  O1_8 
REMARK    4  A    between atoms: O1_8  and  C5_9 
ROOT
HETATM    1  C5  UNL     1      -0.528   0.054  -0.627  1.00  0.00     0.194 C 
HETATM    2  C6  UNL     1      -0.261   0.879   0.614  1.00  0.00     0.039 C 
HETATM    3  C7  UNL     1      -1.642   1.357   1.076  1.00  0.00     0.017 C 
HETATM    4  C8  UNL     1      -2.477   0.134   0.817  1.00  0.00     0.012 C 
HETATM    5  C9  UNL     1      -2.353  -0.860   1.937  1.00  0.00     0.020 C 
HETATM    6  C10 UNL     1      -3.916   0.583   0.693  1.00  0.00     0.020 C 
HETATM    7  C11 UNL     1      -1.947  -0.371  -0.485  1.00  0.00     0.198 C 
HETATM    8  O2  UNL     1      -2.696   0.197  -1.525  1.00  0.00    -0.350 OA
HETATM    9  C12 UNL     1      -2.377  -0.579  -2.639  1.00  0.00     0.198 C 
HETATM   10  C13 UNL     1      -2.122  -1.921  -2.038  1.00  0.00     0.198 C 
HETATM   11  O3  UNL     1      -2.116  -1.747  -0.638  1.00  0.00    -0.350 OA
ENDROOT
BRANCH   1  12
HETATM   12  O1  UNL     1       0.378  -1.020  -0.758  1.00  0.00    -0.316 OA
BRANCH  12  13
HETATM   13  C4  UNL     1       1.724  -0.711  -0.853  1.00  0.00     0.210 C 
HETATM   14  S1  UNL     1       2.274  -0.336  -2.341  1.00  0.00    -0.033 SA
BRANCH  13  15
HETATM   15  N1  UNL     1       2.624  -0.703   0.241  1.00  0.00    -0.358 N 
ATOM     16  H1  UNL     1       2.256  -0.942   1.162  1.00  0.00     0.162 HD
BRANCH  15  17
HETATM   17  C2  UNL     1       4.014  -0.382   0.140  1.00  0.00     0.076 C 
HETATM   18  C1  UNL     1       4.271   1.007  -0.381  1.00  0.00     0.032 C 
HETATM   19  C3  UNL     1       4.679  -0.483   1.493  1.00  0.00     0.032 C 
ENDBRANCH  15  17
ENDBRANCH  13  15
ENDBRANCH  12  13
ENDBRANCH   1  12
TORSDOF 4
