REMARK  2 active torsions:
REMARK  status: ('A' for Active; 'I' for Inactive)
REMARK    1  A    between atoms: C3_5  and  C4_6 
REMARK    2  A    between atoms: N2_10  and  C8_11 
ROOT
HETATM    1  C4  UNL     1       1.774  -0.887   0.084  1.00  0.00     0.034 C 
HETATM    2  C5  UNL     1       1.694  -1.948  -0.954  1.00  0.00     0.025 C 
HETATM    3  C6  UNL     1       1.212  -1.336   1.382  1.00  0.00     0.038 C 
HETATM    4  C7  UNL     1      -0.299  -1.320   1.096  1.00  0.00     0.119 C 
HETATM    5  N2  UNL     1      -0.430  -0.271   0.222  1.00  0.00    -0.403 N 
HETATM    6  C15 UNL     1       0.746   0.189  -0.336  1.00  0.00     0.134 C 
ENDROOT
BRANCH   1   7
HETATM    7  C3  UNL     1       3.069  -0.201   0.155  1.00  0.00     0.114 A 
HETATM    8  N1  UNL     1       3.687   0.448   1.123  1.00  0.00    -0.326 N 
HETATM    9  C2  UNL     1       4.859   0.946   0.621  1.00  0.00     0.144 A 
ATOM     10  H1  UNL     1       3.350   0.559   2.079  1.00  0.00     0.169 HD
HETATM   11  C1  UNL     1       5.898   1.752   1.324  1.00  0.00     0.100 C 
HETATM   12  O1  UNL     1       4.904   0.579  -0.637  1.00  0.00    -0.223 OA
HETATM   13  N3  UNL     1       3.879  -0.089  -0.943  1.00  0.00    -0.246 N 
ATOM     14  H3  UNL     1       3.684  -0.484  -1.863  1.00  0.00     0.196 HD
ENDBRANCH   1   7
BRANCH   5  15
HETATM   15  C8  UNL     1      -1.655   0.239  -0.235  1.00  0.00     0.024 C 
HETATM   16  C9  UNL     1      -1.276   1.207  -1.377  1.00  0.00     0.038 C 
HETATM   17  C10 UNL     1      -2.274   1.039   0.840  1.00  0.00     0.030 C 
HETATM   18  C11 UNL     1      -3.747   0.802   1.040  1.00  0.00     0.002 C 
HETATM   19  C12 UNL     1      -4.416   0.631  -0.298  1.00  0.00     0.000 C 
HETATM   20  C13 UNL     1      -3.930  -0.655  -0.889  1.00  0.00     0.002 C 
HETATM   21  C14 UNL     1      -2.462  -0.867  -0.820  1.00  0.00     0.030 C 
ENDBRANCH   5  15
TORSDOF 2
