REMARK  7 active torsions:
REMARK  status: ('A' for Active; 'I' for Inactive)
REMARK    1  A    between atoms: C3_3  and  N1_4 
REMARK    2  A    between atoms: N1_4  and  C4_5 
REMARK    3  A    between atoms: N1_4  and  C6_9 
REMARK    4  A    between atoms: C4_5  and  C5_6 
REMARK    5  A    between atoms: C5_6  and  O1_7 
REMARK    6  A    between atoms: N2_19  and  C12_20 
REMARK    7  A    between atoms: C14_22  and  C15_23 
REMARK       I    between atoms: C15_23  and  N3_25 
ROOT
HETATM    1  C1  UNL     1       5.225   2.830   0.182  1.00  0.00     0.014 C 
HETATM    2  C2  UNL     1       4.878   1.796   0.705  1.00  0.00    -0.097 C 
HETATM    3  C3  UNL     1       4.447   0.564   1.349  1.00  0.00     0.221 C 
ENDROOT
BRANCH   3   4
HETATM    4  N1  UNL     1       4.012  -0.331   0.221  1.00  0.00    -0.347 N 
BRANCH   4   5
HETATM    5  C4  UNL     1       5.063  -0.761  -0.608  1.00  0.00     0.091 C 
BRANCH   5   6
HETATM    6  C5  UNL     1       4.732  -1.639  -1.771  1.00  0.00     0.208 C 
BRANCH   6   7
HETATM    7  O1  UNL     1       3.837  -1.026  -2.641  1.00  0.00    -0.396 OA
ATOM      8  H1  UNL     1       3.627  -1.584  -3.380  1.00  0.00     0.209 HD
ENDBRANCH   6   7
ENDBRANCH   5   6
ENDBRANCH   4   5
BRANCH   4   9
HETATM    9  C6  UNL     1       2.625  -0.525   0.172  1.00  0.00     0.037 A 
HETATM   10  C7  UNL     1       2.013  -1.661  -0.238  1.00  0.00     0.051 A 
HETATM   11  C8  UNL     1       0.614  -1.741  -0.288  1.00  0.00     0.041 A 
HETATM   12 BR1  UNL     1      -0.052  -3.449  -0.894  1.00  0.00    -0.049 Br
HETATM   13  C9  UNL     1      -0.239  -0.712   0.062  1.00  0.00     0.075 A 
HETATM   14  C10 UNL     1       0.423   0.439   0.484  1.00  0.00     0.110 A 
HETATM   15  N4  UNL     1      -1.615  -0.810  -0.097  1.00  0.00    -0.335 N 
HETATM   16  C11 UNL     1       1.762   0.528   0.534  1.00  0.00     0.057 A 
HETATM   17  S1  UNL     1      -0.555   1.744   1.064  1.00  0.00     0.268 S 
HETATM   18  O2  UNL     1      -0.564   1.869   2.539  1.00  0.00    -0.200 OA
HETATM   19  O3  UNL     1      -0.085   3.027   0.395  1.00  0.00    -0.200 OA
HETATM   20  N2  UNL     1      -2.169   1.423   0.501  1.00  0.00    -0.252 N 
HETATM   21  C14 UNL     1      -2.501   0.106   0.092  1.00  0.00     0.187 C 
ATOM     22  H4  UNL     1      -1.967  -1.718  -0.400  1.00  0.00     0.168 HD
BRANCH  20  23
HETATM   23  C12 UNL     1      -3.021   2.568   0.464  1.00  0.00     0.139 C 
HETATM   24  C13 UNL     1      -3.700   2.886   1.780  1.00  0.00     0.028 C 
ENDBRANCH  20  23
BRANCH  21  25
HETATM   25  C15 UNL     1      -3.902  -0.211  -0.082  1.00  0.00     0.287 C 
HETATM   26  O4  UNL     1      -4.771   0.699   0.151  1.00  0.00    -0.264 OA
HETATM   27  N3  UNL     1      -4.454  -1.427  -0.486  1.00  0.00    -0.354 N 
HETATM   28  C16 UNL     1      -3.752  -2.623  -0.819  1.00  0.00     0.152 C 
HETATM   29  C17 UNL     1      -5.934  -1.527  -0.593  1.00  0.00     0.152 C 
ENDBRANCH  21  25
ENDBRANCH   4   9
ENDBRANCH   3   4
TORSDOF 7
