REMARK  10 active torsions:
REMARK  status: ('A' for Active; 'I' for Inactive)
REMARK    1  A    between atoms: C3_5  and  C4_6 
REMARK    2  A    between atoms: C4_6  and  C5_7 
REMARK    3  A    between atoms: N3_13  and  O1_14 
REMARK    4  A    between atoms: N4_16  and  C10_17 
REMARK    5  A    between atoms: C16_24  and  C17_25 
REMARK    6  A    between atoms: C17_25  and  C18_26 
REMARK    7  A    between atoms: C23_31  and  O2_32 
REMARK    8  A    between atoms: O2_32  and  C24_33 
REMARK    9  A    between atoms: C24_33  and  C25_34 
REMARK   10  A    between atoms: C25_34  and  O3_35 
ROOT
HETATM    1  C1  UNL     1       0.038  -3.275  -1.437  1.00  0.00     0.070 C 
HETATM    2  C2  UNL     1       0.362  -1.912  -0.970  1.00  0.00     0.034 A 
HETATM    3  N1  UNL     1       1.583  -1.567  -0.550  1.00  0.00    -0.344 N 
ATOM      4  H1  UNL     1       2.398  -2.179  -0.505  1.00  0.00     0.167 HD
HETATM    5  C3  UNL     1       1.547  -0.289  -0.202  1.00  0.00     0.115 A 
HETATM    6  N4  UNL     1       0.269   0.165  -0.414  1.00  0.00    -0.296 N 
HETATM    7  C16 UNL     1      -0.499  -0.803  -0.889  1.00  0.00     0.064 A 
ENDROOT
BRANCH   7   8
HETATM    8  C17 UNL     1      -1.748  -0.783  -1.215  1.00  0.00     0.046 C 
BRANCH   8   9
HETATM    9  C18 UNL     1      -2.773   0.190  -1.215  1.00  0.00    -0.001 A 
HETATM   10  C19 UNL     1      -2.833   1.187  -2.149  1.00  0.00     0.014 A 
HETATM   11  C20 UNL     1      -3.856   2.127  -2.170  1.00  0.00     0.001 A 
HETATM   12  C21 UNL     1      -4.838   2.067  -1.236  1.00  0.00     0.003 A 
HETATM   13  C22 UNL     1      -4.818   1.083  -0.280  1.00  0.00     0.037 A 
HETATM   14  C23 UNL     1      -3.792   0.165  -0.283  1.00  0.00     0.079 A 
BRANCH  14  15
HETATM   15  O2  UNL     1      -3.793  -0.801   0.674  1.00  0.00    -0.348 OA
BRANCH  15  16
HETATM   16  C24 UNL     1      -4.812  -0.862   1.642  1.00  0.00     0.201 C 
BRANCH  16  17
HETATM   17  C25 UNL     1      -4.567  -2.038   2.588  1.00  0.00     0.190 C 
BRANCH  17  18
HETATM   18  O3  UNL     1      -5.559  -2.119   3.552  1.00  0.00    -0.399 OA
ATOM     19  H3  UNL     1      -5.407  -2.850   4.140  1.00  0.00     0.209 HD
ENDBRANCH  17  18
ENDBRANCH  16  17
ENDBRANCH  15  16
ENDBRANCH  14  15
ENDBRANCH   8   9
ENDBRANCH   7   8
BRANCH   6  20
HETATM   20  C10 UNL     1       0.009   1.526  -0.105  1.00  0.00     0.041 A 
HETATM   21  C11 UNL     1      -0.687   1.909   1.018  1.00  0.00     0.033 A 
HETATM   22  C12 UNL     1      -0.932   3.217   1.367  1.00  0.00     0.044 A 
HETATM   23  C13 UNL     1      -0.447   4.203   0.535  1.00  0.00     0.116 A 
HETATM   24  F1  UNL     1      -0.695   5.505   0.889  1.00  0.00    -0.206 F 
HETATM   25  C14 UNL     1       0.258   3.876  -0.605  1.00  0.00     0.044 A 
HETATM   26  C15 UNL     1       0.482   2.556  -0.920  1.00  0.00     0.033 A 
ENDBRANCH   6  20
BRANCH   5  27
HETATM   27  C4  UNL     1       2.573   0.417   0.267  1.00  0.00     0.081 C 
BRANCH  27  28
HETATM   28  C5  UNL     1       3.890  -0.188   0.448  1.00  0.00     0.068 A 
HETATM   29  C6  UNL     1       4.398  -0.399   1.730  1.00  0.00     0.049 A 
HETATM   30  C7  UNL     1       5.653  -0.977   1.804  1.00  0.00     0.093 A 
HETATM   31  N2  UNL     1       6.359  -1.324   0.724  1.00  0.00    -0.355 N 
HETATM   32  C8  UNL     1       7.683  -1.933   0.848  1.00  0.00     0.156 C 
HETATM   33  C9  UNL     1       5.832  -1.103  -0.491  1.00  0.00     0.215 A 
HETATM   34  N3  UNL     1       4.603  -0.538  -0.637  1.00  0.00    -0.220 N 
BRANCH  34  35
HETATM   35  O1  UNL     1       4.047  -0.304  -1.871  1.00  0.00    -0.282 OA
ATOM     36  H1  UNL     1       4.551  -0.551  -2.638  1.00  0.00     0.245 HD
ENDBRANCH  34  35
ENDBRANCH  27  28
ENDBRANCH   5  27
TORSDOF 10
