REMARK  6 active torsions:
REMARK  status: ('A' for Active; 'I' for Inactive)
REMARK    1  A    between atoms: C2_2  and  C3_4 
REMARK    2  A    between atoms: C10_12  and  O2_13 
REMARK    3  A    between atoms: O2_13  and  C11_14 
REMARK    4  A    between atoms: C11_14  and  C12_15 
REMARK    5  A    between atoms: C12_15  and  N2_16 
REMARK    6  A    between atoms: N3_24  and  O4_25 
ROOT
HETATM    1  C11 UNL     1       0.260  -1.354  -0.728  1.00  0.00     0.200 C 
ENDROOT
BRANCH   1   2
HETATM    2  O2  UNL     1      -1.120  -1.192  -0.787  1.00  0.00    -0.355 OA
BRANCH   2   3
HETATM    3  C10 UNL     1      -1.569  -0.205   0.067  1.00  0.00     0.370 C 
HETATM    4  C3  UNL     1      -2.730  -0.661   0.913  1.00  0.00     0.118 C 
HETATM    5  C4  UNL     1      -3.371   0.614   1.441  1.00  0.00     0.003 C 
HETATM    6  C5  UNL     1      -4.575   1.011   0.637  1.00  0.00     0.007 C 
HETATM    7  C9  UNL     1      -2.413   1.786   1.423  1.00  0.00     0.036 C 
HETATM    8  C6  UNL     1      -4.559   0.578  -0.775  1.00  0.00     0.031 C 
HETATM    9  C7  UNL     1      -3.258   0.423  -1.434  1.00  0.00     0.276 C 
HETATM   10  N1  UNL     1      -2.110   0.883  -0.754  1.00  0.00     0.118 N 
HETATM   11  C8  UNL     1      -2.204   2.117  -0.061  1.00  0.00     0.276 C 
BRANCH   4  12
HETATM   12  C2  UNL     1      -2.389  -1.592   1.990  1.00  0.00     0.132 C 
HETATM   13  C1  UNL     1      -1.798  -2.932   1.790  1.00  0.00     0.091 C 
HETATM   14  O1  UNL     1      -2.599  -1.259   3.154  1.00  0.00    -0.298 OA
ENDBRANCH   4  12
ENDBRANCH   2   3
ENDBRANCH   1   2
BRANCH   1  15
HETATM   15  C12 UNL     1       0.964  -0.091  -1.159  1.00  0.00     0.287 C 
BRANCH  15  16
HETATM   16  N2  UNL     1       2.427  -0.216  -1.114  1.00  0.00     0.023 N 
HETATM   17  C13 UNL     1       2.762  -1.204  -2.108  1.00  0.00     0.299 C 
HETATM   18  C14 UNL     1       2.823  -0.396   0.183  1.00  0.00     0.251 C 
HETATM   19  C15 UNL     1       3.727  -1.417   0.702  1.00  0.00     0.071 C 
HETATM   20  C17 UNL     1       3.730   0.816   0.486  1.00  0.00     0.123 C 
HETATM   21  C16 UNL     1       4.583  -0.464   1.558  1.00  0.00     0.142 C 
HETATM   22  O3  UNL     1       3.766   0.662   1.834  1.00  0.00    -0.369 OA
HETATM   23  C19 UNL     1       5.134   0.407   0.463  1.00  0.00     0.125 C 
HETATM   24 BR1  UNL     1       5.978  -0.377  -0.993  1.00  0.00    -0.085 Br
HETATM   25  C18 UNL     1       3.139   1.819  -0.304  1.00  0.00     0.195 C 
HETATM   26  N3  UNL     1       2.851   1.085  -1.530  1.00  0.00    -0.015 NA
BRANCH  26  27
HETATM   27  O4  UNL     1       1.941   1.711  -2.271  1.00  0.00    -0.288 OA
ATOM     28  H4  UNL     1       2.223   2.575  -2.547  1.00  0.00     0.239 HD
ENDBRANCH  26  27
ENDBRANCH  15  16
ENDBRANCH   1  15
TORSDOF 6
