REMARK  9 active torsions:
REMARK  status: ('A' for Active; 'I' for Inactive)
REMARK       I    between atoms: N1_2  and  C2_4 
REMARK    1  A    between atoms: C2_4  and  C3_6 
REMARK    2  A    between atoms: C3_6  and  C4_7 
REMARK    3  A    between atoms: C4_7  and  C5_8 
REMARK    4  A    between atoms: C5_8  and  O2_9 
REMARK    5  A    between atoms: O2_9  and  C6_10 
REMARK    6  A    between atoms: C9_13  and  C10_14 
REMARK    7  A    between atoms: N2_15  and  O3_16 
REMARK    8  A    between atoms: N3_25  and  O4_26 
REMARK    9  A    between atoms: N4_28  and  O5_29 
ROOT
HETATM    1  C10 UNL     1      -2.998  -0.596  -0.415  1.00  0.00     0.191 A 
HETATM    2  N2  UNL     1      -3.799  -0.420   0.651  1.00  0.00    -0.201 N 
HETATM    3  C11 UNL     1      -5.091  -0.083   0.457  1.00  0.00     0.096 A 
HETATM    4  C12 UNL     1      -5.949   0.107   1.540  1.00  0.00     0.036 A 
HETATM    5  C13 UNL     1      -7.271   0.451   1.364  1.00  0.00     0.021 A 
HETATM    6  C14 UNL     1      -7.768   0.613   0.092  1.00  0.00     0.013 A 
HETATM    7 BR1  UNL     1      -9.590   1.087  -0.159  1.00  0.00    -0.051 Br
HETATM    8  C15 UNL     1      -6.957   0.435  -1.010  1.00  0.00     0.055 A 
HETATM    9  C16 UNL     1      -5.635   0.090  -0.798  1.00  0.00     0.114 A 
HETATM   10  N3  UNL     1      -4.796  -0.096  -1.844  1.00  0.00    -0.133 N 
HETATM   11  N4  UNL     1      -3.531  -0.426  -1.642  1.00  0.00    -0.116 N 
ENDROOT
BRANCH   1  12
HETATM   12  C9  UNL     1      -1.582  -0.964  -0.244  1.00  0.00     0.015 A 
HETATM   13  C8  UNL     1      -0.628  -0.046  -0.617  1.00  0.00     0.018 A 
HETATM   14  C7  UNL     1       0.709  -0.328  -0.482  1.00  0.00     0.037 A 
HETATM   15  C6  UNL     1       1.159  -1.526   0.025  1.00  0.00     0.068 A 
HETATM   16  C18 UNL     1       0.191  -2.436   0.395  1.00  0.00     0.037 A 
HETATM   17  C17 UNL     1      -1.174  -2.162   0.263  1.00  0.00     0.018 A 
BRANCH  15  18
HETATM   18  O2  UNL     1       2.514  -1.795   0.155  1.00  0.00    -0.351 OA
BRANCH  18  19
HETATM   19  C5  UNL     1       3.458  -0.796  -0.252  1.00  0.00     0.176 C 
BRANCH  19  20
HETATM   20  C4  UNL     1       4.860  -1.251  -0.046  1.00  0.00     0.036 C 
BRANCH  20  21
HETATM   21  C3  UNL     1       5.903  -0.253  -0.449  1.00  0.00     0.105 C 
BRANCH  21  22
HETATM   22  C2  UNL     1       5.852   0.988   0.310  1.00  0.00     0.217 C 
HETATM   23  N1  UNL     1       6.711   2.060  -0.027  1.00  0.00    -0.365 N 
HETATM   24  C1  UNL     1       6.702   3.323   0.698  1.00  0.00     0.149 C 
ATOM     25  H1  UNL     1       7.360   1.944  -0.805  1.00  0.00     0.161 HD
HETATM   26  O1  UNL     1       5.066   1.146   1.263  1.00  0.00    -0.274 OA
ENDBRANCH  21  22
ENDBRANCH  20  21
ENDBRANCH  19  20
ENDBRANCH  18  19
ENDBRANCH  15  18
ENDBRANCH   1  12
BRANCH   2  27
HETATM   27  O3  UNL     1      -3.308  -0.581   1.939  1.00  0.00    -0.281 OA
ATOM     28  H3  UNL     1      -3.874  -0.457   2.692  1.00  0.00     0.245 HD
ENDBRANCH   2  27
BRANCH  11  29
HETATM   29  O5  UNL     1      -2.695  -0.611  -2.729  1.00  0.00    -0.264 OA
ATOM     30  H5  UNL     1      -3.070  -0.491  -3.593  1.00  0.00     0.247 HD
ENDBRANCH  11  29
BRANCH  10  31
HETATM   31  O4  UNL     1      -5.321   0.072  -3.097  1.00  0.00    -0.266 OA
ATOM     32  H4  UNL     1      -4.732  -0.059  -3.831  1.00  0.00     0.247 HD
ENDBRANCH  10  31
TORSDOF 9
