REMARK  6 active torsions:
REMARK  status: ('A' for Active; 'I' for Inactive)
REMARK    1  A    between atoms: S1_2  and  C2_3 
REMARK    2  A    between atoms: C3_4  and  O1_5 
REMARK    3  A    between atoms: C6_9  and  O2_10 
REMARK    4  A    between atoms: C7_12  and  C8_13 
REMARK    5  A    between atoms: C9_14  and  C10_15 
REMARK    6  A    between atoms: C14_19  and  O3_20 
ROOT
HETATM    1  C2  UNL     1      -1.188   1.266   0.360  1.00  0.00     0.047 A 
HETATM    2  C3  UNL     1      -2.546   1.154   0.163  1.00  0.00     0.098 A 
HETATM    3  C4  UNL     1      -3.176  -0.007  -0.241  1.00  0.00     0.056 A 
HETATM    4  C5  UNL     1      -2.416  -1.136  -0.467  1.00  0.00     0.021 A 
HETATM    5  C6  UNL     1      -1.036  -1.035  -0.271  1.00  0.00     0.087 A 
HETATM    6  C7  UNL     1      -0.411   0.122   0.132  1.00  0.00     0.017 A 
HETATM    7  C14 UNL     1      -3.290  -2.262  -0.889  1.00  0.00     0.162 C 
HETATM    8  C15 UNL     1      -4.684  -1.871  -0.373  1.00  0.00     0.120 C 
HETATM    9  C16 UNL     1      -4.572  -0.374  -0.517  1.00  0.00     0.165 C 
HETATM   10  O4  UNL     1      -5.462   0.432  -0.811  1.00  0.00    -0.292 OA
ENDROOT
BRANCH   6  11
HETATM   11  C8  UNL     1       1.024   0.245   0.341  1.00  0.00     0.012 C 
HETATM   12  C9  UNL     1       1.955  -0.638   0.207  1.00  0.00    -0.017 C 
BRANCH  12  13
HETATM   13  C10 UNL     1       3.385  -0.255   0.488  1.00  0.00    -0.034 C 
HETATM   14  C11 UNL     1       3.542   1.241   0.200  1.00  0.00     0.018 C 
HETATM   15  C12 UNL     1       4.277  -0.973  -0.475  1.00  0.00     0.018 C 
HETATM   16  C13 UNL     1       3.736  -0.485   1.924  1.00  0.00     0.018 C 
ENDBRANCH  12  13
ENDBRANCH   6  11
BRANCH   1  17
HETATM   17  S1  UNL     1      -0.443   2.814   0.887  1.00  0.00    -0.131 SA
HETATM   18  C1  UNL     1       0.018   3.843  -0.514  1.00  0.00     0.095 C 
ENDBRANCH   1  17
BRANCH   5  19
HETATM   19  O2  UNL     1      -0.321  -2.194  -0.510  1.00  0.00    -0.359 OA
ATOM     20  H2  UNL     1       0.617  -2.125  -0.377  1.00  0.00     0.217 HD
ENDBRANCH   5  19
BRANCH   2  21
HETATM   21  O1  UNL     1      -3.292   2.300   0.395  1.00  0.00    -0.358 OA
ATOM     22  H1  UNL     1      -4.229   2.223   0.259  1.00  0.00     0.217 HD
ENDBRANCH   2  21
BRANCH   7  23
HETATM   23  O3  UNL     1      -3.415  -2.314  -2.283  1.00  0.00    -0.390 OA
ATOM     24  H3  UNL     1      -3.974  -3.034  -2.553  1.00  0.00     0.210 HD
ENDBRANCH   7  23
TORSDOF 6
