REMARK  8 active torsions:
REMARK  status: ('A' for Active; 'I' for Inactive)
REMARK    1  A    between atoms: C2_2  and  C4_4 
REMARK    2  A    between atoms: C9_9  and  C10_10 
REMARK    3  A    between atoms: C10_10  and  O1_11 
REMARK    4  A    between atoms: C10_10  and  S1_13 
REMARK    5  A    between atoms: S1_13  and  C11_14 
REMARK    6  A    between atoms: C15_18  and  O2_19 
REMARK    7  A    between atoms: C16_21  and  O3_22 
REMARK    8  A    between atoms: C17_24  and  O4_25 
ROOT
HETATM    1  C4  UNL     1       3.823   0.036   0.257  1.00  0.00     0.051 C 
HETATM    2  C5  UNL     1       3.047  -0.591  -0.911  1.00  0.00     0.054 C 
HETATM    3  C6  UNL     1       1.650  -0.379  -0.451  1.00  0.00    -0.013 A 
HETATM    4  C7  UNL     1       1.635  -0.301   0.929  1.00  0.00    -0.019 A 
HETATM    5  C8  UNL     1       0.428  -0.105   1.552  1.00  0.00     0.028 A 
HETATM    6  C9  UNL     1      -0.802   0.023   0.878  1.00  0.00     0.041 A 
HETATM    7  C15 UNL     1      -0.711  -0.064  -0.494  1.00  0.00     0.113 A 
HETATM    8  C16 UNL     1       0.484  -0.261  -1.174  1.00  0.00     0.106 A 
HETATM    9  C17 UNL     1       3.041  -0.464   1.431  1.00  0.00     0.160 C 
ENDROOT
BRANCH   6  10
HETATM   10  C10 UNL     1      -2.037   0.233   1.619  1.00  0.00     0.116 C 
BRANCH  10  11
HETATM   11  O1  UNL     1      -1.739   0.262   2.946  1.00  0.00    -0.353 OA
ATOM     12  H1  UNL     1      -2.545   0.399   3.430  1.00  0.00     0.218 HD
ENDBRANCH  10  11
BRANCH  10  13
HETATM   13  S1  UNL     1      -3.638   0.437   1.315  1.00  0.00    -0.096 SA
BRANCH  13  14
HETATM   14  C11 UNL     1      -4.821   0.540   0.161  1.00  0.00     0.004 C 
HETATM   15  C12 UNL     1      -5.188  -0.674  -0.705  1.00  0.00     0.026 C 
HETATM   16  C13 UNL     1      -4.855   1.767  -0.793  1.00  0.00     0.026 C 
HETATM   17  C14 UNL     1      -6.220   0.791   0.916  1.00  0.00     0.026 C 
ENDBRANCH  13  14
ENDBRANCH  10  13
ENDBRANCH   6  10
BRANCH   7  18
HETATM   18  O2  UNL     1      -1.827   0.044  -1.267  1.00  0.00    -0.357 OA
ATOM     19  H2  UNL     1      -1.764  -0.016  -2.213  1.00  0.00     0.217 HD
ENDBRANCH   7  18
BRANCH   8  20
HETATM   20  O3  UNL     1       0.479  -0.336  -2.557  1.00  0.00    -0.357 OA
ATOM     21  H3  UNL     1      -0.325  -0.255  -3.056  1.00  0.00     0.217 HD
ENDBRANCH   8  20
BRANCH   9  22
HETATM   22  O4  UNL     1       3.268   0.227   2.592  1.00  0.00    -0.390 OA
ATOM     23  H4  UNL     1       2.772  -0.090   3.337  1.00  0.00     0.210 HD
ENDBRANCH   9  22
BRANCH   1  24
HETATM   24  C2  UNL     1       5.208  -0.428   0.170  1.00  0.00    -0.086 C 
HETATM   25  C1  UNL     1       5.772  -1.231   1.052  1.00  0.00     0.014 C 
HETATM   26  C3  UNL     1       6.023   0.038  -0.985  1.00  0.00     0.043 C 
ENDBRANCH   1  24
TORSDOF 8
