REMARK  5 active torsions:
REMARK  status: ('A' for Active; 'I' for Inactive)
REMARK    1  A    between atoms: O1_2  and  C2_3 
REMARK    2  A    between atoms: C10_11  and  O2_13 
REMARK    3  A    between atoms: C12_15  and  C13_16 
REMARK    4  A    between atoms: C15_18  and  O3_19 
REMARK    5  A    between atoms: C16_21  and  O4_22 
ROOT
HETATM    1  C2  UNL     1       2.841  -0.152  -0.829  1.00  0.00     0.121 C 
HETATM    2  C3  UNL     1       1.961   1.023  -0.951  1.00  0.00     0.033 C 
HETATM    3  C4  UNL     1       0.525   0.858  -0.709  1.00  0.00     0.013 C 
HETATM    4  C5  UNL     1       0.081  -0.478  -0.225  1.00  0.00    -0.028 C 
HETATM    5  C6  UNL     1      -0.066  -1.362  -1.473  1.00  0.00     0.016 C 
HETATM    6  C7  UNL     1       1.076  -1.063   0.716  1.00  0.00    -0.003 C 
HETATM    7  C8  UNL     1       1.231  -0.212   1.928  1.00  0.00     0.008 C 
HETATM    8  C9  UNL     1      -0.021   0.390   2.452  1.00  0.00     0.038 C 
HETATM    9  C10 UNL     1      -1.284  -0.108   1.869  1.00  0.00     0.064 C 
HETATM   10  C11 UNL     1      -1.813  -1.247   2.757  1.00  0.00     0.046 C 
HETATM   11  C12 UNL     1      -1.269  -0.477   0.438  1.00  0.00     0.085 C 
HETATM   12  C17 UNL     1       2.415  -1.243   0.071  1.00  0.00     0.037 C 
ENDROOT
BRANCH  11  13
HETATM   13  C13 UNL     1      -2.275   0.291  -0.367  1.00  0.00     0.066 A 
HETATM   14  C14 UNL     1      -3.385  -0.175  -1.052  1.00  0.00     0.075 A 
HETATM   15  C15 UNL     1      -4.017   0.896  -1.648  1.00  0.00     0.126 A 
HETATM   16  C16 UNL     1      -3.257   1.991  -1.298  1.00  0.00     0.217 A 
HETATM   17  O5  UNL     1      -2.259   1.590  -0.556  1.00  0.00    -0.290 OA
BRANCH  15  18
HETATM   18  O3  UNL     1      -5.165   0.867  -2.426  1.00  0.00    -0.356 OA
ATOM     19  H3  UNL     1      -5.600   1.605  -2.837  1.00  0.00     0.218 HD
ENDBRANCH  15  18
BRANCH  16  20
HETATM   20  O4  UNL     1      -3.561   3.283  -1.704  1.00  0.00    -0.339 OA
ATOM     21  H4  UNL     1      -3.037   4.038  -1.463  1.00  0.00     0.220 HD
ENDBRANCH  16  20
ENDBRANCH  11  13
BRANCH   9  22
HETATM   22  O2  UNL     1      -2.248   0.921   2.026  1.00  0.00    -0.389 OA
ATOM     23  H2  UNL     1      -3.060   0.601   1.651  1.00  0.00     0.210 HD
ENDBRANCH   9  22
BRANCH   1  24
HETATM   24  O1  UNL     1       4.109   0.277  -0.425  1.00  0.00    -0.391 OA
HETATM   25  C1  UNL     1       5.093   0.031  -1.346  1.00  0.00     0.202 C 
ENDBRANCH   1  24
TORSDOF 5
