REMARK  5 active torsions:
REMARK  status: ('A' for Active; 'I' for Inactive)
REMARK    1  A    between atoms: O1_2  and  C2_3 
REMARK    2  A    between atoms: C2_3  and  C3_5 
REMARK    3  A    between atoms: C9_11  and  O3_12 
REMARK    4  A    between atoms: N1_14  and  C10_15 
REMARK    5  A    between atoms: C15_20  and  O4_21 
ROOT
HETATM    1  C3  UNL     1       3.735   0.160   0.568  1.00  0.00     0.086 C 
HETATM    2  C4  UNL     1       2.995   1.349   0.032  1.00  0.00     0.015 C 
HETATM    3  C5  UNL     1       1.644   0.890  -0.470  1.00  0.00     0.011 C 
HETATM    4  C6  UNL     1       0.937   0.240   0.703  1.00  0.00     0.028 C 
HETATM    5  C7  UNL     1      -0.437  -0.073   0.290  1.00  0.00     0.008 A 
HETATM    6  C8  UNL     1      -0.584  -1.407   0.073  1.00  0.00     0.004 A 
HETATM    7  C9  UNL     1      -1.870  -1.625  -0.303  1.00  0.00     0.151 A 
HETATM    8  N1  UNL     1      -2.539  -0.431  -0.325  1.00  0.00    -0.303 N 
HETATM    9  C15 UNL     1      -1.654   0.514   0.039  1.00  0.00     0.152 A 
HETATM   10  C16 UNL     1       0.710  -2.120   0.328  1.00  0.00     0.049 C 
HETATM   11  C17 UNL     1       1.614  -1.088   0.945  1.00  0.00    -0.001 C 
HETATM   12  C18 UNL     1       3.009  -1.133   0.400  1.00  0.00     0.020 C 
ENDROOT
BRANCH   8  13
HETATM   13  C10 UNL     1      -3.910  -0.351  -0.683  1.00  0.00     0.094 C 
HETATM   14  C11 UNL     1      -4.805  -0.693   0.504  1.00  0.00     0.026 C 
HETATM   15  C12 UNL     1      -5.860   0.362   0.562  1.00  0.00     0.002 C 
HETATM   16  C13 UNL     1      -5.299   1.574  -0.168  1.00  0.00     0.002 C 
HETATM   17  C14 UNL     1      -4.408   0.929  -1.197  1.00  0.00     0.026 C 
ENDBRANCH   8  13
BRANCH   7  18
HETATM   18  O3  UNL     1      -2.397  -2.881  -0.611  1.00  0.00    -0.345 OA
ATOM     19  H3  UNL     1      -3.297  -3.034  -0.874  1.00  0.00     0.219 HD
ENDBRANCH   7  18
BRANCH   9  20
HETATM   20  O4  UNL     1      -1.993   1.861   0.126  1.00  0.00    -0.345 OA
ATOM     21  H4  UNL     1      -2.834   2.267  -0.048  1.00  0.00     0.219 HD
ENDBRANCH   9  20
BRANCH   1  22
HETATM   22  C2  UNL     1       5.077   0.095  -0.029  1.00  0.00     0.262 C 
HETATM   23  O2  UNL     1       5.398  -0.919  -0.700  1.00  0.00    -0.265 OA
BRANCH  22  24
HETATM   24  O1  UNL     1       6.030   1.090   0.095  1.00  0.00    -0.326 OA
HETATM   25  C1  UNL     1       7.326   0.995  -0.498  1.00  0.00     0.213 C 
ENDBRANCH  22  24
ENDBRANCH   1  22
TORSDOF 5
