REMARK  6 active torsions:
REMARK  status: ('A' for Active; 'I' for Inactive)
REMARK    1  A    between atoms: C2_2  and  C4_4 
REMARK    2  A    between atoms: C6_6  and  O1_7 
REMARK    3  A    between atoms: C9_11  and  C10_12 
REMARK       I    between atoms: N2_15  and  C11_16 
REMARK    4  A    between atoms: C11_16  and  O3_18 
REMARK    5  A    between atoms: O3_18  and  C12_19 
REMARK    6  A    between atoms: C16_23  and  O4_24 
ROOT
HETATM    1  C10 UNL     1      -0.367  -0.055  -0.095  1.00  0.00     0.104 A 
HETATM    2  N1  UNL     1       0.779  -0.755  -0.121  1.00  0.00    -0.283 N 
ATOM      3  H1  UNL     1       0.997  -1.731  -0.319  1.00  0.00     0.188 HD
HETATM    4  N2  UNL     1       1.501   0.266   0.197  1.00  0.00    -0.174 N 
HETATM    5  C11 UNL     1       2.907   0.555   0.318  1.00  0.00     0.389 C 
HETATM    6  O2  UNL     1       3.242   1.688   0.765  1.00  0.00    -0.236 OA
HETATM    7  C16 UNL     1       0.411   1.036   0.247  1.00  0.00     0.195 A 
ENDROOT
BRANCH   1   8
HETATM    8  C9  UNL     1      -1.795  -0.206  -0.458  1.00  0.00    -0.043 C 
HETATM    9  C4  UNL     1      -2.732  -0.467   0.665  1.00  0.00     0.023 C 
HETATM   10  C5  UNL     1      -3.457   0.806   1.109  1.00  0.00     0.041 C 
HETATM   11  C6  UNL     1      -3.563   1.941   0.188  1.00  0.00     0.119 C 
HETATM   12  C7  UNL     1      -2.753   2.023  -1.048  1.00  0.00     0.036 C 
HETATM   13  C8  UNL     1      -2.192   0.734  -1.512  1.00  0.00     0.039 C 
BRANCH   9  14
HETATM   14  C2  UNL     1      -3.695  -1.599   0.550  1.00  0.00    -0.014 C 
HETATM   15  C1  UNL     1      -4.781  -1.414  -0.441  1.00  0.00     0.010 C 
HETATM   16  C3  UNL     1      -3.039  -2.965   0.520  1.00  0.00     0.010 C 
ENDBRANCH   9  14
BRANCH  11  17
HETATM   17  O1  UNL     1      -4.912   2.280  -0.166  1.00  0.00    -0.396 OA
ATOM     18  H1  UNL     1      -4.981   3.016  -0.763  1.00  0.00     0.210 HD
ENDBRANCH  11  17
ENDBRANCH   1   8
BRANCH   7  19
HETATM   19  O4  UNL     1       0.252   2.397   0.545  1.00  0.00    -0.343 OA
ATOM     20  H4  UNL     1       0.786   3.146   0.780  1.00  0.00     0.219 HD
ENDBRANCH   7  19
BRANCH   5  21
HETATM   21  O3  UNL     1       3.904  -0.331  -0.035  1.00  0.00    -0.292 OA
BRANCH  21  22
HETATM   22  C12 UNL     1       5.272  -0.178   0.034  1.00  0.00     0.061 C 
HETATM   23  C13 UNL     1       5.854   1.039  -0.679  1.00  0.00     0.046 C 
HETATM   24  C14 UNL     1       5.823  -0.269   1.424  1.00  0.00     0.046 C 
HETATM   25  C15 UNL     1       5.848  -1.380  -0.780  1.00  0.00     0.046 C 
ENDBRANCH  21  22
ENDBRANCH   5  21
TORSDOF 6
