REMARK  6 active torsions:
REMARK  status: ('A' for Active; 'I' for Inactive)
REMARK    1  A    between atoms: C2_2  and  C3_3 
REMARK    2  A    between atoms: C3_3  and  O2_5 
REMARK    3  A    between atoms: O2_5  and  C4_6 
REMARK    4  A    between atoms: C10_12  and  O3_13 
REMARK    5  A    between atoms: C13_17  and  O4_18 
REMARK    6  A    between atoms: C14_20  and  O5_21 
ROOT
HETATM    1  C4  UNL     1       1.214  -0.549  -0.077  1.00  0.00     0.144 C 
HETATM    2  C5  UNL     1       0.525  -1.789   0.456  1.00  0.00     0.038 C 
HETATM    3  C6  UNL     1      -0.035  -1.598   1.818  1.00  0.00    -0.012 C 
HETATM    4  C7  UNL     1      -1.083  -2.648   2.123  1.00  0.00     0.010 C 
HETATM    5  C8  UNL     1      -0.613  -0.227   2.058  1.00  0.00     0.046 C 
HETATM    6  C9  UNL     1      -1.331   0.326   0.911  1.00  0.00    -0.014 A 
HETATM    7  C10 UNL     1      -2.583   0.805   1.297  1.00  0.00     0.081 A 
HETATM    8  C11 UNL     1      -3.447   1.375   0.393  1.00  0.00     0.008 A 
HETATM    9  C12 UNL     1      -4.792   1.891   0.803  1.00  0.00     0.054 C 
HETATM   10  C13 UNL     1      -3.089   1.489  -0.948  1.00  0.00     0.108 A 
HETATM   11  C14 UNL     1      -1.848   1.013  -1.332  1.00  0.00     0.107 A 
HETATM   12  C15 UNL     1      -0.977   0.438  -0.417  1.00  0.00    -0.003 A 
HETATM   13  C16 UNL     1       0.287   0.019  -1.119  1.00  0.00     0.010 C 
HETATM   14  C17 UNL     1       0.961   1.205  -1.760  1.00  0.00     0.023 C 
HETATM   15  C18 UNL     1      -0.035  -0.996  -2.198  1.00  0.00     0.023 C 
ENDROOT
BRANCH   1  16
HETATM   16  O2  UNL     1       2.468  -0.833  -0.627  1.00  0.00    -0.315 OA
BRANCH  16  17
HETATM   17  C3  UNL     1       3.614  -0.259  -0.099  1.00  0.00     0.258 C 
HETATM   18  O1  UNL     1       3.471   0.516   0.882  1.00  0.00    -0.265 OA
BRANCH  17  19
HETATM   19  C2  UNL     1       4.972  -0.554  -0.682  1.00  0.00     0.106 C 
HETATM   20  C1  UNL     1       5.977   0.216   0.111  1.00  0.00     0.015 C 
ENDBRANCH  17  19
ENDBRANCH  16  17
ENDBRANCH   1  16
BRANCH  11  21
HETATM   21  O5  UNL     1      -1.488   1.121  -2.648  1.00  0.00    -0.357 OA
ATOM     22  H5  UNL     1      -0.636   0.794  -2.912  1.00  0.00     0.217 HD
ENDBRANCH  11  21
BRANCH   7  23
HETATM   23  O3  UNL     1      -2.935   0.693   2.621  1.00  0.00    -0.359 OA
ATOM     24  H3  UNL     1      -3.788   1.019   2.884  1.00  0.00     0.217 HD
ENDBRANCH   7  23
BRANCH  10  25
HETATM   25  O4  UNL     1      -3.992   2.070  -1.827  1.00  0.00    -0.357 OA
ATOM     26  H4  UNL     1      -3.748   2.148  -2.742  1.00  0.00     0.217 HD
ENDBRANCH  10  25
TORSDOF 6
