REMARK  13 active torsions:
REMARK  status: ('A' for Active; 'I' for Inactive)
REMARK    1  A    between atoms: C2_2  and  C3_3 
REMARK    2  A    between atoms: C3_3  and  C4_4 
REMARK    3  A    between atoms: C4_4  and  C5_5 
REMARK    4  A    between atoms: C5_5  and  C6_6 
REMARK    5  A    between atoms: C6_6  and  C7_7 
REMARK    6  A    between atoms: C7_7  and  C8_8 
REMARK    7  A    between atoms: C8_8  and  O2_10 
REMARK    8  A    between atoms: O2_10  and  C9_11 
REMARK    9  A    between atoms: C11_13  and  C12_14 
REMARK   10  A    between atoms: C12_14  and  O3_15 
REMARK   11  A    between atoms: C15_19  and  O4_20 
REMARK   12  A    between atoms: C20_28  and  C21_29 
REMARK   13  A    between atoms: C27_39  and  O7_41 
ROOT
HETATM    1  C9  UNL     1      -0.240  -0.726  -0.276  1.00  0.00     0.180 C 
HETATM    2  C10 UNL     1      -1.169  -1.830   0.034  1.00  0.00     0.066 C 
HETATM    3  C11 UNL     1      -1.555  -2.658  -1.133  1.00  0.00    -0.052 C 
HETATM    4  C13 UNL     1      -2.417  -3.650  -0.924  1.00  0.00    -0.019 C 
HETATM    5  C14 UNL     1      -2.933  -3.849   0.476  1.00  0.00     0.060 C 
HETATM    6  C15 UNL     1      -3.500  -2.454   0.795  1.00  0.00     0.137 C 
HETATM    7  C16 UNL     1      -2.398  -1.438   0.805  1.00  0.00     0.042 C 
HETATM    8  C17 UNL     1      -2.024  -1.241   2.281  1.00  0.00     0.026 C 
HETATM    9  C18 UNL     1      -2.944  -0.150   0.339  1.00  0.00     0.079 A 
HETATM   10  O5  UNL     1      -4.239   0.029   0.371  1.00  0.00    -0.305 OA
HETATM   11  C19 UNL     1      -4.829   1.162  -0.035  1.00  0.00     0.132 A 
HETATM   12  S1  UNL     1      -6.443   1.707  -0.123  1.00  0.00    -0.064 SA
HETATM   13  C20 UNL     1      -6.170   3.263  -0.768  1.00  0.00     0.046 A 
HETATM   14  C22 UNL     1      -4.814   3.312  -0.895  1.00  0.00    -0.027 A 
HETATM   15  C23 UNL     1      -4.144   4.563  -1.441  1.00  0.00     0.050 C 
HETATM   16  C24 UNL     1      -4.111   2.223  -0.516  1.00  0.00     0.063 A 
HETATM   17  C25 UNL     1      -2.720   2.027  -0.548  1.00  0.00     0.197 A 
HETATM   18  O6  UNL     1      -1.915   2.898  -0.960  1.00  0.00    -0.287 OA
HETATM   19  C26 UNL     1      -2.144   0.846  -0.121  1.00  0.00     0.060 A 
HETATM   20  C27 UNL     1      -0.684   0.662  -0.131  1.00  0.00     0.115 C 
HETATM   21  C28 UNL     1      -0.048   1.304   1.098  1.00  0.00     0.054 C 
ENDROOT
BRANCH   1  22
HETATM   22  O2  UNL     1       0.905  -0.877   0.594  1.00  0.00    -0.312 OA
BRANCH  22  23
HETATM   23  C8  UNL     1       2.157  -1.159   0.110  1.00  0.00     0.259 C 
HETATM   24  O1  UNL     1       2.300  -1.286  -1.125  1.00  0.00    -0.265 OA
BRANCH  23  25
HETATM   25  C7  UNL     1       3.306  -1.303   1.083  1.00  0.00     0.111 C 
BRANCH  25  26
HETATM   26  C6  UNL     1       4.068  -0.019   1.164  1.00  0.00     0.010 C 
BRANCH  26  27
HETATM   27  C5  UNL     1       5.209  -0.132   2.145  1.00  0.00     0.000 C 
BRANCH  27  28
HETATM   28  C4  UNL     1       6.161  -1.176   1.732  1.00  0.00     0.000 C 
BRANCH  28  29
HETATM   29  C3  UNL     1       6.824  -0.980   0.419  1.00  0.00    -0.000 C 
BRANCH  29  30
HETATM   30  C2  UNL     1       7.756   0.141   0.321  1.00  0.00    -0.005 C 
HETATM   31  C1  UNL     1       7.264   1.523   0.512  1.00  0.00     0.005 C 
ENDBRANCH  29  30
ENDBRANCH  28  29
ENDBRANCH  27  28
ENDBRANCH  26  27
ENDBRANCH  25  26
ENDBRANCH  23  25
ENDBRANCH  22  23
ENDBRANCH   1  22
BRANCH  20  32
HETATM   32  O7  UNL     1      -0.228   1.421  -1.242  1.00  0.00    -0.382 OA
ATOM     33  H7  UNL     1      -0.516   2.321  -1.148  1.00  0.00     0.211 HD
ENDBRANCH  20  32
BRANCH   3  34
HETATM   34  C12 UNL     1      -1.059  -2.478  -2.522  1.00  0.00     0.198 C 
BRANCH  34  35
HETATM   35  O3  UNL     1      -1.390  -1.227  -3.017  1.00  0.00    -0.397 OA
ATOM     36  H3  UNL     1      -1.073  -1.112  -3.905  1.00  0.00     0.209 HD
ENDBRANCH  34  35
ENDBRANCH   3  34
BRANCH   6  37
HETATM   37  O4  UNL     1      -4.386  -2.182  -0.245  1.00  0.00    -0.394 OA
ATOM     38  H4  UNL     1      -4.736  -1.321  -0.048  1.00  0.00     0.210 HD
ENDBRANCH   6  37
BRANCH  13  39
HETATM   39  C21 UNL     1      -7.189   4.323  -1.120  1.00  0.00     0.223 C 
HETATM   40 CL1  UNL     1      -6.878   5.803  -0.217  1.00  0.00    -0.078 Cl
HETATM   41 CL2  UNL     1      -8.771   3.688  -0.579  1.00  0.00    -0.078 Cl
HETATM   42 CL3  UNL     1      -7.165   4.533  -2.875  1.00  0.00    -0.078 Cl
ENDBRANCH  13  39
TORSDOF 13
