REMARK  12 active torsions:
REMARK  status: ('A' for Active; 'I' for Inactive)
REMARK    1  A    between atoms: O1_2  and  C2_3 
REMARK    2  A    between atoms: C7_8  and  O2_9 
REMARK    3  A    between atoms: O2_9  and  C8_10 
REMARK    4  A    between atoms: C8_10  and  C9_11 
REMARK    5  A    between atoms: C8_10  and  C10_14 
REMARK    6  A    between atoms: C9_11  and  O3_12 
REMARK    7  A    between atoms: C12_16  and  O4_17 
REMARK    8  A    between atoms: C15_21  and  O5_22 
REMARK    9  A    between atoms: C18_26  and  C19_27 
REMARK   10  A    between atoms: C19_27  and  C20_28 
REMARK   11  A    between atoms: C23_32  and  O6_33 
REMARK   12  A    between atoms: C24_35  and  O7_36 
ROOT
HETATM    1  C2  UNL     1      -1.284  -1.033   1.801  1.00  0.00     0.104 A 
HETATM    2  C3  UNL     1      -0.149  -1.065   2.534  1.00  0.00     0.077 A 
HETATM    3  C4  UNL     1       1.078  -1.162   1.899  1.00  0.00     0.078 A 
HETATM    4  C5  UNL     1       1.149  -1.218   0.515  1.00  0.00    -0.017 A 
HETATM    5  C6  UNL     1       0.023  -1.186  -0.223  1.00  0.00     0.050 A 
HETATM    6  C7  UNL     1      -1.269  -1.099   0.393  1.00  0.00     0.103 A 
HETATM    7  C18 UNL     1       2.550  -1.407  -0.065  1.00  0.00     0.028 C 
HETATM    8  C27 UNL     1       2.976  -2.641   0.788  1.00  0.00     0.036 C 
HETATM    9  C28 UNL     1       3.197  -2.266   2.222  1.00  0.00     0.176 C 
HETATM   10  O8  UNL     1       2.263  -1.218   2.603  1.00  0.00    -0.350 OA
ENDROOT
BRANCH   6  11
HETATM   11  O2  UNL     1      -2.334  -1.092  -0.336  1.00  0.00    -0.336 OA
BRANCH  11  12
HETATM   12  C8  UNL     1      -3.427  -1.086  -1.080  1.00  0.00     0.186 C 
BRANCH  12  13
HETATM   13  C9  UNL     1      -3.144  -1.162  -2.578  1.00  0.00     0.201 C 
BRANCH  13  14
HETATM   14  O3  UNL     1      -2.391  -0.140  -3.088  1.00  0.00    -0.398 OA
ATOM     15  H3  UNL     1      -2.215  -0.187  -4.020  1.00  0.00     0.209 HD
ENDBRANCH  13  14
ENDBRANCH  12  13
BRANCH  12  16
HETATM   16  C10 UNL     1      -4.417   0.019  -0.779  1.00  0.00    -0.015 A 
HETATM   17  C11 UNL     1      -4.463   1.235  -1.417  1.00  0.00     0.048 A 
HETATM   18  C12 UNL     1      -5.282   2.289  -1.028  1.00  0.00     0.088 A 
HETATM   19  C14 UNL     1      -6.109   2.102   0.085  1.00  0.00     0.077 A 
HETATM   20 BR1  UNL     1      -7.204   3.570   0.640  1.00  0.00    -0.045 Br
HETATM   21  C15 UNL     1      -6.109   0.908   0.756  1.00  0.00     0.092 A 
HETATM   22  C16 UNL     1      -5.284  -0.089   0.317  1.00  0.00    -0.018 A 
HETATM   23  C17 UNL     1      -5.495  -1.441   0.901  1.00  0.00     0.052 C 
BRANCH  18  24
HETATM   24  O4  UNL     1      -5.337   3.488  -1.655  1.00  0.00    -0.354 OA
HETATM   25  C13 UNL     1      -4.652   3.934  -2.792  1.00  0.00     0.210 C 
ENDBRANCH  18  24
BRANCH  21  26
HETATM   26  O5  UNL     1      -6.947   0.753   1.863  1.00  0.00    -0.359 OA
ATOM     27  H5  UNL     1      -6.947  -0.075   2.328  1.00  0.00     0.217 HD
ENDBRANCH  21  26
ENDBRANCH  12  16
ENDBRANCH  11  12
ENDBRANCH   6  11
BRANCH   1  28
HETATM   28  O1  UNL     1      -2.509  -0.943   2.430  1.00  0.00    -0.353 OA
HETATM   29  C1  UNL     1      -2.777  -0.875   3.783  1.00  0.00     0.210 C 
ENDBRANCH   1  28
BRANCH   7  30
HETATM   30  C19 UNL     1       3.439  -0.303   0.400  1.00  0.00     0.048 C 
BRANCH  30  31
HETATM   31  C20 UNL     1       4.829  -0.253  -0.112  1.00  0.00    -0.053 A 
HETATM   32  C21 UNL     1       5.707  -1.267  -0.277  1.00  0.00     0.034 A 
HETATM   33  C22 UNL     1       7.058  -1.104  -0.624  1.00  0.00     0.070 A 
HETATM   34 CL1  UNL     1       8.137  -2.461  -0.830  1.00  0.00    -0.081 Cl
HETATM   35  C23 UNL     1       7.531   0.163  -0.810  1.00  0.00     0.121 A 
HETATM   36  C24 UNL     1       6.693   1.239  -0.655  1.00  0.00     0.103 A 
HETATM   37  C26 UNL     1       5.382   1.039  -0.319  1.00  0.00     0.047 A 
BRANCH  35  38
HETATM   38  O6  UNL     1       8.880   0.370  -1.158  1.00  0.00    -0.356 OA
ATOM     39  H6  UNL     1       9.209   1.252  -1.287  1.00  0.00     0.218 HD
ENDBRANCH  35  38
BRANCH  36  40
HETATM   40  O7  UNL     1       7.222   2.507  -0.837  1.00  0.00    -0.353 OA
HETATM   41  C25 UNL     1       6.417   3.638  -0.615  1.00  0.00     0.210 C 
ENDBRANCH  36  40
ENDBRANCH  30  31
ENDBRANCH   7  30
TORSDOF 12
