REMARK  14 active torsions:
REMARK  status: ('A' for Active; 'I' for Inactive)
REMARK    1  A    between atoms: C4_6  and  C5_7 
REMARK    2  A    between atoms: C5_7  and  C6_8 
REMARK    3  A    between atoms: C6_8  and  O3_9 
REMARK    4  A    between atoms: C6_8  and  C7_11 
REMARK    5  A    between atoms: C11_16  and  O5_17 
REMARK    6  A    between atoms: C13_19  and  O6_20 
REMARK    7  A    between atoms: C14_22  and  O7_23 
REMARK    8  A    between atoms: C15_25  and  C16_26 
REMARK    9  A    between atoms: C16_26  and  O8_27 
REMARK   10  A    between atoms: C17_29  and  C18_30 
REMARK   11  A    between atoms: C19_31  and  C21_33 
REMARK   12  A    between atoms: C23_35  and  C24_36 
REMARK   13  A    between atoms: C24_36  and  C25_37 
REMARK   14  A    between atoms: C25_37  and  C26_38 
ROOT
HETATM    1  C1  UNL     1       0.974  -2.118   2.720  1.00  0.00     0.034 C 
HETATM    2  C2  UNL     1       0.795  -1.471   1.591  1.00  0.00     0.076 C 
HETATM    3  C3  UNL     1       0.070  -2.278   0.569  1.00  0.00     0.296 C 
HETATM    4  O1  UNL     1      -0.032  -3.499   0.721  1.00  0.00    -0.259 OA
HETATM    5  O2  UNL     1      -0.549  -1.785  -0.620  1.00  0.00    -0.311 OA
HETATM    6  C4  UNL     1      -0.797  -0.334  -0.802  1.00  0.00     0.141 C 
HETATM    7  C15 UNL     1       0.436   0.286  -0.663  1.00  0.00     0.054 C 
HETATM    8  C17 UNL     1       1.584   0.618   0.118  1.00  0.00     0.092 C 
HETATM    9  C29 UNL     1       1.293  -0.113   1.451  1.00  0.00     0.172 C 
HETATM   10  O9  UNL     1       1.502   0.511   2.465  1.00  0.00    -0.291 OA
ENDROOT
BRANCH   6  11
HETATM   11  C5  UNL     1      -1.993   0.019   0.103  1.00  0.00     0.067 C 
BRANCH  11  12
HETATM   12  C6  UNL     1      -3.149  -0.807  -0.371  1.00  0.00     0.152 C 
BRANCH  12  13
HETATM   13  O3  UNL     1      -2.947  -2.162  -0.314  1.00  0.00    -0.393 OA
ATOM     14  H3  UNL     1      -3.680  -2.686  -0.615  1.00  0.00     0.210 HD
ENDBRANCH  12  13
BRANCH  12  15
HETATM   15  C7  UNL     1      -4.432  -0.440   0.377  1.00  0.00     0.182 C 
HETATM   16  O4  UNL     1      -5.456  -1.130  -0.269  1.00  0.00    -0.368 OA
HETATM   17  C8  UNL     1      -6.713  -0.744   0.157  1.00  0.00     0.083 C 
HETATM   18  C9  UNL     1      -6.965  -1.065   1.605  1.00  0.00     0.048 C 
HETATM   19  C10 UNL     1      -7.723  -1.505  -0.697  1.00  0.00     0.048 C 
HETATM   20  C11 UNL     1      -6.989   0.725  -0.059  1.00  0.00     0.185 C 
HETATM   21  C13 UNL     1      -5.965   1.500   0.768  1.00  0.00     0.181 C 
HETATM   22  C14 UNL     1      -4.594   1.047   0.284  1.00  0.00     0.181 C 
BRANCH  20  23
HETATM   23  O5  UNL     1      -8.281   0.999   0.344  1.00  0.00    -0.385 OA
HETATM   24  C12 UNL     1      -8.993   1.601  -0.708  1.00  0.00     0.202 C 
ENDBRANCH  20  23
BRANCH  21  25
HETATM   25  O6  UNL     1      -6.062   2.861   0.591  1.00  0.00    -0.390 OA
ATOM     26  H6  UNL     1      -5.425   3.343   1.105  1.00  0.00     0.210 HD
ENDBRANCH  21  25
BRANCH  22  27
HETATM   27  O7  UNL     1      -4.345   1.514  -1.005  1.00  0.00    -0.390 OA
ATOM     28  H7  UNL     1      -4.448   2.457  -1.064  1.00  0.00     0.210 HD
ENDBRANCH  22  27
ENDBRANCH  12  15
ENDBRANCH  11  12
ENDBRANCH   6  11
BRANCH   7  29
HETATM   29  C16 UNL     1       1.005   0.143  -1.969  1.00  0.00     0.172 C 
BRANCH  29  30
HETATM   30  O8  UNL     1       0.252   0.712  -3.068  1.00  0.00    -0.400 OA
ATOM     31  H8  UNL     1       0.630   0.617  -3.935  1.00  0.00     0.209 HD
ENDBRANCH  29  30
ENDBRANCH   7  29
BRANCH   8  32
HETATM   32  C18 UNL     1       2.867   0.024  -0.340  1.00  0.00    -0.007 C 
HETATM   33  C19 UNL     1       3.972   0.610  -0.542  1.00  0.00    -0.059 C 
HETATM   34  C20 UNL     1       4.183   2.055  -0.349  1.00  0.00     0.048 C 
BRANCH  33  35
HETATM   35  C21 UNL     1       5.130  -0.185  -0.992  1.00  0.00    -0.056 C 
HETATM   36  C22 UNL     1       4.949  -1.628  -1.177  1.00  0.00     0.049 C 
HETATM   37  C23 UNL     1       6.275   0.399  -1.202  1.00  0.00     0.007 C 
BRANCH  37  38
HETATM   38  C24 UNL     1       7.538  -0.154  -1.642  1.00  0.00     0.001 C 
BRANCH  38  39
HETATM   39  C25 UNL     1       8.714  -0.120  -0.827  1.00  0.00     0.002 C 
BRANCH  39  40
HETATM   40  C26 UNL     1       8.928   0.328   0.362  1.00  0.00    -0.088 C 
HETATM   41  C27 UNL     1       7.913   0.959   1.218  1.00  0.00     0.043 C 
HETATM   42  C28 UNL     1      10.330   0.223   0.985  1.00  0.00     0.043 C 
ENDBRANCH  39  40
ENDBRANCH  38  39
ENDBRANCH  37  38
ENDBRANCH  33  35
ENDBRANCH   8  32
TORSDOF 14
