REMARK  14 active torsions:
REMARK  status: ('A' for Active; 'I' for Inactive)
REMARK    1  A    between atoms: C2_2  and  C3_3 
REMARK    2  A    between atoms: C3_3  and  C4_4 
REMARK    3  A    between atoms: C4_4  and  C5_5 
REMARK    4  A    between atoms: C5_5  and  C6_6 
REMARK    5  A    between atoms: C11_11  and  O1_12 
REMARK    6  A    between atoms: C13_18  and  O3_19 
REMARK    7  A    between atoms: C13_18  and  C14_21 
REMARK    8  A    between atoms: C14_21  and  C15_22 
REMARK    9  A    between atoms: C15_22  and  O5_24 
REMARK   10  A    between atoms: O5_24  and  C16_25 
REMARK   11  A    between atoms: C18_27  and  O6_28 
REMARK   12  A    between atoms: O6_28  and  C19_29 
REMARK   13  A    between atoms: C23_33  and  O7_34 
REMARK   14  A    between atoms: C26_39  and  O9_41 
ROOT
HETATM    1  C5  UNL     1       3.516   0.738   0.990  1.00  0.00    -0.003 C 
HETATM    2  C8  UNL     1       3.300   2.097   0.355  1.00  0.00     0.040 C 
HETATM    3  C9  UNL     1       3.497   2.302  -1.061  1.00  0.00    -0.022 C 
HETATM    4  C10 UNL     1       2.840   1.664  -2.165  1.00  0.00     0.052 C 
HETATM    5  C11 UNL     1       1.433   1.329  -2.177  1.00  0.00     0.142 C 
HETATM    6  N1  UNL     1       0.421   1.414  -1.228  1.00  0.00    -0.305 N 
ATOM      7  H1  UNL     1      -0.436   1.842  -1.578  1.00  0.00     0.171 HD
HETATM    8  C12 UNL     1       0.351   1.026   0.116  1.00  0.00     0.261 C 
HETATM    9  O2  UNL     1      -0.417   1.715   0.863  1.00  0.00    -0.270 OA
HETATM   10  C13 UNL     1       1.103  -0.122   0.726  1.00  0.00     0.178 C 
HETATM   11  C26 UNL     1       2.239   0.286   1.571  1.00  0.00     0.102 C 
HETATM   12  C27 UNL     1       2.310  -0.626   2.777  1.00  0.00     0.050 C 
ENDROOT
BRANCH  10  13
HETATM   13  O3  UNL     1       0.133  -0.602   1.666  1.00  0.00    -0.377 OA
ATOM     14  H3  UNL     1       0.609  -1.328   2.052  1.00  0.00     0.211 HD
ENDBRANCH  10  13
BRANCH  10  15
HETATM   15  C14 UNL     1       1.224  -1.283  -0.183  1.00  0.00     0.162 C 
BRANCH  15  16
HETATM   16  C15 UNL     1      -0.150  -1.795  -0.557  1.00  0.00     0.264 C 
HETATM   17  O4  UNL     1      -0.271  -2.797  -1.318  1.00  0.00    -0.265 OA
BRANCH  16  18
HETATM   18  O5  UNL     1      -1.319  -1.209  -0.099  1.00  0.00    -0.289 OA
BRANCH  18  19
HETATM   19  C16 UNL     1      -2.600  -1.697  -0.458  1.00  0.00     0.272 C 
HETATM   20  C17 UNL     1      -3.319  -0.614  -1.200  1.00  0.00     0.096 C 
HETATM   21  C18 UNL     1      -4.694  -0.336  -0.626  1.00  0.00     0.158 C 
HETATM   22  C23 UNL     1      -5.359  -1.695  -0.401  1.00  0.00     0.176 C 
HETATM   23  C24 UNL     1      -4.536  -2.492   0.540  1.00  0.00     0.151 C 
HETATM   24  C25 UNL     1      -4.530  -3.938   0.045  1.00  0.00     0.042 C 
HETATM   25  O8  UNL     1      -3.235  -2.069   0.717  1.00  0.00    -0.353 OA
BRANCH  21  26
HETATM   26  O6  UNL     1      -5.493   0.370  -1.485  1.00  0.00    -0.373 OA
BRANCH  26  27
HETATM   27  C19 UNL     1      -6.000   1.544  -0.946  1.00  0.00     0.050 C 
HETATM   28  C20 UNL     1      -6.847   1.296   0.283  1.00  0.00     0.045 C 
HETATM   29  C21 UNL     1      -4.915   2.538  -0.631  1.00  0.00     0.045 C 
HETATM   30  C22 UNL     1      -6.908   2.162  -1.992  1.00  0.00     0.045 C 
ENDBRANCH  26  27
ENDBRANCH  21  26
BRANCH  22  31
HETATM   31  O7  UNL     1      -5.590  -2.337  -1.616  1.00  0.00    -0.390 OA
ATOM     32  H7  UNL     1      -6.003  -3.181  -1.476  1.00  0.00     0.210 HD
ENDBRANCH  22  31
ENDBRANCH  18  19
ENDBRANCH  16  18
ENDBRANCH  15  16
ENDBRANCH  10  15
BRANCH  11  33
HETATM   33  O9  UNL     1       1.736   1.489   2.193  1.00  0.00    -0.386 OA
ATOM     34  H9  UNL     1       0.913   1.198   2.567  1.00  0.00     0.210 HD
ENDBRANCH  11  33
BRANCH   1  35
HETATM   35  C4  UNL     1       4.351  -0.170   0.199  1.00  0.00     0.013 C 
BRANCH  35  36
HETATM   36  C3  UNL     1       4.805  -1.460   0.801  1.00  0.00     0.001 C 
BRANCH  36  37
HETATM   37  C2  UNL     1       5.667  -2.146  -0.288  1.00  0.00    -0.005 C 
HETATM   38  C1  UNL     1       6.815  -1.224  -0.594  1.00  0.00     0.005 C 
ENDBRANCH  36  37
ENDBRANCH  35  36
ENDBRANCH   1  35
BRANCH   1  39
HETATM   39  C6  UNL     1       4.396   1.056   2.230  1.00  0.00     0.008 C 
HETATM   40  C7  UNL     1       5.691   1.710   1.893  1.00  0.00     0.006 C 
ENDBRANCH   1  39
BRANCH   5  41
HETATM   41  O1  UNL     1       1.050   0.848  -3.329  1.00  0.00    -0.346 OA
ATOM     42  H1  UNL     1       0.126   0.628  -3.337  1.00  0.00     0.219 HD
ENDBRANCH   5  41
TORSDOF 14
