REMARK  16 active torsions:
REMARK  status: ('A' for Active; 'I' for Inactive)
REMARK    1  A    between atoms: C2_2  and  O2_4 
REMARK    2  A    between atoms: O2_4  and  C3_5 
REMARK    3  A    between atoms: C3_5  and  C4_7 
REMARK    4  A    between atoms: C4_7  and  C5_8 
REMARK    5  A    between atoms: C5_8  and  O4_9 
REMARK    6  A    between atoms: C5_8  and  C6_11 
REMARK    7  A    between atoms: C6_11  and  C8_13 
REMARK    8  A    between atoms: C9_14  and  C10_15 
REMARK    9  A    between atoms: C10_15  and  O5_16 
REMARK   10  A    between atoms: C10_15  and  C11_18 
REMARK   11  A    between atoms: C11_18  and  C12_19 
REMARK   12  A    between atoms: C12_19  and  C13_20 
REMARK   13  A    between atoms: C17_24  and  O6_25 
REMARK   14  A    between atoms: O6_25  and  C18_26 
REMARK   15  A    between atoms: C21_30  and  O8_31 
REMARK   16  A    between atoms: C26_38  and  O10_39 
ROOT
HETATM    1  C13 UNL     1      -2.089  -0.097  -0.355  1.00  0.00     0.014 C 
HETATM    2  C14 UNL     1      -2.215   1.357  -0.133  1.00  0.00    -0.016 C 
HETATM    3  C15 UNL     1      -1.743   2.063  -1.393  1.00  0.00     0.018 C 
HETATM    4  C16 UNL     1      -1.370   1.917   0.991  1.00  0.00     0.018 C 
HETATM    5  C17 UNL     1      -3.668   1.790   0.069  1.00  0.00     0.143 C 
HETATM    6  C20 UNL     1      -4.521   0.981  -0.824  1.00  0.00     0.073 C 
HETATM    7  C21 UNL     1      -4.484  -0.508  -0.553  1.00  0.00     0.078 C 
HETATM    8  C22 UNL     1      -5.750  -0.897   0.158  1.00  0.00     0.024 C 
HETATM    9  C23 UNL     1      -6.304  -2.243  -0.300  1.00  0.00     0.013 C 
HETATM   10  C24 UNL     1      -5.743  -0.790   1.636  1.00  0.00     0.093 C 
HETATM   11  C25 UNL     1      -4.424  -0.940   2.257  1.00  0.00     0.179 C 
HETATM   12  O9  UNL     1      -4.286  -0.608   3.413  1.00  0.00    -0.291 OA
HETATM   13  C26 UNL     1      -3.337  -1.501   1.406  1.00  0.00     0.100 C 
HETATM   14  C27 UNL     1      -3.221  -1.008   0.041  1.00  0.00     0.044 C 
HETATM   15  C28 UNL     1      -2.859  -2.294  -0.783  1.00  0.00     0.026 C 
ENDROOT
BRANCH   1  16
HETATM   16  C12 UNL     1      -0.741  -0.673  -0.131  1.00  0.00     0.009 C 
BRANCH  16  17
HETATM   17  C11 UNL     1       0.379  -0.156  -0.991  1.00  0.00     0.036 C 
BRANCH  17  18
HETATM   18  C10 UNL     1       1.692  -0.851  -0.661  1.00  0.00     0.140 C 
BRANCH  18  19
HETATM   19  C9  UNL     1       2.727  -0.276  -1.557  1.00  0.00     0.001 C 
HETATM   20  C8  UNL     1       3.984  -0.659  -1.566  1.00  0.00    -0.021 C 
BRANCH  20  21
HETATM   21  C6  UNL     1       4.582  -1.708  -0.701  1.00  0.00     0.033 C 
HETATM   22  C7  UNL     1       5.100  -2.782  -1.677  1.00  0.00     0.017 C 
BRANCH  21  23
HETATM   23  C5  UNL     1       5.844  -1.125  -0.092  1.00  0.00     0.134 C 
BRANCH  23  24
HETATM   24  C4  UNL     1       5.605  -0.040   0.902  1.00  0.00     0.143 C 
BRANCH  24  25
HETATM   25  C3  UNL     1       6.905   0.488   1.348  1.00  0.00     0.268 C 
HETATM   26  O3  UNL     1       6.935   1.435   2.199  1.00  0.00    -0.265 OA
BRANCH  25  27
HETATM   27  O2  UNL     1       8.139   0.025   0.904  1.00  0.00    -0.245 OA
BRANCH  27  28
HETATM   28  C2  UNL     1       9.336   0.557   1.357  1.00  0.00     0.262 C 
HETATM   29  C1  UNL     1      10.666   0.085   0.903  1.00  0.00     0.126 C 
HETATM   30  O1  UNL     1       9.303   1.490   2.196  1.00  0.00    -0.265 OA
ENDBRANCH  27  28
ENDBRANCH  25  27
ENDBRANCH  24  25
ENDBRANCH  23  24
BRANCH  23  31
HETATM   31  O4  UNL     1       6.591  -2.137   0.517  1.00  0.00    -0.394 OA
ATOM     32  H4  UNL     1       6.743  -2.828  -0.116  1.00  0.00     0.210 HD
ENDBRANCH  23  31
ENDBRANCH  21  23
ENDBRANCH  20  21
ENDBRANCH  18  19
BRANCH  18  33
HETATM   33  O5  UNL     1       2.051  -0.573   0.651  1.00  0.00    -0.392 OA
ATOM     34  H5  UNL     1       1.389  -0.941   1.224  1.00  0.00     0.210 HD
ENDBRANCH  18  33
ENDBRANCH  17  18
ENDBRANCH  16  17
ENDBRANCH   1  16
BRANCH   5  35
HETATM   35  O6  UNL     1      -3.835   3.157  -0.361  1.00  0.00    -0.315 OA
BRANCH  35  36
HETATM   36  C18 UNL     1      -4.221   4.167   0.464  1.00  0.00     0.255 C 
HETATM   37  C19 UNL     1      -4.364   5.542  -0.078  1.00  0.00     0.126 C 
HETATM   38  O7  UNL     1      -4.452   3.919   1.675  1.00  0.00    -0.266 OA
ENDBRANCH  35  36
ENDBRANCH   5  35
BRANCH   7  39
HETATM   39  O8  UNL     1      -4.684  -1.065  -1.855  1.00  0.00    -0.388 OA
ATOM     40  H8  UNL     1      -4.661  -1.999  -1.685  1.00  0.00     0.210 HD
ENDBRANCH   7  39
BRANCH  13  41
HETATM   41  O10 UNL     1      -2.187  -1.593   2.170  1.00  0.00    -0.360 OA
ATOM     42  H10 UNL     1      -1.494  -1.951   1.627  1.00  0.00     0.217 HD
ENDBRANCH  13  41
TORSDOF 16
