REMARK  13 active torsions:
REMARK  status: ('A' for Active; 'I' for Inactive)
REMARK    1  A    between atoms: C2_2  and  C3_3 
REMARK    2  A    between atoms: C3_3  and  C4_4 
REMARK    3  A    between atoms: C4_4  and  C5_5 
REMARK    4  A    between atoms: C5_5  and  O1_6 
REMARK    5  A    between atoms: O1_6  and  C6_7 
REMARK    6  A    between atoms: C7_8  and  O2_9 
REMARK    7  A    between atoms: C14_18  and  C15_19 
REMARK    8  A    between atoms: C15_19  and  O4_20 
REMARK    9  A    between atoms: O4_20  and  C16_21 
REMARK   10  A    between atoms: C18_24  and  O6_25 
REMARK   11  A    between atoms: C20_27  and  O7_28 
REMARK   12  A    between atoms: C21_30  and  O8_31 
REMARK   13  A    between atoms: C23_34  and  O9_35 
ROOT
HETATM    1  C6  UNL     1      -3.307  -1.203   0.434  1.00  0.00     0.187 C 
HETATM    2  C7  UNL     1      -4.483  -1.436   1.379  1.00  0.00     0.173 C 
HETATM    3  C8  UNL     1      -3.888  -1.412   2.742  1.00  0.00     0.203 C 
HETATM    4  O3  UNL     1      -2.579  -1.753   2.546  1.00  0.00    -0.374 OA
HETATM    5  C9  UNL     1      -2.151  -1.219   1.330  1.00  0.00     0.095 C 
HETATM    6  C10 UNL     1      -1.839   0.248   1.681  1.00  0.00     0.045 C 
HETATM    7  C11 UNL     1      -0.605   0.414   2.453  1.00  0.00     0.037 C 
HETATM    8  C12 UNL     1       0.670   0.405   1.608  1.00  0.00    -0.075 C 
HETATM    9  C13 UNL     1       1.791   1.091   2.298  1.00  0.00     0.044 C 
HETATM   10  C14 UNL     1       0.947  -0.177   0.452  1.00  0.00    -0.027 C 
HETATM   11  C22 UNL     1      -0.165  -1.046  -0.186  1.00  0.00     0.057 C 
HETATM   12  C23 UNL     1       0.135  -1.770  -1.395  1.00  0.00     0.127 C 
HETATM   13  C24 UNL     1       0.411  -3.259  -1.253  1.00  0.00     0.033 C 
HETATM   14  C25 UNL     1      -0.689  -3.950  -0.488  1.00  0.00     0.012 C 
HETATM   15  C26 UNL     1      -0.715  -3.290   0.855  1.00  0.00    -0.040 C 
HETATM   16  C27 UNL     1       0.678  -3.682   1.424  1.00  0.00     0.015 C 
HETATM   17  C28 UNL     1      -1.653  -4.068   1.727  1.00  0.00     0.015 C 
HETATM   18  C29 UNL     1      -0.856  -1.832   0.909  1.00  0.00     0.042 C 
ENDROOT
BRANCH  10  19
HETATM   19  C15 UNL     1       2.172  -0.082  -0.214  1.00  0.00     0.146 C 
BRANCH  19  20
HETATM   20  O4  UNL     1       3.358   0.496  -0.088  1.00  0.00    -0.329 OA
BRANCH  20  21
HETATM   21  C16 UNL     1       3.455   1.824  -0.411  1.00  0.00     0.296 C 
HETATM   22  O5  UNL     1       3.931   1.878  -1.802  1.00  0.00    -0.356 OA
HETATM   23  C17 UNL     1       5.134   1.184  -1.859  1.00  0.00     0.205 C 
HETATM   24  C18 UNL     1       6.220   1.855  -1.068  1.00  0.00     0.176 C 
HETATM   25  C20 UNL     1       5.640   3.009  -0.322  1.00  0.00     0.182 C 
HETATM   26  C21 UNL     1       4.364   2.654   0.395  1.00  0.00     0.205 C 
BRANCH  24  27
HETATM   27  O6  UNL     1       6.860   0.935  -0.259  1.00  0.00    -0.386 OA
HETATM   28  C19 UNL     1       8.219   0.826  -0.528  1.00  0.00     0.202 C 
ENDBRANCH  24  27
BRANCH  25  29
HETATM   29  O7  UNL     1       5.462   4.137  -1.086  1.00  0.00    -0.390 OA
ATOM     30  H7  UNL     1       5.093   4.872  -0.611  1.00  0.00     0.210 HD
ENDBRANCH  25  29
BRANCH  26  31
HETATM   31  O8  UNL     1       3.722   3.845   0.751  1.00  0.00    -0.388 OA
ATOM     32  H8  UNL     1       4.309   4.381   1.271  1.00  0.00     0.210 HD
ENDBRANCH  26  31
ENDBRANCH  20  21
ENDBRANCH  19  20
ENDBRANCH  10  19
BRANCH  12  33
HETATM   33  O9  UNL     1       1.000  -1.330  -2.348  1.00  0.00    -0.395 OA
ATOM     34  H9  UNL     1       1.198  -1.807  -3.145  1.00  0.00     0.210 HD
ENDBRANCH  12  33
BRANCH   1  35
HETATM   35  O1  UNL     1      -3.479  -0.020  -0.277  1.00  0.00    -0.380 OA
BRANCH  35  36
HETATM   36  C5  UNL     1      -3.759  -0.143  -1.610  1.00  0.00     0.168 C 
BRANCH  36  37
HETATM   37  C4  UNL     1      -3.905   1.254  -2.174  1.00  0.00     0.026 C 
BRANCH  37  38
HETATM   38  C3  UNL     1      -5.031   2.007  -1.478  1.00  0.00     0.002 C 
BRANCH  38  39
HETATM   39  C2  UNL     1      -5.172   3.399  -2.045  1.00  0.00    -0.004 C 
HETATM   40  C1  UNL     1      -6.291   4.102  -1.332  1.00  0.00     0.005 C 
ENDBRANCH  38  39
ENDBRANCH  37  38
ENDBRANCH  36  37
ENDBRANCH  35  36
ENDBRANCH   1  35
BRANCH   2  41
HETATM   41  O2  UNL     1      -5.183  -2.603   1.084  1.00  0.00    -0.391 OA
ATOM     42  H2  UNL     1      -5.915  -2.748   1.672  1.00  0.00     0.210 HD
ENDBRANCH   2  41
TORSDOF 13
