REMARK  6 active torsions:
REMARK  status: ('A' for Active; 'I' for Inactive)
REMARK    1  A    between atoms: O1_2  and  C2_3 
REMARK    2  A    between atoms: C3_4  and  O2_5 
REMARK    3  A    between atoms: C6_9  and  C7_10 
REMARK    4  A    between atoms: C8_11  and  C9_12 
REMARK    5  A    between atoms: C9_12  and  C12_15 
REMARK    6  A    between atoms: C12_15  and  O3_16 
ROOT
HETATM    1  C2  UNL     1      -2.276   0.142  -0.281  1.00  0.00     0.165 C 
HETATM    2  C3  UNL     1      -3.339   1.152   0.000  1.00  0.00     0.148 C 
HETATM    3  C4  UNL     1      -2.680   2.492   0.175  1.00  0.00     0.036 C 
HETATM    4  C5  UNL     1      -1.229   2.121   0.407  1.00  0.00     0.022 C 
HETATM    5  C6  UNL     1      -1.065   0.990  -0.603  1.00  0.00     0.096 C 
ENDROOT
BRANCH   5   6
HETATM    6  C7  UNL     1       0.188   0.314  -0.363  1.00  0.00    -0.098 C 
HETATM    7  C8  UNL     1       1.230  -0.247  -0.184  1.00  0.00    -0.095 C 
BRANCH   7   8
HETATM    8  C9  UNL     1       2.514  -0.928   0.010  1.00  0.00     0.037 C 
HETATM    9  C10 UNL     1       2.621  -2.188  -0.806  1.00  0.00     0.031 C 
HETATM   10  C11 UNL     1       2.642  -1.266   1.466  1.00  0.00     0.031 C 
BRANCH   8  11
HETATM   11  C12 UNL     1       3.621   0.023  -0.376  1.00  0.00     0.185 C 
BRANCH  11  12
HETATM   12  O3  UNL     1       3.566   1.165   0.423  1.00  0.00    -0.399 OA
ATOM     13  H3  UNL     1       4.263   1.763   0.180  1.00  0.00     0.209 HD
ENDBRANCH  11  12
ENDBRANCH   8  11
ENDBRANCH   7   8
ENDBRANCH   5   6
BRANCH   1  14
HETATM   14  O1  UNL     1      -2.035  -0.612   0.858  1.00  0.00    -0.387 OA
HETATM   15  C1  UNL     1      -2.139  -1.954   0.501  1.00  0.00     0.202 C 
ENDBRANCH   1  14
BRANCH   2  16
HETATM   16  O2  UNL     1      -4.243   1.138  -1.060  1.00  0.00    -0.393 OA
ATOM     17  H2  UNL     1      -4.919   1.781  -0.881  1.00  0.00     0.210 HD
ENDBRANCH   2  16
TORSDOF 6
