REMARK  2 active torsions:
REMARK  status: ('A' for Active; 'I' for Inactive)
REMARK    1  A    between atoms: C2_2  and  N1_4 
REMARK    2  A    between atoms: C6_7  and  C7_8 
ROOT
HETATM    1  C7  UNL     1       1.570   0.366  -0.024  1.00  0.00     0.217 C 
HETATM    2  C8  UNL     1       2.019   0.003  -1.405  1.00  0.00     0.265 C 
HETATM    3  N2  UNL     1       3.358   0.492  -1.612  1.00  0.00    -0.072 N 
ATOM      4  H21 UNL     1       3.460   0.893  -2.544  1.00  0.00     0.277 HD
ATOM      5  H22 UNL     1       4.020  -0.280  -1.690  1.00  0.00     0.277 HD
HETATM    6  C9  UNL     1       3.776   1.431  -0.596  1.00  0.00     0.259 C 
HETATM    7  C10 UNL     1       3.694   0.855   0.795  1.00  0.00     0.260 C 
HETATM    8  N3  UNL     1       2.562  -0.074   0.911  1.00  0.00    -0.067 N 
ATOM      9  H31 UNL     1       2.828  -1.051   0.785  1.00  0.00     0.277 HD
ATOM     10  H32 UNL     1       2.207  -0.159   1.864  1.00  0.00     0.277 HD
ENDROOT
BRANCH   1  11
HETATM   11  C6  UNL     1       0.222  -0.168   0.344  1.00  0.00     0.048 C 
HETATM   12  C5  UNL     1       0.115  -1.651   0.306  1.00  0.00     0.038 C 
HETATM   13  C4  UNL     1      -1.411  -1.828   0.302  1.00  0.00     0.273 C 
HETATM   14  N1  UNL     1      -1.950  -0.639  -0.252  1.00  0.00     0.092 N 
HETATM   15  C11 UNL     1      -0.877   0.284  -0.551  1.00  0.00     0.279 C 
BRANCH  14  16
HETATM   16  C2  UNL     1      -2.959   0.005   0.539  1.00  0.00     0.215 C 
HETATM   17  C1  UNL     1      -4.186  -0.803   0.762  1.00  0.00     0.042 C 
HETATM   18  C3  UNL     1      -3.351   1.321  -0.087  1.00  0.00     0.042 C 
ENDBRANCH  14  16
ENDBRANCH   1  11
TORSDOF 2
