REMARK  7 active torsions:
REMARK  status: ('A' for Active; 'I' for Inactive)
REMARK       I    between atoms: C2_2  and  N1_4 
REMARK    1  A    between atoms: N1_4  and  C4_6 
REMARK    2  A    between atoms: C10_12  and  C11_13 
REMARK    3  A    between atoms: C11_13  and  N2_14 
REMARK    4  A    between atoms: N2_14  and  C12_16 
REMARK    5  A    between atoms: C12_16  and  C13_17 
REMARK    6  A    between atoms: C16_21  and  C17_22 
REMARK    7  A    between atoms: C17_22  and  N3_23 
ROOT
HETATM    1  C4  UNL     1      -1.296   0.482  -0.040  1.00  0.00     0.036 C 
HETATM    2  C5  UNL     1      -1.491   0.037  -1.476  1.00  0.00     0.037 C 
HETATM    3  C6  UNL     1      -2.006  -1.357  -1.419  1.00  0.00     0.004 A 
HETATM    4  C7  UNL     1      -0.935  -2.269  -0.725  1.00  0.00     0.006 A 
HETATM    5  C8  UNL     1       0.334  -1.666  -0.986  1.00  0.00     0.005 A 
HETATM    6  C9  UNL     1       1.416  -1.741   0.136  1.00  0.00     0.007 A 
HETATM    7  C10 UNL     1       2.416  -0.647  -0.125  1.00  0.00     0.018 A 
HETATM    8  C14 UNL     1       0.895  -0.502  -0.409  1.00  0.00    -0.024 A 
HETATM    9  C15 UNL     1       0.176   0.523   0.314  1.00  0.00     0.042 C 
HETATM   10  C16 UNL     1      -2.029  -1.727  -0.022  1.00  0.00    -0.006 A 
HETATM   11  C18 UNL     1      -1.890  -0.549   0.857  1.00  0.00     0.043 C 
ENDROOT
BRANCH   7  12
HETATM   12  C11 UNL     1       3.036   0.145   0.958  1.00  0.00     0.119 C 
BRANCH  12  13
HETATM   13  N2  UNL     1       3.940   1.107   0.415  1.00  0.00    -0.420 N 
ATOM     14  H2  UNL     1       3.748   2.108   0.462  1.00  0.00     0.153 HD
BRANCH  13  15
HETATM   15  C12 UNL     1       5.120   0.603  -0.194  1.00  0.00     0.124 C 
BRANCH  15  16
HETATM   16  C13 UNL     1       6.109  -0.033   0.725  1.00  0.00     0.104 C 
HETATM   17 BR1  UNL     1       7.608  -0.619  -0.387  1.00  0.00    -0.095 Br
ENDBRANCH  15  16
ENDBRANCH  13  15
ENDBRANCH  12  13
ENDBRANCH   7  12
BRANCH   1  18
HETATM   18  N1  UNL     1      -1.920   1.770   0.187  1.00  0.00    -0.347 N 
HETATM   19  C2  UNL     1      -3.298   1.958  -0.032  1.00  0.00     0.216 C 
HETATM   20  C1  UNL     1      -3.917   3.273   0.209  1.00  0.00     0.117 C 
HETATM   21  O1  UNL     1      -4.019   1.015  -0.434  1.00  0.00    -0.274 OA
HETATM   22  C3  UNL     1      -1.112   2.884   0.650  1.00  0.00     0.153 C 
ENDBRANCH   1  18
BRANCH  10  23
HETATM   23  C17 UNL     1      -3.159  -2.668   0.400  1.00  0.00     0.240 C 
BRANCH  23  24
HETATM   24  N3  UNL     1      -2.995  -2.902   1.805  1.00  0.00    -0.079 N 
ATOM     25  H33 UNL     1      -2.068  -3.250   2.050  1.00  0.00     0.274 HD
ATOM     26  H32 UNL     1      -2.959  -2.044   2.355  1.00  0.00     0.274 HD
ATOM     27  H31 UNL     1      -3.748  -3.529   2.086  1.00  0.00     0.274 HD
ENDBRANCH  23  24
ENDBRANCH  10  23
TORSDOF 7
