REMARK  6 active torsions:
REMARK  status: ('A' for Active; 'I' for Inactive)
REMARK    1  A    between atoms: C2_2  and  C3_3 
REMARK    2  A    between atoms: C3_3  and  C4_4 
REMARK    3  A    between atoms: C5_5  and  C6_6 
REMARK    4  A    between atoms: C6_6  and  N1_7 
REMARK       I    between atoms: N1_7  and  C7_9 
REMARK    5  A    between atoms: C7_9  and  C8_11 
REMARK    6  A    between atoms: C10_13  and  O2_14 
ROOT
HETATM    1  C8  UNL     1      -1.583   0.032  -1.130  1.00  0.00     0.104 C 
HETATM    2  C9  UNL     1      -2.378  -1.124  -0.590  1.00  0.00     0.036 C 
HETATM    3  C10 UNL     1      -3.763  -1.190  -1.185  1.00  0.00     0.146 C 
HETATM    4  C11 UNL     1      -4.728  -0.807  -0.107  1.00  0.00     0.114 C 
HETATM    5  C12 UNL     1      -4.030  -1.255   1.159  1.00  0.00     0.033 C 
HETATM    6  C13 UNL     1      -2.610  -0.784   0.876  1.00  0.00     0.009 C 
HETATM    7  C14 UNL     1      -2.575   0.709   0.973  1.00  0.00     0.102 C 
HETATM    8  C15 UNL     1      -3.948   1.273   0.906  1.00  0.00     0.224 C 
HETATM    9  O3  UNL     1      -4.319   2.284   1.586  1.00  0.00    -0.273 OA
HETATM   10  N2  UNL     1      -4.889   0.643   0.034  1.00  0.00    -0.354 N 
ATOM     11  H2  UNL     1      -5.618   1.164  -0.454  1.00  0.00     0.163 HD
HETATM   12  C16 UNL     1      -1.808   1.200  -0.225  1.00  0.00     0.039 C 
HETATM   13  C17 UNL     1      -0.519   1.881   0.219  1.00  0.00     0.029 C 
HETATM   14 BR1  UNL     1      -2.884   2.529  -1.172  1.00  0.00    -0.084 Br
ENDROOT
BRANCH   1  15
HETATM   15  C7  UNL     1      -0.151  -0.243  -1.249  1.00  0.00     0.224 C 
HETATM   16  N1  UNL     1       0.684  -0.662  -0.194  1.00  0.00    -0.357 N 
ATOM     17  H1  UNL     1       0.289  -0.794   0.737  1.00  0.00     0.162 HD
HETATM   18  O1  UNL     1       0.369  -0.086  -2.410  1.00  0.00    -0.273 OA
BRANCH  16  19
HETATM   19  C6  UNL     1       2.092  -0.908  -0.410  1.00  0.00     0.149 C 
BRANCH  19  20
HETATM   20  C5  UNL     1       2.800  -1.335   0.796  1.00  0.00    -0.011 C 
HETATM   21  C4  UNL     1       3.806  -0.734   1.381  1.00  0.00    -0.029 C 
BRANCH  21  22
HETATM   22  C3  UNL     1       4.474   0.513   0.978  1.00  0.00     0.026 C 
BRANCH  22  23
HETATM   23  C2  UNL     1       5.944   0.311   0.679  1.00  0.00    -0.001 C 
HETATM   24  C1  UNL     1       6.630   1.569   0.270  1.00  0.00     0.005 C 
ENDBRANCH  22  23
ENDBRANCH  21  22
ENDBRANCH  19  20
ENDBRANCH  16  19
ENDBRANCH   1  15
BRANCH   3  25
HETATM   25  O2  UNL     1      -4.035  -2.538  -1.513  1.00  0.00    -0.393 OA
ATOM     26  H2  UNL     1      -4.907  -2.580  -1.888  1.00  0.00     0.210 HD
ENDBRANCH   3  25
TORSDOF 6
