REMARK  5 active torsions:
REMARK  status: ('A' for Active; 'I' for Inactive)
REMARK    1  A    between atoms: N1_2  and  C2_3 
REMARK    2  A    between atoms: C2_3  and  C3_4 
REMARK    3  A    between atoms: C7_13  and  C8_14 
REMARK    4  A    between atoms: C8_14  and  C9_15 
REMARK    5  A    between atoms: C9_15  and  N3_16 
REMARK       I    between atoms: N3_16  and  C10_18 
ROOT
HETATM    1  C3  UNL     1      -0.485  -1.150   0.238  1.00  0.00     0.056 C 
HETATM    2 BR1  UNL     1      -1.609  -2.673  -0.168  1.00  0.00    -0.083 Br
HETATM    3  C4  UNL     1      -0.231  -1.169   1.711  1.00  0.00     0.081 C 
HETATM    4  C5  UNL     1       0.483  -2.491   1.854  1.00  0.00     0.022 C 
HETATM    5  N2  UNL     1       0.553  -3.207   2.919  1.00  0.00    -0.401 N 
ATOM      6  H21 UNL     1       1.036  -4.100   3.016  1.00  0.00     0.156 HD
ATOM      7  H22 UNL     1       0.138  -2.989   3.825  1.00  0.00     0.156 HD
HETATM    8  C6  UNL     1       1.074  -2.801   0.563  1.00  0.00     0.037 C 
HETATM    9  S1  UNL     1       1.785  -4.159   0.054  1.00  0.00    -0.082 SA
HETATM   10  C7  UNL     1       0.897  -1.556  -0.281  1.00  0.00     0.054 C 
ENDROOT
BRANCH  10  11
HETATM   11  C8  UNL     1       1.974  -0.566   0.056  1.00  0.00     0.031 C 
BRANCH  11  12
HETATM   12  C9  UNL     1       3.324  -1.043  -0.500  1.00  0.00     0.123 C 
BRANCH  12  13
HETATM   13  N3  UNL     1       4.383  -0.113  -0.170  1.00  0.00    -0.365 N 
HETATM   14  C10 UNL     1       4.429   1.186  -0.747  1.00  0.00     0.181 C 
HETATM   15  N4  UNL     1       3.789   1.385  -1.842  1.00  0.00    -0.374 N 
HETATM   16  N5  UNL     1       5.169   2.220  -0.116  1.00  0.00    -0.064 NA
ATOM     17  H42 UNL     1       3.257   0.642  -2.295  1.00  0.00     0.158 HD
ATOM     18  H41 UNL     1       3.822   2.317  -2.256  1.00  0.00     0.158 HD
ATOM     19  H3  UNL     1       5.109  -0.394   0.488  1.00  0.00     0.162 HD
ENDBRANCH  12  13
ENDBRANCH  11  12
ENDBRANCH  10  11
BRANCH   1  20
HETATM   20  C2  UNL     1      -0.900   0.105  -0.375  1.00  0.00     0.259 C 
BRANCH  20  21
HETATM   21  N1  UNL     1      -2.169   0.649  -0.098  1.00  0.00    -0.069 N 
HETATM   22  C1  UNL     1      -2.188   1.588   1.006  1.00  0.00     0.272 C 
HETATM   23  C11 UNL     1      -2.589   1.424  -1.283  1.00  0.00     0.237 C 
HETATM   24  C12 UNL     1      -4.062   1.686  -1.067  1.00  0.00     0.029 C 
HETATM   25  C13 UNL     1      -4.443   0.776   0.081  1.00  0.00     0.029 C 
HETATM   26  C14 UNL     1      -3.279  -0.236   0.028  1.00  0.00     0.237 C 
ENDBRANCH  20  21
ENDBRANCH   1  20
TORSDOF 5
