REMARK  5 active torsions:
REMARK  status: ('A' for Active; 'I' for Inactive)
REMARK       I    between atoms: N1_2  and  C2_4 
REMARK    1  A    between atoms: C2_4  and  C3_6 
REMARK    2  A    between atoms: C3_6  and  C4_7 
REMARK    3  A    between atoms: C3_6  and  N3_11 
REMARK    4  A    between atoms: C4_7  and  C5_8 
REMARK       I    between atoms: N3_11  and  C6_13 
REMARK    5  A    between atoms: C6_13  and  C7_15 
ROOT
HETATM    1  N3  UNL     1       1.026   0.020  -0.222  1.00  0.00    -0.347 N 
ATOM      2  H3  UNL     1       0.752   1.002  -0.263  1.00  0.00     0.163 HD
HETATM    3  C6  UNL     1       0.012  -0.941  -0.065  1.00  0.00     0.227 C 
HETATM    4  O3  UNL     1       0.258  -2.174  -0.006  1.00  0.00    -0.273 OA
ENDROOT
BRANCH   3   5
HETATM    5  C7  UNL     1      -1.414  -0.516   0.038  1.00  0.00     0.043 C 
HETATM    6  C8  UNL     1      -2.270  -1.742   0.163  1.00  0.00     0.024 C 
HETATM    7  C9  UNL     1      -3.737  -1.328   0.263  1.00  0.00    -0.012 C 
HETATM    8  C10 UNL     1      -3.871  -0.532   1.533  1.00  0.00     0.009 C 
HETATM    9  C14 UNL     1      -4.066  -0.539  -0.971  1.00  0.00     0.025 C 
HETATM   10  C11 UNL     1      -3.026   0.715   1.434  1.00  0.00    -0.012 C 
HETATM   11  C12 UNL     1      -3.526   1.503   0.246  1.00  0.00     0.025 C 
HETATM   12  C16 UNL     1      -1.576   0.392   1.265  1.00  0.00     0.024 C 
HETATM   13  C13 UNL     1      -3.248   0.731  -1.012  1.00  0.00     0.020 C 
HETATM   14 BR1  UNL     1      -3.834   1.744  -2.556  1.00  0.00    -0.085 Br
HETATM   15  C15 UNL     1      -1.802   0.357  -1.150  1.00  0.00     0.040 C 
ENDBRANCH   3   5
BRANCH   1  16
HETATM   16  C3  UNL     1       2.464  -0.304  -0.331  1.00  0.00     0.184 C 
BRANCH  16  17
HETATM   17  C2  UNL     1       3.142   0.387   0.770  1.00  0.00     0.240 C 
HETATM   18  N1  UNL     1       4.095  -0.268   1.571  1.00  0.00    -0.364 N 
HETATM   19  C1  UNL     1       4.727   0.490   2.640  1.00  0.00     0.149 C 
ATOM     20  H1  UNL     1       4.336  -1.246   1.407  1.00  0.00     0.161 HD
HETATM   21  O1  UNL     1       2.827   1.605   0.973  1.00  0.00    -0.271 OA
ENDBRANCH  16  17
BRANCH  16  22
HETATM   22  C4  UNL     1       2.955   0.169  -1.655  1.00  0.00     0.134 C 
BRANCH  22  23
HETATM   23  C5  UNL     1       4.371  -0.048  -1.898  1.00  0.00     0.233 C 
HETATM   24  N2  UNL     1       4.996   0.427  -3.118  1.00  0.00    -0.062 NA
HETATM   25  O2  UNL     1       5.161  -0.630  -1.131  1.00  0.00    -0.277 OA
ENDBRANCH  22  23
ENDBRANCH  16  22
ENDBRANCH   1  16
TORSDOF 5
