REMARK  5 active torsions:
REMARK  status: ('A' for Active; 'I' for Inactive)
REMARK    1  A    between atoms: C6_12  and  C7_13 
REMARK    2  A    between atoms: C7_13  and  C8_14 
REMARK    3  A    between atoms: C10_18  and  N4_19 
REMARK    4  A    between atoms: N4_19  and  C13_22 
REMARK    5  A    between atoms: C13_22  and  C14_23 
ROOT
HETATM    1  C1  UNL     1      -3.566   3.249  -0.932  1.00  0.00     0.019 C 
HETATM    2  C2  UNL     1      -3.676   2.083  -0.598  1.00  0.00    -0.059 C 
HETATM    3  C3  UNL     1      -3.841   0.720  -0.172  1.00  0.00     0.102 A 
HETATM    4  N1  UNL     1      -4.929   0.101  -0.662  1.00  0.00    -0.301 N 
ATOM      5  H1  UNL     1      -5.520   0.564  -1.352  1.00  0.00     0.171 HD
HETATM    6  C4  UNL     1      -5.225  -1.129  -0.232  1.00  0.00     0.328 A 
HETATM    7  O1  UNL     1      -6.251  -1.688  -0.710  1.00  0.00    -0.247 OA
HETATM    8  N2  UNL     1      -4.441  -1.722   0.671  1.00  0.00    -0.275 N 
ATOM      9  H2  UNL     1      -4.684  -2.661   0.986  1.00  0.00     0.173 HD
HETATM   10  C5  UNL     1      -3.336  -1.130   1.187  1.00  0.00     0.258 A 
HETATM   11  O2  UNL     1      -2.721  -1.815   2.024  1.00  0.00    -0.267 OA
HETATM   12  C6  UNL     1      -2.989   0.124   0.779  1.00  0.00     0.050 A 
ENDROOT
BRANCH  12  13
HETATM   13  C7  UNL     1      -1.800   0.829   1.236  1.00  0.00     0.088 C 
BRANCH  13  14
HETATM   14  C8  UNL     1      -0.522   0.686   0.522  1.00  0.00    -0.029 A 
HETATM   15  C9  UNL     1      -0.193   1.424  -0.591  1.00  0.00     0.097 A 
HETATM   16  N3  UNL     1       1.012   1.010  -1.016  1.00  0.00    -0.345 N 
HETATM   17  C10 UNL     1       1.481   0.028  -0.212  1.00  0.00     0.213 A 
ATOM     18  H3  UNL     1       1.503   1.383  -1.829  1.00  0.00     0.166 HD
HETATM   19  C15 UNL     1       0.543  -0.203   0.766  1.00  0.00    -0.002 A 
HETATM   20  C16 UNL     1       0.578  -1.138   1.873  1.00  0.00     0.052 C 
BRANCH  17  21
HETATM   21  N4  UNL     1       2.713  -0.585  -0.433  1.00  0.00    -0.029 N 
HETATM   22  C11 UNL     1       3.464  -1.050   0.683  1.00  0.00     0.281 C 
HETATM   23  C12 UNL     1       2.456  -1.771  -1.349  1.00  0.00     0.281 C 
BRANCH  21  24
HETATM   24  C13 UNL     1       3.564   0.235  -1.237  1.00  0.00     0.255 C 
BRANCH  24  25
HETATM   25  C14 UNL     1       3.938   1.566  -0.678  1.00  0.00     0.113 C 
HETATM   26 BR1  UNL     1       4.938   1.518   0.969  1.00  0.00    -0.095 Br
ENDBRANCH  24  25
ENDBRANCH  21  24
ENDBRANCH  17  21
ENDBRANCH  13  14
ENDBRANCH  12  13
TORSDOF 5
