REMARK  6 active torsions:
REMARK  status: ('A' for Active; 'I' for Inactive)
REMARK    1  A    between atoms: C9_12  and  C10_13 
REMARK    2  A    between atoms: C10_13  and  N2_14 
REMARK    3  A    between atoms: N2_14  and  C11_15 
REMARK    4  A    between atoms: N2_14  and  C13_17 
REMARK    5  A    between atoms: C13_17  and  C14_18 
REMARK    6  A    between atoms: C14_18  and  O1_19 
ROOT
HETATM    1  C1  UNL     1      -6.021  -1.908  -1.200  1.00  0.00     0.043 C 
HETATM    2  C2  UNL     1      -5.179  -1.189  -0.487  1.00  0.00     0.024 A 
HETATM    3  C3  UNL     1      -5.618  -0.377   0.627  1.00  0.00     0.029 A 
HETATM    4  C4  UNL     1      -4.745   0.328   1.319  1.00  0.00     0.017 A 
HETATM    5  C5  UNL     1      -3.316   0.322   1.000  1.00  0.00     0.009 A 
HETATM    6  C6  UNL     1      -2.476   1.094   1.770  1.00  0.00     0.032 A 
HETATM    7  C7  UNL     1      -1.140   1.078   1.445  1.00  0.00     0.028 A 
HETATM    8  C8  UNL     1      -0.074   1.771   2.040  1.00  0.00     0.093 A 
HETATM    9 BR1  UNL     1      -0.215   2.967   3.534  1.00  0.00    -0.030 Br
HETATM   10  N1  UNL     1       1.005   1.419   1.343  1.00  0.00    -0.347 N 
ATOM     11  H1  UNL     1       1.946   1.761   1.535  1.00  0.00     0.167 HD
HETATM   12  C9  UNL     1       0.703   0.558   0.355  1.00  0.00     0.076 A 
HETATM   13  C15 UNL     1      -0.699   0.309   0.389  1.00  0.00     0.077 A 
HETATM   14  N3  UNL     1      -1.539  -0.442  -0.354  1.00  0.00    -0.334 N 
HETATM   15  C16 UNL     1      -1.080  -1.251  -1.443  1.00  0.00     0.158 C 
HETATM   16  C17 UNL     1      -2.879  -0.452  -0.065  1.00  0.00     0.118 A 
HETATM   17  N4  UNL     1      -3.780  -1.228  -0.841  1.00  0.00    -0.342 N 
ATOM     18  H4  UNL     1      -3.450  -1.794  -1.623  1.00  0.00     0.167 HD
ENDROOT
BRANCH  12  19
HETATM   19  C10 UNL     1       1.547  -0.055  -0.652  1.00  0.00     0.121 C 
BRANCH  19  20
HETATM   20  N2  UNL     1       2.972   0.214  -0.636  1.00  0.00    -0.366 N 
BRANCH  20  21
HETATM   21  C11 UNL     1       3.600  -0.392   0.474  1.00  0.00     0.123 C 
HETATM   22  C12 UNL     1       3.552  -1.913   0.204  1.00  0.00     0.027 C 
ENDBRANCH  20  21
BRANCH  20  23
HETATM   23  C13 UNL     1       3.373   1.444  -1.131  1.00  0.00     0.089 C 
BRANCH  23  24
HETATM   24  C14 UNL     1       4.828   1.602  -1.473  1.00  0.00     0.208 C 
BRANCH  24  25
HETATM   25  O1  UNL     1       5.734   1.433  -0.464  1.00  0.00    -0.396 OA
ATOM     26  H1  UNL     1       6.654   1.533  -0.680  1.00  0.00     0.209 HD
ENDBRANCH  24  25
ENDBRANCH  23  24
ENDBRANCH  20  23
ENDBRANCH  19  20
ENDBRANCH  12  19
TORSDOF 6
