REMARK  4 active torsions:
REMARK  status: ('A' for Active; 'I' for Inactive)
REMARK    1  A    between atoms: O1_3  and  C2_4 
REMARK    2  A    between atoms: C3_6  and  O3_7 
REMARK    3  A    between atoms: C8_14  and  C9_15 
REMARK    4  A    between atoms: C9_15  and  O4_16 
ROOT
HETATM    1  N1  UNL     1      -4.382   2.228  -0.108  1.00  0.00    -0.164 NA
HETATM    2  C1  UNL     1      -3.294   1.981  -0.385  1.00  0.00     0.231 C 
HETATM    3  O1  UNL     1      -2.025   1.692  -0.731  1.00  0.00    -0.250 OA
ENDROOT
BRANCH   3   4
HETATM    4  C2  UNL     1      -1.203   0.943   0.143  1.00  0.00     0.288 C 
HETATM    5  O2  UNL     1      -0.117   1.746   0.468  1.00  0.00    -0.330 OA
HETATM    6  C3  UNL     1       0.818   1.078   1.253  1.00  0.00     0.265 C 
HETATM    7  C4  UNL     1       1.443  -0.037   0.496  1.00  0.00     0.056 C 
HETATM    8  C5  UNL     1       2.220   0.534  -0.656  1.00  0.00     0.021 C 
HETATM    9  C7  UNL     1       0.408  -0.975  -0.064  1.00  0.00     0.067 C 
HETATM   10  C6  UNL     1       2.828  -0.659  -1.403  1.00  0.00     0.075 C 
HETATM   11  S1  UNL     1       1.386  -1.798  -1.385  1.00  0.00    -0.163 SA
HETATM   12  C8  UNL     1      -0.794  -0.299  -0.618  1.00  0.00     0.080 C 
BRANCH   6  13
HETATM   13  O3  UNL     1       0.253   0.567   2.415  1.00  0.00    -0.371 OA
ATOM     14  H3  UNL     1       0.891   0.111   2.951  1.00  0.00     0.212 HD
ENDBRANCH   6  13
BRANCH  12  15
HETATM   15  C9  UNL     1      -1.970  -1.277  -0.491  1.00  0.00     0.174 C 
BRANCH  15  16
HETATM   16  O4  UNL     1      -2.107  -1.493   0.900  1.00  0.00    -0.400 OA
ATOM     17  H4  UNL     1      -2.835  -2.098   0.979  1.00  0.00     0.209 HD
ENDBRANCH  15  16
ENDBRANCH  12  15
ENDBRANCH   3   4
TORSDOF 4
