REMARK  4 active torsions:
REMARK  status: ('A' for Active; 'I' for Inactive)
REMARK    1  A    between atoms: C3_3  and  O1_4 
REMARK    2  A    between atoms: O1_4  and  C4_5 
REMARK    3  A    between atoms: C9_12  and  O3_13 
REMARK    4  A    between atoms: C10_15  and  O4_16 
ROOT
HETATM    1  C1  UNL     1       3.888  -0.027   0.839  1.00  0.00     0.099 C 
HETATM    2  C2  UNL     1       3.247   0.201  -0.180  1.00  0.00    -0.162 C 
HETATM    3  C3  UNL     1       2.502   0.477  -1.410  1.00  0.00     0.247 C 
ENDROOT
BRANCH   3   4
HETATM    4  O1  UNL     1       1.170   0.650  -1.055  1.00  0.00    -0.369 OA
BRANCH   4   5
HETATM    5  C4  UNL     1       0.619  -0.448  -0.447  1.00  0.00     0.196 C 
HETATM    6  C5  UNL     1      -0.507  -1.069  -1.239  1.00  0.00     0.259 C 
HETATM    7  C6  UNL     1      -0.667  -2.497  -0.872  1.00  0.00     0.094 C 
HETATM    8  O2  UNL     1      -1.714  -0.450  -1.074  1.00  0.00    -0.361 OA
HETATM    9  N1  UNL     1      -0.787  -3.606  -0.574  1.00  0.00    -0.194 NA
HETATM   10  C7  UNL     1      -1.691   0.706  -0.336  1.00  0.00     0.150 C 
HETATM   11  C8  UNL     1      -3.135   1.224  -0.273  1.00  0.00     0.042 C 
HETATM   12  C9  UNL     1      -1.200   0.396   1.052  1.00  0.00     0.178 C 
HETATM   13  C10 UNL     1       0.221  -0.106   0.954  1.00  0.00     0.181 C 
BRANCH  12  14
HETATM   14  O3  UNL     1      -1.286   1.521   1.890  1.00  0.00    -0.390 OA
ATOM     15  H3  UNL     1      -0.976   1.325   2.766  1.00  0.00     0.210 HD
ENDBRANCH  12  14
BRANCH  13  16
HETATM   16  O4  UNL     1       0.373  -1.188   1.829  1.00  0.00    -0.390 OA
ATOM     17  H4  UNL     1       0.120  -0.971   2.719  1.00  0.00     0.210 HD
ENDBRANCH  13  16
ENDBRANCH   4   5
ENDBRANCH   3   4
TORSDOF 4
