REMARK  4 active torsions:
REMARK  status: ('A' for Active; 'I' for Inactive)
REMARK    1  A    between atoms: O1_2  and  C2_3 
REMARK    2  A    between atoms: C3_4  and  S1_5 
REMARK    3  A    between atoms: C7_11  and  O4_12 
REMARK    4  A    between atoms: C8_14  and  O5_15 
ROOT
HETATM    1  C2  UNL     1       0.639  -0.616  -0.071  1.00  0.00     0.193 C 
HETATM    2  C3  UNL     1       0.321   0.848   0.103  1.00  0.00     0.217 C 
HETATM    3  O2  UNL     1      -0.930   0.891   0.733  1.00  0.00    -0.343 OA
HETATM    4  C5  UNL     1      -1.968   0.986  -0.166  1.00  0.00     0.260 C 
HETATM    5  C6  UNL     1      -3.122   1.676   0.567  1.00  0.00     0.071 C 
HETATM    6  O3  UNL     1      -2.448  -0.189  -0.668  1.00  0.00    -0.329 OA
HETATM    7  C7  UNL     1      -1.649  -1.293  -0.535  1.00  0.00     0.291 C 
HETATM    8  C8  UNL     1      -0.290  -1.149  -1.147  1.00  0.00     0.205 C 
ENDROOT
BRANCH   1   9
HETATM    9  O1  UNL     1       1.945  -0.888  -0.384  1.00  0.00    -0.385 OA
HETATM   10  C1  UNL     1       2.477  -1.715   0.602  1.00  0.00     0.202 C 
ENDBRANCH   1   9
BRANCH   2  11
HETATM   11  S1  UNL     1       1.529   1.554   1.235  1.00  0.00    -0.139 SA
HETATM   12  C4  UNL     1       3.194   1.589   0.566  1.00  0.00     0.092 C 
ENDBRANCH   2  11
BRANCH   8  13
HETATM   13  O5  UNL     1      -0.293  -0.335  -2.257  1.00  0.00    -0.388 OA
ATOM     14  H5  UNL     1      -0.874  -0.669  -2.930  1.00  0.00     0.210 HD
ENDBRANCH   8  13
BRANCH   7  15
HETATM   15  O4  UNL     1      -1.541  -1.773   0.766  1.00  0.00    -0.368 OA
ATOM     16  H4  UNL     1      -0.987  -2.539   0.858  1.00  0.00     0.212 HD
ENDBRANCH   7  15
TORSDOF 4
