REMARK  6 active torsions:
REMARK  status: ('A' for Active; 'I' for Inactive)
REMARK    1  A    between atoms: N1_1  and  N2_4 
REMARK    2  A    between atoms: N2_4  and  N3_5 
REMARK    3  A    between atoms: N3_5  and  C1_7 
REMARK    4  A    between atoms: C2_8  and  O1_9 
REMARK    5  A    between atoms: C3_11  and  C4_12 
REMARK    6  A    between atoms: C4_12  and  O2_13 
ROOT
HETATM    1  C1  UNL     1      -0.074   1.278  -0.143  1.00  0.00     0.238 C 
HETATM    2  C2  UNL     1       1.375   0.866  -0.389  1.00  0.00     0.182 C 
HETATM    3  C3  UNL     1       1.370  -0.486   0.337  1.00  0.00     0.182 C 
HETATM    4  O3  UNL     1       0.199  -1.040  -0.175  1.00  0.00    -0.321 OA
HETATM    5  C5  UNL     1      -0.757  -0.052   0.050  1.00  0.00     0.309 C 
HETATM    6  O4  UNL     1      -1.220  -0.223   1.349  1.00  0.00    -0.329 OA
HETATM    7  C6  UNL     1      -2.394  -0.998   1.219  1.00  0.00     0.200 C 
HETATM    8  C7  UNL     1      -2.969  -0.375  -0.055  1.00  0.00     0.200 C 
HETATM    9  O5  UNL     1      -1.836  -0.152  -0.800  1.00  0.00    -0.329 OA
ENDROOT
BRANCH   1  10
HETATM   10  N3  UNL     1      -0.616   2.053  -1.213  1.00  0.00    -0.237 N 
ATOM     11  H3  UNL     1      -1.078   1.612  -2.008  1.00  0.00     0.197 HD
BRANCH  10  12
HETATM   12  N2  UNL     1      -0.500   3.295  -1.134  1.00  0.00    -0.248 NA
BRANCH  12  13
HETATM   13  N1  UNL     1      -0.076   4.438  -1.302  1.00  0.00    -0.261 N 
ATOM     14  H12 UNL     1       0.692   4.177  -1.920  1.00  0.00     0.193 HD
ATOM     15  H11 UNL     1       0.019   5.452  -1.238  1.00  0.00     0.193 HD
ENDBRANCH  12  13
ENDBRANCH  10  12
ENDBRANCH   1  10
BRANCH   2  16
HETATM   16  O1  UNL     1       1.513   0.696  -1.755  1.00  0.00    -0.390 OA
ATOM     17  H1  UNL     1       2.415   0.440  -1.908  1.00  0.00     0.210 HD
ENDBRANCH   2  16
BRANCH   3  18
HETATM   18  C4  UNL     1       2.586  -1.297  -0.022  1.00  0.00     0.199 C 
BRANCH  18  19
HETATM   19  O2  UNL     1       2.410  -2.571   0.513  1.00  0.00    -0.398 OA
ATOM     20  H2  UNL     1       3.178  -3.083   0.286  1.00  0.00     0.209 HD
ENDBRANCH  18  19
ENDBRANCH   3  18
TORSDOF 6
