REMARK  11 active torsions:
REMARK  status: ('A' for Active; 'I' for Inactive)
REMARK    1  A    between atoms: O1_2  and  C2_3 
REMARK    2  A    between atoms: C2_3  and  C3_5 
REMARK    3  A    between atoms: C3_5  and  N1_6 
REMARK    4  A    between atoms: C3_5  and  C21_35 
REMARK       I    between atoms: N1_6  and  C4_8 
REMARK    5  A    between atoms: C4_8  and  C5_10 
REMARK    6  A    between atoms: C5_10  and  N2_12 
REMARK       I    between atoms: N2_12  and  C7_14 
REMARK    7  A    between atoms: C7_14  and  C8_16 
REMARK    8  A    between atoms: C8_16  and  N3_18 
REMARK       I    between atoms: N3_18  and  C10_20 
REMARK       I    between atoms: C10_20  and  N4_22 
REMARK    9  A    between atoms: N4_22  and  C11_24 
REMARK   10  A    between atoms: C14_27  and  O6_28 
REMARK   11  A    between atoms: O6_28  and  C15_29 
ROOT
HETATM    1  C8  UNL     1      -0.326  -0.558   1.984  1.00  0.00     0.174 C 
HETATM    2  C9  UNL     1      -0.457  -1.035   3.408  1.00  0.00     0.042 C 
ENDROOT
BRANCH   1   3
HETATM    3  C7  UNL     1      -1.434  -1.131   1.191  1.00  0.00     0.240 C 
HETATM    4  N2  UNL     1      -2.755  -0.969   1.636  1.00  0.00    -0.346 N 
ATOM      5  H2  UNL     1      -2.908  -0.460   2.507  1.00  0.00     0.163 HD
HETATM    6  O4  UNL     1      -1.210  -1.751   0.136  1.00  0.00    -0.271 OA
BRANCH   4   7
HETATM    7  C5  UNL     1      -3.931  -1.487   0.925  1.00  0.00     0.172 C 
HETATM    8  C6  UNL     1      -4.480  -2.625   1.785  1.00  0.00     0.042 C 
BRANCH   7   9
HETATM    9  C4  UNL     1      -4.902  -0.391   0.815  1.00  0.00     0.240 C 
HETATM   10  N1  UNL     1      -6.131  -0.592   0.170  1.00  0.00    -0.345 N 
ATOM     11  H1  UNL     1      -6.316  -1.518  -0.217  1.00  0.00     0.163 HD
HETATM   12  O3  UNL     1      -4.629   0.724   1.301  1.00  0.00    -0.271 OA
BRANCH  10  13
HETATM   13  C3  UNL     1      -7.154   0.415   0.013  1.00  0.00     0.187 C 
BRANCH  13  14
HETATM   14  C2  UNL     1      -7.303   0.862  -1.396  1.00  0.00     0.281 C 
HETATM   15  O2  UNL     1      -6.578   0.391  -2.309  1.00  0.00    -0.263 OA
BRANCH  14  16
HETATM   16  O1  UNL     1      -8.239   1.811  -1.779  1.00  0.00    -0.325 OA
HETATM   17  C1  UNL     1      -8.425   2.270  -3.093  1.00  0.00     0.213 C 
ENDBRANCH  14  16
ENDBRANCH  13  14
BRANCH  13  18
HETATM   18  C21 UNL     1      -8.434   0.145   0.717  1.00  0.00     0.010 C 
HETATM   19  C22 UNL     1      -9.289  -0.912   0.111  1.00  0.00     0.012 C 
HETATM   20  C23 UNL     1      -9.205   1.457   0.820  1.00  0.00     0.012 C 
ENDBRANCH  13  18
ENDBRANCH  10  13
ENDBRANCH   7   9
ENDBRANCH   4   7
ENDBRANCH   1   3
BRANCH   1  21
HETATM   21  N3  UNL     1       0.979  -0.840   1.425  1.00  0.00    -0.330 N 
HETATM   22  C10 UNL     1       1.709   0.260   0.865  1.00  0.00     0.317 C 
HETATM   23  O5  UNL     1       1.220   1.431   0.854  1.00  0.00    -0.247 OA
HETATM   24  N4  UNL     1       2.998   0.035   0.315  1.00  0.00    -0.339 N 
ATOM     25  H4  UNL     1       3.399  -0.903   0.328  1.00  0.00     0.164 HD
ATOM     26  H3  UNL     1       1.364  -1.784   1.429  1.00  0.00     0.165 HD
BRANCH  24  27
HETATM   27  C11 UNL     1       3.739   1.119  -0.259  1.00  0.00     0.086 C 
HETATM   28  C12 UNL     1       4.142   0.838  -1.681  1.00  0.00     0.028 C 
HETATM   29  C13 UNL     1       5.375  -0.044  -1.673  1.00  0.00     0.034 C 
HETATM   30  C14 UNL     1       6.575   0.669  -1.103  1.00  0.00     0.122 C 
HETATM   31  C19 UNL     1       6.144   1.808  -0.212  1.00  0.00     0.034 C 
HETATM   32  C20 UNL     1       4.930   1.451   0.614  1.00  0.00     0.028 C 
BRANCH  30  33
HETATM   33  O6  UNL     1       7.271  -0.218  -0.307  1.00  0.00    -0.376 OA
BRANCH  33  34
HETATM   34  C15 UNL     1       8.590  -0.388  -0.634  1.00  0.00     0.050 C 
HETATM   35  C16 UNL     1       8.818  -0.921  -2.029  1.00  0.00     0.045 C 
HETATM   36  C17 UNL     1       9.169  -1.414   0.337  1.00  0.00     0.045 C 
HETATM   37  C18 UNL     1       9.411   0.879  -0.429  1.00  0.00     0.045 C 
ENDBRANCH  33  34
ENDBRANCH  30  33
ENDBRANCH  24  27
ENDBRANCH   1  21
TORSDOF 11
