REMARK  9 active torsions:
REMARK  status: ('A' for Active; 'I' for Inactive)
REMARK    1  A    between atoms: N1_2  and  C2_4 
REMARK    2  A    between atoms: C2_4  and  C3_5 
REMARK    3  A    between atoms: C2_4  and  C22_35 
REMARK       I    between atoms: C3_5  and  N2_7 
REMARK    4  A    between atoms: N2_7  and  C4_9 
REMARK    5  A    between atoms: C9_14  and  N3_15 
REMARK       I    between atoms: N3_15  and  C10_17 
REMARK    6  A    between atoms: C10_17  and  C11_19 
REMARK    7  A    between atoms: C11_19  and  N4_20 
REMARK    8  A    between atoms: C11_19  and  C19_32 
REMARK       I    between atoms: N4_20  and  C12_22 
REMARK    9  A    between atoms: C12_22  and  C13_24 
ROOT
HETATM    1  N3  UNL     1      -1.010  -1.986   0.903  1.00  0.00    -0.353 N 
ATOM      2  H3  UNL     1      -1.551  -2.438   0.166  1.00  0.00     0.163 HD
HETATM    3  C10 UNL     1       0.209  -1.369   0.591  1.00  0.00     0.241 C 
HETATM    4  O2  UNL     1       0.867  -0.814   1.515  1.00  0.00    -0.271 OA
ENDROOT
BRANCH   1   5
HETATM    5  C9  UNL     1      -1.504  -1.988   2.251  1.00  0.00     0.107 C 
HETATM    6  C4  UNL     1      -2.893  -1.472   2.420  1.00  0.00     0.107 C 
HETATM    7  C5  UNL     1      -3.141  -1.266   3.893  1.00  0.00     0.027 C 
HETATM    8  C6  UNL     1      -2.435  -2.284   4.749  1.00  0.00     0.002 C 
HETATM    9  C7  UNL     1      -2.184  -3.580   4.043  1.00  0.00     0.002 C 
HETATM   10  C8  UNL     1      -1.536  -3.445   2.696  1.00  0.00     0.027 C 
BRANCH   6  11
HETATM   11  N2  UNL     1      -3.155  -0.209   1.751  1.00  0.00    -0.353 N 
HETATM   12  C3  UNL     1      -4.162  -0.030   0.801  1.00  0.00     0.240 C 
HETATM   13  O1  UNL     1      -4.866  -1.072   0.543  1.00  0.00    -0.271 OA
ATOM     14  H2  UNL     1      -2.570   0.592   1.989  1.00  0.00     0.163 HD
BRANCH  12  15
HETATM   15  C2  UNL     1      -4.530   1.172   0.062  1.00  0.00     0.172 C 
BRANCH  15  16
HETATM   16  N1  UNL     1      -5.694   0.958  -0.788  1.00  0.00    -0.413 N 
HETATM   17  C1  UNL     1      -5.519  -0.021  -1.804  1.00  0.00     0.140 C 
ATOM     18  H1  UNL     1      -6.567   1.471  -0.664  1.00  0.00     0.153 HD
ENDBRANCH  15  16
BRANCH  15  19
HETATM   19  C22 UNL     1      -3.463   1.731  -0.847  1.00  0.00     0.009 C 
HETATM   20  C23 UNL     1      -2.174   2.041  -0.172  1.00  0.00     0.012 C 
HETATM   21  C24 UNL     1      -4.040   3.051  -1.381  1.00  0.00     0.012 C 
ENDBRANCH  15  19
ENDBRANCH  12  15
ENDBRANCH   6  11
ENDBRANCH   1   5
BRANCH   3  22
HETATM   22  C11 UNL     1       0.793  -1.320  -0.772  1.00  0.00     0.180 C 
BRANCH  22  23
HETATM   23  N4  UNL     1       2.066  -0.614  -0.756  1.00  0.00    -0.343 N 
HETATM   24  C12 UNL     1       2.214   0.626  -1.415  1.00  0.00     0.273 C 
HETATM   25  O3  UNL     1       1.233   1.113  -2.016  1.00  0.00    -0.268 OA
ATOM     26  H4  UNL     1       2.861  -1.020  -0.263  1.00  0.00     0.163 HD
BRANCH  24  27
HETATM   27  C13 UNL     1       3.507   1.325  -1.387  1.00  0.00     0.353 C 
HETATM   28  O4  UNL     1       3.402   2.521  -2.086  1.00  0.00    -0.352 OA
HETATM   29  C14 UNL     1       4.680   2.944  -2.409  1.00  0.00     0.182 C 
HETATM   30  C15 UNL     1       5.564   2.889  -1.195  1.00  0.00    -0.004 C 
HETATM   31  C16 UNL     1       6.626   1.816  -1.318  1.00  0.00     0.019 C 
HETATM   32  C17 UNL     1       6.296   4.215  -1.086  1.00  0.00     0.019 C 
HETATM   33  C18 UNL     1       4.789   2.608   0.061  1.00  0.00     0.182 C 
HETATM   34  O5  UNL     1       3.988   1.499  -0.092  1.00  0.00    -0.352 OA
ENDBRANCH  24  27
ENDBRANCH  22  23
BRANCH  22  35
HETATM   35  C19 UNL     1       0.941  -2.677  -1.390  1.00  0.00     0.009 C 
HETATM   36  C20 UNL     1       1.848  -3.579  -0.562  1.00  0.00     0.012 C 
HETATM   37  C21 UNL     1       1.645  -2.487  -2.732  1.00  0.00     0.012 C 
ENDBRANCH  22  35
ENDBRANCH   3  22
TORSDOF 9
