REMARK  11 active torsions:
REMARK  status: ('A' for Active; 'I' for Inactive)
REMARK    1  A    between atoms: C2_2  and  C3_3 
REMARK    2  A    between atoms: C3_3  and  C4_4 
REMARK    3  A    between atoms: C7_7  and  N1_8 
REMARK    4  A    between atoms: C7_7  and  C15_31 
REMARK    5  A    between atoms: N1_8  and  C8_10 
REMARK    6  A    between atoms: C8_10  and  O1_11 
REMARK    7  A    between atoms: C11_17  and  C12_18 
REMARK    8  A    between atoms: C12_18  and  C13_19 
REMARK    9  A    between atoms: C13_19  and  N3_20 
REMARK   10  A    between atoms: N3_20  and  S1_22 
REMARK   11  A    between atoms: S1_22  and  N4_23 
ROOT
HETATM    1  C8  UNL     1       0.604  -0.323  -0.682  1.00  0.00     0.170 C 
HETATM    2  C9  UNL     1       2.042  -0.316  -0.777  1.00  0.00     0.155 C 
HETATM    3  N2  UNL     1       2.601  -1.342   0.118  1.00  0.00    -0.379 N 
ATOM      4  H2  UNL     1       2.029  -2.018   0.623  1.00  0.00     0.160 HD
HETATM    5  C10 UNL     1       4.017  -1.295   0.207  1.00  0.00     0.152 C 
HETATM    6  C11 UNL     1       4.624  -0.743  -1.093  1.00  0.00     0.151 C 
HETATM    7  O4  UNL     1       4.240   0.643  -1.104  1.00  0.00    -0.309 OA
HETATM    8  C14 UNL     1       2.841   0.876  -0.905  1.00  0.00     0.314 C 
HETATM    9  O5  UNL     1       2.499   2.076  -0.883  1.00  0.00    -0.257 OA
ENDROOT
BRANCH   1  10
HETATM   10  N1  UNL     1      -0.242   0.224   0.298  1.00  0.00    -0.359 N 
ATOM     11  H1  UNL     1       0.187   0.749   1.060  1.00  0.00     0.162 HD
BRANCH  10  12
HETATM   12  C7  UNL     1      -1.683   0.089   0.294  1.00  0.00     0.036 C 
HETATM   13  C6  UNL     1      -2.194   0.729   1.603  1.00  0.00     0.032 C 
HETATM   14  C5  UNL     1      -3.019   1.952   1.420  1.00  0.00     0.007 C 
HETATM   15  C4  UNL     1      -4.166   1.721   0.453  1.00  0.00    -0.011 C 
HETATM   16  C21 UNL     1      -3.624   1.283  -0.857  1.00  0.00    -0.012 C 
HETATM   17  C20 UNL     1      -2.163   0.954  -0.848  1.00  0.00     0.036 C 
HETATM   18  C22 UNL     1      -3.759   2.507  -1.786  1.00  0.00     0.010 C 
BRANCH  15  19
HETATM   19  C3  UNL     1      -5.170   0.817   1.104  1.00  0.00     0.004 C 
BRANCH  19  20
HETATM   20  C2  UNL     1      -6.347   0.448   0.286  1.00  0.00    -0.004 C 
HETATM   21  C1  UNL     1      -7.226   1.552  -0.175  1.00  0.00     0.005 C 
ENDBRANCH  19  20
ENDBRANCH  15  19
BRANCH  12  22
HETATM   22  C15 UNL     1      -2.037  -1.325   0.199  1.00  0.00     0.014 C 
HETATM   23  C16 UNL     1      -2.122  -2.120   1.506  1.00  0.00     0.007 C 
HETATM   24  C17 UNL     1      -2.146  -3.531   0.902  1.00  0.00     0.000 C 
HETATM   25  C18 UNL     1      -2.810  -3.374  -0.477  1.00  0.00     0.000 C 
HETATM   26  C19 UNL     1      -3.154  -1.868  -0.567  1.00  0.00     0.007 C 
ENDBRANCH  12  22
ENDBRANCH  10  12
ENDBRANCH   1  10
BRANCH   1  27
HETATM   27  O1  UNL     1       0.016  -0.983  -1.678  1.00  0.00    -0.344 OA
ATOM     28  H1  UNL     1       0.588  -1.353  -2.340  1.00  0.00     0.219 HD
ENDBRANCH   1  27
BRANCH   6  29
HETATM   29  C12 UNL     1       6.099  -0.840  -1.073  1.00  0.00     0.054 C 
BRANCH  29  30
HETATM   30  C13 UNL     1       6.778  -0.020  -0.014  1.00  0.00     0.136 C 
BRANCH  30  31
HETATM   31  N3  UNL     1       8.197  -0.261  -0.002  1.00  0.00    -0.303 N 
ATOM     32  H3  UNL     1       8.695  -0.916  -0.605  1.00  0.00     0.173 HD
BRANCH  31  33
HETATM   33  S1  UNL     1       8.919   0.750   1.212  1.00  0.00     0.312 S 
HETATM   34  O2  UNL     1       9.802  -0.062   2.073  1.00  0.00    -0.183 OA
HETATM   35  O3  UNL     1       7.855   1.476   1.972  1.00  0.00    -0.183 OA
BRANCH  33  36
HETATM   36  N4  UNL     1       9.839   1.966   0.341  1.00  0.00    -0.312 N 
ATOM     37  H42 UNL     1       9.923   2.049  -0.672  1.00  0.00     0.170 HD
ATOM     38  H41 UNL     1      10.263   2.560   1.054  1.00  0.00     0.170 HD
ENDBRANCH  33  36
ENDBRANCH  31  33
ENDBRANCH  30  31
ENDBRANCH  29  30
ENDBRANCH   6  29
TORSDOF 11
