REMARK  11 active torsions:
REMARK  status: ('A' for Active; 'I' for Inactive)
REMARK    1  A    between atoms: N2_5  and  C2_6 
REMARK    2  A    between atoms: C2_6  and  O2_7 
REMARK    3  A    between atoms: C3_9  and  C4_10 
REMARK    4  A    between atoms: C3_9  and  C11_17 
REMARK    5  A    between atoms: C4_10  and  C5_11 
REMARK    6  A    between atoms: C11_17  and  N3_18 
REMARK    7  A    between atoms: C15_25  and  C16_26 
REMARK    8  A    between atoms: C16_26  and  C17_27 
REMARK    9  A    between atoms: C17_27  and  O4_28 
REMARK   10  A    between atoms: C18_32  and  C19_33 
REMARK   11  A    between atoms: C19_33  and  C20_34 
ROOT
HETATM    1  O1  UNL     1       2.858   2.381   2.605  1.00  0.00    -0.269 OA
HETATM    2  C1  UNL     1       2.092   1.882   1.764  1.00  0.00     0.259 C 
HETATM    3  N1  UNL     1       0.665   2.059   1.760  1.00  0.00    -0.258 N 
ATOM      4  H1  UNL     1       0.260   2.860   2.245  1.00  0.00     0.190 HD
HETATM    5  N2  UNL     1      -0.202   1.133   1.088  1.00  0.00    -0.219 N 
HETATM    6  C15 UNL     1       0.392   0.530  -0.047  1.00  0.00     0.104 C 
HETATM    7  N5  UNL     1       1.767   0.065   0.190  1.00  0.00    -0.365 N 
ATOM      8  H5  UNL     1       2.052  -0.898   0.014  1.00  0.00     0.161 HD
HETATM    9  C18 UNL     1       2.672   1.042   0.679  1.00  0.00     0.177 C 
ENDROOT
BRANCH   5  10
HETATM   10  C2  UNL     1      -1.477   0.980   1.656  1.00  0.00     0.167 C 
HETATM   11  C3  UNL     1      -2.612   0.144   1.331  1.00  0.00    -0.009 C 
BRANCH  10  12
HETATM   12  O2  UNL     1      -1.750   1.735   2.719  1.00  0.00    -0.344 OA
ATOM     13  H2  UNL     1      -2.613   1.631   3.103  1.00  0.00     0.219 HD
ENDBRANCH  10  12
BRANCH  11  14
HETATM   14  C4  UNL     1      -3.095   0.064  -0.066  1.00  0.00     0.045 C 
BRANCH  14  15
HETATM   15  C5  UNL     1      -3.557   1.361  -0.656  1.00  0.00    -0.010 C 
HETATM   16  C6  UNL     1      -4.685   2.019   0.047  1.00  0.00     0.005 C 
HETATM   17  C7  UNL     1      -5.991   1.254  -0.172  1.00  0.00     0.000 C 
HETATM   18  C8  UNL     1      -6.404   1.534  -1.610  1.00  0.00     0.000 C 
HETATM   19  C9  UNL     1      -5.207   1.894  -2.467  1.00  0.00     0.000 C 
HETATM   20  C10 UNL     1      -3.977   1.091  -2.087  1.00  0.00     0.005 C 
ENDBRANCH  14  15
ENDBRANCH  11  14
BRANCH  11  21
HETATM   21  C11 UNL     1      -2.658  -1.174   2.048  1.00  0.00     0.166 C 
BRANCH  21  22
HETATM   22  N3  UNL     1      -1.583  -2.075   1.857  1.00  0.00    -0.329 N 
HETATM   23  C12 UNL     1      -1.523  -3.097   0.820  1.00  0.00     0.147 C 
HETATM   24  C13 UNL     1      -0.291  -3.915   1.114  1.00  0.00     0.144 C 
HETATM   25  N4  UNL     1       0.417  -3.221   2.156  1.00  0.00    -0.341 N 
HETATM   26  C14 UNL     1      -0.398  -2.144   2.639  1.00  0.00     0.318 C 
ATOM     27  H4  UNL     1       1.349  -3.457   2.497  1.00  0.00     0.164 HD
HETATM   28  O3  UNL     1      -0.034  -1.428   3.611  1.00  0.00    -0.247 OA
ENDBRANCH  21  22
ENDBRANCH  11  21
ENDBRANCH   5  10
BRANCH   6  29
HETATM   29  C16 UNL     1       0.260   1.155  -1.374  1.00  0.00     0.104 C 
BRANCH  29  30
HETATM   30  C17 UNL     1       0.738   2.525  -1.623  1.00  0.00     0.171 C 
BRANCH  30  31
HETATM   31  O4  UNL     1       0.155   3.512  -0.831  1.00  0.00    -0.400 OA
ATOM     32  H4  UNL     1       0.463   4.396  -0.992  1.00  0.00     0.209 HD
ENDBRANCH  30  31
ENDBRANCH  29  30
ENDBRANCH   6  29
BRANCH   9  33
HETATM   33  C19 UNL     1       3.841   0.300   1.334  1.00  0.00     0.039 C 
BRANCH  33  34
HETATM   34  C20 UNL     1       4.607  -0.588   0.439  1.00  0.00    -0.012 C 
HETATM   35  C21 UNL     1       5.167   0.261  -0.690  1.00  0.00     0.005 C 
HETATM   36  C22 UNL     1       6.126  -0.598  -1.459  1.00  0.00     0.000 C 
HETATM   37  C23 UNL     1       6.373  -1.939  -0.824  1.00  0.00     0.000 C 
HETATM   38  C24 UNL     1       5.118  -2.724  -0.582  1.00  0.00     0.000 C 
HETATM   39  C25 UNL     1       3.993  -1.859  -0.004  1.00  0.00     0.005 C 
ENDBRANCH  33  34
ENDBRANCH   9  33
TORSDOF 11
