REMARK  11 active torsions:
REMARK  status: ('A' for Active; 'I' for Inactive)
REMARK    1  A    between atoms: C5_6  and  C6_7 
REMARK    2  A    between atoms: C6_7  and  C7_8 
REMARK    3  A    between atoms: C7_8  and  N1_9 
REMARK    4  A    between atoms: C8_13  and  N2_14 
REMARK    5  A    between atoms: N2_14  and  S2_16 
REMARK    6  A    between atoms: S2_16  and  N3_19 
REMARK    7  A    between atoms: N3_19  and  C9_21 
REMARK    8  A    between atoms: C9_21  and  C10_25 
REMARK    9  A    between atoms: C10_25  and  C11_26 
REMARK   10  A    between atoms: C11_26  and  C12_27 
REMARK   11  A    between atoms: C12_27  and  C13_28 
ROOT
HETATM    1  N2  UNL     1      -2.544   2.280   0.052  1.00  0.00    -0.296 N 
ATOM      2  H2  UNL     1      -2.792   3.157   0.510  1.00  0.00     0.174 HD
ENDROOT
BRANCH   1   3
HETATM    3  C8  UNL     1      -3.377   1.143  -0.004  1.00  0.00     0.119 C 
HETATM    4  C5  UNL     1      -4.810   1.323  -0.391  1.00  0.00     0.045 C 
HETATM    5  C4  UNL     1      -5.406   0.011   0.155  1.00  0.00     0.156 C 
HETATM    6  S1  UNL     1      -5.492  -1.267  -1.109  1.00  0.00    -0.138 SA
HETATM    7  N5  UNL     1      -4.514  -0.437   1.186  1.00  0.00    -0.332 N 
HETATM    8  C3  UNL     1      -5.349  -2.926  -0.384  1.00  0.00     0.119 C 
HETATM    9  C2  UNL     1      -5.379  -2.798   1.095  1.00  0.00     0.010 C 
HETATM   10  C1  UNL     1      -6.002  -3.710   1.795  1.00  0.00     0.025 C 
HETATM   11  C21 UNL     1      -4.734  -1.685   1.792  1.00  0.00     0.250 C 
HETATM   12  O3  UNL     1      -4.351  -1.846   3.000  1.00  0.00    -0.268 OA
HETATM   13  C20 UNL     1      -3.478   0.550   1.426  1.00  0.00     0.153 C 
BRANCH   4  14
HETATM   14  C6  UNL     1      -4.967   1.382  -1.867  1.00  0.00     0.037 C 
BRANCH  14  15
HETATM   15  C7  UNL     1      -4.486   2.619  -2.552  1.00  0.00     0.230 C 
BRANCH  15  16
HETATM   16  N1  UNL     1      -5.262   3.750  -2.013  1.00  0.00    -0.079 N 
ATOM     17  H13 UNL     1      -6.270   3.616  -2.094  1.00  0.00     0.274 HD
ATOM     18  H12 UNL     1      -5.218   3.815  -0.996  1.00  0.00     0.274 HD
ATOM     19  H11 UNL     1      -4.934   4.595  -2.481  1.00  0.00     0.274 HD
ENDBRANCH  15  16
ENDBRANCH  14  15
ENDBRANCH   4  14
ENDBRANCH   1   3
BRANCH   1  20
HETATM   20  S2  UNL     1      -1.060   1.989  -0.753  1.00  0.00     0.320 S 
HETATM   21  O1  UNL     1      -0.531   3.271  -1.380  1.00  0.00    -0.182 OA
HETATM   22  O2  UNL     1      -1.233   0.985  -1.879  1.00  0.00    -0.182 OA
BRANCH  20  23
HETATM   23  N3  UNL     1       0.149   1.392   0.313  1.00  0.00    -0.257 N 
ATOM     24  H3  UNL     1       0.720   2.054   0.838  1.00  0.00     0.181 HD
BRANCH  23  25
HETATM   25  C9  UNL     1       0.372   0.002   0.480  1.00  0.00     0.085 C 
HETATM   26  N4  UNL     1      -0.110  -0.804  -0.393  1.00  0.00    -0.388 N 
ATOM     27  H42 UNL     1      -0.641  -0.443  -1.185  1.00  0.00     0.157 HD
ATOM     28  H41 UNL     1       0.050  -1.804  -0.273  1.00  0.00     0.157 HD
BRANCH  25  29
HETATM   29  C10 UNL     1       1.139  -0.520   1.625  1.00  0.00     0.076 C 
BRANCH  29  30
HETATM   30  C11 UNL     1       2.539   0.047   1.603  1.00  0.00     0.008 C 
BRANCH  30  31
HETATM   31  C12 UNL     1       3.254  -0.334   0.334  1.00  0.00     0.010 C 
BRANCH  31  32
HETATM   32  C13 UNL     1       4.659   0.224   0.292  1.00  0.00     0.018 C 
HETATM   33  C14 UNL     1       5.242  -0.244  -1.042  1.00  0.00    -0.025 C 
HETATM   34  C15 UNL     1       6.594   0.011  -1.437  1.00  0.00    -0.029 C 
HETATM   35  C16 UNL     1       7.751  -0.939  -1.141  1.00  0.00     0.038 C 
HETATM   36  C17 UNL     1       7.909  -1.189   0.401  1.00  0.00     0.083 C 
HETATM   37  C18 UNL     1       6.698  -0.778   0.979  1.00  0.00    -0.182 C 
HETATM   38  C19 UNL     1       5.467  -0.362   1.504  1.00  0.00     0.088 C 
ENDBRANCH  31  32
ENDBRANCH  30  31
ENDBRANCH  29  30
ENDBRANCH  25  29
ENDBRANCH  23  25
ENDBRANCH  20  23
ENDBRANCH   1  20
TORSDOF 11
