REMARK  11 active torsions:
REMARK  status: ('A' for Active; 'I' for Inactive)
REMARK    1  A    between atoms: C2_2  and  C3_3 
REMARK    2  A    between atoms: C3_3  and  C4_4 
REMARK    3  A    between atoms: C4_4  and  C5_5 
REMARK    4  A    between atoms: C5_5  and  C6_6 
REMARK    5  A    between atoms: C6_6  and  C7_7 
REMARK    6  A    between atoms: C8_10  and  O1_11 
REMARK    7  A    between atoms: C13_20  and  C14_21 
REMARK    8  A    between atoms: C14_21  and  C15_22 
REMARK    9  A    between atoms: C18_28  and  C19_29 
REMARK   10  A    between atoms: C19_29  and  O4_30 
REMARK   11  A    between atoms: O4_30  and  C20_31 
ROOT
HETATM    1  C7  UNL     1       1.624  -0.079  -1.301  1.00  0.00     0.175 C 
HETATM    2  N1  UNL     1       1.516  -0.818  -2.549  1.00  0.00    -0.361 N 
ATOM      3  H1  UNL     1       1.976  -0.351  -3.331  1.00  0.00     0.162 HD
HETATM    4  C8  UNL     1       0.932  -2.004  -2.903  1.00  0.00     0.111 C 
HETATM    5  C9  UNL     1       1.199  -3.400  -2.513  1.00  0.00     0.085 C 
HETATM    6  C10 UNL     1      -0.057  -4.185  -2.295  1.00  0.00     0.027 C 
HETATM    7  C11 UNL     1      -1.154  -3.494  -1.575  1.00  0.00     0.123 C 
HETATM    8  N2  UNL     1      -1.323  -3.923  -0.187  1.00  0.00    -0.359 N 
ATOM      9  H2  UNL     1      -0.999  -4.841   0.118  1.00  0.00     0.162 HD
HETATM   10  C12 UNL     1      -1.949  -3.032   0.728  1.00  0.00     0.240 C 
HETATM   11  O2  UNL     1      -1.622  -3.031   1.947  1.00  0.00    -0.271 OA
HETATM   12  C13 UNL     1      -3.027  -2.055   0.275  1.00  0.00     0.176 C 
HETATM   13  N3  UNL     1      -2.975  -0.864   1.052  1.00  0.00    -0.346 N 
ATOM     14  H3  UNL     1      -3.353  -0.940   1.996  1.00  0.00     0.163 HD
HETATM   15  C17 UNL     1      -2.472   0.411   0.699  1.00  0.00     0.243 C 
HETATM   16  O3  UNL     1      -3.205   1.447   0.893  1.00  0.00    -0.271 OA
HETATM   17  C18 UNL     1      -1.142   0.720   0.106  1.00  0.00     0.200 C 
HETATM   18  N4  UNL     1      -0.093  -0.110   0.593  1.00  0.00    -0.344 N 
ATOM     19  H4  UNL     1      -0.129  -0.347   1.584  1.00  0.00     0.163 HD
HETATM   20  C24 UNL     1       1.005  -0.650  -0.145  1.00  0.00     0.241 C 
HETATM   21  O5  UNL     1       1.428  -1.753   0.326  1.00  0.00    -0.271 OA
ENDROOT
BRANCH   1  22
HETATM   22  C6  UNL     1       3.045   0.379  -1.218  1.00  0.00     0.035 C 
BRANCH  22  23
HETATM   23  C5  UNL     1       3.495   1.179  -0.075  1.00  0.00     0.002 C 
BRANCH  23  24
HETATM   24  C4  UNL     1       3.554   0.632   1.280  1.00  0.00     0.000 C 
BRANCH  24  25
HETATM   25  C3  UNL     1       4.451  -0.480   1.631  1.00  0.00    -0.000 C 
BRANCH  25  26
HETATM   26  C2  UNL     1       5.918  -0.252   1.563  1.00  0.00    -0.005 C 
HETATM   27  C1  UNL     1       6.472   0.067   0.227  1.00  0.00     0.005 C 
ENDBRANCH  25  26
ENDBRANCH  24  25
ENDBRANCH  23  24
ENDBRANCH  22  23
ENDBRANCH   1  22
BRANCH   4  28
HETATM   28  O1  UNL     1      -0.053  -1.917  -3.750  1.00  0.00    -0.350 OA
ATOM     29  H1  UNL     1      -0.458  -2.740  -3.996  1.00  0.00     0.219 HD
ENDBRANCH   4  28
BRANCH  17  30
HETATM   30  C19 UNL     1      -0.743   2.145   0.535  1.00  0.00     0.203 C 
BRANCH  30  31
HETATM   31  O4  UNL     1      -1.658   3.080   0.134  1.00  0.00    -0.379 OA
BRANCH  31  32
HETATM   32  C20 UNL     1      -1.266   4.328   0.535  1.00  0.00     0.050 C 
HETATM   33  C21 UNL     1       0.079   4.735  -0.040  1.00  0.00     0.045 C 
HETATM   34  C22 UNL     1      -1.181   4.498   2.027  1.00  0.00     0.045 C 
HETATM   35  C23 UNL     1      -2.274   5.367   0.028  1.00  0.00     0.045 C 
ENDBRANCH  31  32
ENDBRANCH  30  31
ENDBRANCH  17  30
BRANCH  12  36
HETATM   36  C14 UNL     1      -4.282  -2.877   0.381  1.00  0.00     0.034 C 
BRANCH  36  37
HETATM   37  C15 UNL     1      -5.553  -2.237  -0.012  1.00  0.00    -0.002 C 
HETATM   38  C16 UNL     1      -5.974  -1.034   0.776  1.00  0.00     0.005 C 
ENDBRANCH  36  37
ENDBRANCH  12  36
TORSDOF 11
