REMARK  11 active torsions:
REMARK  status: ('A' for Active; 'I' for Inactive)
REMARK    1  A    between atoms: C2_2  and  C4_4 
REMARK    2  A    between atoms: C4_4  and  C5_5 
REMARK    3  A    between atoms: C5_5  and  N1_6 
REMARK    4  A    between atoms: C5_5  and  C11_15 
REMARK       I    between atoms: N1_6  and  C6_8 
REMARK    5  A    between atoms: C6_8  and  O2_10 
REMARK    6  A    between atoms: O2_10  and  C7_11 
REMARK       I    between atoms: C11_15  and  N2_17 
REMARK    7  A    between atoms: N2_17  and  C12_19 
REMARK    8  A    between atoms: C12_19  and  C13_20 
REMARK    9  A    between atoms: C12_19  and  C22_32 
REMARK       I    between atoms: C13_20  and  N3_22 
REMARK   10  A    between atoms: N3_22  and  C14_24 
REMARK   11  A    between atoms: C22_32  and  C23_34 
ROOT
HETATM    1  C11 UNL     1      -0.766   0.047   1.348  1.00  0.00     0.241 C 
HETATM    2  O3  UNL     1      -0.606   1.260   1.714  1.00  0.00    -0.271 OA
HETATM    3  N2  UNL     1       0.407  -0.661   1.053  1.00  0.00    -0.339 N 
ATOM      4  H2  UNL     1       0.321  -1.631   0.749  1.00  0.00     0.163 HD
ENDROOT
BRANCH   3   5
HETATM    5  C12 UNL     1       1.750  -0.084   1.157  1.00  0.00     0.256 C 
BRANCH   5   6
HETATM    6  C13 UNL     1       2.368  -0.017  -0.195  1.00  0.00     0.249 C 
HETATM    7  O4  UNL     1       1.694  -0.445  -1.162  1.00  0.00    -0.271 OA
HETATM    8  N3  UNL     1       3.639   0.498  -0.384  1.00  0.00    -0.349 N 
ATOM      9  H3  UNL     1       4.125   0.828   0.450  1.00  0.00     0.163 HD
BRANCH   8  10
HETATM   10  C14 UNL     1       4.348   0.618  -1.631  1.00  0.00     0.037 C 
HETATM   11  C15 UNL     1       3.697   1.463  -2.705  1.00  0.00     0.036 C 
HETATM   12  C16 UNL     1       4.254   0.842  -3.956  1.00  0.00    -0.011 C 
HETATM   13  C17 UNL     1       5.759   0.967  -3.917  1.00  0.00     0.010 C 
HETATM   14  C21 UNL     1       4.135  -0.648  -3.614  1.00  0.00     0.012 C 
HETATM   15  C18 UNL     1       6.098   0.169  -2.659  1.00  0.00    -0.005 C 
HETATM   16  C19 UNL     1       5.817   1.049  -1.457  1.00  0.00     0.036 C 
HETATM   17  C20 UNL     1       4.855  -0.607  -2.293  1.00  0.00     0.018 C 
ENDBRANCH   8  10
ENDBRANCH   5   6
BRANCH   5  18
HETATM   18  C22 UNL     1       2.511  -1.021   2.004  1.00  0.00     0.245 C 
HETATM   19  O5  UNL     1       2.342  -2.249   1.864  1.00  0.00    -0.285 OA
BRANCH  18  20
HETATM   20  C23 UNL     1       3.441  -0.535   2.991  1.00  0.00     0.303 C 
HETATM   21  N4  UNL     1       4.224  -1.437   3.774  1.00  0.00    -0.054 NA
HETATM   22  O6  UNL     1       3.605   0.688   3.205  1.00  0.00    -0.268 OA
ENDBRANCH  18  20
ENDBRANCH   5  18
ENDBRANCH   3   5
BRANCH   1  23
HETATM   23  C5  UNL     1      -2.133  -0.485   1.268  1.00  0.00     0.179 C 
BRANCH  23  24
HETATM   24  C4  UNL     1      -2.500  -1.436   2.385  1.00  0.00     0.038 C 
BRANCH  24  25
HETATM   25  C2  UNL     1      -1.746  -2.706   2.448  1.00  0.00    -0.020 C 
HETATM   26  C1  UNL     1      -2.311  -3.485   3.661  1.00  0.00     0.009 C 
HETATM   27  C3  UNL     1      -1.989  -3.609   1.253  1.00  0.00     0.009 C 
ENDBRANCH  24  25
ENDBRANCH  23  24
BRANCH  23  28
HETATM   28  N1  UNL     1      -3.058   0.658   1.482  1.00  0.00    -0.324 N 
HETATM   29  C6  UNL     1      -4.018   0.980   0.472  1.00  0.00     0.362 C 
HETATM   30  O1  UNL     1      -4.057   0.285  -0.577  1.00  0.00    -0.238 OA
ATOM     31  H1  UNL     1      -3.009   1.207   2.340  1.00  0.00     0.165 HD
BRANCH  29  32
HETATM   32  O2  UNL     1      -4.907   2.020   0.597  1.00  0.00    -0.294 OA
BRANCH  32  33
HETATM   33  C7  UNL     1      -5.865   2.348  -0.397  1.00  0.00     0.061 C 
HETATM   34  C8  UNL     1      -6.649   3.536   0.101  1.00  0.00     0.046 C 
HETATM   35  C9  UNL     1      -5.233   2.694  -1.722  1.00  0.00     0.046 C 
HETATM   36  C10 UNL     1      -6.839   1.206  -0.612  1.00  0.00     0.046 C 
ENDBRANCH  32  33
ENDBRANCH  29  32
ENDBRANCH  23  28
ENDBRANCH   1  23
TORSDOF 11
