REMARK  11 active torsions:
REMARK  status: ('A' for Active; 'I' for Inactive)
REMARK    1  A    between atoms: C3_3  and  N1_4 
REMARK    2  A    between atoms: C3_3  and  C22_35 
REMARK       I    between atoms: N1_4  and  C4_6 
REMARK    3  A    between atoms: C4_6  and  C5_8 
REMARK    4  A    between atoms: C5_8  and  C6_9 
REMARK    5  A    between atoms: C5_8  and  C12_19 
REMARK    6  A    between atoms: C6_9  and  C7_10 
REMARK    7  A    between atoms: C7_10  and  N2_12 
REMARK    8  A    between atoms: C7_10  and  C9_16 
REMARK    9  A    between atoms: C15_22  and  S1_23 
REMARK   10  A    between atoms: S1_23  and  N3_26 
REMARK   11  A    between atoms: N3_26  and  C16_28 
ROOT
HETATM    1  C1  UNL     1      -2.523   0.863   5.112  1.00  0.00     0.015 C 
HETATM    2  C2  UNL     1      -2.410   1.505   4.093  1.00  0.00    -0.081 C 
HETATM    3  C3  UNL     1      -2.260   2.293   2.859  1.00  0.00     0.265 C 
ENDROOT
BRANCH   3   4
HETATM    4  N1  UNL     1      -1.754   1.446   1.801  1.00  0.00    -0.333 N 
HETATM    5  C4  UNL     1      -2.439   1.153   0.624  1.00  0.00     0.251 C 
HETATM    6  O1  UNL     1      -3.580   1.650   0.456  1.00  0.00    -0.268 OA
ATOM      7  H1  UNL     1      -0.829   1.034   1.926  1.00  0.00     0.164 HD
BRANCH   5   8
HETATM    8  C5  UNL     1      -1.946   0.289  -0.497  1.00  0.00     0.037 C 
BRANCH   8   9
HETATM    9  C6  UNL     1      -2.979  -0.524  -1.133  1.00  0.00     0.027 C 
BRANCH   9  10
HETATM   10  C7  UNL     1      -3.767  -1.536  -0.408  1.00  0.00     0.141 C 
HETATM   11  C8  UNL     1      -2.864  -2.608   0.155  1.00  0.00     0.051 C 
BRANCH  10  12
HETATM   12  N2  UNL     1      -4.544  -1.073   0.714  1.00  0.00    -0.067 N 
ATOM     13  H23 UNL     1      -3.938  -0.579   1.369  1.00  0.00     0.275 HD
ATOM     14  H22 UNL     1      -5.156  -0.313   0.415  1.00  0.00     0.275 HD
ATOM     15  H21 UNL     1      -5.090  -1.774   1.216  1.00  0.00     0.275 HD
ENDBRANCH  10  12
BRANCH  10  16
HETATM   16  C9  UNL     1      -4.714  -2.218  -1.403  1.00  0.00     0.017 C 
HETATM   17  C10 UNL     1      -5.658  -1.229  -2.038  1.00  0.00     0.012 C 
HETATM   18  C11 UNL     1      -5.502  -3.313  -0.794  1.00  0.00     0.012 C 
ENDBRANCH  10  16
ENDBRANCH   9  10
ENDBRANCH   8   9
BRANCH   8  19
HETATM   19  C12 UNL     1      -0.579  -0.231  -0.267  1.00  0.00     0.161 C 
HETATM   20  C13 UNL     1      -0.099  -1.077  -1.382  1.00  0.00     0.040 C 
HETATM   21  C14 UNL     1       1.239  -0.450  -1.801  1.00  0.00     0.052 C 
HETATM   22  C15 UNL     1       1.519   0.449  -0.650  1.00  0.00     0.264 C 
HETATM   23  O4  UNL     1       0.287   0.877  -0.192  1.00  0.00    -0.359 OA
BRANCH  22  24
HETATM   24  S1  UNL     1       2.523  -0.307   0.606  1.00  0.00     0.254 S 
HETATM   25  O2  UNL     1       1.820  -1.590   1.009  1.00  0.00    -0.203 OA
HETATM   26  O3  UNL     1       2.535   0.580   1.791  1.00  0.00    -0.203 OA
BRANCH  24  27
HETATM   27  N3  UNL     1       4.012  -0.705  -0.045  1.00  0.00    -0.313 N 
ATOM     28  H3  UNL     1       4.314  -1.679  -0.073  1.00  0.00     0.172 HD
BRANCH  27  29
HETATM   29  C16 UNL     1       4.844   0.303  -0.552  1.00  0.00     0.093 C 
HETATM   30  C17 UNL     1       6.065   0.417   0.336  1.00  0.00     0.026 C 
HETATM   31  C18 UNL     1       7.160   1.151  -0.355  1.00  0.00     0.002 C 
HETATM   32  C19 UNL     1       6.531   2.239  -1.218  1.00  0.00     0.000 C 
HETATM   33  C20 UNL     1       5.749   1.624  -2.359  1.00  0.00     0.002 C 
HETATM   34  C21 UNL     1       5.279   0.211  -1.960  1.00  0.00     0.026 C 
ENDBRANCH  27  29
ENDBRANCH  24  27
ENDBRANCH  22  24
ENDBRANCH   8  19
ENDBRANCH   5   8
ENDBRANCH   3   4
BRANCH   3  35
HETATM   35  C22 UNL     1      -1.351   3.414   3.180  1.00  0.00     0.209 C 
HETATM   36  O5  UNL     1      -0.281   3.550   2.563  1.00  0.00    -0.646 OA
HETATM   37  O6  UNL     1      -1.749   4.287   4.185  1.00  0.00    -0.646 OA
ENDBRANCH   3  35
TORSDOF 11
