REMARK  9 active torsions:
REMARK  status: ('A' for Active; 'I' for Inactive)
REMARK    1  A    between atoms: O1_2  and  C2_3 
REMARK    2  A    between atoms: C2_3  and  C3_5 
REMARK    3  A    between atoms: C6_8  and  C7_9 
REMARK    4  A    between atoms: N1_10  and  N2_12 
REMARK    5  A    between atoms: C10_19  and  N5_20 
REMARK       I    between atoms: N5_20  and  C11_22 
REMARK    6  A    between atoms: C11_22  and  C12_24 
REMARK    7  A    between atoms: C12_24  and  N6_25 
REMARK    8  A    between atoms: C12_24  and  C13_29 
REMARK    9  A    between atoms: C13_29  and  N7_30 
ROOT
HETATM    1  N2  UNL     1       1.352   0.533   0.919  1.00  0.00    -0.284 N 
ATOM      2  H2  UNL     1       1.992   0.198   0.199  1.00  0.00     0.188 HD
HETATM    3  C8  UNL     1       0.137   0.596   0.589  1.00  0.00     0.144 A 
HETATM    4  N3  UNL     1      -0.218   0.217  -0.683  1.00  0.00    -0.327 N 
ATOM      5  H3  UNL     1       0.503  -0.105  -1.329  1.00  0.00     0.168 HD
HETATM    6  C9  UNL     1      -1.488   0.262  -1.090  1.00  0.00     0.146 A 
HETATM    7  N4  UNL     1      -1.827  -0.138  -2.415  1.00  0.00    -0.080 NA
HETATM    8  C10 UNL     1      -2.502   0.689  -0.257  1.00  0.00     0.102 A 
HETATM    9  C14 UNL     1      -2.137   1.066   1.012  1.00  0.00     0.101 A 
HETATM   10  N8  UNL     1      -3.115   1.512   1.914  1.00  0.00    -0.098 NA
HETATM   11  C15 UNL     1      -0.815   1.032   1.473  1.00  0.00     0.116 A 
HETATM   12  C16 UNL     1      -0.529   1.449   2.825  1.00  0.00     0.105 C 
HETATM   13  N9  UNL     1      -0.329   1.790   3.918  1.00  0.00    -0.191 NA
ENDROOT
BRANCH   1  14
HETATM   14  N1  UNL     1       1.909   0.850   2.094  1.00  0.00    -0.309 N 
HETATM   15  C7  UNL     1       3.051   0.850   2.576  1.00  0.00     0.126 C 
ATOM     16  H1  UNL     1       1.215   1.176   2.766  1.00  0.00     0.186 HD
BRANCH  15  17
HETATM   17  C6  UNL     1       4.245   0.431   1.839  1.00  0.00     0.022 A 
HETATM   18  C5  UNL     1       4.411  -0.023   0.565  1.00  0.00     0.022 A 
HETATM   19  C4  UNL     1       5.644  -0.337   0.154  1.00  0.00     0.026 A 
HETATM   20  C3  UNL     1       6.667  -0.181   1.049  1.00  0.00     0.081 A 
HETATM   21  S1  UNL     1       5.878   0.400   2.436  1.00  0.00    -0.083 SA
BRANCH  20  22
HETATM   22  C2  UNL     1       8.107  -0.461   0.830  1.00  0.00     0.299 C 
HETATM   23  O2  UNL     1       8.896  -0.252   1.781  1.00  0.00    -0.259 OA
BRANCH  22  24
HETATM   24  O1  UNL     1       8.574  -0.931  -0.365  1.00  0.00    -0.322 OA
HETATM   25  C1  UNL     1       9.939  -1.213  -0.626  1.00  0.00     0.213 C 
ENDBRANCH  22  24
ENDBRANCH  20  22
ENDBRANCH  15  17
ENDBRANCH   1  14
BRANCH   8  26
HETATM   26  N5  UNL     1      -3.849   0.746  -0.662  1.00  0.00    -0.321 N 
HETATM   27  C11 UNL     1      -4.751  -0.355  -0.501  1.00  0.00     0.254 C 
HETATM   28  O3  UNL     1      -4.349  -1.424   0.019  1.00  0.00    -0.271 OA
ATOM     29  H5  UNL     1      -4.197   1.606  -1.087  1.00  0.00     0.169 HD
BRANCH  27  30
HETATM   30  C12 UNL     1      -6.155  -0.226  -0.948  1.00  0.00     0.300 C 
BRANCH  30  31
HETATM   31  N6  UNL     1      -6.446   1.055  -1.517  1.00  0.00    -0.065 N 
ATOM     32  H63 UNL     1      -6.199   1.805  -0.871  1.00  0.00     0.275 HD
ATOM     33  H62 UNL     1      -5.801   1.271  -2.277  1.00  0.00     0.275 HD
ATOM     34  H61 UNL     1      -7.414   1.144  -1.825  1.00  0.00     0.275 HD
ENDBRANCH  30  31
BRANCH  30  35
HETATM   35  C13 UNL     1      -6.537  -1.296  -1.955  1.00  0.00     0.272 C 
BRANCH  35  36
HETATM   36  N7  UNL     1      -6.357  -2.591  -1.302  1.00  0.00    -0.077 N 
ATOM     37  H73 UNL     1      -5.420  -2.719  -0.921  1.00  0.00     0.274 HD
ATOM     38  H72 UNL     1      -6.869  -2.669  -0.423  1.00  0.00     0.274 HD
ATOM     39  H71 UNL     1      -6.614  -3.310  -1.979  1.00  0.00     0.274 HD
ENDBRANCH  35  36
ENDBRANCH  30  35
ENDBRANCH  27  30
ENDBRANCH   8  26
TORSDOF 9
