REMARK  8 active torsions:
REMARK  status: ('A' for Active; 'I' for Inactive)
REMARK    1  A    between atoms: C2_2  and  N1_3 
REMARK    2  A    between atoms: C2_2  and  C7_21 
REMARK    3  A    between atoms: N1_3  and  O1_5 
REMARK    4  A    between atoms: O1_5  and  C3_6 
REMARK    5  A    between atoms: C3_6  and  C4_7 
REMARK       I    between atoms: C4_7  and  N2_9 
REMARK    6  A    between atoms: N2_9  and  C5_11 
REMARK    7  A    between atoms: C8_28  and  C9_29 
REMARK    8  A    between atoms: C9_29  and  C12_33 
ROOT
HETATM    1  C9  UNL     1      -3.080  -0.692   0.519  1.00  0.00     0.157 C 
HETATM    2  C10 UNL     1      -2.443  -1.675  -0.438  1.00  0.00     0.047 C 
HETATM    3  C11 UNL     1      -2.761  -1.002   1.902  1.00  0.00     0.084 C 
HETATM    4  N9  UNL     1      -2.541  -1.260   3.007  1.00  0.00    -0.196 NA
ENDROOT
BRANCH   1   5
HETATM    5  C8  UNL     1      -2.795   0.671   0.115  1.00  0.00     0.087 A 
HETATM    6  C7  UNL     1      -1.693   1.441   0.062  1.00  0.00     0.099 A 
HETATM    7  N6  UNL     1      -2.112   2.669  -0.468  1.00  0.00    -0.282 N 
HETATM    8  N7  UNL     1      -3.376   2.647  -0.718  1.00  0.00    -0.242 N 
ATOM      9  H6  UNL     1      -1.501   3.469  -0.633  1.00  0.00     0.188 HD
HETATM   10  N8  UNL     1      -3.810   1.468  -0.379  1.00  0.00    -0.286 N 
ATOM     11  H7  UNL     1      -3.931   3.409  -1.108  1.00  0.00     0.208 HD
ATOM     12  H8  UNL     1      -4.781   1.169  -0.467  1.00  0.00     0.188 HD
BRANCH   6  13
HETATM   13  C2  UNL     1      -0.345   1.225   0.442  1.00  0.00     0.058 C 
HETATM   14  C1  UNL     1       0.297   0.113   1.070  1.00  0.00     0.072 C 
BRANCH  13  15
HETATM   15  N1  UNL     1       0.457   2.254   0.185  1.00  0.00    -0.269 N 
ATOM     16  H1  UNL     1       0.104   3.101  -0.261  1.00  0.00     0.194 HD
BRANCH  15  17
HETATM   17  O1  UNL     1       1.758   2.137   0.536  1.00  0.00    -0.271 OA
BRANCH  17  18
HETATM   18  C3  UNL     1       2.816   1.972  -0.393  1.00  0.00     0.304 C 
BRANCH  18  19
HETATM   19  C4  UNL     1       4.099   1.880   0.355  1.00  0.00     0.249 C 
HETATM   20  O2  UNL     1       4.111   1.960   1.627  1.00  0.00    -0.271 OA
HETATM   21  N2  UNL     1       5.350   1.703  -0.275  1.00  0.00    -0.304 N 
ATOM     22  H2  UNL     1       5.878   2.500  -0.631  1.00  0.00     0.171 HD
BRANCH  21  23
HETATM   23  C5  UNL     1       5.812   0.477  -0.387  1.00  0.00     0.183 A 
HETATM   24  N3  UNL     1       6.963   0.099  -0.945  1.00  0.00    -0.168 N 
HETATM   25  C6  UNL     1       7.245  -1.176  -0.957  1.00  0.00     0.684 A 
ATOM     26  H3  UNL     1       7.602   0.784  -1.349  1.00  0.00     0.186 HD
HETATM   27  N4  UNL     1       8.366  -1.639  -1.490  1.00  0.00    -0.234 N 
HETATM   28  N5  UNL     1       6.373  -2.024  -0.416  1.00  0.00    -0.157 N 
ATOM     29  H42 UNL     1       9.034  -0.989  -1.905  1.00  0.00     0.174 HD
ATOM     30  H41 UNL     1       8.586  -2.635  -1.499  1.00  0.00     0.174 HD
HETATM   31  S1  UNL     1       5.141  -1.005   0.116  1.00  0.00     0.039 SA
ATOM     32  H5  UNL     1       6.435  -3.039  -0.342  1.00  0.00     0.193 HD
ENDBRANCH  21  23
ENDBRANCH  18  19
ENDBRANCH  17  18
ENDBRANCH  15  17
ENDBRANCH  13  15
ENDBRANCH   6  13
ENDBRANCH   1   5
BRANCH   1  33
HETATM   33  C12 UNL     1      -4.575  -0.951   0.340  1.00  0.00     0.171 A 
HETATM   34  N10 UNL     1      -5.473  -0.562   1.244  1.00  0.00    -0.278 N 
HETATM   35  N11 UNL     1      -6.702  -0.913   0.841  1.00  0.00    -0.263 N 
ATOM     36  H10 UNL     1      -5.258  -0.071   2.112  1.00  0.00     0.189 HD
HETATM   37  C13 UNL     1      -6.502  -1.531  -0.348  1.00  0.00     0.238 A 
ATOM     38  H11 UNL     1      -7.587  -0.751   1.321  1.00  0.00     0.190 HD
HETATM   39  N12 UNL     1      -7.432  -2.029  -1.085  1.00  0.00    -0.364 N 
HETATM   40  O3  UNL     1      -5.208  -1.536  -0.620  1.00  0.00    -0.262 OA
ATOM     41 2H12 UNL     1      -8.430  -2.025  -0.875  1.00  0.00     0.159 HD
ATOM     42 1H12 UNL     1      -7.281  -2.494  -1.980  1.00  0.00     0.159 HD
ENDBRANCH   1  33
TORSDOF 8
