REMARK  10 active torsions:
REMARK  status: ('A' for Active; 'I' for Inactive)
REMARK    1  A    between atoms: C4_6  and  N2_7 
REMARK    2  A    between atoms: N2_7  and  N3_9 
REMARK    3  A    between atoms: N3_9  and  C5_11 
REMARK    4  A    between atoms: C8_16  and  C9_17 
REMARK    5  A    between atoms: C9_17  and  N5_18 
REMARK    6  A    between atoms: C11_25  and  O1_26 
REMARK    7  A    between atoms: C11_25  and  C12_28 
REMARK    8  A    between atoms: C12_28  and  C13_29 
REMARK    9  A    between atoms: C14_34  and  C15_35 
REMARK   10  A    between atoms: C15_35  and  C16_36 
ROOT
HETATM    1  C1  UNL     1      -0.898   2.278   0.541  1.00  0.00     0.044 C 
HETATM    2  C2  UNL     1      -0.568   1.476  -0.703  1.00  0.00     0.091 C 
HETATM    3  C3  UNL     1      -1.299   2.025  -1.904  1.00  0.00     0.044 C 
HETATM    4  N1  UNL     1       0.853   1.625  -0.910  1.00  0.00    -0.212 N 
ATOM      5  H1  UNL     1       1.381   2.496  -0.857  1.00  0.00     0.178 HD
HETATM    6  C4  UNL     1       1.380   0.349  -1.199  1.00  0.00     0.691 C 
HETATM    7  N6  UNL     1       0.508  -0.557  -0.951  1.00  0.00    -0.190 N 
ATOM      8  H6  UNL     1       0.664  -1.556  -1.084  1.00  0.00     0.181 HD
HETATM    9  C11 UNL     1      -0.747   0.028  -0.450  1.00  0.00     0.178 C 
ENDROOT
BRANCH   9  10
HETATM   10  O1  UNL     1      -0.847  -0.263   0.927  1.00  0.00    -0.367 OA
ATOM     11  H1  UNL     1      -0.962  -1.192   1.089  1.00  0.00     0.212 HD
ENDBRANCH   9  10
BRANCH   9  12
HETATM   12  C12 UNL     1      -1.831  -0.676  -1.166  1.00  0.00     0.130 C 
BRANCH  12  13
HETATM   13  C13 UNL     1      -3.181  -0.163  -0.878  1.00  0.00     0.072 A 
HETATM   14  N7  UNL     1      -3.673   0.780  -0.094  1.00  0.00    -0.297 N 
HETATM   15  N8  UNL     1      -4.912   1.005  -0.051  1.00  0.00    -0.297 N 
ATOM     16  H7  UNL     1      -3.041   1.334   0.484  1.00  0.00     0.187 HD
HETATM   17  C14 UNL     1      -5.743   0.288  -0.800  1.00  0.00     0.075 A 
ATOM     18  H8  UNL     1      -5.277   1.737   0.558  1.00  0.00     0.187 HD
HETATM   19  S1  UNL     1      -4.649  -0.755  -1.596  1.00  0.00    -0.060 SA
BRANCH  17  20
HETATM   20  C15 UNL     1      -7.241   0.386  -0.903  1.00  0.00     0.145 C 
BRANCH  20  21
HETATM   21  C16 UNL     1      -7.834  -0.513   0.101  1.00  0.00     0.119 A 
HETATM   22  N9  UNL     1      -8.157  -0.212   1.364  1.00  0.00    -0.272 N 
HETATM   23  N10 UNL     1      -8.667  -1.316   1.925  1.00  0.00    -0.227 N 
ATOM     24  H9  UNL     1      -8.037   0.694   1.817  1.00  0.00     0.190 HD
HETATM   25  N11 UNL     1      -8.669  -2.293   1.043  1.00  0.00    -0.227 N 
ATOM     26  H10 UNL     1      -9.002  -1.388   2.886  1.00  0.00     0.210 HD
HETATM   27  N12 UNL     1      -8.161  -1.798  -0.065  1.00  0.00    -0.272 N 
ATOM     28  H11 UNL     1      -9.000  -3.247   1.190  1.00  0.00     0.210 HD
ATOM     29  H12 UNL     1      -8.034  -2.322  -0.931  1.00  0.00     0.190 HD
ENDBRANCH  20  21
ENDBRANCH  17  20
ENDBRANCH  12  13
ENDBRANCH   9  12
BRANCH   6  30
HETATM   30  N2  UNL     1       2.714   0.164  -1.699  1.00  0.00    -0.132 N 
ATOM     31  H2  UNL     1       3.038   0.765  -2.457  1.00  0.00     0.205 HD
BRANCH  30  32
HETATM   32  N3  UNL     1       3.576  -0.789  -1.201  1.00  0.00    -0.287 N 
ATOM     33  H3  UNL     1       3.598  -1.708  -1.644  1.00  0.00     0.187 HD
BRANCH  32  34
HETATM   34  C5  UNL     1       4.368  -0.563  -0.182  1.00  0.00     0.051 A 
HETATM   35  C6  UNL     1       4.383   0.657   0.460  1.00  0.00     0.048 A 
HETATM   36  C7  UNL     1       5.250   0.814   1.529  1.00  0.00     0.090 A 
HETATM   37  N4  UNL     1       6.057  -0.190   1.936  1.00  0.00    -0.368 N 
HETATM   38  C8  UNL     1       6.067  -1.383   1.338  1.00  0.00     0.036 A 
ATOM     39  H4  UNL     1       6.680  -0.031   2.728  1.00  0.00     0.165 HD
HETATM   40  C10 UNL     1       5.207  -1.560   0.266  1.00  0.00     0.057 A 
BRANCH  38  41
HETATM   41  C9  UNL     1       6.973  -2.432   1.836  1.00  0.00     0.286 C 
BRANCH  41  42
HETATM   42  N5  UNL     1       8.262  -2.418   1.206  1.00  0.00    -0.074 N 
ATOM     43  H53 UNL     1       8.169  -2.472   0.192  1.00  0.00     0.274 HD
ATOM     44  H52 UNL     1       8.695  -1.498   1.288  1.00  0.00     0.274 HD
ATOM     45  H51 UNL     1       8.889  -3.144   1.551  1.00  0.00     0.274 HD
ENDBRANCH  41  42
ENDBRANCH  38  41
ENDBRANCH  32  34
ENDBRANCH  30  32
ENDBRANCH   6  30
TORSDOF 10
