REMARK  7 active torsions:
REMARK  status: ('A' for Active; 'I' for Inactive)
REMARK    1  A    between atoms: C2_2  and  C3_4 
REMARK    2  A    between atoms: C4_5  and  C5_6 
REMARK    3  A    between atoms: C5_6  and  C7_14 
REMARK    4  A    between atoms: N1_7  and  N2_9 
REMARK       I    between atoms: N2_9  and  C6_11 
REMARK    5  A    between atoms: C8_17  and  C9_18 
REMARK    6  A    between atoms: C10_21  and  N5_22 
REMARK       I    between atoms: N6_24  and  C11_26 
REMARK    7  A    between atoms: N9_32  and  N10_33 
ROOT
HETATM    1  C5  UNL     1      -1.196   0.264  -0.092  1.00  0.00     0.130 C 
HETATM    2  N1  UNL     1      -1.269   1.564  -0.447  1.00  0.00    -0.291 N 
ATOM      3  H1  UNL     1      -2.205   1.918  -0.643  1.00  0.00     0.187 HD
ENDROOT
BRANCH   1   4
HETATM    4  C4  UNL     1      -2.491  -0.362  -0.065  1.00  0.00     0.112 A 
HETATM    5  C3  UNL     1      -2.826  -1.606   0.327  1.00  0.00     0.109 A 
HETATM    6  C13 UNL     1      -4.161  -2.113   0.261  1.00  0.00     0.265 A 
HETATM    7  N11 UNL     1      -5.098  -1.315  -0.205  1.00  0.00    -0.273 N 
HETATM    8  O7  UNL     1      -4.444  -3.270   0.630  1.00  0.00    -0.267 OA
HETATM    9  C12 UNL     1      -4.796  -0.082  -0.598  1.00  0.00     0.348 A 
ATOM     10  H11 UNL     1      -6.061  -1.645  -0.265  1.00  0.00     0.173 HD
HETATM   11  N9  UNL     1      -3.565   0.392  -0.540  1.00  0.00    -0.208 N 
HETATM   12  O6  UNL     1      -5.733   0.668  -1.046  1.00  0.00    -0.245 OA
BRANCH   5  13
HETATM   13  C2  UNL     1      -1.943  -2.611   0.885  1.00  0.00     0.163 C 
HETATM   14  C1  UNL     1      -1.747  -2.633   2.369  1.00  0.00     0.097 C 
HETATM   15  O1  UNL     1      -1.369  -3.439   0.166  1.00  0.00    -0.292 OA
ENDBRANCH   5  13
BRANCH  11  16
HETATM   16  N10 UNL     1      -3.292   1.699  -0.969  1.00  0.00    -0.334 N 
ATOM     17 2H10 UNL     1      -2.341   2.065  -0.924  1.00  0.00     0.177 HD
ATOM     18 1H10 UNL     1      -4.077   2.250  -1.316  1.00  0.00     0.177 HD
ENDBRANCH  11  16
ENDBRANCH   1   4
BRANCH   1  19
HETATM   19  C7  UNL     1       0.145  -0.166   0.145  1.00  0.00     0.181 A 
HETATM   20  N4  UNL     1       0.802  -1.280   0.410  1.00  0.00    -0.326 N 
HETATM   21  C8  UNL     1       2.106  -1.130   0.550  1.00  0.00     0.165 A 
ATOM     22  H4  UNL     1       0.339  -2.184   0.499  1.00  0.00     0.168 HD
HETATM   23  C10 UNL     1       2.293   0.222   0.352  1.00  0.00     0.198 A 
HETATM   24  O5  UNL     1       1.143   0.752   0.120  1.00  0.00    -0.271 OA
BRANCH  21  25
HETATM   25  C9  UNL     1       3.147  -2.116   0.843  1.00  0.00     0.231 C 
HETATM   26  O3  UNL     1       2.794  -3.311   0.995  1.00  0.00    -0.643 OA
HETATM   27  O4  UNL     1       4.476  -1.732   0.948  1.00  0.00    -0.643 OA
ENDBRANCH  21  25
BRANCH  23  28
HETATM   28  N5  UNL     1       3.558   0.893   0.402  1.00  0.00    -0.275 N 
HETATM   29  N6  UNL     1       4.282   1.124  -0.589  1.00  0.00    -0.272 N 
HETATM   30  C11 UNL     1       4.025   0.788  -1.929  1.00  0.00     0.200 C 
ATOM     31  H6  UNL     1       5.159   1.612  -0.405  1.00  0.00     0.189 HD
HETATM   32  N7  UNL     1       4.389  -0.351  -2.425  1.00  0.00    -0.372 N 
HETATM   33  N8  UNL     1       3.344   1.714  -2.789  1.00  0.00    -0.062 NA
ATOM     34  H72 UNL     1       4.873  -1.009  -1.814  1.00  0.00     0.158 HD
ATOM     35  H71 UNL     1       4.202  -0.595  -3.398  1.00  0.00     0.158 HD
ATOM     36  H5  UNL     1       3.892   1.205   1.314  1.00  0.00     0.189 HD
ENDBRANCH  23  28
ENDBRANCH   1  19
BRANCH   2  37
HETATM   37  N2  UNL     1      -0.277   2.448  -0.575  1.00  0.00    -0.253 N 
HETATM   38  C6  UNL     1      -0.123   3.484   0.416  1.00  0.00     0.347 C 
HETATM   39  N3  UNL     1       0.924   4.407   0.271  1.00  0.00    -0.038 NA
HETATM   40  O2  UNL     1      -0.917   3.542   1.379  1.00  0.00    -0.249 OA
ATOM     41  H2  UNL     1       0.365   2.391  -1.365  1.00  0.00     0.191 HD
ENDBRANCH   2  37
TORSDOF 7
