REMARK  10 active torsions:
REMARK  status: ('A' for Active; 'I' for Inactive)
REMARK    1  A    between atoms: C2_2  and  O1_3 
REMARK    2  A    between atoms: C2_2  and  C3_5 
REMARK    3  A    between atoms: C3_5  and  C5_7 
REMARK    4  A    between atoms: C3_5  and  O3_42 
REMARK    5  A    between atoms: N1_8  and  N2_10 
REMARK    6  A    between atoms: N2_10  and  C6_12 
REMARK    7  A    between atoms: C9_19  and  C10_20 
REMARK    8  A    between atoms: N5_21  and  N6_23 
REMARK       I    between atoms: N6_23  and  C11_25 
REMARK       I    between atoms: C11_25  and  N7_27 
REMARK    9  A    between atoms: N7_27  and  C12_29 
REMARK   10  A    between atoms: O3_42  and  C14_43 
ROOT
HETATM    1  C6  UNL     1      -0.726   1.359   0.585  1.00  0.00     0.717 A 
HETATM    2  N3  UNL     1      -0.433   1.746  -0.586  1.00  0.00    -0.207 N 
ATOM      3  H3  UNL     1      -1.182   2.150  -1.148  1.00  0.00     0.179 HD
HETATM    4  C7  UNL     1       0.852   1.661  -1.175  1.00  0.00     0.263 A 
HETATM    5  N4  UNL     1       1.825   1.083  -0.306  1.00  0.00    -0.357 N 
ATOM      6  H4  UNL     1       2.782   0.980  -0.642  1.00  0.00     0.162 HD
HETATM    7  C8  UNL     1       1.516   0.648   0.999  1.00  0.00     0.155 A 
HETATM    8  C9  UNL     1       2.315   0.064   1.989  1.00  0.00     0.044 A 
HETATM    9  C13 UNL     1       1.426  -0.136   3.058  1.00  0.00     0.125 A 
HETATM   10  N12 UNL     1       0.224   0.307   2.679  1.00  0.00    -0.288 N 
ATOM     11  H12 UNL     1      -0.611   0.282   3.265  1.00  0.00     0.187 HD
HETATM   12  N13 UNL     1       0.257   0.779   1.452  1.00  0.00    -0.068 N 
ENDROOT
BRANCH   8  13
HETATM   13  C10 UNL     1       3.721  -0.272   1.969  1.00  0.00     0.124 C 
HETATM   14  N5  UNL     1       4.482  -0.067   0.969  1.00  0.00    -0.307 N 
ATOM     15  H5  UNL     1       4.071   0.358   0.138  1.00  0.00     0.186 HD
BRANCH  14  16
HETATM   16  N6  UNL     1       5.823  -0.381   0.934  1.00  0.00    -0.251 N 
HETATM   17  C11 UNL     1       6.665   0.238  -0.016  1.00  0.00     0.353 C 
HETATM   18  O2  UNL     1       6.181   1.074  -0.825  1.00  0.00    -0.245 OA
HETATM   19  N7  UNL     1       8.047  -0.081  -0.057  1.00  0.00    -0.137 N 
ATOM     20  H7  UNL     1       8.730   0.646   0.158  1.00  0.00     0.189 HD
ATOM     21  H6  UNL     1       6.207  -1.059   1.593  1.00  0.00     0.191 HD
BRANCH  19  22
HETATM   22  C12 UNL     1       8.469  -1.274  -0.361  1.00  0.00     0.717 A 
HETATM   23  N8  UNL     1       9.722  -1.720  -0.440  1.00  0.00    -0.115 N 
HETATM   24  N9  UNL     1       9.687  -2.984  -0.777  1.00  0.00    -0.213 N 
ATOM     25  H8  UNL     1      10.564  -1.171  -0.267  1.00  0.00     0.207 HD
HETATM   26  N10 UNL     1       8.423  -3.329  -0.908  1.00  0.00    -0.213 N 
ATOM     27  H9  UNL     1      10.494  -3.593  -0.914  1.00  0.00     0.210 HD
HETATM   28  N11 UNL     1       7.656  -2.286  -0.656  1.00  0.00    -0.115 N 
ATOM     29  H10 UNL     1       8.089  -4.258  -1.164  1.00  0.00     0.210 HD
ATOM     30  H11 UNL     1       6.637  -2.260  -0.682  1.00  0.00     0.207 HD
ENDBRANCH  19  22
ENDBRANCH  14  16
ENDBRANCH   8  13
BRANCH   1  31
HETATM   31  N2  UNL     1      -2.060   1.477   1.120  1.00  0.00    -0.131 N 
ATOM     32  H2  UNL     1      -2.239   1.418   2.122  1.00  0.00     0.205 HD
BRANCH  31  33
HETATM   33  N1  UNL     1      -3.089   1.674   0.211  1.00  0.00    -0.298 N 
HETATM   34  C5  UNL     1      -3.836   0.629  -0.060  1.00  0.00     0.125 C 
ATOM     35  H1  UNL     1      -3.256   2.582  -0.223  1.00  0.00     0.186 HD
BRANCH  34  36
HETATM   36  C3  UNL     1      -4.925   0.827  -1.019  1.00  0.00     0.137 C 
HETATM   37  C4  UNL     1      -4.334   1.597  -2.209  1.00  0.00     0.060 C 
BRANCH  36  38
HETATM   38  C2  UNL     1      -6.059   1.583  -0.437  1.00  0.00     0.073 C 
HETATM   39  C1  UNL     1      -6.078   1.956   0.817  1.00  0.00     0.049 C 
BRANCH  38  40
HETATM   40  O1  UNL     1      -7.118   1.890  -1.267  1.00  0.00    -0.362 OA
ATOM     41  H1  UNL     1      -7.104   1.619  -2.177  1.00  0.00     0.217 HD
ENDBRANCH  38  40
ENDBRANCH  36  38
BRANCH  36  42
HETATM   42  O3  UNL     1      -5.351  -0.394  -1.502  1.00  0.00    -0.369 OA
BRANCH  42  43
HETATM   43  C14 UNL     1      -5.950  -1.156  -0.516  1.00  0.00     0.165 C 
HETATM   44  C15 UNL     1      -6.398  -2.479  -1.113  1.00  0.00     0.033 C 
ENDBRANCH  42  43
ENDBRANCH  36  42
ENDBRANCH  34  36
ENDBRANCH  31  33
ENDBRANCH   1  31
TORSDOF 10
