REMARK  2 active torsions:
REMARK  status: ('A' for Active; 'I' for Inactive)
REMARK    1  A    between atoms: N1_1  and  C1_5 
REMARK    2  A    between atoms: C11_15  and  O1_16 
ROOT
HETATM    1  C1  UNL     1      -0.252  -0.541   0.369  1.00  0.00     0.152 C 
HETATM    2  C2  UNL     1       0.856  -1.501   0.063  1.00  0.00     0.042 C 
HETATM    3  C3  UNL     1       1.797  -1.051  -0.994  1.00  0.00     0.002 C 
HETATM    4  C4  UNL     1       2.922  -0.237  -0.402  1.00  0.00     0.000 C 
HETATM    5  C5  UNL     1       2.272   0.785   0.529  1.00  0.00     0.000 C 
HETATM    6  C6  UNL     1       1.141   1.512  -0.120  1.00  0.00     0.007 C 
HETATM    7  C7  UNL     1      -0.109   0.784  -0.293  1.00  0.00     0.024 C 
HETATM    8  C8  UNL     1      -1.272   1.659   0.180  1.00  0.00     0.007 C 
HETATM    9  C9  UNL     1      -2.591   1.122  -0.290  1.00  0.00     0.003 C 
HETATM   10  C10 UNL     1      -2.724  -0.302   0.159  1.00  0.00     0.034 C 
HETATM   11  C11 UNL     1      -1.533  -1.151  -0.231  1.00  0.00     0.154 C 
ENDROOT
BRANCH   1  12
HETATM   12  N1  UNL     1      -0.467  -0.503   1.776  1.00  0.00    -0.068 N 
ATOM     13  H13 UNL     1      -0.640  -1.430   2.166  1.00  0.00     0.275 HD
ATOM     14  H12 UNL     1       0.386  -0.286   2.292  1.00  0.00     0.275 HD
ATOM     15  H11 UNL     1      -1.222   0.151   1.984  1.00  0.00     0.275 HD
ENDBRANCH   1  12
BRANCH  11  16
HETATM   16  O1  UNL     1      -1.453  -1.227  -1.609  1.00  0.00    -0.393 OA
ATOM     17  H1  UNL     1      -2.243  -1.603  -1.979  1.00  0.00     0.210 HD
ENDBRANCH  11  16
TORSDOF 2
