REMARK  0 active torsions:
REMARK  status: ('A' for Active; 'I' for Inactive)
ROOT
HETATM    1  C1  UNL     1      -1.134  -1.415   1.291  1.00  0.00     0.015 C 
HETATM    2  C2  UNL     1      -0.898  -0.793  -0.057  1.00  0.00    -0.037 C 
HETATM    3  C3  UNL     1      -0.952  -1.887  -1.129  1.00  0.00     0.015 C 
HETATM    4  C4  UNL     1      -2.099   0.111  -0.352  1.00  0.00     0.029 C 
HETATM    5  C5  UNL     1      -1.956   1.373   0.445  1.00  0.00     0.114 C 
HETATM    6  N1  UNL     1      -0.862   2.134  -0.067  1.00  0.00    -0.420 N 
ATOM      7  H1  UNL     1      -0.791   3.144   0.055  1.00  0.00     0.153 HD
HETATM    8  C6  UNL     1       0.128   1.369  -0.765  1.00  0.00     0.124 C 
HETATM    9  C7  UNL     1       0.358  -0.001  -0.127  1.00  0.00    -0.018 C 
HETATM   10  C8  UNL     1       1.492  -0.688  -0.825  1.00  0.00     0.012 C 
HETATM   11  C9  UNL     1       2.672   0.177  -0.476  1.00  0.00     0.001 C 
HETATM   12  C10 UNL     1       2.382   0.704   0.896  1.00  0.00     0.001 C 
HETATM   13  C11 UNL     1       0.962   0.288   1.242  1.00  0.00     0.012 C 
ENDROOT
TORSDOF 0
