REMARK  1 active torsions:
REMARK  status: ('A' for Active; 'I' for Inactive)
REMARK    1  A    between atoms: C2_2  and  N1_5 
ROOT
HETATM    1  N1  UNL     1       0.389  -0.533  -0.297  1.00  0.00    -0.394 N 
HETATM    2  C5  UNL     1       0.462  -1.962  -0.259  1.00  0.00     0.118 C 
HETATM    3  C6  UNL     1      -0.744  -2.313   0.584  1.00  0.00     0.022 C 
HETATM    4  C7  UNL     1      -1.754  -1.307   0.003  1.00  0.00     0.034 C 
HETATM    5  C8  UNL     1      -0.887  -0.058  -0.256  1.00  0.00     0.054 C 
HETATM    6  C9  UNL     1      -1.455   0.563  -1.525  1.00  0.00     0.060 C 
HETATM    7  C10 UNL     1      -2.317   1.702  -1.042  1.00  0.00     0.235 C 
HETATM    8  N2  UNL     1      -2.678   1.232   0.306  1.00  0.00    -0.073 N 
ATOM      9  H21 UNL     1      -3.361   0.476   0.361  1.00  0.00     0.277 HD
ATOM     10  H22 UNL     1      -3.236   1.865   0.879  1.00  0.00     0.277 HD
HETATM   11  C11 UNL     1      -1.312   0.931   0.785  1.00  0.00     0.263 C 
ENDROOT
BRANCH   1  12
HETATM   12  C2  UNL     1       1.511   0.158   0.174  1.00  0.00     0.018 C 
HETATM   13  C1  UNL     1       1.828  -0.026   1.632  1.00  0.00     0.037 C 
HETATM   14  C3  UNL     1       2.716  -0.524  -0.530  1.00  0.00     0.037 C 
HETATM   15  C4  UNL     1       1.637   1.605  -0.165  1.00  0.00     0.037 C 
ENDBRANCH   1  12
TORSDOF 1
