REMARK  2 active torsions:
REMARK  status: ('A' for Active; 'I' for Inactive)
REMARK    1  A    between atoms: N2_4  and  N3_6 
REMARK    2  A    between atoms: N3_6  and  C1_8 
ROOT
HETATM    1  N3  UNL     1       0.730  -0.219  -0.490  1.00  0.00    -0.290 N 
ATOM      2  H3  UNL     1       0.755  -0.139  -1.507  1.00  0.00     0.184 HD
ENDROOT
BRANCH   1   3
HETATM    3  N2  UNL     1       1.825  -0.691   0.223  1.00  0.00    -0.252 N 
HETATM    4  N1  UNL     1       2.519   0.121   0.890  1.00  0.00    -0.331 N 
ATOM      5  H12 UNL     1       2.267   1.109   0.896  1.00  0.00     0.178 HD
ATOM      6  H11 UNL     1       3.323  -0.226   1.413  1.00  0.00     0.178 HD
ATOM      7  H2  UNL     1       2.064  -1.683   0.206  1.00  0.00     0.207 HD
ENDBRANCH   1   3
BRANCH   1   8
HETATM    8  C1  UNL     1      -0.449   0.155   0.266  1.00  0.00     0.325 A 
HETATM    9  C2  UNL     1      -1.647   0.662  -0.397  1.00  0.00     0.290 A 
HETATM   10  N4  UNL     1      -1.593  -0.757  -0.107  1.00  0.00    -0.048 N 
ATOM     11  H42 UNL     1      -1.693  -1.615  -0.649  1.00  0.00     0.279 HD
ATOM     12  H41 UNL     1      -2.186  -1.421   0.390  1.00  0.00     0.279 HD
ENDBRANCH   1   8
TORSDOF 2
