REMARK  7 active torsions:
REMARK  status: ('A' for Active; 'I' for Inactive)
REMARK    1  A    between atoms: C2_2  and  C4_4 
REMARK    2  A    between atoms: C4_4  and  N1_5 
REMARK    3  A    between atoms: N1_5  and  C5_7 
REMARK    4  A    between atoms: C5_7  and  N2_9 
REMARK    5  A    between atoms: N2_9  and  C6_11 
REMARK    6  A    between atoms: C6_11  and  C7_12 
REMARK    7  A    between atoms: C7_12  and  N3_13 
REMARK       I    between atoms: N3_13  and  C8_15 
REMARK       I    between atoms: C8_15  and  N4_17 
ROOT
HETATM    1  C6  UNL     1      -0.055   0.212   0.440  1.00  0.00     0.141 C 
ENDROOT
BRANCH   1   2
HETATM    2  N2  UNL     1       1.323   0.273  -0.024  1.00  0.00    -0.366 N 
ATOM      3  H2  UNL     1       1.577   0.969  -0.725  1.00  0.00     0.161 HD
BRANCH   2   4
HETATM    4  C5  UNL     1       2.325  -0.605   0.467  1.00  0.00     0.167 C 
HETATM    5  S1  UNL     1       1.975  -1.734   1.586  1.00  0.00    -0.041 SA
BRANCH   4   6
HETATM    6  N1  UNL     1       3.638  -0.501  -0.015  1.00  0.00    -0.367 N 
ATOM      7  H1  UNL     1       3.867   0.204  -0.715  1.00  0.00     0.161 HD
BRANCH   6   8
HETATM    8  C4  UNL     1       4.665  -1.385   0.474  1.00  0.00     0.126 C 
BRANCH   8   9
HETATM    9  C2  UNL     1       5.990  -1.073  -0.199  1.00  0.00    -0.005 C 
HETATM   10  C1  UNL     1       6.358   0.361   0.117  1.00  0.00     0.011 C 
HETATM   11  C3  UNL     1       5.974  -1.374  -1.659  1.00  0.00     0.011 C 
ENDBRANCH   8   9
ENDBRANCH   6   8
ENDBRANCH   4   6
ENDBRANCH   2   4
ENDBRANCH   1   2
BRANCH   1  12
HETATM   12  C7  UNL     1      -0.867   1.268  -0.267  1.00  0.00     0.144 C 
BRANCH  12  13
HETATM   13  N3  UNL     1      -2.241   1.318   0.099  1.00  0.00    -0.341 N 
HETATM   14  C8  UNL     1      -3.124   0.205  -0.089  1.00  0.00     0.318 C 
HETATM   15  O1  UNL     1      -2.724  -0.875  -0.593  1.00  0.00    -0.247 OA
HETATM   16  N4  UNL     1      -4.493   0.289   0.291  1.00  0.00    -0.334 N 
HETATM   17  C9  UNL     1      -5.445  -0.790   0.132  1.00  0.00     0.127 C 
HETATM   18  C12 UNL     1      -5.174   1.434   0.890  1.00  0.00     0.127 C 
HETATM   19  C10 UNL     1      -6.793  -0.203   0.419  1.00  0.00     0.022 C 
HETATM   20  C11 UNL     1      -6.569   1.270   0.304  1.00  0.00     0.022 C 
ATOM     21  H3  UNL     1      -2.610   2.176   0.509  1.00  0.00     0.164 HD
ENDBRANCH  12  13
ENDBRANCH   1  12
TORSDOF 7
