REMARK  5 active torsions:
REMARK  status: ('A' for Active; 'I' for Inactive)
REMARK    1  A    between atoms: C2_2  and  C4_4 
REMARK    2  A    between atoms: C4_4  and  C5_5 
REMARK    3  A    between atoms: C4_4  and  N1_9 
REMARK    4  A    between atoms: C5_5  and  C6_6 
REMARK       I    between atoms: N1_9  and  C9_11 
REMARK    5  A    between atoms: C9_11  and  C10_13 
REMARK       I    between atoms: N2_16  and  C13_17 
ROOT
HETATM    1  N1  UNL     1      -0.942  -0.387   0.491  1.00  0.00    -0.352 N 
ATOM      2  H1  UNL     1      -0.787  -0.348   1.498  1.00  0.00     0.163 HD
HETATM    3  C9  UNL     1       0.039   0.137  -0.416  1.00  0.00     0.222 C 
HETATM    4  O1  UNL     1      -0.134   0.099  -1.661  1.00  0.00    -0.273 OA
ENDROOT
BRANCH   3   5
HETATM    5  C10 UNL     1       1.299   0.747   0.073  1.00  0.00     0.081 C 
HETATM    6  C11 UNL     1       2.128  -0.218   0.872  1.00  0.00     0.034 C 
HETATM    7  C12 UNL     1       3.453  -0.524   0.219  1.00  0.00     0.126 C 
HETATM    8  N2  UNL     1       4.189   0.686  -0.099  1.00  0.00    -0.356 N 
HETATM    9  C13 UNL     1       5.603   0.758  -0.006  1.00  0.00     0.183 C 
HETATM   10  C14 UNL     1       3.414   1.837  -0.520  1.00  0.00     0.126 C 
HETATM   11  N3  UNL     1       6.149   1.797   0.507  1.00  0.00    -0.374 N 
HETATM   12  N4  UNL     1       6.413  -0.307  -0.475  1.00  0.00    -0.064 NA
ATOM     13  H32 UNL     1       5.566   2.563   0.844  1.00  0.00     0.158 HD
ATOM     14  H31 UNL     1       7.165   1.849   0.574  1.00  0.00     0.158 HD
HETATM   15  C15 UNL     1       2.094   1.298  -1.055  1.00  0.00     0.034 C 
ENDBRANCH   3   5
BRANCH   1  16
HETATM   16  C4  UNL     1      -2.134  -0.962  -0.033  1.00  0.00     0.112 C 
BRANCH  16  17
HETATM   17  C2  UNL     1      -2.248  -2.417   0.305  1.00  0.00    -0.071 C 
HETATM   18  C1  UNL     1      -1.371  -3.021   1.088  1.00  0.00     0.016 C 
HETATM   19  C3  UNL     1      -3.386  -3.170  -0.271  1.00  0.00     0.044 C 
ENDBRANCH  16  17
BRANCH  16  20
HETATM   20  C5  UNL     1      -3.396  -0.310   0.468  1.00  0.00     0.033 C 
BRANCH  20  21
HETATM   21  C6  UNL     1      -3.443   1.175   0.203  1.00  0.00    -0.021 C 
HETATM   22  C7  UNL     1      -4.775   1.686   0.768  1.00  0.00     0.009 C 
HETATM   23  C8  UNL     1      -3.493   1.466  -1.282  1.00  0.00     0.009 C 
ENDBRANCH  20  21
ENDBRANCH  16  20
ENDBRANCH   1  16
TORSDOF 5
