REMARK  7 active torsions:
REMARK  status: ('A' for Active; 'I' for Inactive)
REMARK    1  A    between atoms: C2_2  and  C3_3 
REMARK    2  A    between atoms: C3_3  and  N1_4 
REMARK    3  A    between atoms: N1_4  and  C4_6 
REMARK    4  A    between atoms: C4_6  and  N2_8 
REMARK    5  A    between atoms: N2_8  and  C5_10 
REMARK    6  A    between atoms: C5_10  and  C6_11 
REMARK    7  A    between atoms: C6_11  and  N3_12 
REMARK       I    between atoms: N3_12  and  C7_14 
REMARK       I    between atoms: C7_14  and  N4_16 
ROOT
HETATM    1  C6  UNL     1      -0.934  -0.955  -0.238  1.00  0.00     0.144 C 
ENDROOT
BRANCH   1   2
HETATM    2  C5  UNL     1      -1.711  -1.237   0.996  1.00  0.00     0.141 C 
BRANCH   2   3
HETATM    3  N2  UNL     1      -3.019  -1.766   0.834  1.00  0.00    -0.366 N 
ATOM      4  H2  UNL     1      -3.217  -2.728   1.110  1.00  0.00     0.161 HD
BRANCH   3   5
HETATM    5  C4  UNL     1      -4.071  -0.942   0.278  1.00  0.00     0.167 C 
HETATM    6  S1  UNL     1      -3.766   0.597  -0.163  1.00  0.00    -0.041 SA
BRANCH   5   7
HETATM    7  N1  UNL     1      -5.371  -1.452   0.109  1.00  0.00    -0.364 N 
ATOM      8  H1  UNL     1      -5.553  -2.417   0.384  1.00  0.00     0.162 HD
BRANCH   7   9
HETATM    9  C3  UNL     1      -6.446  -0.686  -0.428  1.00  0.00     0.148 C 
BRANCH   9  10
HETATM   10  C2  UNL     1      -6.881   0.396   0.493  1.00  0.00    -0.018 C 
HETATM   11  C1  UNL     1      -6.873   1.666   0.123  1.00  0.00     0.008 C 
ENDBRANCH   9  10
ENDBRANCH   7   9
ENDBRANCH   5   7
ENDBRANCH   3   5
ENDBRANCH   2   3
ENDBRANCH   1   2
BRANCH   1  12
HETATM   12  N3  UNL     1       0.385  -0.427   0.180  1.00  0.00    -0.341 N 
HETATM   13  C7  UNL     1       1.350  -0.064  -0.767  1.00  0.00     0.318 C 
HETATM   14  O1  UNL     1       1.044  -0.209  -2.003  1.00  0.00    -0.247 OA
HETATM   15  N4  UNL     1       2.614   0.443  -0.467  1.00  0.00    -0.334 N 
HETATM   16  C8  UNL     1       3.464   0.763  -1.636  1.00  0.00     0.127 C 
HETATM   17  C13 UNL     1       3.041   0.628   0.880  1.00  0.00     0.127 C 
HETATM   18  C9  UNL     1       4.679   1.561  -1.239  1.00  0.00     0.020 C 
HETATM   19  C10 UNL     1       5.678   0.567  -0.662  1.00  0.00     0.002 C 
HETATM   20  C11 UNL     1       5.538   0.415   0.825  1.00  0.00     0.002 C 
HETATM   21  C12 UNL     1       4.247  -0.230   1.230  1.00  0.00     0.020 C 
ATOM     22  H3  UNL     1       0.594  -0.326   1.173  1.00  0.00     0.164 HD
ENDBRANCH   1  12
TORSDOF 7
