REMARK  8 active torsions:
REMARK  status: ('A' for Active; 'I' for Inactive)
REMARK    1  A    between atoms: C2_2  and  C3_3 
REMARK    2  A    between atoms: C3_3  and  N1_4 
REMARK    3  A    between atoms: N1_4  and  C4_6 
REMARK    4  A    between atoms: C4_6  and  N2_8 
REMARK    5  A    between atoms: C8_12  and  C9_13 
REMARK    6  A    between atoms: C9_13  and  C10_14 
REMARK    7  A    between atoms: C10_14  and  N3_15 
REMARK    8  A    between atoms: N3_15  and  C11_17 
ROOT
HETATM    1  N2  UNL     1       0.725  -0.603  -0.158  1.00  0.00    -0.354 N 
HETATM    2  C5  UNL     1       1.203  -1.892   0.419  1.00  0.00     0.126 C 
HETATM    3  C6  UNL     1       0.265  -2.001   1.597  1.00  0.00     0.022 C 
HETATM    4  C7  UNL     1      -1.052  -1.551   1.016  1.00  0.00     0.027 C 
HETATM    5  C8  UNL     1      -0.693  -0.737  -0.217  1.00  0.00     0.088 C 
ENDROOT
BRANCH   1   6
HETATM    6  C4  UNL     1       1.615   0.406  -0.513  1.00  0.00     0.170 C 
HETATM    7  S1  UNL     1       1.079   1.832  -1.148  1.00  0.00    -0.041 SA
BRANCH   6   8
HETATM    8  N1  UNL     1       3.022   0.294  -0.361  1.00  0.00    -0.364 N 
ATOM      9  H1  UNL     1       3.413  -0.565   0.026  1.00  0.00     0.162 HD
BRANCH   8  10
HETATM   10  C3  UNL     1       3.927   1.382  -0.746  1.00  0.00     0.148 C 
BRANCH  10  11
HETATM   11  C2  UNL     1       5.339   1.038  -0.497  1.00  0.00    -0.018 C 
HETATM   12  C1  UNL     1       6.132   1.719   0.308  1.00  0.00     0.008 C 
ENDBRANCH  10  11
ENDBRANCH   8  10
ENDBRANCH   6   8
ENDBRANCH   1   6
BRANCH   5  13
HETATM   13  C9  UNL     1      -1.522   0.491  -0.193  1.00  0.00     0.045 C 
BRANCH  13  14
HETATM   14  C10 UNL     1      -2.991   0.002  -0.248  1.00  0.00     0.123 C 
BRANCH  14  15
HETATM   15  N3  UNL     1      -3.882   1.151  -0.229  1.00  0.00    -0.369 N 
ATOM     16  H3  UNL     1      -3.496   2.094  -0.185  1.00  0.00     0.161 HD
BRANCH  15  17
HETATM   17  C11 UNL     1      -5.274   0.963  -0.271  1.00  0.00     0.180 C 
HETATM   18  N4  UNL     1      -5.886  -0.315  -0.334  1.00  0.00    -0.070 NA
HETATM   19  S2  UNL     1      -6.249   2.265  -0.248  1.00  0.00    -0.044 SA
ENDBRANCH  15  17
ENDBRANCH  14  15
ENDBRANCH  13  14
ENDBRANCH   5  13
TORSDOF 8
