REMARK  9 active torsions:
REMARK  status: ('A' for Active; 'I' for Inactive)
REMARK    1  A    between atoms: O1_2  and  C2_3 
REMARK    2  A    between atoms: N2_6  and  C3_7 
REMARK    3  A    between atoms: C3_7  and  O2_8 
REMARK    4  A    between atoms: O2_8  and  C4_9 
REMARK    5  A    between atoms: C4_9  and  C5_10 
REMARK    6  A    between atoms: C5_10  and  O3_11 
REMARK    7  A    between atoms: O3_11  and  C6_12 
REMARK    8  A    between atoms: C6_12  and  C7_14 
REMARK    9  A    between atoms: C12_27  and  N6_28 
ROOT
HETATM    1  C2  UNL     1       3.634   1.228  -0.497  1.00  0.00     0.176 A 
HETATM    2  N1  UNL     1       2.332   0.970  -0.662  1.00  0.00    -0.273 N 
ATOM      3  H1  UNL     1       1.628   1.677  -0.872  1.00  0.00     0.189 HD
HETATM    4  N2  UNL     1       2.077  -0.305  -0.520  1.00  0.00    -0.249 N 
HETATM    5  C11 UNL     1       3.240  -0.916  -0.253  1.00  0.00     0.160 A 
HETATM    6  N5  UNL     1       3.601  -2.201  -0.014  1.00  0.00    -0.174 N 
ATOM      7  H5  UNL     1       2.892  -2.934  -0.020  1.00  0.00     0.186 HD
HETATM    8  C12 UNL     1       4.881  -2.518   0.230  1.00  0.00     0.680 A 
HETATM    9  N7  UNL     1       5.868  -1.583   0.250  1.00  0.00    -0.155 N 
ATOM     10  H7  UNL     1       6.832  -1.857   0.438  1.00  0.00     0.187 HD
HETATM   11  C13 UNL     1       5.560  -0.284   0.018  1.00  0.00     0.278 A 
HETATM   12  O7  UNL     1       6.492   0.554   0.043  1.00  0.00    -0.266 OA
HETATM   13  C14 UNL     1       4.247   0.024  -0.230  1.00  0.00     0.131 A 
ENDROOT
BRANCH   4  14
HETATM   14  C3  UNL     1       0.775  -0.916  -0.641  1.00  0.00     0.318 C 
BRANCH  14  15
HETATM   15  O2  UNL     1       0.075  -0.993   0.560  1.00  0.00    -0.368 OA
BRANCH  15  16
HETATM   16  C4  UNL     1      -0.201   0.178   1.169  1.00  0.00     0.197 C 
BRANCH  16  17
HETATM   17  C5  UNL     1      -1.148   1.144   0.576  1.00  0.00     0.205 C 
BRANCH  17  18
HETATM   18  O3  UNL     1      -2.452   0.840   0.386  1.00  0.00    -0.314 OA
BRANCH  18  19
HETATM   19  C6  UNL     1      -3.219  -0.029  -0.281  1.00  0.00     0.310 C 
HETATM   20  O4  UNL     1      -2.647  -0.882  -0.995  1.00  0.00    -0.258 OA
BRANCH  19  21
HETATM   21  C7  UNL     1      -4.701  -0.031  -0.218  1.00  0.00     0.117 A 
HETATM   22  C8  UNL     1      -5.387  -0.973  -0.948  1.00  0.00     0.110 A 
HETATM   23  C9  UNL     1      -6.777  -1.016  -0.921  1.00  0.00     0.251 A 
HETATM   24  O5  UNL     1      -7.390  -1.884  -1.595  1.00  0.00    -0.268 OA
HETATM   25  N3  UNL     1      -7.460  -0.119  -0.168  1.00  0.00    -0.275 N 
HETATM   26  C10 UNL     1      -6.751   0.782   0.528  1.00  0.00     0.327 A 
ATOM     27  H3  UNL     1      -8.479  -0.129  -0.132  1.00  0.00     0.173 HD
HETATM   28  O6  UNL     1      -7.422   1.609   1.224  1.00  0.00    -0.247 OA
HETATM   29  N4  UNL     1      -5.397   0.830   0.507  1.00  0.00    -0.303 N 
ATOM     30  H4  UNL     1      -4.909   1.538   1.056  1.00  0.00     0.171 HD
ENDBRANCH  19  21
ENDBRANCH  18  19
ENDBRANCH  17  18
ENDBRANCH  16  17
ENDBRANCH  15  16
ENDBRANCH  14  15
ENDBRANCH   4  14
BRANCH   1  31
HETATM   31  O1  UNL     1       4.258   2.491  -0.580  1.00  0.00    -0.339 OA
HETATM   32  C1  UNL     1       3.458   3.612  -0.863  1.00  0.00     0.211 C 
ENDBRANCH   1  31
BRANCH   8  33
HETATM   33  N6  UNL     1       5.236  -3.743   0.460  1.00  0.00    -0.234 N 
ATOM     34  H62 UNL     1       4.496  -4.444   0.445  1.00  0.00     0.174 HD
ATOM     35  H61 UNL     1       6.210  -3.984   0.646  1.00  0.00     0.174 HD
ENDBRANCH   8  33
TORSDOF 9
