REMARK  11 active torsions:
REMARK  status: ('A' for Active; 'I' for Inactive)
REMARK    1  A    between atoms: C2_2  and  O1_3 
REMARK    2  A    between atoms: O1_3  and  C3_4 
REMARK    3  A    between atoms: C3_4  and  C4_6 
REMARK    4  A    between atoms: C4_6  and  N1_7 
REMARK    5  A    between atoms: C4_6  and  C11_27 
REMARK    6  A    between atoms: N1_7  and  N2_8 
REMARK    7  A    between atoms: N2_8  and  C5_10 
REMARK    8  A    between atoms: C5_10  and  O3_11 
REMARK    9  A    between atoms: C5_10  and  C6_13 
REMARK   10  A    between atoms: C7_14  and  O4_15 
REMARK   11  A    between atoms: C9_19  and  N4_20 
REMARK       I    between atoms: C11_27  and  N7_29 
ROOT
HETATM    1  C5  UNL     1       2.407   0.983   0.949  1.00  0.00     0.170 C 
ENDROOT
BRANCH   1   2
HETATM    2  N2  UNL     1       1.146   0.627   0.471  1.00  0.00    -0.282 N 
ATOM      3  H2  UNL     1       0.951  -0.341   0.214  1.00  0.00     0.184 HD
BRANCH   2   4
HETATM    4  N1  UNL     1       0.137   1.612   0.343  1.00  0.00    -0.114 NA
BRANCH   4   5
HETATM    5  C4  UNL     1      -0.989   1.100  -0.455  1.00  0.00     0.290 C 
BRANCH   5   6
HETATM    6  C3  UNL     1      -1.939   2.258  -0.568  1.00  0.00     0.289 C 
HETATM    7  O2  UNL     1      -1.682   3.388  -0.018  1.00  0.00    -0.263 OA
BRANCH   6   8
HETATM    8  O1  UNL     1      -3.116   2.195  -1.247  1.00  0.00    -0.320 OA
BRANCH   8   9
HETATM    9  C2  UNL     1      -4.049   3.239  -1.391  1.00  0.00     0.174 C 
HETATM   10  C1  UNL     1      -4.511   3.632   0.009  1.00  0.00     0.034 C 
ENDBRANCH   8   9
ENDBRANCH   6   8
ENDBRANCH   5   6
BRANCH   5  11
HETATM   11  C11 UNL     1      -1.602  -0.064   0.206  1.00  0.00     0.250 C 
HETATM   12  O5  UNL     1      -1.222  -0.344   1.380  1.00  0.00    -0.271 OA
HETATM   13  N7  UNL     1      -2.580  -0.879  -0.395  1.00  0.00    -0.350 N 
HETATM   14  C12 UNL     1      -3.218  -2.022   0.287  1.00  0.00     0.126 C 
HETATM   15  C15 UNL     1      -3.148  -0.840  -1.720  1.00  0.00     0.126 C 
HETATM   16  C13 UNL     1      -3.431  -3.046  -0.797  1.00  0.00     0.021 C 
HETATM   17  C14 UNL     1      -3.166  -2.326  -2.089  1.00  0.00     0.021 C 
ENDBRANCH   5  11
ENDBRANCH   4   5
ENDBRANCH   2   4
ENDBRANCH   1   2
BRANCH   1  18
HETATM   18  O3  UNL     1       2.524   2.246   1.240  1.00  0.00    -0.345 OA
ATOM     19  H3  UNL     1       3.383   2.488   1.566  1.00  0.00     0.219 HD
ENDBRANCH   1  18
BRANCH   1  20
HETATM   20  C6  UNL     1       3.578   0.189   1.168  1.00  0.00     0.109 A 
HETATM   21  C7  UNL     1       3.636  -1.148   0.927  1.00  0.00     0.175 A 
HETATM   22  N3  UNL     1       4.803  -1.817   1.170  1.00  0.00    -0.170 N 
HETATM   23  C9  UNL     1       5.906  -1.228   1.637  1.00  0.00     0.679 A 
ATOM     24  H3  UNL     1       4.832  -2.820   0.985  1.00  0.00     0.186 HD
HETATM   25  N5  UNL     1       5.834   0.089   1.871  1.00  0.00    -0.178 N 
HETATM   26  C10 UNL     1       4.731   0.829   1.662  1.00  0.00     0.150 A 
ATOM     27  H5  UNL     1       6.666   0.559   2.229  1.00  0.00     0.185 HD
HETATM   28  N6  UNL     1       4.730   2.217   1.932  1.00  0.00    -0.081 NA
BRANCH  21  29
HETATM   29  O4  UNL     1       2.553  -1.828   0.448  1.00  0.00    -0.340 OA
HETATM   30  C8  UNL     1       2.657  -3.217   0.211  1.00  0.00     0.211 C 
ENDBRANCH  21  29
BRANCH  23  31
HETATM   31  N4  UNL     1       6.988  -1.878   1.857  1.00  0.00    -0.234 N 
ATOM     32  H42 UNL     1       7.043  -2.881   1.679  1.00  0.00     0.174 HD
ATOM     33  H41 UNL     1       7.831  -1.428   2.214  1.00  0.00     0.174 HD
ENDBRANCH  23  31
ENDBRANCH   1  20
TORSDOF 11
