REMARK  8 active torsions:
REMARK  status: ('A' for Active; 'I' for Inactive)
REMARK    1  A    between atoms: C2_2  and  C3_3 
REMARK    2  A    between atoms: N2_7  and  O2_8 
REMARK    3  A    between atoms: C4_10  and  C5_11 
REMARK    4  A    between atoms: C5_11  and  O3_12 
REMARK    5  A    between atoms: C5_11  and  C6_14 
REMARK    6  A    between atoms: C11_26  and  O4_27 
REMARK    7  A    between atoms: O4_27  and  C12_28 
REMARK    8  A    between atoms: C12_28  and  C13_29 
REMARK       I    between atoms: C13_29  and  N7_31 
REMARK       I    between atoms: N7_31  and  C14_33 
ROOT
HETATM    1  C6  UNL     1      -0.790  -0.834  -0.796  1.00  0.00     0.053 A 
HETATM    2  C7  UNL     1      -1.712  -1.493  -1.580  1.00  0.00     0.130 A 
HETATM    3  N3  UNL     1      -2.892  -0.755  -1.974  1.00  0.00    -0.082 NA
HETATM    4  N4  UNL     1      -1.544  -2.759  -1.971  1.00  0.00    -0.329 N 
ATOM      5  H4  UNL     1      -2.249  -3.213  -2.553  1.00  0.00     0.168 HD
HETATM    6  C8  UNL     1      -0.421  -3.447  -1.588  1.00  0.00     0.124 A 
HETATM    7  N5  UNL     1      -0.219  -4.618  -1.920  1.00  0.00    -0.384 N 
ATOM      8  H51 UNL     1       0.616  -5.130  -1.635  1.00  0.00     0.157 HD
ATOM      9  H52 UNL     1      -0.912  -5.090  -2.501  1.00  0.00     0.157 HD
HETATM   10  C9  UNL     1       0.535  -2.796  -0.787  1.00  0.00     0.122 A 
HETATM   11  C10 UNL     1       1.727  -3.474  -0.362  1.00  0.00     0.106 C 
HETATM   12  N6  UNL     1       2.673  -4.020  -0.004  1.00  0.00    -0.191 NA
HETATM   13  C11 UNL     1       0.348  -1.499  -0.396  1.00  0.00     0.106 A 
ENDROOT
BRANCH  13  14
HETATM   14  O4  UNL     1       1.294  -0.828   0.406  1.00  0.00    -0.340 OA
BRANCH  14  15
HETATM   15  C12 UNL     1       2.348  -0.122  -0.239  1.00  0.00     0.278 C 
BRANCH  15  16
HETATM   16  C13 UNL     1       3.242   0.519   0.748  1.00  0.00     0.249 C 
HETATM   17  O5  UNL     1       2.978   0.384   1.968  1.00  0.00    -0.271 OA
HETATM   18  N7  UNL     1       4.381   1.279   0.378  1.00  0.00    -0.280 N 
HETATM   19  C14 UNL     1       5.223   1.887   1.361  1.00  0.00     0.335 C 
ATOM     20  H7  UNL     1       4.604   1.394  -0.611  1.00  0.00     0.173 HD
HETATM   21  N8  UNL     1       4.911   1.727   2.760  1.00  0.00    -0.040 NA
HETATM   22  O6  UNL     1       6.234   2.559   1.047  1.00  0.00    -0.251 OA
ENDBRANCH  15  16
ENDBRANCH  14  15
ENDBRANCH  13  14
BRANCH   1  23
HETATM   23  C5  UNL     1      -1.000   0.582  -0.382  1.00  0.00     0.214 C 
BRANCH  23  24
HETATM   24  C4  UNL     1      -2.168   0.721   0.513  1.00  0.00     0.129 A 
HETATM   25  C3  UNL     1      -3.092   1.740   0.545  1.00  0.00     0.086 A 
HETATM   26  N1  UNL     1      -3.966   1.365   1.536  1.00  0.00    -0.237 N 
HETATM   27  O1  UNL     1      -3.581   0.236   2.032  1.00  0.00    -0.128 OA
ATOM     28  H1  UNL     1      -4.787   1.893   1.833  1.00  0.00     0.197 HD
HETATM   29  N2  UNL     1      -2.511  -0.203   1.462  1.00  0.00    -0.101 N 
BRANCH  25  30
HETATM   30  C2  UNL     1      -3.193   2.963  -0.242  1.00  0.00     0.023 C 
HETATM   31  C1  UNL     1      -4.227   3.775  -0.082  1.00  0.00     0.013 C 
ENDBRANCH  25  30
BRANCH  29  32
HETATM   32  O2  UNL     1      -1.845  -1.374   1.755  1.00  0.00    -0.261 OA
ATOM     33  H2  UNL     1      -1.057  -1.697   1.335  1.00  0.00     0.247 HD
ENDBRANCH  29  32
ENDBRANCH  23  24
BRANCH  23  34
HETATM   34  O3  UNL     1      -1.160   1.305  -1.545  1.00  0.00    -0.384 OA
ATOM     35  H3  UNL     1      -0.409   1.216  -2.120  1.00  0.00     0.211 HD
ENDBRANCH  23  34
ENDBRANCH   1  23
TORSDOF 8
