REMARK  9 active torsions:
REMARK  status: ('A' for Active; 'I' for Inactive)
REMARK    1  A    between atoms: C2_2  and  N1_3 
REMARK    2  A    between atoms: C2_2  and  C8_22 
REMARK    3  A    between atoms: N1_3  and  C3_5 
REMARK    4  A    between atoms: C3_5  and  N2_7 
REMARK    5  A    between atoms: N2_7  and  N3_9 
REMARK       I    between atoms: N3_9  and  C4_11 
REMARK    6  A    between atoms: C4_11  and  C5_13 
REMARK    7  A    between atoms: C5_13  and  N4_14 
REMARK    8  A    between atoms: C5_13  and  C6_18 
REMARK    9  A    between atoms: C6_18  and  O3_20 
ROOT
HETATM    1  N2  UNL     1       0.210  -0.710  -1.044  1.00  0.00    -0.273 N 
ATOM      2  H2  UNL     1      -0.163   0.196  -0.760  1.00  0.00     0.189 HD
ENDROOT
BRANCH   1   3
HETATM    3  C3  UNL     1      -0.573  -1.559  -1.869  1.00  0.00     0.191 C 
HETATM    4  S1  UNL     1       0.022  -3.009  -2.325  1.00  0.00    -0.039 SA
BRANCH   3   5
HETATM    5  N1  UNL     1      -1.863  -1.169  -2.304  1.00  0.00    -0.332 N 
ATOM      6  H1  UNL     1      -2.434  -1.772  -2.896  1.00  0.00     0.168 HD
BRANCH   5   7
HETATM    7  C2  UNL     1      -2.328   0.127  -1.865  1.00  0.00     0.035 C 
HETATM    8  C1  UNL     1      -1.906   1.163  -2.559  1.00  0.00     0.044 C 
BRANCH   7   9
HETATM    9  C8  UNL     1      -3.204   0.208  -0.715  1.00  0.00    -0.010 A 
HETATM   10  C9  UNL     1      -3.652   1.407  -0.249  1.00  0.00     0.013 A 
HETATM   11  C10 UNL     1      -4.498   1.463   0.864  1.00  0.00     0.001 A 
HETATM   12  C11 UNL     1      -4.891   0.297   1.506  1.00  0.00     0.000 A 
HETATM   13  C12 UNL     1      -4.438  -0.908   1.033  1.00  0.00     0.001 A 
HETATM   14  C13 UNL     1      -3.603  -0.932  -0.068  1.00  0.00     0.013 A 
ENDBRANCH   7   9
ENDBRANCH   5   7
ENDBRANCH   3   5
ENDBRANCH   1   3
BRANCH   1  15
HETATM   15  N3  UNL     1       1.473  -1.092  -0.618  1.00  0.00    -0.266 N 
HETATM   16  C4  UNL     1       2.011  -0.535   0.563  1.00  0.00     0.276 C 
HETATM   17  O1  UNL     1       1.368   0.303   1.240  1.00  0.00    -0.269 OA
ATOM     18  H3  UNL     1       2.011  -1.772  -1.155  1.00  0.00     0.190 HD
BRANCH  16  19
HETATM   19  C5  UNL     1       3.360  -0.955   1.002  1.00  0.00     0.374 C 
BRANCH  19  20
HETATM   20  N4  UNL     1       3.936  -1.925   0.107  1.00  0.00    -0.057 N 
ATOM     21  H43 UNL     1       3.319  -2.728  -0.017  1.00  0.00     0.275 HD
ATOM     22  H42 UNL     1       3.948  -1.583  -0.854  1.00  0.00     0.275 HD
ATOM     23  H41 UNL     1       4.866  -2.215   0.410  1.00  0.00     0.275 HD
ENDBRANCH  19  20
BRANCH  19  24
HETATM   24  C6  UNL     1       4.222   0.253   1.132  1.00  0.00     0.298 C 
HETATM   25  O2  UNL     1       5.292   0.273   0.478  1.00  0.00    -0.262 OA
BRANCH  24  26
HETATM   26  O3  UNL     1       3.915   1.327   1.916  1.00  0.00    -0.324 OA
HETATM   27  C7  UNL     1       4.713   2.477   2.054  1.00  0.00     0.213 C 
ENDBRANCH  24  26
ENDBRANCH  19  24
ENDBRANCH  16  19
ENDBRANCH   1  15
TORSDOF 9
