REMARK  6 active torsions:
REMARK  status: ('A' for Active; 'I' for Inactive)
REMARK    1  A    between atoms: C1_2  and  C2_4 
REMARK       I    between atoms: N1_8  and  C6_9 
REMARK    2  A    between atoms: C6_9  and  C7_11 
REMARK    3  A    between atoms: C8_12  and  C9_13 
REMARK    4  A    between atoms: C10_16  and  C11_17 
REMARK    5  A    between atoms: C11_17  and  O6_18 
REMARK    6  A    between atoms: N2_20  and  O7_22 
ROOT
HETATM    1  C7  UNL     1       1.726   0.889   0.244  1.00  0.00     0.106 A 
HETATM    2  C8  UNL     1       2.680   0.775  -0.952  1.00  0.00     0.113 A 
HETATM    3  C10 UNL     1       2.120  -0.412  -0.251  1.00  0.00     0.091 A 
ENDROOT
BRANCH   1   4
HETATM    4  C6  UNL     1       0.431   1.558  -0.004  1.00  0.00     0.225 C 
HETATM    5  N1  UNL     1      -0.789   0.963  -0.364  1.00  0.00    -0.351 N 
HETATM    6  C5  UNL     1      -1.917   1.869  -0.652  1.00  0.00     0.126 C 
HETATM    7  C12 UNL     1      -1.126  -0.433  -0.423  1.00  0.00     0.141 C 
HETATM    8  C4  UNL     1      -2.973   1.735   0.396  1.00  0.00     0.021 C 
HETATM    9  C3  UNL     1      -3.276   0.293   0.644  1.00  0.00     0.019 C 
HETATM   10  C2  UNL     1      -2.626  -0.651  -0.309  1.00  0.00     0.105 C 
HETATM   11  O3  UNL     1       0.480   2.845   0.150  1.00  0.00    -0.273 OA
BRANCH  10  12
HETATM   12  C1  UNL     1      -2.827  -2.033   0.199  1.00  0.00     0.178 C 
HETATM   13  O1  UNL     1      -3.454  -2.265   1.264  1.00  0.00    -0.648 OA
HETATM   14  O2  UNL     1      -2.331  -3.148  -0.478  1.00  0.00    -0.648 OA
ENDBRANCH  10  12
ENDBRANCH   1   4
BRANCH   2  15
HETATM   15  C9  UNL     1       2.297   1.088  -2.305  1.00  0.00     0.178 C 
HETATM   16  O4  UNL     1       3.110   1.623  -3.147  1.00  0.00    -0.648 OA
HETATM   17  O5  UNL     1       1.040   0.844  -2.811  1.00  0.00    -0.648 OA
ENDBRANCH   2  15
BRANCH   3  18
HETATM   18  C11 UNL     1       3.126  -1.184   0.559  1.00  0.00     0.141 C 
HETATM   19  N2  UNL     1       3.600  -0.698   1.644  1.00  0.00    -0.251 N 
ATOM     20  H2  UNL     1       3.274   0.223   1.936  1.00  0.00     0.196 HD
BRANCH  18  21
HETATM   21  O6  UNL     1       3.519  -2.411   0.108  1.00  0.00    -0.348 OA
ATOM     22  H6  UNL     1       4.154  -2.898   0.619  1.00  0.00     0.219 HD
ENDBRANCH  18  21
BRANCH  19  23
HETATM   23  O7  UNL     1       4.512  -1.331   2.434  1.00  0.00    -0.288 OA
ATOM     24  H7  UNL     1       4.864  -0.970   3.239  1.00  0.00     0.244 HD
ENDBRANCH  19  23
ENDBRANCH   3  18
TORSDOF 6
