REMARK  4 active torsions:
REMARK  status: ('A' for Active; 'I' for Inactive)
REMARK       I    between atoms: C2_2  and  N1_4 
REMARK    1  A    between atoms: N1_4  and  N2_6 
REMARK    2  A    between atoms: N2_6  and  S1_8 
REMARK    3  A    between atoms: S1_8  and  C3_11 
REMARK    4  A    between atoms: C6_14  and  N3_15 
REMARK       I    between atoms: N3_15  and  C7_17 
REMARK       I    between atoms: C7_17  and  N4_19 
ROOT
HETATM    1  N3  UNL     1      -4.002   0.038  -0.068  1.00  0.00    -0.296 N 
ATOM      2  H3  UNL     1      -4.652  -0.444   0.553  1.00  0.00     0.172 HD
HETATM    3  C7  UNL     1      -4.521   0.863  -1.044  1.00  0.00     0.408 C 
HETATM    4  O4  UNL     1      -3.977   1.545  -1.837  1.00  0.00    -0.229 OA
HETATM    5  N4  UNL     1      -6.092   0.832  -1.016  1.00  0.00    -0.272 NA
HETATM    6  C8  UNL     1      -7.169   0.811  -0.997  1.00  0.00     0.273 C 
HETATM    7  N5  UNL     1      -8.367   0.763  -0.949  1.00  0.00    -0.156 NA
ENDROOT
BRANCH   1   8
HETATM    8  C6  UNL     1      -2.598  -0.178   0.119  1.00  0.00     0.037 A 
HETATM    9  C5  UNL     1      -1.692  -0.133  -0.896  1.00  0.00     0.031 A 
HETATM   10  C4  UNL     1      -0.330  -0.364  -0.715  1.00  0.00     0.027 A 
HETATM   11  C3  UNL     1       0.090  -0.646   0.551  1.00  0.00     0.081 A 
HETATM   12  C10 UNL     1      -0.794  -0.694   1.599  1.00  0.00     0.027 A 
HETATM   13  C9  UNL     1      -2.146  -0.463   1.395  1.00  0.00     0.031 A 
BRANCH  11  14
HETATM   14  S1  UNL     1       1.787  -1.098   0.796  1.00  0.00     0.276 S 
HETATM   15  O2  UNL     1       2.113  -2.140  -0.270  1.00  0.00    -0.199 OA
HETATM   16  O3  UNL     1       1.914  -1.807   2.119  1.00  0.00    -0.199 OA
BRANCH  14  17
HETATM   17  N2  UNL     1       2.802   0.238   0.610  1.00  0.00    -0.220 N 
ATOM     18  H2  UNL     1       2.472   1.184   0.420  1.00  0.00     0.200 HD
BRANCH  17  19
HETATM   19  N1  UNL     1       4.149  -0.108   0.748  1.00  0.00    -0.261 N 
HETATM   20  C2  UNL     1       5.140   0.616   0.092  1.00  0.00     0.232 C 
HETATM   21  C1  UNL     1       6.558   0.241   0.242  1.00  0.00     0.119 C 
HETATM   22  O1  UNL     1       4.853   1.586  -0.634  1.00  0.00    -0.272 OA
ATOM     23  H1  UNL     1       4.409  -0.900   1.336  1.00  0.00     0.190 HD
ENDBRANCH  17  19
ENDBRANCH  14  17
ENDBRANCH  11  14
ENDBRANCH   1   8
TORSDOF 4
