REMARK  6 active torsions:
REMARK  status: ('A' for Active; 'I' for Inactive)
REMARK    1  A    between atoms: C1_2  and  O2_4 
REMARK    2  A    between atoms: O2_4  and  C2_5 
REMARK    3  A    between atoms: C6_9  and  S1_10 
REMARK    4  A    between atoms: S1_10  and  N2_13 
REMARK    5  A    between atoms: N2_13  and  N3_15 
REMARK    6  A    between atoms: N3_15  and  C7_17 
ROOT
HETATM    1  C2  UNL     1       2.124  -0.123   0.427  1.00  0.00     0.082 A 
HETATM    2  C3  UNL     1       2.573  -1.344   0.898  1.00  0.00     0.037 A 
HETATM    3  C4  UNL     1       1.850  -2.505   0.754  1.00  0.00     0.004 A 
HETATM    4  C5  UNL     1       0.632  -2.435   0.112  1.00  0.00     0.025 A 
HETATM    5  C6  UNL     1       0.146  -1.248  -0.371  1.00  0.00     0.083 A 
HETATM    6  C8  UNL     1       0.893  -0.100  -0.212  1.00  0.00     0.062 A 
ENDROOT
BRANCH   5   7
HETATM    7  S1  UNL     1      -1.423  -1.206  -1.188  1.00  0.00     0.276 S 
HETATM    8  O3  UNL     1      -1.388  -0.209  -2.304  1.00  0.00    -0.199 OA
HETATM    9  O4  UNL     1      -1.618  -2.566  -1.800  1.00  0.00    -0.199 OA
BRANCH   7  10
HETATM   10  N2  UNL     1      -2.698  -0.919  -0.091  1.00  0.00    -0.221 N 
ATOM     11  H2  UNL     1      -3.203  -1.663   0.391  1.00  0.00     0.200 HD
BRANCH  10  12
HETATM   12  N3  UNL     1      -2.980   0.444   0.080  1.00  0.00    -0.269 N 
ATOM     13  H3  UNL     1      -2.293   1.154  -0.174  1.00  0.00     0.189 HD
BRANCH  12  14
HETATM   14  C7  UNL     1      -4.229   0.812   0.609  1.00  0.00     0.200 C 
HETATM   15  N4  UNL     1      -4.533   2.177   0.789  1.00  0.00    -0.068 NA
HETATM   16  S2  UNL     1      -5.310  -0.322   1.008  1.00  0.00    -0.043 SA
ENDBRANCH  12  14
ENDBRANCH  10  12
ENDBRANCH   7  10
ENDBRANCH   5   7
BRANCH   1  17
HETATM   17  O2  UNL     1       2.866   1.028   0.584  1.00  0.00    -0.264 OA
BRANCH  17  18
HETATM   18  C1  UNL     1       3.775   1.383  -0.397  1.00  0.00     0.378 C 
HETATM   19  N1  UNL     1       4.551   2.560  -0.262  1.00  0.00    -0.032 NA
HETATM   20  O1  UNL     1       3.885   0.633  -1.400  1.00  0.00    -0.242 OA
ENDBRANCH  17  18
ENDBRANCH   1  17
TORSDOF 6
