REMARK  11 active torsions:
REMARK  status: ('A' for Active; 'I' for Inactive)
REMARK    1  A    between atoms: C4_4  and  C5_5 
REMARK       I    between atoms: C5_5  and  N1_7 
REMARK    2  A    between atoms: N1_7  and  C6_9 
REMARK    3  A    between atoms: C6_9  and  C8_11 
REMARK       I    between atoms: C8_11  and  N2_13 
REMARK    4  A    between atoms: N2_13  and  C9_15 
REMARK    5  A    between atoms: C9_15  and  C10_16 
REMARK    6  A    between atoms: C9_15  and  C18_30 
REMARK    7  A    between atoms: C10_16  and  N3_17 
REMARK    8  A    between atoms: N3_17  and  C11_18 
REMARK    9  A    between atoms: N3_17  and  C12_20 
REMARK   10  A    between atoms: C22_34  and  N4_35 
REMARK   11  A    between atoms: C27_41  and  C28_42 
ROOT
HETATM    1  C6  UNL     1      -0.376  -0.433  -2.046  1.00  0.00     0.172 C 
HETATM    2  C7  UNL     1      -0.418  -1.018  -3.446  1.00  0.00     0.042 C 
ENDROOT
BRANCH   1   3
HETATM    3  N1  UNL     1       0.825  -0.802  -1.339  1.00  0.00    -0.344 N 
HETATM    4  C5  UNL     1       1.775   0.176  -0.989  1.00  0.00     0.252 C 
HETATM    5  O1  UNL     1       1.601   1.405  -1.286  1.00  0.00    -0.268 OA
ATOM      6  H1  UNL     1       0.987  -1.778  -1.091  1.00  0.00     0.163 HD
BRANCH   4   7
HETATM    7  C4  UNL     1       2.994  -0.151  -0.280  1.00  0.00     0.034 A 
HETATM    8  C3  UNL     1       3.186  -1.395   0.237  1.00  0.00     0.024 A 
HETATM    9  C2  UNL     1       4.356  -1.762   0.927  1.00  0.00    -0.047 A 
HETATM   10  C1  UNL     1       4.557  -3.107   1.484  1.00  0.00     0.049 C 
HETATM   11  C27 UNL     1       5.362  -0.824   1.092  1.00  0.00     0.038 A 
HETATM   12  C22 UNL     1       5.181   0.433   0.578  1.00  0.00     0.043 A 
HETATM   13  C21 UNL     1       4.015   0.768  -0.100  1.00  0.00     0.047 A 
BRANCH  11  14
HETATM   14  C28 UNL     1       6.590  -1.171   1.778  1.00  0.00     0.389 C 
HETATM   15  F5  UNL     1       6.276  -1.448   3.123  1.00  0.00    -0.209 F 
HETATM   16  F6  UNL     1       7.286  -2.226   1.245  1.00  0.00    -0.209 F 
ENDBRANCH  11  14
BRANCH  12  17
HETATM   17  N4  UNL     1       6.141   1.448   0.745  1.00  0.00    -0.376 N 
HETATM   18  C23 UNL     1       6.340   2.101   1.996  1.00  0.00     0.149 C 
HETATM   19  C24 UNL     1       7.685   2.791   2.095  1.00  0.00     0.187 C 
HETATM   20  O4  UNL     1       8.113   3.333   0.889  1.00  0.00    -0.388 OA
HETATM   21  C25 UNL     1       8.318   2.275  -0.003  1.00  0.00     0.187 C 
HETATM   22  C26 UNL     1       6.938   1.812  -0.422  1.00  0.00     0.149 C 
ENDBRANCH  12  17
ENDBRANCH   4   7
ENDBRANCH   1   3
BRANCH   1  23
HETATM   23  C8  UNL     1      -1.599  -0.735  -1.292  1.00  0.00     0.240 C 
HETATM   24  O2  UNL     1      -1.501  -1.245  -0.151  1.00  0.00    -0.271 OA
HETATM   25  N2  UNL     1      -2.878  -0.468  -1.815  1.00  0.00    -0.350 N 
ATOM     26  H2  UNL     1      -2.970  -0.054  -2.743  1.00  0.00     0.163 HD
BRANCH  25  27
HETATM   27  C9  UNL     1      -4.117  -0.791  -1.011  1.00  0.00     0.127 C 
BRANCH  27  28
HETATM   28  C10 UNL     1      -4.848   0.482  -0.972  1.00  0.00     0.098 C 
BRANCH  28  29
HETATM   29  N3  UNL     1      -6.075   0.652  -0.307  1.00  0.00    -0.299 N 
BRANCH  29  30
HETATM   30  C11 UNL     1      -7.326   0.468  -0.955  1.00  0.00     0.360 C 
HETATM   31  O3  UNL     1      -8.427   0.642  -0.390  1.00  0.00    -0.283 OA
ENDBRANCH  29  30
BRANCH  29  32
HETATM   32  C12 UNL     1      -6.158   1.060   1.076  1.00  0.00     0.085 A 
HETATM   33  C13 UNL     1      -6.429   0.168   2.078  1.00  0.00     0.079 A 
HETATM   34  C14 UNL     1      -6.507   0.588   3.412  1.00  0.00     0.160 A 
HETATM   35  F1  UNL     1      -6.774  -0.333   4.348  1.00  0.00    -0.203 F 
HETATM   36  C15 UNL     1      -6.308   1.902   3.698  1.00  0.00     0.196 A 
HETATM   37  F2  UNL     1      -6.373   2.369   4.980  1.00  0.00    -0.199 F 
HETATM   38  C16 UNL     1      -6.031   2.815   2.674  1.00  0.00     0.198 A 
HETATM   39  F3  UNL     1      -5.836   4.115   2.989  1.00  0.00    -0.199 F 
HETATM   40  C17 UNL     1      -5.957   2.394   1.370  1.00  0.00     0.185 A 
HETATM   41  F4  UNL     1      -5.686   3.279   0.373  1.00  0.00    -0.200 F 
ENDBRANCH  29  32
ENDBRANCH  28  29
ENDBRANCH  27  28
BRANCH  27  42
HETATM   42  C18 UNL     1      -4.724  -1.952  -1.735  1.00  0.00     0.005 C 
HETATM   43  C19 UNL     1      -5.948  -2.537  -1.112  1.00  0.00     0.012 C 
HETATM   44  C20 UNL     1      -4.971  -1.628  -3.212  1.00  0.00     0.012 C 
ENDBRANCH  27  42
ENDBRANCH  25  27
ENDBRANCH   1  23
TORSDOF 11
