REMARK  10 active torsions:
REMARK  status: ('A' for Active; 'I' for Inactive)
REMARK    1  A    between atoms: C2_2  and  N1_3 
REMARK    2  A    between atoms: C2_2  and  C10_18 
REMARK       I    between atoms: N1_3  and  C3_5 
REMARK    3  A    between atoms: C3_5  and  C4_7 
REMARK    4  A    between atoms: C4_7  and  N2_8 
REMARK       I    between atoms: N2_8  and  C5_10 
REMARK    5  A    between atoms: C5_10  and  C6_12 
REMARK    6  A    between atoms: C8_14  and  C9_16 
REMARK    7  A    between atoms: C13_21  and  O3_22 
REMARK    8  A    between atoms: O3_22  and  C14_23 
REMARK    9  A    between atoms: N3_26  and  C17_27 
REMARK   10  A    between atoms: C24_39  and  C25_40 
ROOT
HETATM    1  C10 UNL     1       0.568  -0.822  -0.459  1.00  0.00    -0.027 A 
HETATM    2  C11 UNL     1      -0.571  -1.618  -0.313  1.00  0.00     0.012 A 
HETATM    3  C12 UNL     1      -1.831  -1.057  -0.127  1.00  0.00     0.037 A 
HETATM    4  C13 UNL     1      -2.024   0.305  -0.077  1.00  0.00     0.070 A 
HETATM    5  C23 UNL     1      -0.891   1.079  -0.223  1.00  0.00     0.047 A 
HETATM    6  C24 UNL     1       0.369   0.534  -0.408  1.00  0.00    -0.019 A 
ENDROOT
BRANCH   1   7
HETATM    7  C2  UNL     1       1.884  -1.455  -0.640  1.00  0.00     0.114 C 
HETATM    8  C1  UNL     1       1.690  -2.962  -0.961  1.00  0.00     0.037 C 
BRANCH   7   9
HETATM    9  N1  UNL     1       2.703  -1.440   0.579  1.00  0.00    -0.351 N 
HETATM   10  C3  UNL     1       4.104  -1.288   0.523  1.00  0.00     0.235 C 
HETATM   11  O1  UNL     1       4.654  -1.165  -0.591  1.00  0.00    -0.272 OA
ATOM     12  H1  UNL     1       2.248  -1.542   1.486  1.00  0.00     0.163 HD
BRANCH  10  13
HETATM   13  C4  UNL     1       4.900  -1.276   1.756  1.00  0.00     0.225 C 
BRANCH  13  14
HETATM   14  N2  UNL     1       6.288  -1.091   1.467  1.00  0.00    -0.352 N 
HETATM   15  C5  UNL     1       6.758   0.082   0.851  1.00  0.00     0.224 C 
HETATM   16  O2  UNL     1       5.986   1.005   0.542  1.00  0.00    -0.273 OA
ATOM     17  H2  UNL     1       6.951  -1.826   1.713  1.00  0.00     0.162 HD
BRANCH  15  18
HETATM   18  C6  UNL     1       8.199   0.228   0.562  1.00  0.00     0.105 A 
HETATM   19  C7  UNL     1       8.736   1.612   0.947  1.00  0.00     0.045 A 
HETATM   20  C8  UNL     1       8.695   1.166  -0.479  1.00  0.00     0.076 A 
HETATM   21 CL1  UNL     1       7.555   1.964  -1.567  1.00  0.00    -0.116 Cl
BRANCH  20  22
HETATM   22  C9  UNL     1      10.068   0.798  -1.051  1.00  0.00     0.248 C 
HETATM   23  F1  UNL     1      11.032   0.779  -0.048  1.00  0.00    -0.253 F 
ENDBRANCH  20  22
ENDBRANCH  15  18
ENDBRANCH  13  14
ENDBRANCH  10  13
ENDBRANCH   7   9
ENDBRANCH   1   7
BRANCH   6  24
HETATM   24  C25 UNL     1       1.560   1.445  -0.563  1.00  0.00     0.261 C 
HETATM   25  F3  UNL     1       1.942   1.457  -1.871  1.00  0.00    -0.251 F 
ENDBRANCH   6  24
BRANCH   4  26
HETATM   26  O3  UNL     1      -3.269   0.898   0.108  1.00  0.00    -0.344 OA
BRANCH  26  27
HETATM   27  C14 UNL     1      -4.489   0.283   0.263  1.00  0.00     0.148 C 
HETATM   28  C15 UNL     1      -5.119   0.549   1.632  1.00  0.00     0.054 C 
HETATM   29  C16 UNL     1      -6.529   0.084   1.366  1.00  0.00     0.126 C 
HETATM   30  N3  UNL     1      -6.834   0.521   0.030  1.00  0.00    -0.374 N 
HETATM   31  C22 UNL     1      -5.595   0.854  -0.635  1.00  0.00     0.155 C 
BRANCH  30  32
HETATM   32  C17 UNL     1      -8.147   0.561  -0.562  1.00  0.00     0.096 A 
HETATM   33  C18 UNL     1      -9.220   0.047   0.127  1.00  0.00     0.160 A 
HETATM   34  F2  UNL     1      -9.090  -0.563   1.327  1.00  0.00    -0.202 F 
HETATM   35  C19 UNL     1     -10.477   0.149  -0.473  1.00  0.00     0.134 A 
HETATM   36  N4  UNL     1     -10.677   0.716  -1.668  1.00  0.00    -0.352 N 
HETATM   37  C20 UNL     1      -9.650   1.226  -2.362  1.00  0.00     0.127 A 
ATOM     38  H4  UNL     1     -11.620   0.761  -2.055  1.00  0.00     0.166 HD
HETATM   39 CL2  UNL     1      -9.882   1.971  -3.924  1.00  0.00    -0.063 Cl
HETATM   40  C21 UNL     1      -8.371   1.146  -1.800  1.00  0.00     0.102 A 
HETATM   41 CL3  UNL     1      -7.089   1.848  -2.742  1.00  0.00    -0.078 Cl
ENDBRANCH  30  32
ENDBRANCH  26  27
ENDBRANCH   4  26
TORSDOF 10
