REMARK  6 active torsions:
REMARK  status: ('A' for Active; 'I' for Inactive)
REMARK    1  A    between atoms: O1_2  and  N1_3 
REMARK    2  A    between atoms: N1_3  and  C2_4 
REMARK    3  A    between atoms: C7_9  and  C8_10 
REMARK    4  A    between atoms: N2_11  and  N3_13 
REMARK       I    between atoms: N3_13  and  C9_15 
REMARK    5  A    between atoms: C9_15  and  C10_17 
REMARK       I    between atoms: C10_17  and  N4_19 
REMARK    6  A    between atoms: N4_19  and  C11_21 
ROOT
HETATM    1  N3  UNL     1       0.085   0.745   0.846  1.00  0.00    -0.262 N 
ATOM      2  H3  UNL     1       0.412   0.772   1.812  1.00  0.00     0.190 HD
HETATM    3  C9  UNL     1       1.017   0.659  -0.202  1.00  0.00     0.327 C 
HETATM    4  O2  UNL     1       0.608   0.626  -1.412  1.00  0.00    -0.261 OA
ENDROOT
BRANCH   1   5
HETATM    5  N2  UNL     1      -1.276   0.794   0.581  1.00  0.00    -0.312 N 
HETATM    6  C8  UNL     1      -2.107   0.421   1.477  1.00  0.00     0.086 C 
ATOM      7  H2  UNL     1      -1.611   1.126  -0.323  1.00  0.00     0.185 HD
BRANCH   6   8
HETATM    8  C7  UNL     1      -3.551   0.489   1.154  1.00  0.00     0.047 C 
HETATM    9  C2  UNL     1      -3.887  -0.486   0.031  1.00  0.00     0.115 C 
HETATM   10  C3  UNL     1      -3.256  -1.787   0.415  1.00  0.00     0.024 C 
HETATM   11  C4  UNL     1      -3.744  -2.331   1.703  1.00  0.00     0.002 C 
HETATM   12  C5  UNL     1      -4.038  -1.363   2.773  1.00  0.00     0.001 C 
HETATM   13  C6  UNL     1      -4.337   0.036   2.346  1.00  0.00     0.011 C 
BRANCH   9  14
HETATM   14  N1  UNL     1      -3.375  -0.001  -1.215  1.00  0.00    -0.096 NA
BRANCH  14  15
HETATM   15  O1  UNL     1      -3.918   1.158  -1.583  1.00  0.00    -0.291 OA
HETATM   16  C1  UNL     1      -5.181   1.061  -2.122  1.00  0.00     0.231 C 
ENDBRANCH  14  15
ENDBRANCH   9  14
ENDBRANCH   6   8
ENDBRANCH   1   5
BRANCH   3  17
HETATM   17  C10 UNL     1       2.462   0.604   0.013  1.00  0.00     0.311 C 
HETATM   18  O3  UNL     1       2.871   0.635   1.199  1.00  0.00    -0.262 OA
HETATM   19  N4  UNL     1       3.379   0.517  -1.057  1.00  0.00    -0.347 N 
ATOM     20  H4  UNL     1       3.035   0.491  -2.017  1.00  0.00     0.163 HD
BRANCH  19  21
HETATM   21  C11 UNL     1       4.775   0.466  -0.807  1.00  0.00     0.099 C 
HETATM   22  C12 UNL     1       5.556   1.562  -1.522  1.00  0.00     0.041 C 
HETATM   23  C13 UNL     1       6.941   1.390  -0.882  1.00  0.00     0.142 C 
HETATM   24  S1  UNL     1       7.159  -0.367  -1.210  1.00  0.00     0.146 S 
HETATM   25  O4  UNL     1       7.829  -1.056  -0.088  1.00  0.00    -0.228 OA
HETATM   26  O5  UNL     1       7.841  -0.533  -2.522  1.00  0.00    -0.228 OA
HETATM   27  C14 UNL     1       5.421  -0.819  -1.336  1.00  0.00     0.165 C 
ENDBRANCH  19  21
ENDBRANCH   3  17
TORSDOF 6
