REMARK  8 active torsions:
REMARK  status: ('A' for Active; 'I' for Inactive)
REMARK       I    between atoms: C2_2  and  N1_4 
REMARK    1  A    between atoms: N1_4  and  C3_6 
REMARK    2  A    between atoms: C3_6  and  C5_8 
REMARK    3  A    between atoms: C5_8  and  O3_10 
REMARK    4  A    between atoms: O3_10  and  C6_11 
REMARK    5  A    between atoms: C6_11  and  O4_12 
REMARK    6  A    between atoms: C12_20  and  O6_21 
REMARK    7  A    between atoms: C12_20  and  C13_23 
REMARK    8  A    between atoms: C16_26  and  O7_28 
ROOT
HETATM    1  C6  UNL     1      -0.405  -0.756  -0.678  1.00  0.00     0.209 C 
HETATM    2  C7  UNL     1      -1.030   0.332   0.126  1.00  0.00     0.093 C 
HETATM    3  C8  UNL     1      -0.836  -0.002   1.590  1.00  0.00     0.092 C 
HETATM    4  C9  UNL     1      -1.453  -1.364   1.788  1.00  0.00     0.135 C 
HETATM    5  O5  UNL     1      -1.319  -2.009   2.794  1.00  0.00    -0.297 OA
HETATM    6  C10 UNL     1      -2.258  -1.850   0.607  1.00  0.00     0.098 C 
HETATM    7  C11 UNL     1      -3.267  -0.767   0.316  1.00  0.00     0.054 C 
HETATM    8  C12 UNL     1      -2.499   0.433  -0.226  1.00  0.00     0.071 C 
HETATM    9  C16 UNL     1      -1.257  -1.997  -0.535  1.00  0.00     0.121 C 
HETATM   10  C17 UNL     1      -0.359  -3.158  -0.166  1.00  0.00     0.052 C 
ENDROOT
BRANCH   1  11
HETATM   11  O3  UNL     1       0.929  -1.029  -0.252  1.00  0.00    -0.278 OA
BRANCH  11  12
HETATM   12  C5  UNL     1       1.959  -0.123  -0.335  1.00  0.00     0.284 C 
HETATM   13  O2  UNL     1       1.712   1.013  -0.814  1.00  0.00    -0.263 OA
BRANCH  12  14
HETATM   14  C3  UNL     1       3.350  -0.442   0.122  1.00  0.00     0.180 C 
HETATM   15  C4  UNL     1       3.382  -0.803   1.586  1.00  0.00     0.043 C 
BRANCH  14  16
HETATM   16  N1  UNL     1       4.202   0.686  -0.086  1.00  0.00    -0.348 N 
HETATM   17  C2  UNL     1       5.304   0.682  -0.981  1.00  0.00     0.214 C 
HETATM   18  C1  UNL     1       6.167   1.864  -1.175  1.00  0.00     0.117 C 
HETATM   19  O1  UNL     1       5.586  -0.351  -1.652  1.00  0.00    -0.274 OA
ATOM     20  H1  UNL     1       4.008   1.540   0.437  1.00  0.00     0.163 HD
ENDBRANCH  14  16
ENDBRANCH  12  14
ENDBRANCH  11  12
ENDBRANCH   1  11
BRANCH   1  21
HETATM   21  O4  UNL     1      -0.339  -0.453  -2.029  1.00  0.00    -0.362 OA
ATOM     22  H4  UNL     1      -1.227  -0.271  -2.313  1.00  0.00     0.213 HD
ENDBRANCH   1  21
BRANCH   9  23
HETATM   23  O7  UNL     1      -1.923  -2.323  -1.717  1.00  0.00    -0.384 OA
ATOM     24  H7  UNL     1      -2.458  -3.103  -1.627  1.00  0.00     0.210 HD
ENDBRANCH   9  23
BRANCH   8  25
HETATM   25  O6  UNL     1      -2.699   0.456  -1.586  1.00  0.00    -0.389 OA
ATOM     26  H6  UNL     1      -3.621   0.519  -1.807  1.00  0.00     0.210 HD
ENDBRANCH   8  25
BRANCH   8  27
HETATM   27  C13 UNL     1      -3.010   1.720   0.404  1.00  0.00     0.012 C 
HETATM   28  C14 UNL     1      -4.459   1.968   0.143  1.00  0.00     0.012 C 
HETATM   29  C15 UNL     1      -2.184   2.904  -0.039  1.00  0.00     0.012 C 
ENDBRANCH   8  27
TORSDOF 8
