REMARK  9 active torsions:
REMARK  status: ('A' for Active; 'I' for Inactive)
REMARK    1  A    between atoms: C3_3  and  O1_4 
REMARK    2  A    between atoms: N1_7  and  C5_8 
REMARK    3  A    between atoms: C5_8  and  C6_9 
REMARK    4  A    between atoms: C6_9  and  N2_10 
REMARK    5  A    between atoms: C13_18  and  O3_19 
REMARK    6  A    between atoms: C13_18  and  C14_21 
REMARK    7  A    between atoms: C14_21  and  O4_22 
REMARK    8  A    between atoms: C14_21  and  N3_24 
REMARK    9  A    between atoms: N3_24  and  C15_26 
ROOT
HETATM    1  C1  UNL     1       0.673   1.593   1.907  1.00  0.00     0.015 C 
HETATM    2  C2  UNL     1      -0.024   1.289   0.958  1.00  0.00    -0.074 C 
HETATM    3  C3  UNL     1      -0.867   0.930  -0.198  1.00  0.00     0.171 C 
HETATM    4  C4  UNL     1       0.071   0.529  -1.326  1.00  0.00     0.181 C 
HETATM    5  N1  UNL     1       0.963  -0.461  -0.839  1.00  0.00    -0.368 N 
HETATM    6  C11 UNL     1       0.417  -1.574  -0.226  1.00  0.00     0.066 C 
HETATM    7  C12 UNL     1      -0.767  -1.376   0.632  1.00  0.00     0.091 C 
HETATM    8  C13 UNL     1      -1.703  -0.228   0.224  1.00  0.00     0.149 C 
ENDROOT
BRANCH   3   9
HETATM    9  O1  UNL     1      -1.533   2.035  -0.634  1.00  0.00    -0.373 OA
ATOM     10  H1  UNL     1      -2.076   1.804  -1.379  1.00  0.00     0.212 HD
ENDBRANCH   3   9
BRANCH   8  11
HETATM   11  O3  UNL     1      -2.325   0.095   1.441  1.00  0.00    -0.381 OA
ATOM     12  H3  UNL     1      -2.858  -0.644   1.710  1.00  0.00     0.211 HD
ENDBRANCH   8  11
BRANCH   8  13
HETATM   13  C14 UNL     1      -2.713  -0.708  -0.776  1.00  0.00     0.253 C 
BRANCH  13  14
HETATM   14  O4  UNL     1      -2.980  -2.052  -0.473  1.00  0.00    -0.374 OA
ATOM     15  H4  UNL     1      -3.620  -2.356  -1.106  1.00  0.00     0.212 HD
ENDBRANCH  13  14
BRANCH  13  16
HETATM   16  N3  UNL     1      -3.776   0.083  -1.051  1.00  0.00    -0.387 N 
ATOM     17  H3  UNL     1      -3.727   0.495  -1.983  1.00  0.00     0.156 HD
BRANCH  16  18
HETATM   18  C15 UNL     1      -4.888   0.454  -0.377  1.00  0.00     0.017 C 
HETATM   19  C16 UNL     1      -6.050   0.487  -1.452  1.00  0.00     0.037 C 
HETATM   20  C17 UNL     1      -5.482  -0.425   0.686  1.00  0.00     0.037 C 
HETATM   21  C18 UNL     1      -4.898   1.867   0.129  1.00  0.00     0.037 C 
ENDBRANCH  16  18
ENDBRANCH  13  16
ENDBRANCH   8  13
BRANCH   5  22
HETATM   22  C5  UNL     1       2.324  -0.181  -0.873  1.00  0.00     0.093 C 
BRANCH  22  23
HETATM   23  C6  UNL     1       3.274  -1.137  -0.255  1.00  0.00     0.317 C 
BRANCH  23  24
HETATM   24  N2  UNL     1       4.626  -0.579  -0.435  1.00  0.00     0.097 N 
HETATM   25  C7  UNL     1       5.624  -1.451   0.122  1.00  0.00     0.299 C 
HETATM   26  C8  UNL     1       6.959  -0.763   0.014  1.00  0.00     0.198 C 
HETATM   27  O2  UNL     1       6.906   0.301   0.946  1.00  0.00    -0.388 OA
HETATM   28  C9  UNL     1       6.091   1.244   0.392  1.00  0.00     0.198 C 
HETATM   29  C10 UNL     1       4.726   0.782  -0.001  1.00  0.00     0.299 C 
ENDBRANCH  23  24
ENDBRANCH  22  23
ENDBRANCH   5  22
TORSDOF 9
