REMARK  9 active torsions:
REMARK  status: ('A' for Active; 'I' for Inactive)
REMARK    1  A    between atoms: C2_2  and  C4_4 
REMARK    2  A    between atoms: C4_4  and  C5_5 
REMARK    3  A    between atoms: C5_5  and  N1_6 
REMARK    4  A    between atoms: N1_6  and  C6_9 
REMARK    5  A    between atoms: C6_9  and  C7_10 
REMARK    6  A    between atoms: C6_9  and  C8_13 
REMARK    7  A    between atoms: C8_13  and  O3_14 
REMARK    8  A    between atoms: C8_13  and  C9_16 
REMARK    9  A    between atoms: C12_19  and  C13_20 
ROOT
HETATM    1  C6  UNL     1      -0.262  -1.329  -0.355  1.00  0.00     0.314 C 
ENDROOT
BRANCH   1   2
HETATM    2  N1  UNL     1       0.417  -0.089  -0.282  1.00  0.00    -0.059 N 
ATOM      3  H12 UNL     1       0.094   0.449   0.522  1.00  0.00     0.278 HD
ATOM      4  H11 UNL     1       0.116   0.529  -1.035  1.00  0.00     0.278 HD
BRANCH   2   5
HETATM    5  C5  UNL     1       1.895  -0.211  -0.268  1.00  0.00     0.233 C 
BRANCH   5   6
HETATM    6  C4  UNL     1       2.401   1.162   0.141  1.00  0.00     0.031 C 
BRANCH   6   7
HETATM    7  C2  UNL     1       3.905   1.215   0.158  1.00  0.00    -0.021 C 
HETATM    8  C1  UNL     1       4.552   0.238   1.074  1.00  0.00     0.009 C 
HETATM    9  C3  UNL     1       4.381   1.174  -1.269  1.00  0.00     0.009 C 
ENDBRANCH   6   7
ENDBRANCH   5   6
ENDBRANCH   2   5
ENDBRANCH   1   2
BRANCH   1  10
HETATM   10  C7  UNL     1       0.073  -2.161  -1.550  1.00  0.00     0.207 C 
HETATM   11  O1  UNL     1       0.848  -1.869  -2.435  1.00  0.00    -0.646 OA
HETATM   12  O2  UNL     1      -0.596  -3.385  -1.624  1.00  0.00    -0.646 OA
ENDBRANCH   1  10
BRANCH   1  13
HETATM   13  C8  UNL     1      -1.791  -1.223  -0.476  1.00  0.00     0.164 C 
BRANCH  13  14
HETATM   14  O3  UNL     1      -2.019  -0.609  -1.776  1.00  0.00    -0.393 OA
ATOM     15  H3  UNL     1      -2.964  -0.544  -1.851  1.00  0.00     0.210 HD
ENDBRANCH  13  14
BRANCH  13  16
HETATM   16  C9  UNL     1      -2.447  -0.362   0.528  1.00  0.00     0.031 C 
HETATM   17  C10 UNL     1      -2.202   1.104   0.564  1.00  0.00     0.009 C 
HETATM   18  C11 UNL     1      -3.636   1.266  -0.008  1.00  0.00     0.016 C 
HETATM   19  C12 UNL     1      -3.945  -0.184   0.276  1.00  0.00     0.093 C 
BRANCH  19  20
HETATM   20  C13 UNL     1      -4.792  -0.374   1.506  1.00  0.00     0.177 C 
HETATM   21  O4  UNL     1      -5.684  -1.229   1.525  1.00  0.00    -0.648 OA
HETATM   22  O5  UNL     1      -4.527   0.448   2.610  1.00  0.00    -0.648 OA
ENDBRANCH  19  20
ENDBRANCH  13  16
ENDBRANCH   1  13
TORSDOF 9
