REMARK  10 active torsions:
REMARK  status: ('A' for Active; 'I' for Inactive)
REMARK       I    between atoms: C2_2  and  N1_4 
REMARK    1  A    between atoms: N1_4  and  C3_6 
REMARK    2  A    between atoms: C3_6  and  C4_7 
REMARK    3  A    between atoms: C3_6  and  C8_11 
REMARK    4  A    between atoms: C4_7  and  C5_8 
REMARK    5  A    between atoms: C8_11  and  O2_12 
REMARK    6  A    between atoms: C8_11  and  C9_14 
REMARK    7  A    between atoms: C9_14  and  O3_15 
REMARK    8  A    between atoms: C9_14  and  C10_17 
REMARK    9  A    between atoms: C11_18  and  C12_19 
REMARK   10  A    between atoms: C14_21  and  O4_22 
ROOT
HETATM    1  C8  UNL     1      -0.333   0.122  -0.744  1.00  0.00     0.173 C 
ENDROOT
BRANCH   1   2
HETATM    2  C3  UNL     1      -1.770  -0.041  -0.359  1.00  0.00     0.116 C 
BRANCH   2   3
HETATM    3  N1  UNL     1      -2.174  -1.408  -0.118  1.00  0.00    -0.354 N 
HETATM    4  C2  UNL     1      -3.058  -2.126  -0.963  1.00  0.00     0.214 C 
HETATM    5  C1  UNL     1      -3.426  -3.511  -0.657  1.00  0.00     0.117 C 
HETATM    6  O1  UNL     1      -3.541  -1.565  -2.002  1.00  0.00    -0.274 OA
ATOM      7  H1  UNL     1      -1.803  -1.882   0.705  1.00  0.00     0.162 HD
ENDBRANCH   2   3
BRANCH   2   8
HETATM    8  C4  UNL     1      -2.177   0.876   0.762  1.00  0.00     0.031 C 
BRANCH   8   9
HETATM    9  C5  UNL     1      -3.664   0.921   0.992  1.00  0.00    -0.021 C 
HETATM   10  C6  UNL     1      -3.866   1.896   2.162  1.00  0.00     0.009 C 
HETATM   11  C7  UNL     1      -4.389   1.564  -0.181  1.00  0.00     0.009 C 
ENDBRANCH   8   9
ENDBRANCH   2   8
ENDBRANCH   1   2
BRANCH   1  12
HETATM   12  O2  UNL     1      -0.143   1.512  -0.937  1.00  0.00    -0.391 OA
ATOM     13  H2  UNL     1       0.769   1.615  -1.181  1.00  0.00     0.210 HD
ENDBRANCH   1  12
BRANCH   1  14
HETATM   14  C9  UNL     1       0.630  -0.298   0.313  1.00  0.00     0.171 C 
BRANCH  14  15
HETATM   15  O3  UNL     1       0.617  -1.628   0.647  1.00  0.00    -0.389 OA
ATOM     16  H3  UNL     1       1.231  -1.896   1.321  1.00  0.00     0.210 HD
ENDBRANCH  14  15
BRANCH  14  17
HETATM   17  C10 UNL     1       2.032   0.060  -0.065  1.00  0.00     0.003 C 
HETATM   18  C11 UNL     1       2.963  -0.804  -0.326  1.00  0.00    -0.023 C 
BRANCH  18  19
HETATM   19  C12 UNL     1       4.325  -0.442  -0.692  1.00  0.00     0.013 C 
HETATM   20  C13 UNL     1       5.381  -0.551   0.408  1.00  0.00     0.040 C 
HETATM   21  C14 UNL     1       6.092   0.602  -0.321  1.00  0.00     0.119 C 
HETATM   22  C15 UNL     1       4.677   1.025  -0.765  1.00  0.00     0.040 C 
BRANCH  21  23
HETATM   23  O4  UNL     1       6.712   1.492   0.519  1.00  0.00    -0.396 OA
ATOM     24  H4  UNL     1       7.151   2.204   0.069  1.00  0.00     0.210 HD
ENDBRANCH  21  23
ENDBRANCH  18  19
ENDBRANCH  14  17
ENDBRANCH   1  14
TORSDOF 10
