REMARK  9 active torsions:
REMARK  status: ('A' for Active; 'I' for Inactive)
REMARK    1  A    between atoms: C2_2  and  C3_3 
REMARK    2  A    between atoms: C3_3  and  C4_4 
REMARK    3  A    between atoms: C4_4  and  N1_5 
REMARK    4  A    between atoms: C4_4  and  N3_17 
REMARK       I    between atoms: N1_5  and  C5_7 
REMARK       I    between atoms: C5_7  and  N2_9 
REMARK    5  A    between atoms: N2_9  and  C6_11 
REMARK    6  A    between atoms: N3_17  and  C12_19 
REMARK    7  A    between atoms: C12_19  and  C13_20 
REMARK    8  A    between atoms: C12_19  and  C14_22 
REMARK    9  A    between atoms: C14_22  and  O3_23 
ROOT
HETATM    1  C4  UNL     1      -2.085   0.980   0.221  1.00  0.00     0.185 C 
ENDROOT
BRANCH   1   2
HETATM    2  C3  UNL     1      -2.271   2.494  -0.014  1.00  0.00     0.072 C 
BRANCH   2   3
HETATM    3  C2  UNL     1      -3.603   2.925   0.454  1.00  0.00    -0.033 C 
HETATM    4  C1  UNL     1      -3.732   3.843   1.404  1.00  0.00     0.007 C 
ENDBRANCH   2   3
ENDBRANCH   1   2
BRANCH   1   5
HETATM    5  N1  UNL     1      -0.726   0.724  -0.295  1.00  0.00    -0.322 N 
HETATM    6  C5  UNL     1       0.302   0.227   0.520  1.00  0.00     0.318 C 
HETATM    7  O1  UNL     1       0.139  -0.032   1.736  1.00  0.00    -0.247 OA
HETATM    8  N2  UNL     1       1.582   0.008  -0.054  1.00  0.00    -0.338 N 
ATOM      9  H2  UNL     1       1.713   0.219  -1.043  1.00  0.00     0.164 HD
ATOM     10  H1  UNL     1      -0.528   0.915  -1.277  1.00  0.00     0.166 HD
BRANCH   8  11
HETATM   11  C6  UNL     1       2.712  -0.501   0.700  1.00  0.00     0.086 C 
HETATM   12  C7  UNL     1       3.137  -1.795   0.032  1.00  0.00     0.025 C 
HETATM   13  C8  UNL     1       4.622  -2.034   0.225  1.00  0.00     0.002 C 
HETATM   14  C9  UNL     1       5.436  -1.030  -0.580  1.00  0.00     0.000 C 
HETATM   15  C10 UNL     1       4.639   0.231  -0.718  1.00  0.00     0.002 C 
HETATM   16  C11 UNL     1       3.856   0.496   0.566  1.00  0.00     0.025 C 
ENDBRANCH   8  11
ENDBRANCH   1   5
BRANCH   1  17
HETATM   17  N3  UNL     1      -2.989   0.343  -0.656  1.00  0.00    -0.389 N 
ATOM     18  H3  UNL     1      -3.548   0.898  -1.304  1.00  0.00     0.156 HD
BRANCH  17  19
HETATM   19  C12 UNL     1      -3.119  -1.056  -0.636  1.00  0.00     0.163 C 
BRANCH  19  20
HETATM   20  C13 UNL     1      -3.660  -1.552   0.649  1.00  0.00     0.258 C 
HETATM   21  O2  UNL     1      -3.974  -0.790   1.532  1.00  0.00    -0.305 OA
ENDBRANCH  19  20
BRANCH  19  22
HETATM   22  C14 UNL     1      -4.136  -1.427  -1.732  1.00  0.00     0.196 C 
BRANCH  22  23
HETATM   23  O3  UNL     1      -4.340  -2.782  -1.799  1.00  0.00    -0.398 OA
ATOM     24  H3  UNL     1      -4.967  -3.011  -2.475  1.00  0.00     0.209 HD
ENDBRANCH  22  23
ENDBRANCH  19  22
ENDBRANCH  17  19
ENDBRANCH   1  17
TORSDOF 9
