REMARK  10 active torsions:
REMARK  status: ('A' for Active; 'I' for Inactive)
REMARK    1  A    between atoms: N1_1  and  C1_5 
REMARK    2  A    between atoms: C1_5  and  C2_6 
REMARK    3  A    between atoms: C2_6  and  N2_7 
REMARK    4  A    between atoms: C2_6  and  C3_11 
REMARK    5  A    between atoms: C3_11  and  C4_12 
REMARK    6  A    between atoms: C9_17  and  C10_18 
REMARK    7  A    between atoms: C10_18  and  N3_19 
REMARK    8  A    between atoms: N3_19  and  C11_22 
REMARK    9  A    between atoms: C11_22  and  C12_23 
REMARK   10  A    between atoms: C11_22  and  C13_26 
ROOT
HETATM    1  C4  UNL     1       1.385  -0.634   0.590  1.00  0.00    -0.007 C 
HETATM    2  C5  UNL     1       2.045  -1.964   0.615  1.00  0.00     0.005 C 
HETATM    3  C6  UNL     1       2.505  -2.279  -0.797  1.00  0.00     0.000 C 
HETATM    4  C7  UNL     1       1.268  -2.619  -1.590  1.00  0.00     0.000 C 
HETATM    5  C8  UNL     1       0.034  -1.987  -1.010  1.00  0.00     0.007 C 
HETATM    6  C9  UNL     1       0.313  -0.616  -0.512  1.00  0.00     0.015 C 
ENDROOT
BRANCH   1   7
HETATM    7  C3  UNL     1       2.256   0.550   0.378  1.00  0.00     0.039 C 
BRANCH   7   8
HETATM    8  C2  UNL     1       3.307   0.764   1.404  1.00  0.00     0.209 C 
BRANCH   8   9
HETATM    9  C1  UNL     1       4.094   2.066   1.067  1.00  0.00     0.262 C 
BRANCH   9  10
HETATM   10  N1  UNL     1       5.100   2.255   2.077  1.00  0.00    -0.077 N 
ATOM     11  H13 UNL     1       4.714   2.262   3.021  1.00  0.00     0.274 HD
ATOM     12  H12 UNL     1       5.709   1.443   2.183  1.00  0.00     0.274 HD
ATOM     13  H11 UNL     1       5.615   3.107   1.856  1.00  0.00     0.274 HD
ENDBRANCH   9  10
ENDBRANCH   8   9
BRANCH   8  14
HETATM   14  N2  UNL     1       4.296  -0.315   1.392  1.00  0.00    -0.073 N 
ATOM     15  H23 UNL     1       4.827  -0.372   0.523  1.00  0.00     0.274 HD
ATOM     16  H22 UNL     1       5.090  -0.147   2.009  1.00  0.00     0.274 HD
ATOM     17  H21 UNL     1       3.781  -1.167   1.613  1.00  0.00     0.274 HD
ENDBRANCH   8  14
ENDBRANCH   7   8
ENDBRANCH   1   7
BRANCH   6  18
HETATM   18  C10 UNL     1      -0.926   0.013   0.098  1.00  0.00     0.238 C 
BRANCH  18  19
HETATM   19  N3  UNL     1      -2.029   0.118  -0.817  1.00  0.00    -0.062 N 
ATOM     20  H32 UNL     1      -1.787   0.663  -1.645  1.00  0.00     0.278 HD
ATOM     21  H31 UNL     1      -2.230  -0.771  -1.276  1.00  0.00     0.278 HD
BRANCH  19  22
HETATM   22  C11 UNL     1      -3.213   0.661  -0.126  1.00  0.00     0.278 C 
BRANCH  22  23
HETATM   23  C12 UNL     1      -3.769  -0.231   0.863  1.00  0.00     0.262 C 
HETATM   24  N4  UNL     1      -4.768   0.100   1.799  1.00  0.00    -0.060 NA
HETATM   25  O1  UNL     1      -3.360  -1.442   0.954  1.00  0.00    -0.275 OA
ENDBRANCH  22  23
BRANCH  22  26
HETATM   26  C13 UNL     1      -4.117   1.218  -1.165  1.00  0.00     0.025 A 
HETATM   27  C14 UNL     1      -5.390   1.828  -0.762  1.00  0.00     0.007 A 
HETATM   28  C15 UNL     1      -5.303   0.589  -1.703  1.00  0.00     0.007 A 
ENDBRANCH  22  26
ENDBRANCH  19  22
ENDBRANCH  18  19
ENDBRANCH   6  18
TORSDOF 10
