REMARK  10 active torsions:
REMARK  status: ('A' for Active; 'I' for Inactive)
REMARK    1  A    between atoms: N1_2  and  C2_4 
REMARK    2  A    between atoms: C2_4  and  C3_5 
REMARK    3  A    between atoms: C3_5  and  C4_6 
REMARK    4  A    between atoms: C3_5  and  C7_9 
REMARK    5  A    between atoms: C7_9  and  O1_10 
REMARK    6  A    between atoms: C7_9  and  C8_12 
REMARK    7  A    between atoms: C8_12  and  O2_13 
REMARK    8  A    between atoms: C8_12  and  C9_15 
REMARK    9  A    between atoms: C9_15  and  N2_16 
REMARK   10  A    between atoms: C9_15  and  C12_21 
REMARK       I    between atoms: N2_16  and  C10_18 
ROOT
HETATM    1  C8  UNL     1      -0.178  -0.669   0.181  1.00  0.00     0.170 C 
ENDROOT
BRANCH   1   2
HETATM    2  C7  UNL     1       0.463   0.672   0.246  1.00  0.00     0.154 C 
BRANCH   2   3
HETATM    3  C3  UNL     1       1.911   0.737  -0.197  1.00  0.00     0.038 C 
BRANCH   3   4
HETATM    4  C2  UNL     1       2.881   0.169   0.775  1.00  0.00     0.120 C 
BRANCH   4   5
HETATM    5  N1  UNL     1       2.836  -1.220   1.020  1.00  0.00    -0.425 N 
HETATM    6  C1  UNL     1       3.288  -2.075  -0.045  1.00  0.00     0.139 C 
ATOM      7  H1  UNL     1       2.501  -1.598   1.906  1.00  0.00     0.152 HD
ENDBRANCH   4   5
ENDBRANCH   3   4
BRANCH   3   8
HETATM    8  C4  UNL     1       2.221   2.246  -0.280  1.00  0.00    -0.006 A 
HETATM    9  C5  UNL     1       1.442   3.128  -1.154  1.00  0.00     0.005 A 
HETATM   10  C6  UNL     1       2.826   2.759  -1.544  1.00  0.00     0.005 A 
ENDBRANCH   3   8
ENDBRANCH   2   3
BRANCH   2  11
HETATM   11  O1  UNL     1       0.311   1.347   1.454  1.00  0.00    -0.392 OA
ATOM     12  H1  UNL     1      -0.597   1.306   1.732  1.00  0.00     0.210 HD
ENDBRANCH   2  11
ENDBRANCH   1   2
BRANCH   1  13
HETATM   13  O2  UNL     1       0.016  -1.188  -1.090  1.00  0.00    -0.391 OA
ATOM     14  H2  UNL     1      -0.393  -2.044  -1.132  1.00  0.00     0.210 HD
ENDBRANCH   1  13
BRANCH   1  15
HETATM   15  C9  UNL     1      -1.636  -0.534   0.529  1.00  0.00     0.119 C 
BRANCH  15  16
HETATM   16  N2  UNL     1      -2.266   0.340  -0.424  1.00  0.00    -0.354 N 
HETATM   17  C10 UNL     1      -2.929   1.518  -0.043  1.00  0.00     0.214 C 
HETATM   18  C11 UNL     1      -3.553   2.372  -1.084  1.00  0.00     0.117 C 
HETATM   19  O3  UNL     1      -3.012   1.875   1.159  1.00  0.00    -0.274 OA
ATOM     20  H2  UNL     1      -2.230   0.095  -1.413  1.00  0.00     0.162 HD
ENDBRANCH  15  16
BRANCH  15  21
HETATM   21  C12 UNL     1      -2.396  -1.821   0.579  1.00  0.00     0.003 C 
HETATM   22  C13 UNL     1      -2.408  -2.591  -0.717  1.00  0.00     0.011 C 
HETATM   23  C14 UNL     1      -1.979  -2.708   1.733  1.00  0.00     0.011 C 
ENDBRANCH  15  21
ENDBRANCH   1  15
TORSDOF 10
