REMARK  8 active torsions:
REMARK  status: ('A' for Active; 'I' for Inactive)
REMARK    1  A    between atoms: O1_2  and  C2_3 
REMARK    2  A    between atoms: C8_9  and  O2_10 
REMARK    3  A    between atoms: C13_16  and  O4_17 
REMARK    4  A    between atoms: O4_17  and  C14_18 
REMARK    5  A    between atoms: C14_18  and  C15_19 
REMARK    6  A    between atoms: C15_19  and  C16_20 
REMARK    7  A    between atoms: C16_20  and  N1_21 
REMARK    8  A    between atoms: C22_27  and  O5_28 
ROOT
HETATM    1  C2  UNL     1      -5.467  -0.309   2.130  1.00  0.00     0.102 A 
HETATM    2  C3  UNL     1      -6.708  -0.068   1.603  1.00  0.00     0.047 A 
HETATM    3  C4  UNL     1      -6.886   0.236   0.255  1.00  0.00    -0.052 A 
HETATM    4  C5  UNL     1      -8.248   0.491  -0.280  1.00  0.00     0.049 C 
HETATM    5  C6  UNL     1      -5.776   0.299  -0.593  1.00  0.00    -0.036 A 
HETATM    6  C7  UNL     1      -4.512   0.058  -0.082  1.00  0.00     0.042 A 
HETATM    7  C8  UNL     1      -4.378  -0.239   1.263  1.00  0.00     0.115 A 
HETATM    8  C10 UNL     1      -3.382   0.118  -0.998  1.00  0.00     0.100 A 
HETATM    9  O3  UNL     1      -2.159  -0.108  -0.551  1.00  0.00    -0.308 OA
HETATM   10  C11 UNL     1      -1.107  -0.067  -1.336  1.00  0.00     0.093 A 
HETATM   11  C12 UNL     1       0.145  -0.312  -0.810  1.00  0.00     0.077 A 
HETATM   12  C13 UNL     1       1.253  -0.273  -1.614  1.00  0.00     0.104 A 
HETATM   13  C22 UNL     1       1.124   0.011  -2.958  1.00  0.00     0.100 A 
HETATM   14  C23 UNL     1      -0.106   0.262  -3.525  1.00  0.00     0.057 A 
HETATM   15  C24 UNL     1      -1.226   0.217  -2.680  1.00  0.00     0.051 A 
HETATM   16  C25 UNL     1      -2.471   0.462  -3.210  1.00  0.00     0.194 A 
HETATM   17  O6  UNL     1      -2.618   0.721  -4.418  1.00  0.00    -0.287 OA
HETATM   18  C26 UNL     1      -3.563   0.405  -2.328  1.00  0.00     0.028 A 
HETATM   19  C27 UNL     1      -4.885   0.667  -2.903  1.00  0.00     0.050 A 
HETATM   20  C28 UNL     1      -6.043   0.623  -1.993  1.00  0.00     0.045 A 
ENDROOT
BRANCH  12  21
HETATM   21  O4  UNL     1       2.533  -0.513  -1.125  1.00  0.00    -0.348 OA
BRANCH  21  22
HETATM   22  C14 UNL     1       2.658  -0.808   0.274  1.00  0.00     0.181 C 
BRANCH  22  23
HETATM   23  C15 UNL     1       4.109  -1.043   0.638  1.00  0.00     0.071 C 
BRANCH  23  24
HETATM   24  C16 UNL     1       4.938   0.157   0.341  1.00  0.00     0.065 C 
BRANCH  24  25
HETATM   25  N1  UNL     1       6.309   0.040   0.647  1.00  0.00    -0.374 N 
HETATM   26  C17 UNL     1       7.137   1.154   0.381  1.00  0.00     0.127 C 
HETATM   27  C18 UNL     1       8.250   1.160   1.438  1.00  0.00     0.021 C 
HETATM   28  C19 UNL     1       9.040  -0.085   1.245  1.00  0.00     0.007 C 
HETATM   29  C20 UNL     1       8.240  -1.351   1.264  1.00  0.00     0.044 C 
HETATM   30  C21 UNL     1       6.891  -1.239   0.625  1.00  0.00     0.063 C 
ENDBRANCH  24  25
ENDBRANCH  23  24
ENDBRANCH  22  23
ENDBRANCH  21  22
ENDBRANCH  12  21
BRANCH  13  31
HETATM   31  O5  UNL     1       2.253   0.051  -3.780  1.00  0.00    -0.358 OA
ATOM     32  H5  UNL     1       2.164   0.247  -4.705  1.00  0.00     0.217 HD
ENDBRANCH  13  31
BRANCH   7  33
HETATM   33  O2  UNL     1      -3.139  -0.479   1.791  1.00  0.00    -0.352 OA
HETATM   34  C9  UNL     1      -2.401   0.617   2.361  1.00  0.00     0.210 C 
ENDBRANCH   7  33
BRANCH   1  35
HETATM   35  O1  UNL     1      -5.327  -0.607   3.470  1.00  0.00    -0.353 OA
HETATM   36  C1  UNL     1      -6.481  -0.658   4.281  1.00  0.00     0.210 C 
ENDBRANCH   1  35
TORSDOF 8
