REMARK  8 active torsions:
REMARK  status: ('A' for Active; 'I' for Inactive)
REMARK    1  A    between atoms: C2_2  and  C3_3 
REMARK    2  A    between atoms: C3_3  and  C4_4 
REMARK    3  A    between atoms: C4_4  and  C5_5 
REMARK    4  A    between atoms: C12_12  and  C14_14 
REMARK    5  A    between atoms: C14_14  and  C15_15 
REMARK    6  A    between atoms: C15_15  and  O1_16 
REMARK    7  A    between atoms: C15_15  and  C16_18 
REMARK    8  A    between atoms: C19_21  and  O2_22 
ROOT
HETATM    1  C5  UNL     1      -2.889  -0.224  -0.461  1.00  0.00     0.067 C 
HETATM    2  C6  UNL     1      -2.962   0.032   1.053  1.00  0.00     0.048 C 
HETATM    3  C7  UNL     1      -1.761   0.766   1.376  1.00  0.00    -0.027 C 
HETATM    4  C8  UNL     1      -2.241   2.138   0.995  1.00  0.00     0.016 C 
HETATM    5  C9  UNL     1      -0.981   1.039   2.551  1.00  0.00     0.036 C 
HETATM    6  C10 UNL     1       0.409   1.489   2.177  1.00  0.00    -0.027 C 
HETATM    7  C11 UNL     1       0.843   2.149   0.973  1.00  0.00     0.007 C 
HETATM    8  C12 UNL     1       1.309   1.524  -0.281  1.00  0.00     0.081 C 
HETATM    9  C13 UNL     1       1.335   2.707  -1.298  1.00  0.00     0.051 C 
HETATM   10  O4  UNL     1       0.529   0.602  -0.983  1.00  0.00    -0.346 OA
HETATM   11  C21 UNL     1      -0.735   0.696  -0.639  1.00  0.00     0.270 C 
HETATM   12  O5  UNL     1      -1.862   0.304  -1.210  1.00  0.00    -0.350 OA
HETATM   13  C22 UNL     1      -0.809  -0.067   0.629  1.00  0.00     0.085 C 
HETATM   14  C23 UNL     1      -1.217  -1.528   0.361  1.00  0.00     0.083 C 
HETATM   15  C24 UNL     1      -0.129  -2.217  -0.426  1.00  0.00     0.049 C 
HETATM   16  C25 UNL     1      -0.381  -3.681  -0.085  1.00  0.00     0.114 C 
HETATM   17  C26 UNL     1      -0.829  -3.595   1.313  1.00  0.00     0.259 C 
HETATM   18  O6  UNL     1      -0.915  -4.506   2.199  1.00  0.00    -0.265 OA
HETATM   19  O7  UNL     1      -1.171  -2.294   1.552  1.00  0.00    -0.309 OA
HETATM   20  C27 UNL     1      -2.456  -1.713  -0.451  1.00  0.00     0.077 C 
ENDROOT
BRANCH   8  21
HETATM   21  C14 UNL     1       2.769   1.148  -0.256  1.00  0.00     0.080 C 
BRANCH  21  22
HETATM   22  C15 UNL     1       3.325   0.555  -1.482  1.00  0.00     0.178 C 
BRANCH  22  23
HETATM   23  O1  UNL     1       2.697  -0.620  -1.846  1.00  0.00    -0.389 OA
ATOM     24  H1  UNL     1       3.056  -1.003  -2.638  1.00  0.00     0.210 HD
ENDBRANCH  22  23
BRANCH  22  25
HETATM   25  C16 UNL     1       4.769   0.179  -1.249  1.00  0.00     0.084 A 
HETATM   26  C17 UNL     1       5.900   0.832  -1.671  1.00  0.00     0.040 A 
HETATM   27  C18 UNL     1       7.012   0.148  -1.239  1.00  0.00     0.066 A 
HETATM   28  C19 UNL     1       6.483  -0.943  -0.539  1.00  0.00     0.185 A 
HETATM   29  O3  UNL     1       5.190  -0.880  -0.573  1.00  0.00    -0.290 OA
BRANCH  28  30
HETATM   30  O2  UNL     1       7.307  -1.894   0.065  1.00  0.00    -0.335 OA
HETATM   31  C20 UNL     1       8.706  -1.837   0.022  1.00  0.00     0.212 C 
ENDBRANCH  28  30
ENDBRANCH  22  25
ENDBRANCH  21  22
ENDBRANCH   8  21
BRANCH   1  32
HETATM   32  C4  UNL     1      -4.180  -0.030  -1.148  1.00  0.00     0.038 C 
BRANCH  32  33
HETATM   33  C3  UNL     1      -5.281  -0.940  -0.645  1.00  0.00     0.002 C 
BRANCH  33  34
HETATM   34  C2  UNL     1      -6.519  -0.579  -1.479  1.00  0.00    -0.004 C 
HETATM   35  C1  UNL     1      -6.837   0.867  -1.249  1.00  0.00     0.005 C 
ENDBRANCH  33  34
ENDBRANCH  32  33
ENDBRANCH   1  32
TORSDOF 8
