REMARK  8 active torsions:
REMARK  status: ('A' for Active; 'I' for Inactive)
REMARK    1  A    between atoms: C2_2  and  C3_3 
REMARK    2  A    between atoms: C3_3  and  C4_4 
REMARK    3  A    between atoms: C4_4  and  O1_5 
REMARK    4  A    between atoms: O1_5  and  C5_6 
REMARK    5  A    between atoms: C6_7  and  O2_8 
REMARK    6  A    between atoms: C9_11  and  O3_12 
REMARK    7  A    between atoms: C12_16  and  O4_17 
REMARK    8  A    between atoms: O4_17  and  C13_18 
ROOT
HETATM    1  C5  UNL     1       1.619  -1.425  -0.454  1.00  0.00     0.114 A 
HETATM    2  C6  UNL     1       2.373  -2.110  -1.416  1.00  0.00     0.104 A 
HETATM    3  C8  UNL     1       2.203  -1.870  -2.755  1.00  0.00     0.076 A 
HETATM    4  C9  UNL     1       1.275  -0.941  -3.131  1.00  0.00     0.075 A 
HETATM    5  C10 UNL     1       0.508  -0.249  -2.188  1.00  0.00    -0.010 A 
HETATM    6  C11 UNL     1       0.685  -0.505  -0.827  1.00  0.00     0.052 A 
HETATM    7  C12 UNL     1      -0.285   0.069   0.207  1.00  0.00     0.235 C 
HETATM    8  O5  UNL     1      -0.592  -1.040   1.030  1.00  0.00    -0.309 OA
HETATM    9  C16 UNL     1      -1.559  -1.870   0.595  1.00  0.00     0.197 C 
HETATM   10  C17 UNL     1      -1.248  -3.293   1.107  1.00  0.00     0.082 C 
HETATM   11  C18 UNL     1      -2.954  -1.614   1.100  1.00  0.00     0.072 C 
HETATM   12  C19 UNL     1      -3.402  -0.225   1.051  1.00  0.00     0.014 C 
HETATM   13  C20 UNL     1      -2.828   0.591  -0.071  1.00  0.00     0.033 C 
HETATM   14  C21 UNL     1      -3.294   2.037   0.029  1.00  0.00    -0.011 C 
HETATM   15  C22 UNL     1      -4.825   1.948   0.210  1.00  0.00     0.010 C 
HETATM   16  C23 UNL     1      -3.086   2.817  -1.231  1.00  0.00     0.005 C 
HETATM   17  C24 UNL     1      -2.454   1.952  -2.265  1.00  0.00     0.009 C 
HETATM   18  C25 UNL     1      -1.181   1.380  -1.621  1.00  0.00     0.034 C 
HETATM   19  C26 UNL     1      -0.437   0.744  -2.757  1.00  0.00     0.050 C 
HETATM   20  C27 UNL     1      -1.521   0.301  -0.599  1.00  0.00     0.165 C 
HETATM   21  O6  UNL     1      -1.692  -0.877  -1.412  1.00  0.00    -0.220 OA
HETATM   22  O7  UNL     1      -1.601  -1.968  -0.765  1.00  0.00    -0.200 OA
ENDROOT
BRANCH   1  23
HETATM   23  O1  UNL     1       1.868  -1.725   0.868  1.00  0.00    -0.347 OA
BRANCH  23  24
HETATM   24  C4  UNL     1       3.091  -1.350   1.411  1.00  0.00     0.179 C 
BRANCH  24  25
HETATM   25  C3  UNL     1       3.586   0.026   1.330  1.00  0.00     0.053 C 
BRANCH  25  26
HETATM   26  C2  UNL     1       4.944   0.066   2.008  1.00  0.00    -0.035 C 
HETATM   27  C1  UNL     1       6.036   0.423   1.379  1.00  0.00     0.007 C 
ENDBRANCH  25  26
ENDBRANCH  24  25
ENDBRANCH  23  24
ENDBRANCH   1  23
BRANCH   2  28
HETATM   28  O2  UNL     1       3.293  -3.039  -0.947  1.00  0.00    -0.353 OA
HETATM   29  C7  UNL     1       4.118  -3.804  -1.771  1.00  0.00     0.210 C 
ENDBRANCH   2  28
BRANCH   7  30
HETATM   30  O4  UNL     1       0.289   1.004   0.903  1.00  0.00    -0.344 OA
BRANCH  30  31
HETATM   31  C13 UNL     1      -0.096   1.717   1.933  1.00  0.00     0.117 C 
HETATM   32  C14 UNL     1       0.512   1.479   3.312  1.00  0.00     0.039 C 
HETATM   33  C15 UNL     1      -0.016   3.203   1.686  1.00  0.00     0.039 C 
ENDBRANCH  30  31
ENDBRANCH   7  30
BRANCH   4  34
HETATM   34  O3  UNL     1       1.086  -0.673  -4.500  1.00  0.00    -0.360 OA
ATOM     35  H3  UNL     1       0.441  -0.027  -4.762  1.00  0.00     0.217 HD
ENDBRANCH   4  34
TORSDOF 8
