REMARK  0 active torsions:
REMARK  status: ('A' for Active; 'I' for Inactive)
ROOT
HETATM    1  C1  UNL     1       1.657   0.871   0.836  1.00  0.00     0.002 C 
HETATM    2  C2  UNL     1       1.047   1.885  -0.118  1.00  0.00     0.030 C 
HETATM    3  C3  UNL     1      -0.442   1.834  -0.009  1.00  0.00     0.273 C 
HETATM    4  N1  UNL     1      -1.068   0.767  -0.710  1.00  0.00     0.098 N 
HETATM    5  C4  UNL     1      -2.274   0.378  -0.059  1.00  0.00     0.299 C 
HETATM    6  C5  UNL     1      -2.156  -0.814   0.833  1.00  0.00     0.199 C 
HETATM    7  O1  UNL     1      -0.834  -1.092   1.098  1.00  0.00    -0.376 OA
HETATM    8  C6  UNL     1      -0.050  -1.284  -0.001  1.00  0.00     0.094 A 
HETATM    9  C7  UNL     1       1.395  -1.554   0.231  1.00  0.00     0.040 C 
HETATM   10  C8  UNL     1       2.252  -0.304   0.130  1.00  0.00     0.003 C 
HETATM   11  C9  UNL     1      -0.687  -1.685  -1.270  1.00  0.00     0.079 A 
HETATM   12  C10 UNL     1      -0.208  -0.302  -1.097  1.00  0.00     0.260 A 
ENDROOT
TORSDOF 0
