REMARK  0 active torsions:
REMARK  status: ('A' for Active; 'I' for Inactive)
ROOT
HETATM    1  N1  UNL     1       3.407  -0.635   1.490  1.00  0.00    -0.197 NA
HETATM    2  C1  UNL     1       2.740  -0.401   0.571  1.00  0.00     0.069 C 
HETATM    3  C2  UNL     1       1.872  -0.118  -0.590  1.00  0.00     0.131 C 
HETATM    4  C3  UNL     1       1.263   1.252  -0.471  1.00  0.00     0.025 C 
HETATM    5  C4  UNL     1       0.321   1.417   0.663  1.00  0.00     0.006 C 
HETATM    6  C5  UNL     1      -1.083   1.059   0.459  1.00  0.00    -0.012 C 
HETATM    7  C6  UNL     1      -1.425  -0.094   1.418  1.00  0.00     0.024 C 
HETATM    8  C7  UNL     1      -0.462  -1.237   1.059  1.00  0.00     0.122 C 
HETATM    9  N2  UNL     1      -0.300  -1.283  -0.309  1.00  0.00    -0.392 N 
HETATM   10  C8  UNL     1      -1.421  -0.874  -1.089  1.00  0.00     0.122 C 
HETATM   11  C9  UNL     1      -1.525   0.647  -0.890  1.00  0.00     0.024 C 
HETATM   12  C10 UNL     1       0.945  -1.200  -0.930  1.00  0.00     0.077 C 
ENDROOT
TORSDOF 0
