REMARK  0 active torsions:
REMARK  status: ('A' for Active; 'I' for Inactive)
ROOT
HETATM    1  C1  UNL     1       2.015  -0.681  -0.382  1.00  0.00     0.003 C 
HETATM    2  C2  UNL     1       1.920   0.497   0.528  1.00  0.00     0.003 C 
HETATM    3  C3  UNL     1       1.092   1.641  -0.075  1.00  0.00     0.041 C 
HETATM    4  C4  UNL     1      -0.302   1.330  -0.159  1.00  0.00     0.094 A 
HETATM    5  O1  UNL     1      -0.893   1.319   1.225  1.00  0.00    -0.368 OA
HETATM    6  C5  UNL     1      -1.562   1.560   0.054  1.00  0.00     0.164 A 
HETATM    7  C6  UNL     1      -2.019   0.248  -0.611  1.00  0.00     0.051 A 
HETATM    8  C7  UNL     1      -2.426  -0.827   0.361  1.00  0.00     0.176 C 
HETATM    9  O2  UNL     1      -1.422  -1.822   0.260  1.00  0.00    -0.385 OA
HETATM   10  C8  UNL     1      -0.288  -1.062   0.279  1.00  0.00     0.129 C 
HETATM   11  C9  UNL     1       0.986  -1.768  -0.034  1.00  0.00     0.032 C 
HETATM   12  C10 UNL     1      -0.539  -0.030  -0.772  1.00  0.00     0.060 A 
ENDROOT
TORSDOF 0
