REMARK  11 active torsions:
REMARK  status: ('A' for Active; 'I' for Inactive)
REMARK    1  A    between atoms: C2_2  and  C3_3 
REMARK    2  A    between atoms: C5_8  and  C6_9 
REMARK    3  A    between atoms: C6_9  and  C7_10 
REMARK    4  A    between atoms: C7_10  and  C8_11 
REMARK    5  A    between atoms: C8_11  and  N2_12 
REMARK    6  A    between atoms: C10_17  and  O2_18 
REMARK    7  A    between atoms: O2_18  and  C11_19 
REMARK    8  A    between atoms: C11_19  and  C12_20 
REMARK    9  A    between atoms: C12_20  and  N5_21 
REMARK   10  A    between atoms: C12_20  and  C13_25 
REMARK   11  A    between atoms: C13_25  and  O3_26 
ROOT
HETATM    1  C3  UNL     1      -1.960   2.028  -0.313  1.00  0.00     0.108 C 
HETATM    2  C4  UNL     1      -1.108   3.156  -0.730  1.00  0.00     0.224 C 
HETATM    3  O1  UNL     1      -1.435   4.380  -0.653  1.00  0.00    -0.273 OA
HETATM    4  N1  UNL     1       0.105   2.599  -1.217  1.00  0.00    -0.354 N 
ATOM      5  H1  UNL     1       0.986   3.110  -1.279  1.00  0.00     0.163 HD
HETATM    6  C5  UNL     1      -0.061   1.233  -1.609  1.00  0.00     0.114 C 
HETATM    7  C10 UNL     1      -1.426   0.872  -1.093  1.00  0.00     0.157 C 
ENDROOT
BRANCH   7   8
HETATM    8  O2  UNL     1      -1.455  -0.322  -0.409  1.00  0.00    -0.381 OA
BRANCH   8   9
HETATM    9  C11 UNL     1      -2.270  -1.256  -1.054  1.00  0.00     0.203 C 
BRANCH   9  10
HETATM   10  C12 UNL     1      -2.321  -2.563  -0.336  1.00  0.00     0.230 C 
BRANCH  10  11
HETATM   11  N5  UNL     1      -1.005  -3.170  -0.221  1.00  0.00    -0.071 N 
ATOM     12  H53 UNL     1      -0.560  -3.265  -1.134  1.00  0.00     0.274 HD
ATOM     13  H52 UNL     1      -0.340  -2.532   0.216  1.00  0.00     0.274 HD
ATOM     14  H51 UNL     1      -1.040  -4.063   0.270  1.00  0.00     0.274 HD
ENDBRANCH  10  11
BRANCH  10  15
HETATM   15  C13 UNL     1      -2.939  -2.431   1.042  1.00  0.00     0.199 C 
BRANCH  15  16
HETATM   16  O3  UNL     1      -4.202  -1.847   0.909  1.00  0.00    -0.399 OA
ATOM     17  H3  UNL     1      -4.589  -1.764   1.773  1.00  0.00     0.209 HD
ENDBRANCH  15  16
ENDBRANCH  10  15
ENDBRANCH   9  10
ENDBRANCH   8   9
ENDBRANCH   7   8
BRANCH   1  18
HETATM   18  C2  UNL     1      -1.903   1.809   1.182  1.00  0.00     0.012 C 
HETATM   19  C1  UNL     1      -2.389   3.080   1.860  1.00  0.00     0.006 C 
ENDBRANCH   1  18
BRANCH   6  20
HETATM   20  C6  UNL     1       1.001   0.311  -1.062  1.00  0.00     0.029 C 
BRANCH  20  21
HETATM   21  C7  UNL     1       2.367   0.738  -1.540  1.00  0.00     0.022 C 
BRANCH  21  22
HETATM   22  C8  UNL     1       3.460  -0.140  -1.029  1.00  0.00     0.122 C 
BRANCH  22  23
HETATM   23  N2  UNL     1       3.536  -0.163   0.402  1.00  0.00    -0.367 N 
HETATM   24  C9  UNL     1       4.437  -0.874   0.991  1.00  0.00     0.196 C 
HETATM   25  N3  UNL     1       5.354  -1.633   0.235  1.00  0.00    -0.067 NA
HETATM   26  N4  UNL     1       4.538  -0.918   2.396  1.00  0.00    -0.067 NA
ATOM     27  H2  UNL     1       2.877   0.384   0.956  1.00  0.00     0.161 HD
ENDBRANCH  22  23
ENDBRANCH  21  22
ENDBRANCH  20  21
ENDBRANCH   6  20
TORSDOF 11
