REMARK  11 active torsions:
REMARK  status: ('A' for Active; 'I' for Inactive)
REMARK    1  A    between atoms: C1_2  and  O1_3 
REMARK    2  A    between atoms: N2_5  and  C2_7 
REMARK    3  A    between atoms: C2_7  and  C3_8 
REMARK    4  A    between atoms: C3_8  and  C4_9 
REMARK    5  A    between atoms: C4_9  and  C5_10 
REMARK    6  A    between atoms: C5_10  and  N3_11 
REMARK    7  A    between atoms: N3_11  and  C6_14 
REMARK    8  A    between atoms: C6_14  and  C7_15 
REMARK    9  A    between atoms: C7_15  and  C8_16 
REMARK   10  A    between atoms: C8_16  and  N4_17 
REMARK   11  A    between atoms: C12_27  and  O3_28 
ROOT
HETATM    1  C8  UNL     1       1.478  -0.485   0.072  1.00  0.00     0.139 C 
ENDROOT
BRANCH   1   2
HETATM    2  C7  UNL     1       0.376   0.438   0.583  1.00  0.00     0.048 C 
BRANCH   2   3
HETATM    3  C6  UNL     1      -0.952  -0.050   0.108  1.00  0.00     0.234 C 
BRANCH   3   4
HETATM    4  N3  UNL     1      -1.162  -1.390   0.551  1.00  0.00    -0.075 N 
ATOM      5  H32 UNL     1      -0.847  -1.521   1.512  1.00  0.00     0.277 HD
ATOM      6  H31 UNL     1      -0.528  -2.042   0.089  1.00  0.00     0.277 HD
BRANCH   4   7
HETATM    7  C5  UNL     1      -2.572  -1.791   0.382  1.00  0.00     0.232 C 
BRANCH   7   8
HETATM    8  C4  UNL     1      -3.331  -1.075   1.459  1.00  0.00     0.029 C 
BRANCH   8   9
HETATM    9  C3  UNL     1      -4.819  -1.333   1.445  1.00  0.00     0.021 C 
BRANCH   9  10
HETATM   10  C2  UNL     1      -5.373  -0.839   0.128  1.00  0.00     0.123 C 
BRANCH  10  11
HETATM   11  N2  UNL     1      -5.034   0.596   0.077  1.00  0.00    -0.359 N 
HETATM   12  C1  UNL     1      -5.602   1.311  -0.805  1.00  0.00     0.225 C 
HETATM   13  N1  UNL     1      -6.520   0.781  -1.712  1.00  0.00    -0.057 NA
ATOM     14  H2  UNL     1      -4.364   1.001   0.730  1.00  0.00     0.162 HD
BRANCH  12  15
HETATM   15  O1  UNL     1      -5.269   2.670  -0.836  1.00  0.00    -0.335 OA
ATOM     16  H1  UNL     1      -4.644   3.031  -0.218  1.00  0.00     0.220 HD
ENDBRANCH  12  15
ENDBRANCH  10  11
ENDBRANCH   9  10
ENDBRANCH   8   9
ENDBRANCH   7   8
ENDBRANCH   4   7
ENDBRANCH   3   4
ENDBRANCH   2   3
ENDBRANCH   1   2
BRANCH   1  17
HETATM   17  N4  UNL     1       2.693   0.041   0.587  1.00  0.00    -0.226 N 
HETATM   18  C9  UNL     1       3.794   0.299   0.022  1.00  0.00     0.683 A 
HETATM   19  N5  UNL     1       4.072   0.103  -1.344  1.00  0.00    -0.141 N 
HETATM   20  N7  UNL     1       4.830   0.841   0.866  1.00  0.00    -0.175 N 
HETATM   21  C10 UNL     1       5.346   0.423  -1.926  1.00  0.00     0.340 A 
ATOM     22  H5  UNL     1       3.341  -0.281  -1.943  1.00  0.00     0.189 HD
HETATM   23  O2  UNL     1       5.578   0.242  -3.150  1.00  0.00    -0.246 OA
HETATM   24  N6  UNL     1       6.342   0.959  -1.045  1.00  0.00    -0.292 N 
HETATM   25  C11 UNL     1       6.100   1.170   0.331  1.00  0.00     0.146 A 
ATOM     26  H6  UNL     1       7.258   1.197  -1.425  1.00  0.00     0.172 HD
HETATM   27  C12 UNL     1       7.037   1.662   1.110  1.00  0.00     0.180 C 
ATOM     28  H7  UNL     1       4.647   0.989   1.858  1.00  0.00     0.186 HD
ATOM     29  H4  UNL     1       2.674   0.246   1.586  1.00  0.00     0.177 HD
BRANCH  27  30
HETATM   30  O3  UNL     1       8.290   1.987   0.610  1.00  0.00    -0.369 OA
ATOM     31  H3  UNL     1       8.967   2.343   1.173  1.00  0.00     0.216 HD
ENDBRANCH  27  30
ENDBRANCH   1  17
TORSDOF 11
