REMARK  6 active torsions:
REMARK  status: ('A' for Active; 'I' for Inactive)
REMARK    1  A    between atoms: C1_2  and  C2_3 
REMARK    2  A    between atoms: C2_3  and  C3_4 
REMARK    3  A    between atoms: C4_5  and  C5_6 
REMARK    4  A    between atoms: C10_13  and  C11_14 
REMARK    5  A    between atoms: C11_14  and  C12_15 
REMARK    6  A    between atoms: C12_15  and  N1_16 
ROOT
HETATM    1  C5  UNL     1       2.373   1.388   0.109  1.00  0.00     0.025 A 
HETATM    2  C6  UNL     1       3.492   2.084   0.542  1.00  0.00     0.046 A 
HETATM    3  C7  UNL     1       3.563   3.460   0.537  1.00  0.00     0.057 A 
HETATM    4 CL2  UNL     1       4.948   4.379   1.071  1.00  0.00    -0.083 Cl
HETATM    5  C8  UNL     1       2.456   4.139   0.076  1.00  0.00     0.056 A 
HETATM    6 CL3  UNL     1       2.479   5.884   0.043  1.00  0.00    -0.083 Cl
HETATM    7  C9  UNL     1       1.330   3.481  -0.361  1.00  0.00     0.034 A 
HETATM    8  C10 UNL     1       1.297   2.108  -0.341  1.00  0.00    -0.036 A 
ENDROOT
BRANCH   8   9
HETATM    9  C11 UNL     1       0.077   1.383  -0.796  1.00  0.00     0.070 C 
BRANCH   9  10
HETATM   10  C12 UNL     1      -0.741   0.928   0.380  1.00  0.00     0.277 C 
BRANCH  10  11
HETATM   11  N1  UNL     1      -1.918   0.237  -0.028  1.00  0.00     0.088 N 
HETATM   12  C13 UNL     1      -1.632  -1.032  -0.597  1.00  0.00     0.272 C 
HETATM   13  C14 UNL     1      -2.861  -1.499  -1.377  1.00  0.00     0.030 C 
HETATM   14  C15 UNL     1      -3.983  -1.666  -0.395  1.00  0.00     0.003 C 
HETATM   15  C16 UNL     1      -3.667  -1.148   0.970  1.00  0.00     0.030 C 
HETATM   16  C17 UNL     1      -2.985   0.220   0.934  1.00  0.00     0.272 C 
ENDBRANCH  10  11
ENDBRANCH   9  10
ENDBRANCH   8   9
BRANCH   1  17
HETATM   17  C4  UNL     1       2.335  -0.048   0.113  1.00  0.00    -0.066 C 
HETATM   18  C3  UNL     1       2.330  -1.277   0.111  1.00  0.00    -0.100 C 
BRANCH  18  19
HETATM   19  C2  UNL     1       2.325  -2.740   0.139  1.00  0.00     0.109 C 
BRANCH  19  20
HETATM   20  C1  UNL     1       2.992  -3.226  -1.125  1.00  0.00     0.126 C 
HETATM   21 CL1  UNL     1       2.048  -2.601  -2.507  1.00  0.00    -0.130 Cl
ENDBRANCH  19  20
ENDBRANCH  18  19
ENDBRANCH   1  17
TORSDOF 6
