REMARK  3 active torsions:
REMARK  status: ('A' for Active; 'I' for Inactive)
REMARK    1  A    between atoms: C3_4  and  C4_5 
REMARK    2  A    between atoms: C4_5  and  N1_6 
REMARK    3  A    between atoms: C4_5  and  C8_13 
ROOT
HETATM    1  C4  UNL     1      -0.289   0.338  -0.264  1.00  0.00     0.120 C 
ENDROOT
BRANCH   1   2
HETATM    2  C3  UNL     1      -1.577  -0.286  -0.515  1.00  0.00    -0.030 A 
HETATM    3  C2  UNL     1      -1.941  -0.840  -1.715  1.00  0.00     0.053 A 
HETATM    4  C1  UNL     1      -3.187  -1.409  -1.857  1.00  0.00     0.140 A 
HETATM    5  F1  UNL     1      -3.564  -1.969  -3.059  1.00  0.00    -0.204 F 
HETATM    6  C16 UNL     1      -4.097  -1.447  -0.835  1.00  0.00     0.094 A 
HETATM    7  C15 UNL     1      -3.755  -0.897   0.379  1.00  0.00     0.059 A 
HETATM    8 CL2  UNL     1      -5.678  -2.171  -1.025  1.00  0.00    -0.079 Cl
HETATM    9  C14 UNL     1      -2.505  -0.335   0.500  1.00  0.00     0.035 A 
HETATM   10 CL1  UNL     1      -4.888  -0.915   1.742  1.00  0.00    -0.082 Cl
ENDBRANCH   1   2
BRANCH   1  11
HETATM   11  N1  UNL     1      -0.462   1.586   0.455  1.00  0.00    -0.371 N 
HETATM   12  C5  UNL     1       0.203   2.649   0.161  1.00  0.00     0.074 C 
HETATM   13  C6  UNL     1       0.277   4.024   0.660  1.00  0.00     0.095 C 
HETATM   14  N2  UNL     1       1.177   2.935  -0.807  1.00  0.00    -0.380 N 
HETATM   15  C7  UNL     1       0.824   4.335  -0.717  1.00  0.00     0.128 C 
ATOM     16  H2  UNL     1       1.849   2.388  -1.346  1.00  0.00     0.160 HD
ATOM     17  H1  UNL     1      -1.135   1.623   1.221  1.00  0.00     0.161 HD
ENDBRANCH   1  11
BRANCH   1  18
HETATM   18  C8  UNL     1       0.752  -0.505   0.376  1.00  0.00     0.013 C 
HETATM   19  C9  UNL     1       0.395  -1.044   1.725  1.00  0.00     0.007 C 
HETATM   20  C10 UNL     1       1.523  -1.989   2.159  1.00  0.00     0.000 C 
HETATM   21  C11 UNL     1       2.792  -1.701   1.415  1.00  0.00     0.000 C 
HETATM   22  C12 UNL     1       2.688  -1.920  -0.064  1.00  0.00     0.000 C 
HETATM   23  C13 UNL     1       1.292  -1.583  -0.542  1.00  0.00     0.007 C 
ENDBRANCH   1  18
TORSDOF 3
