REMARK  3 active torsions:
REMARK  status: ('A' for Active; 'I' for Inactive)
REMARK    1  A    between atoms: C3_3  and  C4_4 
REMARK    2  A    between atoms: C11_14  and  C12_15 
REMARK    3  A    between atoms: C12_15  and  C13_16 
ROOT
HETATM    1  C1  UNL     1       2.831  -0.296  -2.715  1.00  0.00     0.069 C 
HETATM    2  C2  UNL     1       1.739  -0.488  -1.750  1.00  0.00     0.015 C 
HETATM    3  C3  UNL     1       1.848  -0.293  -0.450  1.00  0.00    -0.025 C 
HETATM    4  C10 UNL     1       0.718  -0.529   0.509  1.00  0.00     0.055 C 
HETATM    5  C11 UNL     1      -0.607  -0.105  -0.221  1.00  0.00     0.083 C 
HETATM    6  C18 UNL     1      -0.631  -1.074  -1.314  1.00  0.00     0.226 C 
HETATM    7  O1  UNL     1      -1.426  -1.975  -1.505  1.00  0.00    -0.273 OA
HETATM    8  N1  UNL     1       0.457  -0.903  -2.267  1.00  0.00    -0.330 N 
ATOM      9  H1  UNL     1       0.318  -1.070  -3.264  1.00  0.00     0.168 HD
ENDROOT
BRANCH   3  10
HETATM   10  C4  UNL     1       3.088   0.140   0.162  1.00  0.00    -0.023 A 
HETATM   11  C5  UNL     1       3.113   1.169   1.081  1.00  0.00     0.057 A 
HETATM   12  C6  UNL     1       4.264   1.578   1.702  1.00  0.00     0.157 A 
HETATM   13  F1  UNL     1       4.266   2.581   2.595  1.00  0.00    -0.203 F 
HETATM   14  C7  UNL     1       5.438   0.940   1.396  1.00  0.00     0.176 A 
HETATM   15  F2  UNL     1       6.577   1.354   2.019  1.00  0.00    -0.201 F 
HETATM   16  C8  UNL     1       5.473  -0.097   0.483  1.00  0.00     0.076 A 
HETATM   17 CL1  UNL     1       6.991  -0.886   0.120  1.00  0.00    -0.081 Cl
HETATM   18  C9  UNL     1       4.273  -0.477  -0.123  1.00  0.00     0.039 A 
ENDBRANCH   3  10
BRANCH   5  19
HETATM   19  C12 UNL     1      -1.653  -0.037   0.794  1.00  0.00     0.019 C 
BRANCH  19  20
HETATM   20  C13 UNL     1      -2.985   0.434   0.362  1.00  0.00    -0.014 C 
HETATM   21  C14 UNL     1      -3.852   0.474   1.646  1.00  0.00     0.005 C 
HETATM   22  C15 UNL     1      -5.169  -0.073   1.241  1.00  0.00     0.000 C 
HETATM   23  C16 UNL     1      -5.232   0.109  -0.256  1.00  0.00     0.000 C 
HETATM   24  C17 UNL     1      -3.784  -0.381  -0.590  1.00  0.00     0.005 C 
ENDBRANCH  19  20
ENDBRANCH   5  19
TORSDOF 3
