REMARK  3 active torsions:
REMARK  status: ('A' for Active; 'I' for Inactive)
REMARK    1  A    between atoms: C2_2  and  C3_3 
REMARK       I    between atoms: C3_3  and  N1_5 
REMARK    2  A    between atoms: N1_5  and  C4_7 
REMARK    3  A    between atoms: C4_7  and  C5_8 
ROOT
HETATM    1  C3  UNL     1       1.388   0.532   0.749  1.00  0.00     0.235 C 
HETATM    2  O1  UNL     1       1.089  -0.231   1.695  1.00  0.00    -0.272 OA
HETATM    3  N1  UNL     1       0.555   1.452   0.097  1.00  0.00    -0.339 N 
ATOM      4  H1  UNL     1       0.988   2.007  -0.641  1.00  0.00     0.167 HD
ENDROOT
BRANCH   3   5
HETATM    5  C4  UNL     1      -0.801   1.698   0.341  1.00  0.00     0.073 C 
BRANCH   5   6
HETATM    6  C5  UNL     1      -1.852   0.703   0.016  1.00  0.00    -0.007 C 
HETATM    7  C6  UNL     1      -1.849   0.375  -1.484  1.00  0.00     0.019 C 
HETATM    8  C7  UNL     1      -3.011  -0.524  -1.763  1.00  0.00    -0.013 C 
HETATM    9  C8  UNL     1      -3.092  -1.748  -0.912  1.00  0.00     0.009 C 
HETATM   10  C12 UNL     1      -4.310   0.251  -1.543  1.00  0.00     0.009 C 
HETATM   11  C9  UNL     1      -3.101  -1.373   0.575  1.00  0.00    -0.013 C 
HETATM   12  C10 UNL     1      -4.323  -0.576   0.840  1.00  0.00     0.009 C 
HETATM   13  C14 UNL     1      -1.837  -0.539   0.793  1.00  0.00     0.019 C 
HETATM   14  C11 UNL     1      -4.358   0.625  -0.092  1.00  0.00    -0.013 C 
HETATM   15  C13 UNL     1      -3.184   1.464   0.233  1.00  0.00     0.019 C 
ENDBRANCH   5   6
ENDBRANCH   3   5
BRANCH   1  16
HETATM   16  C2  UNL     1       2.838   0.387   0.306  1.00  0.00     0.103 C 
HETATM   17  C1  UNL     1       3.447   1.745   0.127  1.00  0.00     0.032 C 
HETATM   18  C15 UNL     1       3.556  -0.307   1.434  1.00  0.00     0.025 C 
HETATM   19  C16 UNL     1       4.873  -0.914   1.042  1.00  0.00     0.002 C 
HETATM   20  C17 UNL     1       4.803  -1.651  -0.274  1.00  0.00     0.006 C 
HETATM   21  C18 UNL     1       4.226  -0.820  -1.370  1.00  0.00     0.080 C 
HETATM   22  C19 UNL     1       2.837  -0.373  -0.965  1.00  0.00     0.259 C 
HETATM   23  F1  UNL     1       2.279   0.400  -1.963  1.00  0.00    -0.205 F 
HETATM   24  F2  UNL     1       2.065  -1.527  -0.897  1.00  0.00    -0.205 F 
ENDBRANCH   1  16
TORSDOF 3
