REMARK  8 active torsions:
REMARK  status: ('A' for Active; 'I' for Inactive)
REMARK    1  A    between atoms: C2_2  and  N1_5 
REMARK       I    between atoms: N1_5  and  C5_7 
REMARK    2  A    between atoms: C5_7  and  C6_9 
REMARK    3  A    between atoms: C6_9  and  S1_10 
REMARK    4  A    between atoms: S1_10  and  S2_11 
REMARK    5  A    between atoms: S2_11  and  C7_12 
REMARK    6  A    between atoms: C9_15  and  O3_16 
REMARK    7  A    between atoms: C10_19  and  C11_20 
REMARK    8  A    between atoms: C13_23  and  O6_24 
ROOT
HETATM    1  C7  UNL     1       2.609   1.062  -0.795  1.00  0.00     0.157 A 
HETATM    2  O2  UNL     1       3.720   1.755  -0.838  1.00  0.00    -0.294 OA
HETATM    3  C8  UNL     1       4.739   1.007  -0.482  1.00  0.00     0.151 A 
HETATM    4  C9  UNL     1       6.094   0.962  -0.280  1.00  0.00     0.220 A 
HETATM    5  O4  UNL     1       6.373  -0.243   0.105  1.00  0.00    -0.282 OA
HETATM    6  C10 UNL     1       5.339  -1.012   0.181  1.00  0.00     0.132 A 
HETATM    7  C12 UNL     1       4.250  -0.246  -0.191  1.00  0.00     0.076 A 
HETATM    8  C13 UNL     1       2.890  -0.222  -0.388  1.00  0.00     0.123 A 
ENDROOT
BRANCH   1   9
HETATM    9  S2  UNL     1       1.024   1.758  -1.216  1.00  0.00    -0.029 SA
BRANCH   9  10
HETATM   10  S1  UNL     1       0.223   2.562   0.584  1.00  0.00    -0.081 SA
BRANCH  10  11
HETATM   11  C6  UNL     1      -0.738   1.243   1.349  1.00  0.00     0.189 C 
BRANCH  11  12
HETATM   12  C5  UNL     1      -1.903   0.948   0.474  1.00  0.00     0.228 C 
HETATM   13  N1  UNL     1      -2.869  -0.056   0.801  1.00  0.00    -0.352 N 
ATOM     14  H1  UNL     1      -2.744  -0.581   1.667  1.00  0.00     0.163 HD
HETATM   15  O1  UNL     1      -2.104   1.570  -0.609  1.00  0.00    -0.273 OA
BRANCH  13  16
HETATM   16  C2  UNL     1      -3.996  -0.364  -0.015  1.00  0.00     0.022 C 
HETATM   17  C1  UNL     1      -4.789  -1.479   0.657  1.00  0.00     0.037 C 
HETATM   18  C3  UNL     1      -4.930   0.821  -0.233  1.00  0.00     0.037 C 
HETATM   19  C4  UNL     1      -3.559  -0.820  -1.408  1.00  0.00     0.037 C 
ENDBRANCH  13  16
ENDBRANCH  11  12
ENDBRANCH  10  11
ENDBRANCH   9  10
ENDBRANCH   1   9
BRANCH   8  20
HETATM   20  O6  UNL     1       2.012  -1.269  -0.210  1.00  0.00    -0.357 OA
ATOM     21  H6  UNL     1       2.206  -2.156   0.071  1.00  0.00     0.218 HD
ENDBRANCH   8  20
BRANCH   4  22
HETATM   22  O3  UNL     1       6.962   2.022  -0.462  1.00  0.00    -0.339 OA
ATOM     23  H3  UNL     1       7.901   1.991  -0.322  1.00  0.00     0.220 HD
ENDBRANCH   4  22
BRANCH   6  24
HETATM   24  C11 UNL     1       5.221  -2.411   0.565  1.00  0.00     0.296 C 
HETATM   25  O5  UNL     1       6.270  -3.021   0.887  1.00  0.00    -0.299 OA
ENDBRANCH   6  24
TORSDOF 8
