REMARK  8 active torsions:
REMARK  status: ('A' for Active; 'I' for Inactive)
REMARK    1  A    between atoms: C2_2  and  C3_7 
REMARK    2  A    between atoms: N1_3  and  O1_5 
REMARK    3  A    between atoms: C5_9  and  C6_10 
REMARK    4  A    between atoms: C6_10  and  O3_15 
REMARK    5  A    between atoms: N2_11  and  O2_13 
REMARK    6  A    between atoms: O3_15  and  C7_16 
REMARK    7  A    between atoms: C7_16  and  C8_17 
REMARK    8  A    between atoms: C12_21  and  N3_22 
ROOT
HETATM    1  C3  UNL     1      -2.471   0.384  -0.490  1.00  0.00     0.007 A 
HETATM    2  C4  UNL     1      -1.246  -0.210  -0.608  1.00  0.00     0.033 A 
HETATM    3  C5  UNL     1      -0.837  -1.296   0.186  1.00  0.00     0.051 A 
HETATM    4  C12 UNL     1      -1.664  -1.822   1.131  1.00  0.00     0.118 A 
HETATM    5  C13 UNL     1      -2.934  -1.209   1.257  1.00  0.00     0.057 A 
HETATM    6  C14 UNL     1      -3.300  -0.158   0.475  1.00  0.00     0.026 A 
HETATM    7  S1  UNL     1      -4.922   0.567   0.690  1.00  0.00    -0.052 SA
ENDROOT
BRANCH   3   8
HETATM    8  C6  UNL     1       0.550  -1.757   0.007  1.00  0.00     0.175 C 
HETATM    9  N2  UNL     1       1.083  -2.591   0.761  1.00  0.00    -0.247 N 
ATOM     10  H2  UNL     1       0.477  -2.921   1.512  1.00  0.00     0.196 HD
BRANCH   9  11
HETATM   11  O2  UNL     1       2.303  -3.133   0.767  1.00  0.00    -0.288 OA
ATOM     12  H2  UNL     1       2.710  -3.770   1.343  1.00  0.00     0.244 HD
ENDBRANCH   9  11
BRANCH   8  13
HETATM   13  O3  UNL     1       1.294  -1.249  -1.038  1.00  0.00    -0.333 OA
BRANCH  13  14
HETATM   14  C7  UNL     1       2.658  -1.017  -0.994  1.00  0.00     0.182 C 
BRANCH  14  15
HETATM   15  C8  UNL     1       3.098  -0.053   0.081  1.00  0.00     0.010 C 
HETATM   16  C9  UNL     1       2.495   1.333  -0.036  1.00  0.00     0.007 C 
HETATM   17  C10 UNL     1       3.884   1.875   0.238  1.00  0.00     0.001 C 
HETATM   18  C11 UNL     1       4.427   0.570  -0.311  1.00  0.00     0.007 C 
ENDBRANCH  14  15
ENDBRANCH  13  14
ENDBRANCH   8  13
ENDBRANCH   3   8
BRANCH   4  19
HETATM   19  N3  UNL     1      -1.382  -2.913   1.978  1.00  0.00    -0.115 N 
HETATM   20  O4  UNL     1      -0.814  -3.975   1.787  1.00  0.00    -0.532 OA
HETATM   21  O5  UNL     1      -1.937  -2.795   3.273  1.00  0.00    -0.532 OA
ENDBRANCH   4  19
BRANCH   1  22
HETATM   22  C2  UNL     1      -2.935   1.513  -1.288  1.00  0.00     0.039 C 
HETATM   23  C1  UNL     1      -2.070   2.199  -2.276  1.00  0.00     0.071 C 
HETATM   24  N1  UNL     1      -4.122   1.954  -1.105  1.00  0.00    -0.273 N 
ATOM     25  H1  UNL     1      -4.732   1.491  -0.431  1.00  0.00     0.194 HD
BRANCH  24  26
HETATM   26  O1  UNL     1      -4.582   3.029  -1.794  1.00  0.00    -0.290 OA
ATOM     27  H1  UNL     1      -5.463   3.356  -1.658  1.00  0.00     0.244 HD
ENDBRANCH  24  26
ENDBRANCH   1  22
TORSDOF 8
