REMARK  8 active torsions:
REMARK  status: ('A' for Active; 'I' for Inactive)
REMARK    1  A    between atoms: C2_2  and  C3_3 
REMARK    2  A    between atoms: C3_3  and  O1_4 
REMARK    3  A    between atoms: O1_4  and  C4_5 
REMARK    4  A    between atoms: C7_9  and  N1_10 
REMARK    5  A    between atoms: C9_14  and  O5_15 
REMARK    6  A    between atoms: C11_18  and  O6_19 
REMARK    7  A    between atoms: C14_23  and  O7_24 
REMARK    8  A    between atoms: C16_26  and  O8_27 
ROOT
HETATM    1  C4  UNL     1       1.111   0.649   0.316  1.00  0.00     0.102 A 
HETATM    2  C5  UNL     1       1.146   1.555   1.437  1.00  0.00     0.039 A 
HETATM    3  C6  UNL     1       2.219   2.156   2.042  1.00  0.00     0.160 A 
HETATM    4  O2  UNL     1       1.749   2.888   3.003  1.00  0.00    -0.299 OA
HETATM    5  C7  UNL     1       0.413   2.813   3.069  1.00  0.00     0.228 A 
HETATM    6  C8  UNL     1       0.013   1.955   2.055  1.00  0.00     0.070 A 
HETATM    7  C9  UNL     1      -1.266   1.516   1.649  1.00  0.00     0.095 A 
HETATM    8  C10 UNL     1      -1.275   0.638   0.556  1.00  0.00     0.048 A 
HETATM    9  C11 UNL     1      -2.519   0.146   0.099  1.00  0.00     0.088 A 
HETATM   10  C12 UNL     1      -2.621  -0.726  -0.948  1.00  0.00     0.008 A 
HETATM   11  C13 UNL     1      -3.942  -1.254  -1.406  1.00  0.00     0.054 C 
HETATM   12  C14 UNL     1      -1.465  -1.133  -1.582  1.00  0.00     0.111 A 
HETATM   13  C16 UNL     1      -0.242  -0.662  -1.158  1.00  0.00     0.113 A 
HETATM   14  C17 UNL     1      -0.124   0.229  -0.079  1.00  0.00     0.051 A 
ENDROOT
BRANCH   1  15
HETATM   15  O1  UNL     1       2.309   0.373  -0.136  1.00  0.00    -0.321 OA
BRANCH  15  16
HETATM   16  C3  UNL     1       3.452  -0.170  -0.322  1.00  0.00     0.141 C 
BRANCH  16  17
HETATM   17  C2  UNL     1       3.929  -1.255  -1.214  1.00  0.00     0.014 C 
HETATM   18  C1  UNL     1       4.880  -1.122  -2.055  1.00  0.00     0.013 C 
ENDBRANCH  16  17
ENDBRANCH  15  16
ENDBRANCH   1  15
BRANCH  13  19
HETATM   19  O8  UNL     1       0.870  -1.071  -1.806  1.00  0.00    -0.357 OA
ATOM     20  H8  UNL     1       1.713  -0.746  -1.514  1.00  0.00     0.217 HD
ENDBRANCH  13  19
BRANCH   5  21
HETATM   21  N1  UNL     1      -0.384   3.488   4.006  1.00  0.00    -0.089 N 
HETATM   22  O3  UNL     1      -1.577   3.532   4.144  1.00  0.00    -0.530 OA
HETATM   23  O4  UNL     1       0.340   4.275   4.947  1.00  0.00    -0.530 OA
ENDBRANCH   5  21
BRANCH   7  24
HETATM   24  O5  UNL     1      -2.370   1.919   2.275  1.00  0.00    -0.359 OA
ATOM     25  H5  UNL     1      -3.231   1.624   2.002  1.00  0.00     0.217 HD
ENDBRANCH   7  24
BRANCH   9  26
HETATM   26  O6  UNL     1      -3.644   0.597   0.766  1.00  0.00    -0.359 OA
ATOM     27  H6  UNL     1      -4.480   0.266   0.459  1.00  0.00     0.217 HD
ENDBRANCH   9  26
BRANCH  12  28
HETATM   28  O7  UNL     1      -1.531  -2.022  -2.657  1.00  0.00    -0.352 OA
HETATM   29  C15 UNL     1      -1.431  -3.413  -2.342  1.00  0.00     0.210 C 
ENDBRANCH  12  28
TORSDOF 8
