REMARK  9 active torsions:
REMARK  status: ('A' for Active; 'I' for Inactive)
REMARK    1  A    between atoms: C2_2  and  O1_4 
REMARK    2  A    between atoms: O1_4  and  C4_5 
REMARK    3  A    between atoms: C5_7  and  C6_8 
REMARK    4  A    between atoms: C10_15  and  N3_16 
REMARK    5  A    between atoms: N3_16  and  C11_18 
REMARK    6  A    between atoms: C13_20  and  N4_21 
REMARK    7  A    between atoms: N4_21  and  O2_23 
REMARK    8  A    between atoms: C14_25  and  O3_26 
REMARK    9  A    between atoms: C15_28  and  O4_29 
ROOT
HETATM    1  C6  UNL     1       0.614  -0.329   0.514  1.00  0.00     0.083 A 
HETATM    2  N1  UNL     1       0.774  -0.005   1.844  1.00  0.00    -0.361 N 
ATOM      3  H1  UNL     1      -0.062   0.094   2.420  1.00  0.00     0.165 HD
HETATM    4  C7  UNL     1       1.950   0.184   2.412  1.00  0.00     0.113 A 
HETATM    5  C8  UNL     1       3.107   0.062   1.678  1.00  0.00     0.089 A 
HETATM    6  C9  UNL     1       4.334   0.286   2.366  1.00  0.00     0.103 C 
HETATM    7  N2  UNL     1       5.313   0.482   2.938  1.00  0.00    -0.191 NA
HETATM    8  C10 UNL     1       3.018  -0.259   0.354  1.00  0.00     0.085 A 
HETATM    9  C13 UNL     1       1.727  -0.453  -0.209  1.00  0.00     0.110 A 
ENDROOT
BRANCH   8  10
HETATM   10  N3  UNL     1       3.989  -0.393  -0.381  1.00  0.00    -0.367 N 
ATOM     11  H3  UNL     1       3.621  -0.631  -1.302  1.00  0.00     0.165 HD
BRANCH  10  12
HETATM   12  C11 UNL     1       5.354  -0.363  -0.506  1.00  0.00     0.057 C 
HETATM   13  C12 UNL     1       5.865   1.046  -0.767  1.00  0.00     0.054 C 
ENDBRANCH  10  12
ENDBRANCH   8  10
BRANCH   9  14
HETATM   14  N4  UNL     1       1.682  -0.851  -1.581  1.00  0.00    -0.265 N 
ATOM     15  H4  UNL     1       0.874  -1.351  -1.951  1.00  0.00     0.194 HD
BRANCH  14  16
HETATM   16  O2  UNL     1       2.639  -0.578  -2.309  1.00  0.00    -0.289 OA
ATOM     17  H2  UNL     1       2.609  -0.843  -3.221  1.00  0.00     0.244 HD
ENDBRANCH  14  16
ENDBRANCH   9  14
BRANCH   1  18
HETATM   18  C5  UNL     1      -0.791  -0.429   0.043  1.00  0.00     0.072 A 
HETATM   19  S1  UNL     1      -2.149  -0.673   1.116  1.00  0.00    -0.057 SA
HETATM   20  C4  UNL     1      -3.412  -0.627   0.004  1.00  0.00     0.153 A 
HETATM   21  C15 UNL     1      -2.768  -0.422  -1.182  1.00  0.00     0.141 A 
HETATM   22  C14 UNL     1      -1.415  -0.321  -1.151  1.00  0.00     0.122 A 
BRANCH  20  23
HETATM   23  O1  UNL     1      -4.797  -0.766   0.238  1.00  0.00    -0.306 OA
BRANCH  23  24
HETATM   24  C2  UNL     1      -5.568   0.377   0.509  1.00  0.00     0.041 C 
HETATM   25  C1  UNL     1      -5.673   0.744   1.770  1.00  0.00     0.046 C 
HETATM   26  C3  UNL     1      -6.229   1.131  -0.559  1.00  0.00     0.076 C 
ENDBRANCH  23  24
ENDBRANCH  20  23
BRANCH  21  27
HETATM   27  O4  UNL     1      -3.561  -0.330  -2.368  1.00  0.00    -0.355 OA
ATOM     28  H4  UNL     1      -3.113  -0.187  -3.193  1.00  0.00     0.218 HD
ENDBRANCH  21  27
BRANCH  22  29
HETATM   29  O3  UNL     1      -0.691  -0.099  -2.359  1.00  0.00    -0.357 OA
ATOM     30  H3  UNL     1      -1.130  -0.023  -3.198  1.00  0.00     0.218 HD
ENDBRANCH  22  29
ENDBRANCH   1  18
TORSDOF 9
