REMARK  6 active torsions:
REMARK  status: ('A' for Active; 'I' for Inactive)
REMARK    1  A    between atoms: S1_2  and  C2_3 
REMARK    2  A    between atoms: C2_3  and  C3_4 
REMARK    3  A    between atoms: C3_4  and  C4_5 
REMARK    4  A    between atoms: C8_11  and  N2_12 
REMARK    5  A    between atoms: C9_15  and  N3_16 
REMARK    6  A    between atoms: C10_19  and  O5_20 
ROOT
HETATM    1  C4  UNL     1       1.118  -0.687  -0.222  1.00  0.00     0.097 C 
HETATM    2  C5  UNL     1       1.481  -1.090  -1.646  1.00  0.00     0.062 C 
HETATM    3  N1  UNL     1      -0.050  -1.429   0.133  1.00  0.00    -0.363 N 
ATOM      4  H1  UNL     1       0.039  -2.394   0.451  1.00  0.00     0.162 HD
HETATM    5  C6  UNL     1      -1.331  -0.831   0.046  1.00  0.00     0.043 A 
HETATM    6  C7  UNL     1      -2.467  -1.625   0.263  1.00  0.00     0.068 A 
HETATM    7  C8  UNL     1      -3.732  -1.086   0.187  1.00  0.00     0.140 A 
HETATM    8  C9  UNL     1      -3.816   0.256  -0.109  1.00  0.00     0.169 A 
HETATM    9  C10 UNL     1      -2.705   1.042  -0.324  1.00  0.00     0.112 A 
HETATM   10  C11 UNL     1      -1.421   0.506  -0.250  1.00  0.00     0.026 A 
HETATM   11  C12 UNL     1      -0.218   1.308  -0.475  1.00  0.00     0.113 C 
HETATM   12  C13 UNL     1      -0.313   2.707   0.085  1.00  0.00     0.037 C 
HETATM   13  N4  UNL     1       0.989   0.723  -0.059  1.00  0.00    -0.389 N 
ATOM     14  H4  UNL     1       1.741   1.283   0.343  1.00  0.00     0.156 HD
ENDROOT
BRANCH   1  15
HETATM   15  C3  UNL     1       2.258  -1.142   0.669  1.00  0.00     0.063 C 
BRANCH  15  16
HETATM   16  C2  UNL     1       3.505  -0.440   0.186  1.00  0.00     0.077 C 
BRANCH  16  17
HETATM   17  S1  UNL     1       4.961  -0.863   1.133  1.00  0.00    -0.173 SA
HETATM   18  C1  UNL     1       6.378   0.042   0.463  1.00  0.00     0.089 C 
ENDBRANCH  16  17
ENDBRANCH  15  16
ENDBRANCH   1  15
BRANCH   7  19
HETATM   19  N2  UNL     1      -4.902  -1.867   0.398  1.00  0.00    -0.113 N 
HETATM   20  O1  UNL     1      -4.805  -2.865   1.136  1.00  0.00    -0.532 OA
HETATM   21  O2  UNL     1      -6.129  -1.606  -0.151  1.00  0.00    -0.532 OA
ENDBRANCH   7  19
BRANCH   9  22
HETATM   22  O5  UNL     1      -2.831   2.370  -0.617  1.00  0.00    -0.357 OA
ATOM     23  H5  UNL     1      -2.065   2.912  -0.765  1.00  0.00     0.217 HD
ENDBRANCH   9  22
BRANCH   8  24
HETATM   24  N3  UNL     1      -5.128   0.835  -0.190  1.00  0.00    -0.110 N 
HETATM   25  O3  UNL     1      -5.707   1.024   0.922  1.00  0.00    -0.532 OA
HETATM   26  O4  UNL     1      -5.720   1.167  -1.371  1.00  0.00    -0.532 OA
ENDBRANCH   8  24
TORSDOF 6
