REMARK  7 active torsions:
REMARK  status: ('A' for Active; 'I' for Inactive)
REMARK    1  A    between atoms: C2_2  and  C3_3 
REMARK    2  A    between atoms: C3_3  and  N1_5 
REMARK    3  A    between atoms: C5_6  and  N2_7 
REMARK    4  A    between atoms: C7_9  and  O1_10 
REMARK    5  A    between atoms: N3_12  and  C8_13 
REMARK    6  A    between atoms: C8_13  and  C9_14 
REMARK    7  A    between atoms: N4_15  and  O2_17 
ROOT
HETATM    1  N2  UNL     1       0.410  -0.121   0.194  1.00  0.00    -0.278 N 
HETATM    2  C6  UNL     1       1.302   0.775   0.707  1.00  0.00     0.157 A 
HETATM    3  C7  UNL     1       2.389   0.902  -0.102  1.00  0.00     0.161 A 
HETATM    4  N3  UNL     1       2.159   0.056  -1.147  1.00  0.00    -0.298 N 
HETATM    5  C10 UNL     1       0.971  -0.541  -0.944  1.00  0.00     0.188 A 
HETATM    6  S1  UNL     1       0.293  -1.636  -1.946  1.00  0.00    -0.040 SA
ENDROOT
BRANCH   1   7
HETATM    7  C5  UNL     1      -0.834  -0.499   0.775  1.00  0.00     0.141 A 
HETATM    8  N1  UNL     1      -1.962   0.253   0.810  1.00  0.00    -0.303 N 
HETATM    9  C13 UNL     1      -2.900  -0.501   1.458  1.00  0.00     0.180 A 
HETATM   10  N5  UNL     1      -2.337  -1.674   1.798  1.00  0.00    -0.333 N 
HETATM   11  S2  UNL     1      -4.425   0.003   1.737  1.00  0.00    -0.040 SA
HETATM   12  C11 UNL     1      -1.056  -1.712   1.392  1.00  0.00     0.052 A 
ATOM     13  H5  UNL     1      -2.814  -2.427   2.293  1.00  0.00     0.168 HD
HETATM   14  C12 UNL     1      -0.062  -2.803   1.553  1.00  0.00     0.072 C 
BRANCH   8  15
HETATM   15  C3  UNL     1      -2.133   1.555   0.283  1.00  0.00     0.089 C 
HETATM   16  C4  UNL     1      -2.299   2.631   1.348  1.00  0.00     0.033 C 
BRANCH  15  17
HETATM   17  C2  UNL     1      -3.238   1.685  -0.741  1.00  0.00     0.021 C 
HETATM   18  C1  UNL     1      -3.090   0.630  -1.800  1.00  0.00     0.007 C 
ENDBRANCH  15  17
ENDBRANCH   8  15
ENDBRANCH   1   7
BRANCH   3  19
HETATM   19  O1  UNL     1       3.474   1.724   0.121  1.00  0.00    -0.345 OA
ATOM     20  H1  UNL     1       4.233   1.813  -0.444  1.00  0.00     0.219 HD
ENDBRANCH   3  19
BRANCH   4  21
HETATM   21  C8  UNL     1       3.076  -0.123  -2.255  1.00  0.00     0.180 C 
BRANCH  21  22
HETATM   22  C9  UNL     1       4.036  -1.214  -1.953  1.00  0.00     0.107 C 
HETATM   23  N4  UNL     1       5.196  -0.951  -1.439  1.00  0.00    -0.283 N 
ATOM     24  H4  UNL     1       5.428   0.024  -1.249  1.00  0.00     0.192 HD
BRANCH  23  25
HETATM   25  O2  UNL     1       6.118  -1.898  -1.140  1.00  0.00    -0.291 OA
ATOM     26  H2  UNL     1       6.968  -1.705  -0.763  1.00  0.00     0.244 HD
ENDBRANCH  23  25
ENDBRANCH  21  22
ENDBRANCH   4  21
TORSDOF 7
