REMARK  7 active torsions:
REMARK  status: ('A' for Active; 'I' for Inactive)
REMARK    1  A    between atoms: C2_2  and  N1_3 
REMARK    2  A    between atoms: C2_2  and  C3_7 
REMARK    3  A    between atoms: C3_7  and  O1_8 
REMARK    4  A    between atoms: O1_8  and  C4_9 
REMARK    5  A    between atoms: C6_11  and  O2_12 
REMARK    6  A    between atoms: C12_20  and  C13_21 
REMARK    7  A    between atoms: C12_20  and  C14_23 
ROOT
HETATM    1  C4  UNL     1      -2.505   0.570   1.123  1.00  0.00     0.074 A 
HETATM    2  C5  UNL     1      -2.374  -0.674   0.593  1.00  0.00     0.074 A 
HETATM    3  C6  UNL     1      -1.207  -1.165   0.114  1.00  0.00     0.077 A 
HETATM    4  C7  UNL     1      -0.021  -0.414   0.129  1.00  0.00     0.010 A 
HETATM    5  C8  UNL     1      -0.129   0.829   0.655  1.00  0.00     0.080 A 
HETATM    6  C9  UNL     1      -1.329   1.340   1.149  1.00  0.00     0.074 A 
HETATM    7  O3  UNL     1       0.879   1.787   0.798  1.00  0.00    -0.350 OA
HETATM    8  C10 UNL     1       1.979   2.012  -0.105  1.00  0.00     0.176 C 
HETATM    9  C11 UNL     1       2.032   0.995  -1.156  1.00  0.00     0.044 C 
HETATM   10  C12 UNL     1       2.354  -0.440  -0.760  1.00  0.00     0.024 C 
HETATM   11  C20 UNL     1       1.096  -1.185  -0.454  1.00  0.00     0.061 C 
ENDROOT
BRANCH  10  12
HETATM   12  C13 UNL     1       2.702  -1.003  -2.163  1.00  0.00     0.237 C 
HETATM   13  F1  UNL     1       3.064  -2.300  -2.160  1.00  0.00    -0.254 F 
ENDBRANCH  10  12
BRANCH  10  14
HETATM   14  C14 UNL     1       3.445  -0.489   0.183  1.00  0.00     0.022 A 
HETATM   15  C15 UNL     1       4.711   0.001  -0.091  1.00  0.00     0.098 A 
HETATM   16  N2  UNL     1       4.993   0.574  -1.321  1.00  0.00    -0.098 NA
HETATM   17  C16 UNL     1       5.773  -0.040   0.805  1.00  0.00     0.182 A 
HETATM   18  F2  UNL     1       6.987   0.468   0.442  1.00  0.00    -0.201 F 
HETATM   19  C17 UNL     1       5.602  -0.592   2.052  1.00  0.00     0.198 A 
HETATM   20  F3  UNL     1       6.628  -0.637   2.932  1.00  0.00    -0.199 F 
HETATM   21  C18 UNL     1       4.368  -1.094   2.381  1.00  0.00     0.197 A 
HETATM   22  F4  UNL     1       4.193  -1.637   3.607  1.00  0.00    -0.199 F 
HETATM   23  C19 UNL     1       3.314  -1.034   1.445  1.00  0.00     0.167 A 
HETATM   24  F5  UNL     1       2.182  -1.555   1.884  1.00  0.00    -0.202 F 
ENDBRANCH  10  14
BRANCH   3  25
HETATM   25  O2  UNL     1      -1.135  -2.465  -0.425  1.00  0.00    -0.360 OA
ATOM     26  H2  UNL     1      -0.316  -2.810  -0.761  1.00  0.00     0.217 HD
ENDBRANCH   3  25
BRANCH   1  27
HETATM   27  O1  UNL     1      -3.654   1.127   1.618  1.00  0.00    -0.349 OA
BRANCH  27  28
HETATM   28  C3  UNL     1      -4.914   0.578   1.652  1.00  0.00     0.207 C 
BRANCH  28  29
HETATM   29  C2  UNL     1      -5.564   0.337   0.321  1.00  0.00     0.203 C 
HETATM   30  C1  UNL     1      -6.934  -0.266   0.610  1.00  0.00     0.042 C 
BRANCH  29  31
HETATM   31  N1  UNL     1      -5.705   1.598  -0.399  1.00  0.00    -0.073 N 
ATOM     32  H13 UNL     1      -6.260   1.491  -1.248  1.00  0.00     0.274 HD
ATOM     33  H12 UNL     1      -6.311   2.252   0.096  1.00  0.00     0.274 HD
ATOM     34  H11 UNL     1      -4.788   2.001  -0.592  1.00  0.00     0.274 HD
ENDBRANCH  29  31
ENDBRANCH  28  29
ENDBRANCH  27  28
ENDBRANCH   1  27
TORSDOF 7
