REMARK  9 active torsions:
REMARK  status: ('A' for Active; 'I' for Inactive)
REMARK    1  A    between atoms: N1_2  and  C2_3 
REMARK    2  A    between atoms: N1_2  and  C15_28 
REMARK    3  A    between atoms: C2_3  and  C3_4 
REMARK    4  A    between atoms: C3_4  and  O1_5 
REMARK    5  A    between atoms: C3_4  and  C4_7 
REMARK    6  A    between atoms: C6_9  and  O2_10 
REMARK    7  A    between atoms: N2_12  and  C7_13 
REMARK    8  A    between atoms: C8_14  and  O3_15 
REMARK    9  A    between atoms: C12_22  and  C13_23 
ROOT
HETATM    1  C4  UNL     1      -0.186  -0.148   0.927  1.00  0.00    -0.008 A 
HETATM    2  C5  UNL     1      -0.061  -0.571  -0.329  1.00  0.00     0.067 A 
HETATM    3  C6  UNL     1      -1.363  -0.739  -0.830  1.00  0.00     0.146 A 
HETATM    4  N2  UNL     1      -2.223  -0.418   0.120  1.00  0.00    -0.307 N 
HETATM    5  C14 UNL     1      -1.529  -0.050   1.214  1.00  0.00     0.108 A 
ENDROOT
BRANCH   4   6
HETATM    6  C7  UNL     1      -3.656  -0.456   0.047  1.00  0.00     0.038 C 
HETATM    7  C8  UNL     1      -4.167  -0.484  -1.336  1.00  0.00     0.170 C 
HETATM    8  C9  UNL     1      -5.677  -0.508  -1.423  1.00  0.00     0.116 C 
HETATM    9  C10 UNL     1      -6.407  -0.592  -0.148  1.00  0.00     0.247 C 
HETATM   10  F1  UNL     1      -7.646   0.051  -0.355  1.00  0.00    -0.206 F 
HETATM   11  F2  UNL     1      -6.784  -1.933   0.061  1.00  0.00    -0.206 F 
HETATM   12  C11 UNL     1      -5.804  -0.073   1.085  1.00  0.00     0.098 C 
HETATM   13  C12 UNL     1      -4.382   0.428   0.995  1.00  0.00     0.148 C 
BRANCH   7  14
HETATM   14  O3  UNL     1      -3.726   0.547  -2.164  1.00  0.00    -0.390 OA
ATOM     15  H3  UNL     1      -4.055   0.529  -3.055  1.00  0.00     0.210 HD
ENDBRANCH   7  14
BRANCH  13  16
HETATM   16  C13 UNL     1      -4.398   1.883   0.794  1.00  0.00     0.396 C 
HETATM   17  F3  UNL     1      -5.144   2.468   1.851  1.00  0.00    -0.170 F 
HETATM   18  F4  UNL     1      -3.180   2.521   0.855  1.00  0.00    -0.170 F 
HETATM   19  F5  UNL     1      -5.002   2.346  -0.356  1.00  0.00    -0.170 F 
ENDBRANCH  13  16
ENDBRANCH   4   6
BRANCH   3  20
HETATM   20  O2  UNL     1      -1.535  -1.187  -2.156  1.00  0.00    -0.346 OA
ATOM     21  H2  UNL     1      -2.415  -1.301  -2.495  1.00  0.00     0.219 HD
ENDBRANCH   3  20
BRANCH   1  22
HETATM   22  C3  UNL     1       0.900   0.185   1.905  1.00  0.00     0.181 C 
BRANCH  22  23
HETATM   23  C2  UNL     1       2.221  -0.268   1.385  1.00  0.00     0.309 C 
BRANCH  23  24
HETATM   24  N1  UNL     1       2.642   0.437   0.212  1.00  0.00     0.091 N 
HETATM   25  C1  UNL     1       2.931   1.823   0.605  1.00  0.00     0.310 C 
BRANCH  24  26
HETATM   26  C15 UNL     1       3.841  -0.193  -0.304  1.00  0.00     0.222 C 
HETATM   27  C16 UNL     1       4.858  -0.248   0.788  1.00  0.00     0.036 C 
HETATM   28  C17 UNL     1       6.248  -0.569   0.290  1.00  0.00     0.002 C 
HETATM   29  C18 UNL     1       6.241  -0.909  -1.187  1.00  0.00     0.000 C 
HETATM   30  C19 UNL     1       5.706   0.287  -1.915  1.00  0.00     0.002 C 
HETATM   31  C20 UNL     1       4.265   0.501  -1.538  1.00  0.00     0.036 C 
ENDBRANCH  24  26
ENDBRANCH  23  24
ENDBRANCH  22  23
BRANCH  22  32
HETATM   32  O1  UNL     1       0.594  -0.508   3.106  1.00  0.00    -0.389 OA
ATOM     33  H1  UNL     1      -0.248  -0.219   3.438  1.00  0.00     0.210 HD
ENDBRANCH  22  32
ENDBRANCH   1  22
TORSDOF 9
