REMARK  6 active torsions:
REMARK  status: ('A' for Active; 'I' for Inactive)
REMARK    1  A    between atoms: C2_2  and  O1_3 
REMARK    2  A    between atoms: O1_3  and  C3_4 
REMARK    3  A    between atoms: C5_6  and  O2_7 
REMARK    4  A    between atoms: C6_9  and  C7_10 
REMARK    5  A    between atoms: C7_10  and  C14_22 
REMARK    6  A    between atoms: N1_11  and  C8_13 
ROOT
HETATM    1  C7  UNL     1      -1.224   1.095   0.063  1.00  0.00     0.066 C 
HETATM    2  N1  UNL     1      -2.367   0.566   0.266  1.00  0.00    -0.356 N 
ATOM      3  H1  UNL     1      -3.166   1.198   0.318  1.00  0.00     0.166 HD
ENDROOT
BRANCH   1   4
HETATM    4  C6  UNL     1      -0.045   0.184  -0.017  1.00  0.00     0.205 C 
HETATM    5  C5  UNL     1       0.518   0.044  -1.392  1.00  0.00     0.158 C 
HETATM    6  C4  UNL     1       1.989   0.285  -1.257  1.00  0.00     0.095 C 
HETATM    7  C3  UNL     1       2.187   0.278   0.219  1.00  0.00     0.263 C 
HETATM    8  O3  UNL     1       0.976   0.618   0.783  1.00  0.00    -0.347 OA
BRANCH   5   9
HETATM    9  O2  UNL     1      -0.047   1.007  -2.225  1.00  0.00    -0.392 OA
ATOM     10  H2  UNL     1      -0.981   0.854  -2.311  1.00  0.00     0.210 HD
ENDBRANCH   5   9
BRANCH   7  11
HETATM   11  O1  UNL     1       2.685  -0.920   0.640  1.00  0.00    -0.362 OA
BRANCH  11  12
HETATM   12  C2  UNL     1       3.918  -0.871   1.247  1.00  0.00     0.166 C 
HETATM   13  C1  UNL     1       4.948  -0.328   0.288  1.00  0.00     0.033 C 
ENDBRANCH  11  12
ENDBRANCH   7  11
ENDBRANCH   1   4
BRANCH   1  14
HETATM   14  C14 UNL     1      -1.135   2.529  -0.112  1.00  0.00     0.095 C 
HETATM   15 CL3  UNL     1       0.427   3.312  -0.322  1.00  0.00    -0.079 Cl
HETATM   16  C15 UNL     1      -2.185   3.331  -0.095  1.00  0.00     0.139 C 
HETATM   17  N2  UNL     1      -2.062   4.758  -0.273  1.00  0.00    -0.087 NA
HETATM   18 CL4  UNL     1      -3.822   2.754   0.142  1.00  0.00    -0.066 Cl
ENDBRANCH   1  14
BRANCH   2  19
HETATM   19  C8  UNL     1      -2.629  -0.802   0.424  1.00  0.00     0.035 A 
HETATM   20  C9  UNL     1      -2.763  -1.595  -0.695  1.00  0.00     0.056 A 
HETATM   21  C10 UNL     1      -3.022  -2.949  -0.576  1.00  0.00     0.076 A 
HETATM   22 CL1  UNL     1      -3.194  -3.962  -2.001  1.00  0.00    -0.081 Cl
HETATM   23  C11 UNL     1      -3.152  -3.539   0.681  1.00  0.00     0.159 A 
HETATM   24  F1  UNL     1      -3.407  -4.869   0.824  1.00  0.00    -0.203 F 
HETATM   25  C12 UNL     1      -3.018  -2.749   1.805  1.00  0.00     0.076 A 
HETATM   26 CL2  UNL     1      -3.177  -3.463   3.405  1.00  0.00    -0.081 Cl
HETATM   27  C13 UNL     1      -2.757  -1.382   1.666  1.00  0.00     0.056 A 
ENDBRANCH   2  19
TORSDOF 6
