REMARK  7 active torsions:
REMARK  status: ('A' for Active; 'I' for Inactive)
REMARK    1  A    between atoms: C5_6  and  O1_7 
REMARK    2  A    between atoms: O1_7  and  C6_8 
REMARK    3  A    between atoms: C7_11  and  C8_12 
REMARK    4  A    between atoms: C8_12  and  C9_13 
REMARK    5  A    between atoms: C14_19  and  C15_20 
REMARK    6  A    between atoms: C14_19  and  C16_23 
REMARK    7  A    between atoms: C18_25  and  O2_27 
ROOT
HETATM    1  C8  UNL     1      -1.035  -0.273  -0.798  1.00  0.00     0.117 A 
HETATM    2  C10 UNL     1      -0.182   0.009   0.412  1.00  0.00     0.054 A 
HETATM    3  C11 UNL     1       0.800   1.034  -0.013  1.00  0.00     0.034 A 
HETATM    4  C12 UNL     1       0.458   1.317  -1.430  1.00  0.00     0.129 A 
HETATM    5  C13 UNL     1       1.778   0.701  -1.855  1.00  0.00     0.050 C 
HETATM    6  C14 UNL     1       2.179   0.653  -0.409  1.00  0.00     0.056 C 
HETATM    7  O3  UNL     1      -0.593   0.553  -1.790  1.00  0.00    -0.367 OA
ENDROOT
BRANCH   1   8
HETATM    8  C7  UNL     1      -2.469   0.066  -0.541  1.00  0.00     0.015 A 
HETATM    9  C5  UNL     1      -3.290  -0.586   0.343  1.00  0.00     0.108 A 
HETATM   10  C4  UNL     1      -4.629  -0.178   0.571  1.00  0.00     0.081 A 
HETATM   11  C3  UNL     1      -5.093   0.906  -0.127  1.00  0.00     0.036 A 
HETATM   12  N1  UNL     1      -5.440  -0.890   1.498  1.00  0.00    -0.099 NA
HETATM   13  C2  UNL     1      -4.299   1.587  -1.025  1.00  0.00    -0.059 A 
HETATM   14  C1  UNL     1      -4.824   2.760  -1.773  1.00  0.00     0.048 C 
HETATM   15  C20 UNL     1      -2.996   1.165  -1.226  1.00  0.00     0.020 A 
BRANCH   9  16
HETATM   16  O1  UNL     1      -2.916  -1.670   1.063  1.00  0.00    -0.287 OA
BRANCH  16  17
HETATM   17  C6  UNL     1      -2.409  -1.891   2.313  1.00  0.00     0.505 C 
HETATM   18  F1  UNL     1      -3.409  -2.335   3.202  1.00  0.00    -0.184 F 
HETATM   19  F2  UNL     1      -1.326  -2.752   2.393  1.00  0.00    -0.184 F 
ENDBRANCH  16  17
ENDBRANCH   9  16
ENDBRANCH   1   8
BRANCH   1  20
HETATM   20  C9  UNL     1      -0.889  -1.700  -1.248  1.00  0.00     0.265 C 
HETATM   21  F3  UNL     1      -1.615  -1.872  -2.423  1.00  0.00    -0.252 F 
ENDBRANCH   1  20
BRANCH   6  22
HETATM   22  C15 UNL     1       3.121   1.814  -0.065  1.00  0.00     0.364 C 
HETATM   23  F4  UNL     1       3.102   2.094   1.287  1.00  0.00    -0.214 F 
HETATM   24  F5  UNL     1       2.646   2.972  -0.697  1.00  0.00    -0.214 F 
ENDBRANCH   6  22
BRANCH   6  25
HETATM   25  C16 UNL     1       2.708  -0.683  -0.001  1.00  0.00     0.208 C 
HETATM   26  C17 UNL     1       4.089  -0.966  -0.502  1.00  0.00     0.102 C 
HETATM   27  C18 UNL     1       4.568  -1.208   0.931  1.00  0.00     0.223 C 
HETATM   28  C19 UNL     1       5.776  -0.421   1.338  1.00  0.00     0.078 C 
HETATM   29  N2  UNL     1       3.309  -0.631   1.351  1.00  0.00    -0.038 N 
ATOM     30  H22 UNL     1       3.328   0.266   1.836  1.00  0.00     0.281 HD
ATOM     31  H21 UNL     1       2.807  -1.077   2.119  1.00  0.00     0.281 HD
BRANCH  27  32
HETATM   32  O2  UNL     1       4.675  -2.585   1.182  1.00  0.00    -0.365 OA
ATOM     33  H2  UNL     1       4.972  -2.735   2.072  1.00  0.00     0.212 HD
ENDBRANCH  27  32
ENDBRANCH   6  25
TORSDOF 7
