REMARK  8 active torsions:
REMARK  status: ('A' for Active; 'I' for Inactive)
REMARK    1  A    between atoms: C3_6  and  N3_7 
REMARK    2  A    between atoms: C4_12  and  N5_13 
REMARK    3  A    between atoms: N5_13  and  C5_15 
REMARK    4  A    between atoms: C9_19  and  O1_20 
REMARK    5  A    between atoms: O1_20  and  C10_21 
REMARK    6  A    between atoms: C10_21  and  C11_22 
REMARK    7  A    between atoms: C11_22  and  C12_24 
REMARK    8  A    between atoms: C13_25  and  C14_26 
ROOT
HETATM    1  N1  UNL     1      -5.809  -2.874   0.911  1.00  0.00    -0.188 NA
HETATM    2  C1  UNL     1      -5.354  -1.916   0.462  1.00  0.00     0.138 C 
HETATM    3  C2  UNL     1      -4.806  -0.716  -0.100  1.00  0.00     0.217 A 
HETATM    4  N2  UNL     1      -5.636   0.309  -0.312  1.00  0.00    -0.166 N 
ATOM      5  H2  UNL     1      -6.624   0.217  -0.074  1.00  0.00     0.186 HD
HETATM    6  C3  UNL     1      -5.181   1.460  -0.836  1.00  0.00     0.692 A 
HETATM    7  N4  UNL     1      -3.878   1.548  -1.137  1.00  0.00    -0.022 N 
ATOM      8  H4  UNL     1      -3.529   2.420  -1.534  1.00  0.00     0.203 HD
HETATM    9  C4  UNL     1      -3.010   0.542  -0.940  1.00  0.00     0.699 A 
HETATM   10  N6  UNL     1      -3.495  -0.596  -0.415  1.00  0.00    -0.165 N 
ATOM     11  H6  UNL     1      -2.865  -1.382  -0.251  1.00  0.00     0.186 HD
ENDROOT
BRANCH   6  12
HETATM   12  N3  UNL     1      -6.004   2.459  -1.039  1.00  0.00    -0.234 N 
ATOM     13  H32 UNL     1      -6.996   2.392  -0.810  1.00  0.00     0.174 HD
ATOM     14  H31 UNL     1      -5.659   3.333  -1.437  1.00  0.00     0.174 HD
ENDBRANCH   6  12
BRANCH   9  15
HETATM   15  N5  UNL     1      -1.771   0.669  -1.243  1.00  0.00    -0.191 N 
ATOM     16  H5  UNL     1      -1.459   1.556  -1.639  1.00  0.00     0.184 HD
BRANCH  15  17
HETATM   17  C5  UNL     1      -0.811  -0.358  -1.057  1.00  0.00     0.051 A 
HETATM   18  C6  UNL     1      -0.797  -1.426  -1.927  1.00  0.00     0.030 A 
HETATM   19  C7  UNL     1       0.134  -2.423  -1.747  1.00  0.00     0.005 A 
HETATM   20  C8  UNL     1       1.020  -2.338  -0.721  1.00  0.00     0.037 A 
HETATM   21  C9  UNL     1       1.048  -1.275   0.190  1.00  0.00     0.071 A 
HETATM   22  C15 UNL     1       0.113  -0.292  -0.005  1.00  0.00     0.066 A 
BRANCH  21  23
HETATM   23  O1  UNL     1       1.972  -1.315   1.158  1.00  0.00    -0.348 OA
BRANCH  23  24
HETATM   24  C10 UNL     1       2.329  -0.504   2.200  1.00  0.00     0.217 C 
BRANCH  24  25
HETATM   25  C11 UNL     1       2.804   0.873   1.894  1.00  0.00     0.217 C 
HETATM   26  F1  UNL     1       3.100   1.470   3.135  1.00  0.00    -0.243 F 
BRANCH  25  27
HETATM   27  C12 UNL     1       4.065   0.916   1.135  1.00  0.00     0.012 C 
HETATM   28  C13 UNL     1       4.040   1.246  -0.144  1.00  0.00     0.030 C 
BRANCH  28  29
HETATM   29  C14 UNL     1       5.313   1.297  -0.943  1.00  0.00     0.206 C 
HETATM   30 CL1  UNL     1       6.649   1.463   0.215  1.00  0.00    -0.079 Cl
HETATM   31 CL2  UNL     1       5.522  -0.176  -1.897  1.00  0.00    -0.079 Cl
HETATM   32 CL3  UNL     1       5.192   2.727  -1.998  1.00  0.00    -0.079 Cl
ENDBRANCH  28  29
ENDBRANCH  25  27
ENDBRANCH  24  25
ENDBRANCH  23  24
ENDBRANCH  21  23
ENDBRANCH  15  17
ENDBRANCH   9  15
TORSDOF 8
