REMARK  5 active torsions:
REMARK  status: ('A' for Active; 'I' for Inactive)
REMARK    1  A    between atoms: C4_8  and  C5_9 
REMARK    2  A    between atoms: C4_8  and  C18_32 
REMARK    3  A    between atoms: C9_13  and  C10_14 
REMARK    4  A    between atoms: N2_16  and  C12_17 
REMARK    5  A    between atoms: C12_17  and  C13_18 
ROOT
HETATM    1  C5  UNL     1      -2.802   0.143   0.912  1.00  0.00     0.006 A 
HETATM    2  C6  UNL     1      -1.637   0.368   0.345  1.00  0.00     0.034 A 
HETATM    3  C7  UNL     1      -0.948  -0.045  -0.896  1.00  0.00     0.017 C 
HETATM    4  C8  UNL     1       0.389   0.091  -0.971  1.00  0.00     0.032 C 
HETATM    5  C9  UNL     1       1.115   0.678   0.120  1.00  0.00     0.062 C 
HETATM    6  N4  UNL     1       0.512   1.161   1.185  1.00  0.00    -0.331 N 
ATOM      7  H4  UNL     1       1.078   1.536   1.946  1.00  0.00     0.165 HD
HETATM    8  C16 UNL     1      -0.878   1.177   1.306  1.00  0.00     0.284 A 
HETATM    9  F3  UNL     1      -1.123   2.588   0.731  1.00  0.00    -0.189 F 
HETATM   10  N5  UNL     1      -1.639   1.308   2.447  1.00  0.00    -0.343 N 
ATOM     11  H5  UNL     1      -1.342   1.781   3.301  1.00  0.00     0.164 HD
HETATM   12  C17 UNL     1      -2.783   0.742   2.271  1.00  0.00     0.099 A 
ENDROOT
BRANCH   1  13
HETATM   13  C4  UNL     1      -3.915  -0.670   0.430  1.00  0.00     0.141 C 
HETATM   14  C3  UNL     1      -5.176   0.213   0.624  1.00  0.00     0.210 C 
HETATM   15  O1  UNL     1      -5.017   1.351  -0.177  1.00  0.00    -0.381 OA
HETATM   16  C2  UNL     1      -5.443   0.992  -1.455  1.00  0.00     0.243 C 
HETATM   17  C1  UNL     1      -4.619  -0.165  -1.886  1.00  0.00     0.096 C 
HETATM   18  N1  UNL     1      -4.552  -0.426  -3.142  1.00  0.00    -0.387 N 
HETATM   19  N6  UNL     1      -3.902  -0.992  -0.959  1.00  0.00    -0.358 N 
ATOM     20  H12 UNL     1      -5.062   0.162  -3.801  1.00  0.00     0.157 HD
ATOM     21  H11 UNL     1      -3.986  -1.221  -3.438  1.00  0.00     0.157 HD
ATOM     22  H6  UNL     1      -3.385  -1.806  -1.292  1.00  0.00     0.162 HD
BRANCH  13  23
HETATM   23  C18 UNL     1      -4.077  -1.894   1.305  1.00  0.00     0.388 C 
HETATM   24  F4  UNL     1      -2.971  -2.706   1.162  1.00  0.00    -0.211 F 
HETATM   25  F5  UNL     1      -4.232  -1.564   2.622  1.00  0.00    -0.211 F 
ENDBRANCH  13  23
ENDBRANCH   1  13
BRANCH   5  26
HETATM   26  C10 UNL     1       2.578   0.765   0.096  1.00  0.00     0.091 A 
HETATM   27  C11 UNL     1       3.577   1.236   0.917  1.00  0.00     0.143 A 
HETATM   28  N2  UNL     1       4.517   0.862   0.031  1.00  0.00    -0.300 N 
HETATM   29  N3  UNL     1       3.555   0.413  -0.751  1.00  0.00    -0.295 N 
ATOM     30  H3  UNL     1       3.555  -0.038  -1.666  1.00  0.00     0.187 HD
BRANCH  28  31
HETATM   31  C12 UNL     1       5.961   0.950   0.013  1.00  0.00     0.159 C 
BRANCH  31  32
HETATM   32  C13 UNL     1       6.489  -0.304   0.639  1.00  0.00     0.083 A 
HETATM   33  C14 UNL     1       6.094  -1.618  -0.061  1.00  0.00     0.091 A 
HETATM   34  C15 UNL     1       7.493  -1.062  -0.199  1.00  0.00     0.249 A 
HETATM   35  F1  UNL     1       7.858  -0.511  -1.430  1.00  0.00    -0.206 F 
HETATM   36  F2  UNL     1       8.496  -1.759   0.413  1.00  0.00    -0.206 F 
ENDBRANCH  31  32
ENDBRANCH  28  31
ENDBRANCH   5  26
TORSDOF 5
