REMARK  7 active torsions:
REMARK  status: ('A' for Active; 'I' for Inactive)
REMARK    1  A    between atoms: O1_2  and  C2_3 
REMARK    2  A    between atoms: C6_9  and  C7_10 
REMARK    3  A    between atoms: N2_11  and  N3_13 
REMARK    4  A    between atoms: N3_13  and  C8_15 
REMARK    5  A    between atoms: C9_18  and  N5_19 
REMARK    6  A    between atoms: N5_19  and  C10_21 
REMARK    7  A    between atoms: C13_27  and  N7_28 
ROOT
HETATM    1  C8  UNL     1       0.516  -0.581  -0.273  1.00  0.00     0.701 A 
HETATM    2  N4  UNL     1       1.805  -0.171  -0.161  1.00  0.00    -0.173 N 
ATOM      3  H4  UNL     1       2.085   0.317   0.690  1.00  0.00     0.186 HD
HETATM    4  C9  UNL     1       2.728  -0.374  -1.111  1.00  0.00     0.157 A 
HETATM    5  C13 UNL     1       2.303  -1.037  -2.247  1.00  0.00     0.215 A 
HETATM    6  C14 UNL     1       0.983  -1.476  -2.402  1.00  0.00     0.296 A 
HETATM    7  O4  UNL     1       0.650  -2.078  -3.464  1.00  0.00    -0.265 OA
HETATM    8  N8  UNL     1       0.147  -1.222  -1.393  1.00  0.00    -0.152 N 
ATOM      9  H8  UNL     1      -0.821  -1.531  -1.477  1.00  0.00     0.187 HD
ENDROOT
BRANCH   1  10
HETATM   10  N3  UNL     1      -0.303  -0.340   0.698  1.00  0.00    -0.132 N 
ATOM     11  H3  UNL     1       0.038   0.152   1.524  1.00  0.00     0.205 HD
BRANCH  10  12
HETATM   12  N2  UNL     1      -1.642  -0.735   0.646  1.00  0.00    -0.297 N 
HETATM   13  C7  UNL     1      -2.550   0.169   0.784  1.00  0.00     0.122 C 
ATOM     14  H2  UNL     1      -1.894  -1.713   0.503  1.00  0.00     0.186 HD
BRANCH  13  15
HETATM   15  C6  UNL     1      -3.942  -0.234   0.731  1.00  0.00     0.017 A 
HETATM   16  C2  UNL     1      -4.924   0.716   0.877  1.00  0.00     0.095 A 
HETATM   17  C3  UNL     1      -6.237   0.279   0.817  1.00  0.00     0.125 A 
HETATM   18  N1  UNL     1      -6.560  -1.033   0.622  1.00  0.00    -0.373 N 
HETATM   19  C4  UNL     1      -5.607  -1.955   0.479  1.00  0.00     0.088 A 
ATOM     20  H1  UNL     1      -7.541  -1.311   0.585  1.00  0.00     0.164 HD
HETATM   21  C5  UNL     1      -4.274  -1.551   0.534  1.00  0.00     0.032 A 
BRANCH  16  22
HETATM   22  O1  UNL     1      -4.645   2.063   1.078  1.00  0.00    -0.354 OA
HETATM   23  C1  UNL     1      -5.667   3.029   1.228  1.00  0.00     0.210 C 
ENDBRANCH  16  22
ENDBRANCH  13  15
ENDBRANCH  10  12
ENDBRANCH   1  10
BRANCH   4  24
HETATM   24  N5  UNL     1       4.069   0.044  -1.041  1.00  0.00    -0.346 N 
ATOM     25  H5  UNL     1       4.691  -0.140  -1.828  1.00  0.00     0.163 HD
BRANCH  24  26
HETATM   26  C10 UNL     1       4.580   0.723   0.114  1.00  0.00     0.287 C 
HETATM   27  C11 UNL     1       4.650  -0.012   1.405  1.00  0.00     0.082 C 
HETATM   28  C12 UNL     1       5.960   0.735   1.580  1.00  0.00     0.238 C 
HETATM   29  N6  UNL     1       6.033   0.852   0.140  1.00  0.00    -0.054 N 
ATOM     30  H62 UNL     1       6.626   0.229  -0.408  1.00  0.00     0.279 HD
ATOM     31  H61 UNL     1       6.498   1.646  -0.300  1.00  0.00     0.279 HD
ENDBRANCH  24  26
ENDBRANCH   4  24
BRANCH   5  32
HETATM   32  N7  UNL     1       3.229  -1.279  -3.280  1.00  0.00    -0.106 N 
HETATM   33  O2  UNL     1       4.094  -2.147  -3.142  1.00  0.00    -0.531 OA
HETATM   34  O3  UNL     1       3.168  -0.555  -4.430  1.00  0.00    -0.531 OA
ENDBRANCH   5  32
TORSDOF 7
