REMARK  10 active torsions:
REMARK  status: ('A' for Active; 'I' for Inactive)
REMARK    1  A    between atoms: O1_3  and  C2_4 
REMARK    2  A    between atoms: C2_4  and  C3_5 
REMARK    3  A    between atoms: C3_5  and  C4_7 
REMARK    4  A    between atoms: C4_7  and  O3_8 
REMARK    5  A    between atoms: C4_7  and  N2_10 
REMARK    6  A    between atoms: N2_10  and  C5_12 
REMARK    7  A    between atoms: C7_14  and  O4_15 
REMARK    8  A    between atoms: C8_19  and  N4_20 
REMARK    9  A    between atoms: N4_20  and  C9_22 
REMARK   10  A    between atoms: C12_25  and  N5_26 
ROOT
HETATM    1  N1  UNL     1       8.461  -0.069   2.266  1.00  0.00    -0.164 NA
HETATM    2  C1  UNL     1       7.687  -0.514   1.537  1.00  0.00     0.228 C 
HETATM    3  O1  UNL     1       6.786  -1.054   0.673  1.00  0.00    -0.276 OA
ENDROOT
BRANCH   3   4
HETATM    4  C2  UNL     1       5.407  -0.761   0.678  1.00  0.00     0.272 C 
BRANCH   4   5
HETATM    5  C3  UNL     1       4.737  -1.520  -0.387  1.00  0.00     0.199 C 
HETATM    6  O2  UNL     1       5.363  -2.259  -1.107  1.00  0.00    -0.291 OA
BRANCH   5   7
HETATM    7  C4  UNL     1       3.263  -1.359  -0.563  1.00  0.00     0.292 C 
BRANCH   7   8
HETATM    8  O3  UNL     1       2.774  -2.126  -1.593  1.00  0.00    -0.369 OA
ATOM      9  H3  UNL     1       1.836  -2.024  -1.705  1.00  0.00     0.212 HD
ENDBRANCH   7   8
BRANCH   7  10
HETATM   10  N2  UNL     1       2.893   0.039  -0.654  1.00  0.00    -0.343 N 
ATOM     11  H2  UNL     1       3.627   0.720  -0.850  1.00  0.00     0.164 HD
BRANCH  10  12
HETATM   12  C5  UNL     1       1.697   0.467  -0.502  1.00  0.00     0.123 A 
HETATM   13  C6  UNL     1       1.448   1.816  -0.608  1.00  0.00     0.105 A 
HETATM   14  C7  UNL     1       0.131   2.258  -0.438  1.00  0.00     0.158 A 
HETATM   15  N3  UNL     1      -0.802   1.327  -0.182  1.00  0.00    -0.170 N 
HETATM   16  C8  UNL     1      -0.572   0.014  -0.077  1.00  0.00     0.686 A 
ATOM     17  H3  UNL     1      -1.763   1.647  -0.058  1.00  0.00     0.186 HD
HETATM   18  N6  UNL     1       0.712  -0.407  -0.244  1.00  0.00    -0.176 N 
ATOM     19  H6  UNL     1       0.928  -1.401  -0.172  1.00  0.00     0.186 HD
BRANCH  14  20
HETATM   20  O4  UNL     1      -0.197   3.599  -0.530  1.00  0.00    -0.346 OA
ATOM     21  H4  UNL     1      -1.091   3.899  -0.415  1.00  0.00     0.219 HD
ENDBRANCH  14  20
BRANCH  16  22
HETATM   22  N4  UNL     1      -1.481  -0.854   0.168  1.00  0.00    -0.192 N 
ATOM     23  H4  UNL     1      -1.211  -1.836   0.230  1.00  0.00     0.184 HD
BRANCH  22  24
HETATM   24  C9  UNL     1      -2.850  -0.515   0.358  1.00  0.00     0.049 A 
HETATM   25  C10 UNL     1      -3.766  -0.596  -0.672  1.00  0.00     0.032 A 
HETATM   26  C11 UNL     1      -5.096  -0.270  -0.503  1.00  0.00     0.038 A 
HETATM   27  C12 UNL     1      -5.578   0.156   0.717  1.00  0.00     0.103 A 
HETATM   28  C13 UNL     1      -4.669   0.240   1.750  1.00  0.00     0.038 A 
HETATM   29  C14 UNL     1      -3.341  -0.087   1.575  1.00  0.00     0.032 A 
BRANCH  27  30
HETATM   30  N5  UNL     1      -6.951   0.498   0.911  1.00  0.00    -0.116 N 
HETATM   31  O5  UNL     1      -7.312   0.875   2.044  1.00  0.00    -0.532 OA
HETATM   32  O6  UNL     1      -7.885   0.435  -0.064  1.00  0.00    -0.532 OA
ENDBRANCH  27  30
ENDBRANCH  22  24
ENDBRANCH  16  22
ENDBRANCH  10  12
ENDBRANCH   7  10
ENDBRANCH   5   7
ENDBRANCH   4   5
ENDBRANCH   3   4
TORSDOF 10
