REMARK  1 active torsions:
REMARK  status: ('A' for Active; 'I' for Inactive)
REMARK    1  A    between atoms: N1_2  and  C4_6 
ROOT
HETATM    1  C1  UNL     1      -2.404   0.373   1.124  1.00  0.00     0.292 C 
HETATM    2  N1  UNL     1      -1.325   0.293   0.124  1.00  0.00     0.017 N 
HETATM    3  C2  UNL     1      -1.708  -0.768  -0.763  1.00  0.00     0.292 C 
HETATM    4  C3  UNL     1      -1.425   1.498  -0.612  1.00  0.00     0.283 C 
HETATM    5  N2  UNL     1      -1.525   2.482  -1.222  1.00  0.00    -0.165 NA
ENDROOT
BRANCH   2   6
HETATM    6  C4  UNL     1      -0.067   0.164   0.746  1.00  0.00     0.210 C 
HETATM    7  C5  UNL     1       0.980   1.151   0.252  1.00  0.00     0.062 C 
HETATM    8  C6  UNL     1       1.643   0.667  -1.018  1.00  0.00     0.234 C 
HETATM    9  N3  UNL     1       2.462  -0.465  -0.656  1.00  0.00    -0.075 N 
HETATM   10  C7  UNL     1       2.065  -1.109   0.554  1.00  0.00     0.234 C 
ATOM     11  H32 UNL     1       2.501  -1.137  -1.422  1.00  0.00     0.277 HD
ATOM     12  H31 UNL     1       3.445  -0.195  -0.612  1.00  0.00     0.277 HD
HETATM   13  C8  UNL     1       0.549  -1.202   0.703  1.00  0.00     0.062 C 
ENDBRANCH   2   6
TORSDOF 1
