REMARK  1 active torsions:
REMARK  status: ('A' for Active; 'I' for Inactive)
REMARK    1  A    between atoms: N1_2  and  C3_4 
ROOT
HETATM    1  C3  UNL     1       0.266   0.050  -0.014  1.00  0.00     0.200 C 
HETATM    2  C4  UNL     1      -0.165  -0.077  -1.446  1.00  0.00     0.067 C 
HETATM    3  C5  UNL     1      -1.535  -0.450  -0.886  1.00  0.00    -0.000 C 
HETATM    4  C6  UNL     1      -2.269   0.787  -0.424  1.00  0.00     0.038 C 
HETATM    5  C7  UNL     1      -1.561   1.073   0.876  1.00  0.00     0.189 C 
HETATM    6  C8  UNL     1      -1.493  -0.335   1.464  1.00  0.00     0.042 C 
HETATM    7  C9  UNL     1      -0.769  -0.967   0.319  1.00  0.00     0.048 C 
HETATM    8  N2  UNL     1      -0.178   1.313   0.574  1.00  0.00    -0.044 N 
ATOM      9  H21 UNL     1      -0.009   2.133  -0.008  1.00  0.00     0.280 HD
ATOM     10  H22 UNL     1       0.379   1.629   1.368  1.00  0.00     0.280 HD
ENDROOT
BRANCH   1  11
HETATM   11  N1  UNL     1       1.610  -0.211   0.319  1.00  0.00    -0.390 N 
HETATM   12  C1  UNL     1       2.082  -1.539   0.182  1.00  0.00     0.145 C 
HETATM   13  C2  UNL     1       2.520   0.831  -0.001  1.00  0.00     0.145 C 
ENDBRANCH   1  11
TORSDOF 1
