REMARK  1 active torsions:
REMARK  status: ('A' for Active; 'I' for Inactive)
REMARK    1  A    between atoms: C2_2  and  N1_5 
ROOT
HETATM    1  N1  UNL     1       0.028  -0.150   0.203  1.00  0.00    -0.397 N 
HETATM    2  C5  UNL     1       0.707   0.660   1.139  1.00  0.00     0.151 C 
HETATM    3  C6  UNL     1       2.113   0.744   0.583  1.00  0.00     0.205 C 
HETATM    4  C7  UNL     1       1.809   0.676  -0.923  1.00  0.00     0.061 C 
HETATM    5  C8  UNL     1       0.927  -0.582  -0.786  1.00  0.00     0.107 C 
HETATM    6  C9  UNL     1       1.951  -1.474  -0.067  1.00  0.00     0.257 C 
HETATM    7  N2  UNL     1       2.732  -0.565   0.753  1.00  0.00    -0.067 N 
ATOM      8  H21 UNL     1       2.812  -0.857   1.727  1.00  0.00     0.277 HD
ATOM      9  H22 UNL     1       3.730  -0.577   0.542  1.00  0.00     0.277 HD
ENDROOT
BRANCH   1  10
HETATM   10  C2  UNL     1      -1.307   0.094  -0.080  1.00  0.00     0.017 C 
HETATM   11  C1  UNL     1      -1.735  -0.707  -1.315  1.00  0.00     0.037 C 
HETATM   12  C3  UNL     1      -2.137  -0.524   1.061  1.00  0.00     0.037 C 
HETATM   13  C4  UNL     1      -1.743   1.504  -0.245  1.00  0.00     0.037 C 
ENDBRANCH   1  10
TORSDOF 1
