REMARK  2 active torsions:
REMARK  status: ('A' for Active; 'I' for Inactive)
REMARK    1  A    between atoms: N1_2  and  C2_4 
REMARK    2  A    between atoms: N2_6  and  C4_8 
ROOT
HETATM    1  C2  UNL     1      -1.652   0.084  -0.018  1.00  0.00     0.068 C 
HETATM    2  C3  UNL     1      -1.698  -1.382  -0.224  1.00  0.00     0.088 C 
HETATM    3  N2  UNL     1      -0.551   0.700  -0.113  1.00  0.00    -0.376 N 
ATOM      4  H2  UNL     1      -0.590   1.707   0.042  1.00  0.00     0.161 HD
ENDROOT
BRANCH   3   5
HETATM    5  C4  UNL     1       0.742   0.163  -0.410  1.00  0.00     0.086 C 
HETATM    6  C5  UNL     1       1.253  -0.538   0.838  1.00  0.00     0.051 C 
HETATM    7  C6  UNL     1       2.667  -1.011   0.500  1.00  0.00     0.169 C 
HETATM    8  O1  UNL     1       3.467   0.097   0.395  1.00  0.00    -0.391 OA
HETATM    9  C7  UNL     1       3.105   0.980  -0.588  1.00  0.00     0.169 C 
HETATM   10  C8  UNL     1       1.672   1.369  -0.607  1.00  0.00     0.051 C 
ENDBRANCH   3   5
BRANCH   1  11
HETATM   11  N1  UNL     1      -2.839   0.801   0.287  1.00  0.00    -0.385 N 
HETATM   12  C1  UNL     1      -3.918   0.290   1.085  1.00  0.00     0.147 C 
ATOM     13  H1  UNL     1      -2.932   1.745  -0.087  1.00  0.00     0.160 HD
ENDBRANCH   1  11
TORSDOF 2
