REMARK  2 active torsions:
REMARK  status: ('A' for Active; 'I' for Inactive)
REMARK    1  A    between atoms: N1_5  and  C5_6 
REMARK    2  A    between atoms: C9_10  and  O1_11 
ROOT
HETATM    1  C1  UNL     1      -3.416  -1.766   0.387  1.00  0.00     0.012 C 
HETATM    2  C2  UNL     1      -2.580  -0.912   0.510  1.00  0.00    -0.108 C 
HETATM    3  C3  UNL     1      -1.551   0.128   0.669  1.00  0.00     0.121 C 
HETATM    4  C4  UNL     1      -0.310  -0.434   1.222  1.00  0.00     0.292 C 
HETATM    5  N1  UNL     1       0.822  -0.608   0.378  1.00  0.00     0.089 N 
HETATM    6  C7  UNL     1       0.495  -0.622  -1.023  1.00  0.00     0.275 C 
HETATM    7  C8  UNL     1      -0.213   0.634  -1.398  1.00  0.00     0.063 C 
HETATM    8  C9  UNL     1      -1.426   0.920  -0.581  1.00  0.00     0.137 C 
ENDROOT
BRANCH   8   9
HETATM    9  O1  UNL     1      -1.447   2.297  -0.305  1.00  0.00    -0.394 OA
ATOM     10  H1  UNL     1      -1.367   2.804  -1.105  1.00  0.00     0.210 HD
ENDBRANCH   8   9
BRANCH   5  11
HETATM   11  C5  UNL     1       1.948   0.199   0.721  1.00  0.00     0.268 C 
HETATM   12  C6  UNL     1       3.217  -0.227   0.015  1.00  0.00     0.037 C 
ENDBRANCH   5  11
TORSDOF 2
