REMARK  1 active torsions:
REMARK  status: ('A' for Active; 'I' for Inactive)
REMARK    1  A    between atoms: N1_5  and  C5_6 
ROOT
HETATM    1  C1  UNL     1      -2.966   0.070   0.149  1.00  0.00     0.004 C 
HETATM    2  C2  UNL     1      -2.080   1.320   0.225  1.00  0.00     0.035 C 
HETATM    3  C3  UNL     1      -0.967   1.133  -0.780  1.00  0.00     0.214 C 
HETATM    4  C4  UNL     1       0.389   1.189  -0.196  1.00  0.00     0.305 C 
HETATM    5  N1  UNL     1       1.098  -0.030  -0.140  1.00  0.00     0.097 N 
HETATM    6  C8  UNL     1       0.309  -1.214   0.041  1.00  0.00     0.305 C 
HETATM    7  C9  UNL     1      -1.013  -1.192  -0.633  1.00  0.00     0.214 C 
HETATM    8  C10 UNL     1      -2.109  -1.152   0.381  1.00  0.00     0.035 C 
HETATM    9  N2  UNL     1      -1.105  -0.076  -1.550  1.00  0.00    -0.063 N 
ATOM     10  H21 UNL     1      -0.436  -0.137  -2.317  1.00  0.00     0.278 HD
ATOM     11  H22 UNL     1      -1.956  -0.093  -2.112  1.00  0.00     0.278 HD
ENDROOT
BRANCH   5  12
HETATM   12  C5  UNL     1       2.238  -0.088   0.695  1.00  0.00     0.223 A 
HETATM   13  C6  UNL     1       3.446   0.728   0.517  1.00  0.00     0.038 A 
HETATM   14  C7  UNL     1       3.464  -0.773   0.092  1.00  0.00     0.038 A 
ENDBRANCH   5  12
TORSDOF 1
