REMARK  1 active torsions:
REMARK  status: ('A' for Active; 'I' for Inactive)
REMARK    1  A    between atoms: C8_11  and  N2_12 
ROOT
HETATM    1  C1  UNL     1      -2.581   0.529  -0.819  1.00  0.00     0.001 C 
HETATM    2  C2  UNL     1      -2.167  -0.914  -1.083  1.00  0.00     0.001 C 
HETATM    3  C3  UNL     1      -1.517  -1.264   0.254  1.00  0.00     0.013 C 
HETATM    4  C4  UNL     1      -0.606  -0.072   0.458  1.00  0.00     0.016 C 
HETATM    5  C5  UNL     1      -1.449   1.066   0.011  1.00  0.00     0.013 C 
HETATM    6  C6  UNL     1      -0.095   0.022   1.855  1.00  0.00     0.244 C 
HETATM    7  N1  UNL     1       1.223  -0.546   1.883  1.00  0.00    -0.072 N 
ATOM      8  H11 UNL     1       1.350  -1.220   2.638  1.00  0.00     0.277 HD
ATOM      9  H12 UNL     1       1.937   0.120   2.177  1.00  0.00     0.277 HD
HETATM   10  C7  UNL     1       1.478  -1.104   0.586  1.00  0.00     0.268 C 
HETATM   11  C8  UNL     1       0.682  -0.219  -0.342  1.00  0.00     0.258 C 
ENDROOT
BRANCH  11  12
HETATM   12  N2  UNL     1       1.293   1.034  -0.629  1.00  0.00     0.099 N 
HETATM   13  C9  UNL     1       2.392   0.993  -1.571  1.00  0.00     0.303 A 
HETATM   14  C10 UNL     1       2.627   1.338  -0.159  1.00  0.00     0.303 A 
ENDBRANCH  11  12
TORSDOF 1
