REMARK  0 active torsions:
REMARK  status: ('A' for Active; 'I' for Inactive)
ROOT
HETATM    1  C1  UNL     1      -1.750   0.283  -1.047  1.00  0.00     0.066 C 
HETATM    2  N1  UNL     1      -1.788   1.314  -0.108  1.00  0.00    -0.382 N 
ATOM      3  H1  UNL     1      -2.691   1.619   0.255  1.00  0.00     0.164 HD
HETATM    4  C2  UNL     1      -0.638   1.936   0.346  1.00  0.00     0.065 C 
HETATM    5  C3  UNL     1       0.541   1.062   0.731  1.00  0.00     0.031 C 
HETATM    6  C4  UNL     1       1.479   1.009  -0.428  1.00  0.00     0.040 C 
HETATM    7  C5  UNL     1       2.067  -0.306  -0.763  1.00  0.00     0.273 C 
HETATM    8  N2  UNL     1       1.230  -1.417  -0.359  1.00  0.00     0.089 N 
HETATM    9  C6  UNL     1       0.031  -1.452  -1.080  1.00  0.00     0.282 C 
HETATM   10  C7  UNL     1      -1.214  -1.009  -0.432  1.00  0.00     0.053 C 
HETATM   11  C8  UNL     1      -1.146  -0.792   1.050  1.00  0.00     0.018 C 
HETATM   12  C9  UNL     1       0.191  -0.207   1.385  1.00  0.00     0.023 C 
HETATM   13  C10 UNL     1       1.161  -1.352   1.059  1.00  0.00     0.277 C 
ENDROOT
TORSDOF 0
