REMARK  1 active torsions:
REMARK  status: ('A' for Active; 'I' for Inactive)
REMARK    1  A    between atoms: C4_4  and  N1_5 
ROOT
HETATM    1  N1  UNL     1       0.218  -0.472  -0.525  1.00  0.00    -0.406 N 
HETATM    2  C5  UNL     1       0.728   0.800  -0.873  1.00  0.00     0.119 C 
HETATM    3  C6  UNL     1       2.180   0.686  -1.262  1.00  0.00     0.047 C 
HETATM    4  C7  UNL     1       3.121   0.831  -0.107  1.00  0.00     0.234 C 
HETATM    5  N2  UNL     1       3.170  -0.351   0.731  1.00  0.00    -0.074 N 
ATOM      6  H21 UNL     1       3.871  -0.280   1.469  1.00  0.00     0.277 HD
ATOM      7  H22 UNL     1       3.560  -1.159   0.246  1.00  0.00     0.277 HD
HETATM    8  C8  UNL     1       1.834  -0.601   1.251  1.00  0.00     0.251 C 
HETATM    9  C9  UNL     1       1.078  -1.340   0.189  1.00  0.00     0.144 C 
ENDROOT
BRANCH   1  10
HETATM   10  C4  UNL     1      -1.143  -0.562  -0.190  1.00  0.00     0.079 C 
HETATM   11  C3  UNL     1      -1.554   0.232   1.035  1.00  0.00     0.025 C 
HETATM   12  C2  UNL     1      -3.048  -0.050   1.028  1.00  0.00     0.002 C 
HETATM   13  C1  UNL     1      -3.378   0.253  -0.419  1.00  0.00     0.002 C 
HETATM   14  C10 UNL     1      -2.127  -0.113  -1.216  1.00  0.00     0.025 C 
ENDBRANCH   1  10
TORSDOF 1
