REMARK  2 active torsions:
REMARK  status: ('A' for Active; 'I' for Inactive)
REMARK    1  A    between atoms: C1_4  and  C2_5 
REMARK    2  A    between atoms: C1_4  and  N2_9 
ROOT
HETATM    1  N1  UNL     1      -1.484  -1.607   0.699  1.00  0.00    -0.387 N 
ATOM      2  H11 UNL     1      -0.790  -2.235   1.103  1.00  0.00     0.157 HD
ATOM      3  H12 UNL     1      -2.488  -1.778   0.755  1.00  0.00     0.157 HD
HETATM    4  C1  UNL     1      -1.033  -0.561   0.099  1.00  0.00     0.102 C 
ENDROOT
BRANCH   4   5
HETATM    5  C2  UNL     1      -2.048   0.357  -0.492  1.00  0.00     0.190 C 
HETATM    6  C3  UNL     1      -3.464  -0.069  -0.305  1.00  0.00     0.066 C 
HETATM    7  C4  UNL     1      -3.684   1.365   0.137  1.00  0.00     0.171 C 
HETATM    8  O1  UNL     1      -2.318   1.484   0.284  1.00  0.00    -0.378 OA
ENDBRANCH   4   5
BRANCH   4   9
HETATM    9  N2  UNL     1       0.351  -0.325   0.022  1.00  0.00    -0.369 N 
HETATM   10  C5  UNL     1       0.973   0.974   0.205  1.00  0.00     0.124 C 
HETATM   11  C6  UNL     1       2.252   0.725   0.997  1.00  0.00     0.020 C 
HETATM   12  C7  UNL     1       3.239   0.119   0.038  1.00  0.00     0.003 C 
HETATM   13  C8  UNL     1       2.571  -0.896  -0.827  1.00  0.00     0.020 C 
HETATM   14  C9  UNL     1       1.270  -1.415  -0.256  1.00  0.00     0.124 C 
ENDBRANCH   4   9
TORSDOF 2
