REMARK  3 active torsions:
REMARK  status: ('A' for Active; 'I' for Inactive)
REMARK    1  A    between atoms: C2_2  and  O1_4 
REMARK    2  A    between atoms: O1_4  and  C4_5 
REMARK    3  A    between atoms: C7_8  and  N1_9 
ROOT
HETATM    1  N1  UNL     1       0.847  -0.416  -0.737  1.00  0.00    -0.355 N 
ATOM      2  H1  UNL     1       0.234  -0.668  -1.512  1.00  0.00     0.163 HD
HETATM    3  C8  UNL     1       1.906   0.285  -0.950  1.00  0.00     0.171 C 
HETATM    4  N2  UNL     1       2.349   0.781  -2.227  1.00  0.00    -0.361 N 
ATOM      5  H2  UNL     1       1.822   0.777  -3.100  1.00  0.00     0.162 HD
HETATM    6  C9  UNL     1       3.693   1.288  -2.027  1.00  0.00     0.142 C 
HETATM    7  C10 UNL     1       3.602   1.794  -0.582  1.00  0.00     0.142 C 
HETATM    8  N3  UNL     1       2.846   0.709   0.028  1.00  0.00    -0.361 N 
ATOM      9  H3  UNL     1       2.967   0.330   0.967  1.00  0.00     0.162 HD
ENDROOT
BRANCH   1  10
HETATM   10  C7  UNL     1       0.536  -0.838   0.592  1.00  0.00     0.113 C 
HETATM   11  C4  UNL     1      -0.933  -1.128   0.829  1.00  0.00     0.144 C 
HETATM   12  C5  UNL     1      -0.685  -2.479   0.189  1.00  0.00     0.036 C 
HETATM   13  C6  UNL     1       0.756  -2.354   0.706  1.00  0.00     0.030 C 
BRANCH  11  14
HETATM   14  O1  UNL     1      -1.818  -0.378   0.106  1.00  0.00    -0.379 OA
BRANCH  14  15
HETATM   15  C2  UNL     1      -2.856   0.150   0.864  1.00  0.00     0.114 C 
HETATM   16  C1  UNL     1      -4.214  -0.168   0.326  1.00  0.00     0.039 C 
HETATM   17  C3  UNL     1      -2.692   1.665   0.821  1.00  0.00     0.039 C 
ENDBRANCH  14  15
ENDBRANCH  11  14
ENDBRANCH   1  10
TORSDOF 3
