REMARK  4 active torsions:
REMARK  status: ('A' for Active; 'I' for Inactive)
REMARK    1  A    between atoms: N1_2  and  C2_4 
REMARK    2  A    between atoms: C2_4  and  C3_6 
REMARK    3  A    between atoms: C5_8  and  N2_9 
REMARK       I    between atoms: N2_9  and  C6_11 
REMARK    4  A    between atoms: C6_11  and  C7_13 
ROOT
HETATM    1  C3  UNL     1      -1.709  -0.060   1.094  1.00  0.00     0.071 A 
HETATM    2  C4  UNL     1      -1.176  -0.772   2.274  1.00  0.00     0.039 A 
HETATM    3  C5  UNL     1      -0.303  -0.663   1.085  1.00  0.00     0.096 A 
ENDROOT
BRANCH   3   4
HETATM    4  N2  UNL     1       0.732   0.301   0.962  1.00  0.00    -0.355 N 
HETATM    5  C6  UNL     1       1.862   0.066   0.154  1.00  0.00     0.222 C 
HETATM    6  O1  UNL     1       1.944  -1.038  -0.475  1.00  0.00    -0.273 OA
ATOM      7  H2  UNL     1       0.656   1.183   1.469  1.00  0.00     0.162 HD
BRANCH   5   8
HETATM    8  C7  UNL     1       2.915   1.089   0.050  1.00  0.00     0.078 A 
HETATM    9  C8  UNL     1       3.811   1.134  -1.134  1.00  0.00     0.015 A 
HETATM   10  C9  UNL     1       4.329   0.498   0.128  1.00  0.00     0.015 A 
ENDBRANCH   5   8
ENDBRANCH   3   4
BRANCH   1  11
HETATM   11  C2  UNL     1      -2.649  -0.693   0.158  1.00  0.00     0.079 C 
HETATM   12  S1  UNL     1      -3.163  -2.223   0.363  1.00  0.00    -0.065 SA
BRANCH  11  13
HETATM   13  N1  UNL     1      -3.133   0.032  -0.959  1.00  0.00    -0.388 N 
HETATM   14  C1  UNL     1      -4.055  -0.508  -1.924  1.00  0.00     0.147 C 
ATOM     15  H1  UNL     1      -2.810   0.991  -1.087  1.00  0.00     0.159 HD
ENDBRANCH  11  13
ENDBRANCH   1  11
TORSDOF 4
