REMARK  4 active torsions:
REMARK  status: ('A' for Active; 'I' for Inactive)
REMARK    1  A    between atoms: C5_8  and  N2_9 
REMARK    2  A    between atoms: N2_9  and  C6_11 
REMARK    3  A    between atoms: C6_11  and  C7_13 
REMARK    4  A    between atoms: C7_13  and  N3_14 
ROOT
HETATM    1  C1  UNL     1      -2.563   1.884  -0.741  1.00  0.00     0.014 C 
HETATM    2  C2  UNL     1      -2.769   0.396  -0.606  1.00  0.00     0.031 C 
HETATM    3  C3  UNL     1      -3.614   0.063   0.598  1.00  0.00     0.238 C 
HETATM    4  N1  UNL     1      -3.203  -1.260   0.954  1.00  0.00    -0.073 N 
ATOM      5  H11 UNL     1      -3.665  -1.999   0.425  1.00  0.00     0.277 HD
ATOM      6  H12 UNL     1      -3.523  -1.566   1.873  1.00  0.00     0.277 HD
HETATM    7  C4  UNL     1      -1.747  -1.231   0.803  1.00  0.00     0.257 C 
HETATM    8  C5  UNL     1      -1.492  -0.361  -0.386  1.00  0.00     0.113 C 
ENDROOT
BRANCH   8   9
HETATM    9  N2  UNL     1      -0.332   0.457  -0.321  1.00  0.00    -0.373 N 
ATOM     10  H2  UNL     1      -0.431   1.470  -0.392  1.00  0.00     0.161 HD
BRANCH   9  11
HETATM   11  C6  UNL     1       0.953  -0.101  -0.160  1.00  0.00     0.112 C 
HETATM   12  S1  UNL     1       1.079  -1.725  -0.055  1.00  0.00    -0.059 SA
BRANCH  11  13
HETATM   13  C7  UNL     1       2.145   0.784  -0.095  1.00  0.00     0.126 C 
BRANCH  13  14
HETATM   14  N3  UNL     1       3.373   0.128   0.053  1.00  0.00    -0.396 N 
HETATM   15  C8  UNL     1       3.626  -0.535   1.285  1.00  0.00     0.148 C 
HETATM   16  C9  UNL     1       3.914  -0.536  -1.083  1.00  0.00     0.148 C 
ENDBRANCH  13  14
ENDBRANCH  11  13
ENDBRANCH   9  11
ENDBRANCH   8   9
TORSDOF 4
