REMARK  3 active torsions:
REMARK  status: ('A' for Active; 'I' for Inactive)
REMARK    1  A    between atoms: N1_6  and  C6_7 
REMARK    2  A    between atoms: C6_7  and  C7_8 
REMARK    3  A    between atoms: C6_7  and  C8_11 
ROOT
HETATM    1  C1  UNL     1      -2.826   1.482   0.902  1.00  0.00     0.033 C 
HETATM    2  C2  UNL     1      -2.139   0.138   0.790  1.00  0.00     0.090 C 
HETATM    3  C3  UNL     1      -2.787  -0.615  -0.337  1.00  0.00     0.027 C 
HETATM    4  C4  UNL     1      -1.876  -0.866  -1.511  1.00  0.00     0.018 C 
HETATM    5  C5  UNL     1      -0.446  -1.116  -1.052  1.00  0.00     0.114 C 
HETATM    6  N1  UNL     1      -0.072   0.098  -0.382  1.00  0.00    -0.220 NA
HETATM    7  N2  UNL     1      -0.729   0.163   0.799  1.00  0.00    -0.349 N 
ATOM      8  H2  UNL     1      -0.215   0.229   1.678  1.00  0.00     0.174 HD
ENDROOT
BRANCH   6   9
HETATM    9  C6  UNL     1       1.291   0.439  -0.375  1.00  0.00     0.184 C 
BRANCH   9  10
HETATM   10  C7  UNL     1       1.512   1.876  -0.134  1.00  0.00     0.193 C 
HETATM   11  O1  UNL     1       0.558   2.649   0.038  1.00  0.00    -0.647 OA
HETATM   12  O2  UNL     1       2.829   2.356  -0.102  1.00  0.00    -0.647 OA
ENDBRANCH   9  10
BRANCH   9  13
HETATM   13  C8  UNL     1       2.203  -0.350   0.500  1.00  0.00     0.015 A 
HETATM   14  C9  UNL     1       2.409  -1.820   0.325  1.00  0.00     0.007 A 
HETATM   15  C10 UNL     1       3.502  -0.852  -0.030  1.00  0.00     0.007 A 
ENDBRANCH   9  13
ENDBRANCH   6   9
TORSDOF 3
