REMARK  5 active torsions:
REMARK  status: ('A' for Active; 'I' for Inactive)
REMARK    1  A    between atoms: N1_1  and  C1_4 
REMARK    2  A    between atoms: N6_19  and  C7_20 
REMARK    3  A    between atoms: C7_20  and  C8_21 
REMARK    4  A    between atoms: C8_21  and  C9_22 
REMARK    5  A    between atoms: C9_22  and  N7_23 
ROOT
HETATM    1  C1  UNL     1      -1.888   1.155  -1.510  1.00  0.00     0.678 A 
HETATM    2  N2  UNL     1      -1.138   0.073  -1.236  1.00  0.00    -0.175 N 
ATOM      3  H2  UNL     1      -0.374  -0.173  -1.866  1.00  0.00     0.186 HD
HETATM    4  C2  UNL     1      -1.369  -0.705  -0.141  1.00  0.00     0.146 A 
HETATM    5  C3  UNL     1      -2.399  -0.329   0.663  1.00  0.00     0.118 A 
HETATM    6  C4  UNL     1      -3.150   0.772   0.372  1.00  0.00     0.151 A 
HETATM    7  N3  UNL     1      -4.209   1.089   1.273  1.00  0.00    -0.081 NA
HETATM    8  N4  UNL     1      -2.894   1.508  -0.709  1.00  0.00    -0.178 N 
ATOM      9  H4  UNL     1      -3.460   2.330  -0.921  1.00  0.00     0.185 HD
HETATM   10  C5  UNL     1      -2.659  -1.124   1.785  1.00  0.00     0.266 A 
HETATM   11  O1  UNL     1      -3.607  -0.783   2.530  1.00  0.00    -0.267 OA
HETATM   12  N5  UNL     1      -1.883  -2.197   1.994  1.00  0.00    -0.274 N 
ATOM     13  H5  UNL     1      -2.075  -2.774   2.813  1.00  0.00     0.173 HD
HETATM   14  C6  UNL     1      -0.874  -2.557   1.196  1.00  0.00     0.331 A 
HETATM   15  O2  UNL     1      -0.162  -3.591   1.440  1.00  0.00    -0.246 OA
HETATM   16  N6  UNL     1      -0.617  -1.791   0.110  1.00  0.00    -0.284 N 
ENDROOT
BRANCH  16  17
HETATM   17  C7  UNL     1       0.472  -2.141  -0.736  1.00  0.00     0.137 C 
BRANCH  17  18
HETATM   18  C8  UNL     1       1.820  -1.667  -0.348  1.00  0.00     0.040 C 
BRANCH  18  19
HETATM   19  C9  UNL     1       1.998  -0.180  -0.252  1.00  0.00     0.123 C 
BRANCH  19  20
HETATM   20  N7  UNL     1       3.368   0.156   0.145  1.00  0.00    -0.367 N 
HETATM   21  C10 UNL     1       3.854   1.333  -0.036  1.00  0.00     0.196 C 
HETATM   22  N8  UNL     1       5.191   1.581   0.376  1.00  0.00    -0.067 NA
HETATM   23  N9  UNL     1       3.120   2.395  -0.627  1.00  0.00    -0.067 NA
ATOM     24  H7  UNL     1       3.951  -0.562   0.576  1.00  0.00     0.161 HD
ENDBRANCH  19  20
ENDBRANCH  18  19
ENDBRANCH  17  18
ENDBRANCH  16  17
BRANCH   1  25
HETATM   25  N1  UNL     1      -1.642   1.867  -2.552  1.00  0.00    -0.234 N 
ATOM     26  H12 UNL     1      -0.873   1.597  -3.165  1.00  0.00     0.174 HD
ATOM     27  H11 UNL     1      -2.211   2.688  -2.760  1.00  0.00     0.174 HD
ENDBRANCH   1  25
TORSDOF 5
