REMARK  8 active torsions:
REMARK  status: ('A' for Active; 'I' for Inactive)
REMARK    1  A    between atoms: N1_1  and  C1_4 
REMARK    2  A    between atoms: C3_6  and  N2_7 
REMARK    3  A    between atoms: C4_9  and  C5_10 
REMARK    4  A    between atoms: C5_10  and  O1_11 
REMARK    5  A    between atoms: N6_24  and  C9_25 
REMARK    6  A    between atoms: C9_25  and  C10_26 
REMARK    7  A    between atoms: C10_26  and  C11_27 
REMARK    8  A    between atoms: C11_27  and  N7_28 
ROOT
HETATM    1  C1  UNL     1       0.518   0.041  -0.578  1.00  0.00     0.132 A 
HETATM    2  C2  UNL     1      -0.443  -0.782  -0.014  1.00  0.00     0.087 A 
HETATM    3  C3  UNL     1      -1.736  -0.324   0.293  1.00  0.00     0.125 C 
HETATM    4  N3  UNL     1      -2.595  -1.021   1.064  1.00  0.00    -0.293 N 
ATOM      5  H3  UNL     1      -3.296  -0.465   1.554  1.00  0.00     0.172 HD
HETATM    6  C6  UNL     1      -2.656  -2.355   1.278  1.00  0.00     0.328 C 
HETATM    7  O2  UNL     1      -3.732  -2.758   1.782  1.00  0.00    -0.247 OA
HETATM    8  N4  UNL     1      -1.734  -3.300   1.028  1.00  0.00    -0.273 N 
ATOM      9  H4  UNL     1      -2.054  -4.264   1.120  1.00  0.00     0.173 HD
HETATM   10  C7  UNL     1      -0.462  -3.148   0.677  1.00  0.00     0.278 C 
HETATM   11  O3  UNL     1       0.349  -4.109   0.818  1.00  0.00    -0.265 OA
HETATM   12  C8  UNL     1       0.145  -2.018   0.144  1.00  0.00     0.134 A 
HETATM   13  N5  UNL     1       1.402  -1.952  -0.301  1.00  0.00    -0.291 N 
ATOM     14  H5  UNL     1       2.076  -2.718  -0.309  1.00  0.00     0.187 HD
HETATM   15  N6  UNL     1       1.624  -0.701  -0.737  1.00  0.00    -0.276 N 
ENDROOT
BRANCH  15  16
HETATM   16  C9  UNL     1       2.898  -0.293  -1.268  1.00  0.00     0.152 C 
BRANCH  16  17
HETATM   17  C10 UNL     1       3.875   0.163  -0.224  1.00  0.00     0.049 C 
BRANCH  17  18
HETATM   18  C11 UNL     1       3.441   1.323   0.602  1.00  0.00     0.231 C 
BRANCH  18  19
HETATM   19  N7  UNL     1       4.548   1.599   1.538  1.00  0.00    -0.079 N 
ATOM     20  H73 UNL     1       4.823   0.787   2.091  1.00  0.00     0.274 HD
ATOM     21  H72 UNL     1       5.445   1.744   1.074  1.00  0.00     0.274 HD
ATOM     22  H71 UNL     1       4.251   2.394   2.104  1.00  0.00     0.274 HD
ENDBRANCH  18  19
ENDBRANCH  17  18
ENDBRANCH  16  17
ENDBRANCH  15  16
BRANCH   1  23
HETATM   23  N1  UNL     1       0.374   1.276  -0.898  1.00  0.00    -0.383 N 
ATOM     24  H12 UNL     1      -0.467   1.840  -0.777  1.00  0.00     0.157 HD
ATOM     25  H11 UNL     1       1.082   1.882  -1.313  1.00  0.00     0.157 HD
ENDBRANCH   1  23
BRANCH   3  26
HETATM   26  N2  UNL     1      -2.025   0.745  -0.187  1.00  0.00    -0.353 N 
HETATM   27  C4  UNL     1      -2.882   1.759  -0.387  1.00  0.00     0.088 C 
ATOM     28  H2  UNL     1      -1.191   1.018  -0.707  1.00  0.00     0.166 HD
BRANCH  27  29
HETATM   29  C5  UNL     1      -4.220   1.772   0.304  1.00  0.00     0.208 C 
BRANCH  29  30
HETATM   30  O1  UNL     1      -4.893   2.948  -0.096  1.00  0.00    -0.396 OA
ATOM     31  H1  UNL     1      -5.737   2.956   0.340  1.00  0.00     0.209 HD
ENDBRANCH  29  30
ENDBRANCH  27  29
ENDBRANCH   3  26
TORSDOF 8
