REMARK  5 active torsions:
REMARK  status: ('A' for Active; 'I' for Inactive)
REMARK    1  A    between atoms: O1_2  and  C2_3 
REMARK    2  A    between atoms: C3_4  and  N1_5 
REMARK    3  A    between atoms: C8_13  and  N4_14 
REMARK    4  A    between atoms: N4_14  and  N5_16 
REMARK       I    between atoms: N5_16  and  C9_18 
REMARK    5  A    between atoms: C10_23  and  O2_24 
ROOT
HETATM    1  N1  UNL     1      -3.238   1.266  -0.338  1.00  0.00    -0.319 N 
ATOM      2  H1  UNL     1      -3.734   0.703  -1.029  1.00  0.00     0.172 HD
HETATM    3  C4  UNL     1      -3.890   2.389   0.183  1.00  0.00     0.177 C 
HETATM    4  N2  UNL     1      -4.449   3.306   0.615  1.00  0.00    -0.172 NA
ENDROOT
BRANCH   1   5
HETATM    5  C3  UNL     1      -1.910   0.855   0.040  1.00  0.00     0.157 C 
HETATM    6  C2  UNL     1      -1.513  -0.444  -0.665  1.00  0.00     0.179 C 
HETATM    7  C10 UNL     1      -0.239  -0.892   0.071  1.00  0.00     0.206 C 
HETATM    8  C8  UNL     1       0.829   0.110  -0.326  1.00  0.00     0.368 C 
HETATM    9  N3  UNL     1       0.426   1.400   0.192  1.00  0.00     0.117 N 
HETATM   10  C5  UNL     1      -0.853   1.838  -0.328  1.00  0.00     0.247 C 
HETATM   11  C7  UNL     1       0.544   1.517   1.610  1.00  0.00     0.313 C 
HETATM   12  C6  UNL     1      -1.108   3.255   0.032  1.00  0.00     0.045 C 
BRANCH   6  13
HETATM   13  O1  UNL     1      -2.480  -1.406  -0.645  1.00  0.00    -0.386 OA
HETATM   14  C1  UNL     1      -2.835  -1.898  -1.890  1.00  0.00     0.202 C 
ENDBRANCH   6  13
BRANCH   7  15
HETATM   15  O2  UNL     1      -0.455  -0.978   1.420  1.00  0.00    -0.384 OA
HETATM   16  C11 UNL     1      -0.320  -2.299   1.830  1.00  0.00     0.202 C 
ENDBRANCH   7  15
BRANCH   8  17
HETATM   17  N4  UNL     1       2.129  -0.199   0.170  1.00  0.00    -0.299 N 
ATOM     18  H4  UNL     1       2.627   0.431   0.799  1.00  0.00     0.182 HD
BRANCH  17  19
HETATM   19  N5  UNL     1       2.674  -1.382  -0.240  1.00  0.00    -0.276 N 
HETATM   20  C9  UNL     1       4.079  -1.491  -0.440  1.00  0.00     0.200 C 
HETATM   21  N6  UNL     1       4.589  -2.501  -1.063  1.00  0.00    -0.372 N 
HETATM   22  N7  UNL     1       4.959  -0.493   0.039  1.00  0.00    -0.062 NA
ATOM     23  H62 UNL     1       3.954  -3.221  -1.408  1.00  0.00     0.158 HD
ATOM     24  H61 UNL     1       5.596  -2.579  -1.206  1.00  0.00     0.158 HD
ATOM     25  H5  UNL     1       2.073  -2.190  -0.403  1.00  0.00     0.189 HD
ENDBRANCH  17  19
ENDBRANCH   8  17
ENDBRANCH   1   5
TORSDOF 5
