REMARK  6 active torsions:
REMARK  status: ('A' for Active; 'I' for Inactive)
REMARK    1  A    between atoms: C2_2  and  S1_3 
REMARK    2  A    between atoms: S1_3  and  N1_6 
REMARK    3  A    between atoms: N1_6  and  C3_8 
REMARK    4  A    between atoms: C4_9  and  N2_10 
REMARK    5  A    between atoms: N2_10  and  S2_12 
REMARK    6  A    between atoms: C5_18  and  N4_19 
ROOT
HETATM    1  C3  UNL     1      -0.583   0.648   0.475  1.00  0.00     0.156 A 
HETATM    2  C4  UNL     1      -1.767   0.011   0.338  1.00  0.00     0.165 A 
HETATM    3  N3  UNL     1      -2.814   0.711  -0.193  1.00  0.00    -0.174 N 
ATOM      4  H3  UNL     1      -3.713   0.242  -0.302  1.00  0.00     0.186 HD
HETATM    5  C5  UNL     1      -2.703   1.986  -0.574  1.00  0.00     0.680 A 
HETATM    6  N5  UNL     1      -1.539   2.649  -0.451  1.00  0.00    -0.154 N 
ATOM      7  H5  UNL     1      -1.451   3.623  -0.741  1.00  0.00     0.187 HD
HETATM    8  C6  UNL     1      -0.483   1.969   0.076  1.00  0.00     0.290 A 
HETATM    9  O6  UNL     1       0.612   2.594   0.192  1.00  0.00    -0.265 OA
ENDROOT
BRANCH   1  10
HETATM   10  N1  UNL     1       0.538   0.048   1.064  1.00  0.00    -0.276 N 
ATOM     11  H1  UNL     1       0.628   0.034   2.080  1.00  0.00     0.179 HD
BRANCH  10  12
HETATM   12  S1  UNL     1       1.759  -0.663   0.094  1.00  0.00     0.230 S 
HETATM   13  O1  UNL     1       1.409  -0.545  -1.386  1.00  0.00    -0.206 OA
HETATM   14  O2  UNL     1       1.954  -2.077   0.436  1.00  0.00    -0.206 OA
BRANCH  12  15
HETATM   15  C2  UNL     1       3.325   0.186   0.331  1.00  0.00     0.159 C 
HETATM   16  C1  UNL     1       4.363  -0.482  -0.547  1.00  0.00     0.023 C 
ENDBRANCH  12  15
ENDBRANCH  10  12
ENDBRANCH   1  10
BRANCH   2  17
HETATM   17  N2  UNL     1      -1.978  -1.310   0.734  1.00  0.00    -0.248 N 
ATOM     18  H2  UNL     1      -2.233  -1.426   1.715  1.00  0.00     0.183 HD
BRANCH  17  19
HETATM   19  S2  UNL     1      -1.880  -2.751  -0.147  1.00  0.00     0.210 S 
HETATM   20  O3  UNL     1      -1.007  -2.744  -1.340  1.00  0.00    -0.578 OA
HETATM   21  O4  UNL     1      -1.337  -3.842   0.771  1.00  0.00    -0.578 OA
HETATM   22  O5  UNL     1      -3.417  -3.261  -0.673  1.00  0.00    -0.578 OA
ENDBRANCH  17  19
ENDBRANCH   2  17
BRANCH   5  23
HETATM   23  N4  UNL     1      -3.693   2.661  -1.081  1.00  0.00    -0.234 N 
ATOM     24  H42 UNL     1      -4.576   2.158  -1.174  1.00  0.00     0.174 HD
ATOM     25  H41 UNL     1      -3.608   3.635  -1.372  1.00  0.00     0.174 HD
ENDBRANCH   5  23
TORSDOF 6
