REMARK  5 active torsions:
REMARK  status: ('A' for Active; 'I' for Inactive)
REMARK       I    between atoms: C1_4  and  N2_5 
REMARK       I    between atoms: C1_4  and  N6_23 
REMARK    1  A    between atoms: N2_5  and  C2_7 
REMARK    2  A    between atoms: C2_7  and  C3_8 
REMARK    3  A    between atoms: C3_8  and  N3_9 
REMARK    4  A    between atoms: N3_9  and  C4_11 
REMARK    5  A    between atoms: N6_23  and  N7_25 
ROOT
HETATM    1  N3  UNL     1      -0.483   0.500   0.620  1.00  0.00    -0.374 N 
ATOM      2  H3  UNL     1      -0.031   1.162   1.251  1.00  0.00     0.161 HD
ENDROOT
BRANCH   1   3
HETATM    3  C3  UNL     1       0.325  -0.536   0.013  1.00  0.00     0.141 C 
BRANCH   3   4
HETATM    4  C2  UNL     1       1.759  -0.449   0.442  1.00  0.00     0.157 C 
BRANCH   4   5
HETATM    5  N2  UNL     1       2.556  -1.484  -0.166  1.00  0.00    -0.224 N 
HETATM    6  C1  UNL     1       3.927  -1.594   0.093  1.00  0.00     0.691 C 
HETATM    7  N1  UNL     1       4.514  -2.735  -0.014  1.00  0.00    -0.233 N 
HETATM    8  N6  UNL     1       4.715  -0.476   0.476  1.00  0.00    -0.072 N 
ATOM      9  H12 UNL     1       3.948  -3.538  -0.289  1.00  0.00     0.174 HD
ATOM     10  H11 UNL     1       5.513  -2.815   0.175  1.00  0.00     0.174 HD
ATOM     11  H6  UNL     1       5.191  -0.515   1.377  1.00  0.00     0.212 HD
ATOM     12  H2  UNL     1       2.112  -2.150  -0.798  1.00  0.00     0.177 HD
BRANCH   8  13
HETATM   13  N7  UNL     1       4.880   0.664  -0.293  1.00  0.00    -0.024 N 
HETATM   14  O4  UNL     1       4.788   1.791   0.263  1.00  0.00    -0.516 OA
HETATM   15  O5  UNL     1       5.141   0.630  -1.647  1.00  0.00    -0.516 OA
ENDBRANCH   8  13
ENDBRANCH   4   5
ENDBRANCH   3   4
ENDBRANCH   1   3
BRANCH   1  16
HETATM   16  C4  UNL     1      -1.870   0.639   0.380  1.00  0.00     0.109 C 
HETATM   17  C5  UNL     1      -2.503   1.673   1.028  1.00  0.00     0.122 C 
HETATM   18  C6  UNL     1      -3.847   2.042   1.011  1.00  0.00     0.251 C 
HETATM   19  O1  UNL     1      -4.220   2.926   1.806  1.00  0.00    -0.268 OA
HETATM   20  N4  UNL     1      -4.812   1.550   0.223  1.00  0.00    -0.286 N 
HETATM   21  C7  UNL     1      -4.757   0.441  -0.550  1.00  0.00     0.316 C 
ATOM     22  H4  UNL     1      -5.689   2.071   0.203  1.00  0.00     0.172 HD
HETATM   23  O2  UNL     1      -5.898   0.139  -1.021  1.00  0.00    -0.262 OA
HETATM   24  C8  UNL     1      -3.703  -0.374  -0.891  1.00  0.00     0.315 C 
HETATM   25  O3  UNL     1      -3.994  -1.301  -1.678  1.00  0.00    -0.262 OA
HETATM   26  N5  UNL     1      -2.412  -0.260  -0.459  1.00  0.00    -0.305 N 
ATOM     27  H5  UNL     1      -1.766  -0.958  -0.827  1.00  0.00     0.170 HD
ENDBRANCH   1  16
TORSDOF 5
