REMARK  5 active torsions:
REMARK  status: ('A' for Active; 'I' for Inactive)
REMARK    1  A    between atoms: C3_6  and  N3_7 
REMARK    2  A    between atoms: C6_10  and  N4_11 
REMARK    3  A    between atoms: N4_11  and  C7_13 
REMARK    4  A    between atoms: C16_22  and  C17_23 
REMARK       I    between atoms: C17_23  and  N5_25 
REMARK    5  A    between atoms: N5_25  and  C18_27 
ROOT
HETATM    1  N3  UNL     1       1.395  -1.324   0.296  1.00  0.00    -0.378 N 
HETATM    2  C4  UNL     1       0.943  -1.093  -1.060  1.00  0.00     0.125 C 
HETATM    3  C5  UNL     1       0.034   0.114  -1.049  1.00  0.00     0.044 C 
HETATM    4  C6  UNL     1      -1.100  -0.112  -0.071  1.00  0.00     0.080 C 
HETATM    5  C14 UNL     1      -0.571  -0.183   1.303  1.00  0.00     0.044 C 
HETATM    6  C15 UNL     1       0.797  -0.718   1.450  1.00  0.00     0.125 C 
ENDROOT
BRANCH   1   7
HETATM    7  C3  UNL     1       2.481  -2.206   0.488  1.00  0.00     0.081 A 
HETATM    8  C2  UNL     1       2.267  -3.512   0.940  1.00  0.00     0.139 A 
HETATM    9  N2  UNL     1       3.469  -4.089   0.965  1.00  0.00    -0.307 N 
HETATM   10  N1  UNL     1       4.403  -3.260   0.572  1.00  0.00    -0.290 N 
ATOM     11  H2  UNL     1       3.639  -5.053   1.253  1.00  0.00     0.186 HD
HETATM   12  C1  UNL     1       5.838  -3.538   0.471  1.00  0.00     0.178 C 
HETATM   13  C16 UNL     1       3.820  -2.060   0.263  1.00  0.00     0.146 A 
BRANCH  13  14
HETATM   14  C17 UNL     1       4.574  -0.895  -0.216  1.00  0.00     0.272 C 
HETATM   15  O1  UNL     1       5.793  -1.085  -0.575  1.00  0.00    -0.266 OA
HETATM   16  N5  UNL     1       4.097   0.418  -0.319  1.00  0.00    -0.351 N 
ATOM     17  H5  UNL     1       3.139   0.636  -0.044  1.00  0.00     0.163 HD
BRANCH  16  18
HETATM   18  C18 UNL     1       4.978   1.481  -0.823  1.00  0.00     0.085 A 
HETATM   19  C19 UNL     1       4.409   2.607  -1.604  1.00  0.00     0.027 A 
HETATM   20  C20 UNL     1       4.809   2.806  -0.159  1.00  0.00     0.027 A 
ENDBRANCH  16  18
ENDBRANCH  13  14
ENDBRANCH   1   7
BRANCH   4  21
HETATM   21  N4  UNL     1      -2.060   0.907  -0.318  1.00  0.00    -0.413 N 
ATOM     22  H4  UNL     1      -1.982   1.515  -1.133  1.00  0.00     0.154 HD
BRANCH  21  23
HETATM   23  C7  UNL     1      -3.119   1.053   0.592  1.00  0.00     0.077 C 
HETATM   24  C8  UNL     1      -3.961  -0.201   0.610  1.00  0.00     0.024 C 
HETATM   25  C9  UNL     1      -4.611  -0.401  -0.725  1.00  0.00     0.002 C 
HETATM   26  C10 UNL     1      -5.669   0.608  -1.064  1.00  0.00     0.000 C 
HETATM   27  C11 UNL     1      -6.252   1.294   0.146  1.00  0.00     0.000 C 
HETATM   28  C12 UNL     1      -5.307   2.251   0.805  1.00  0.00     0.002 C 
HETATM   29  C13 UNL     1      -3.945   2.269   0.169  1.00  0.00     0.024 C 
ENDBRANCH  21  23
ENDBRANCH   4  21
TORSDOF 5
