REMARK  6 active torsions:
REMARK  status: ('A' for Active; 'I' for Inactive)
REMARK    1  A    between atoms: C2_2  and  O1_3 
REMARK    2  A    between atoms: O1_3  and  C3_4 
REMARK    3  A    between atoms: C3_4  and  C4_6 
REMARK    4  A    between atoms: C5_7  and  C6_8 
REMARK    5  A    between atoms: C14_18  and  C15_19 
REMARK    6  A    between atoms: C15_19  and  C16_20 
ROOT
HETATM    1  C4  UNL     1       1.172  -1.370   0.481  1.00  0.00     0.102 C 
HETATM    2  C5  UNL     1       1.195  -0.449  -0.443  1.00  0.00     0.053 C 
HETATM    3  N1  UNL     1      -0.018   0.145  -0.990  1.00  0.00    -0.375 N 
ATOM      4  H1  UNL     1       0.070   0.418  -1.969  1.00  0.00     0.161 HD
HETATM    5  C9  UNL     1      -1.353   0.434  -0.416  1.00  0.00     0.055 C 
HETATM    6  C10 UNL     1      -1.242   0.688   1.036  1.00  0.00     0.036 C 
HETATM    7  C11 UNL     1      -1.550   2.080   1.546  1.00  0.00     0.003 C 
HETATM    8  C12 UNL     1      -2.860   2.478   0.881  1.00  0.00     0.004 C 
HETATM    9  C13 UNL     1      -2.376   2.753  -0.521  1.00  0.00     0.037 C 
HETATM   10  C14 UNL     1      -1.940   1.497  -1.260  1.00  0.00    -0.045 C 
HETATM   11  C17 UNL     1      -2.102  -0.879  -0.582  1.00  0.00     0.046 C 
HETATM   12  C18 UNL     1      -1.557  -2.120  -0.058  1.00  0.00     0.082 C 
HETATM   13  S1  UNL     1      -0.348  -2.100   1.226  1.00  0.00    -0.121 SA
ENDROOT
BRANCH  10  14
HETATM   14  C15 UNL     1      -2.949   1.257  -2.300  1.00  0.00     0.089 C 
BRANCH  14  15
HETATM   15  C16 UNL     1      -4.263   0.718  -2.049  1.00  0.00     0.198 C 
HETATM   16  O3  UNL     1      -4.619  -0.377  -2.555  1.00  0.00    -0.644 OA
HETATM   17  O4  UNL     1      -5.258   1.292  -1.267  1.00  0.00    -0.644 OA
ENDBRANCH  14  15
ENDBRANCH  10  14
BRANCH   2  18
HETATM   18  C6  UNL     1       2.465   0.052  -0.958  1.00  0.00    -0.060 C 
HETATM   19  C7  UNL     1       3.457  -0.789  -1.660  1.00  0.00     0.045 C 
HETATM   20  C8  UNL     1       2.894   1.427  -0.519  1.00  0.00     0.045 C 
ENDBRANCH   2  18
BRANCH   1  21
HETATM   21  C3  UNL     1       2.362  -1.891   1.031  1.00  0.00     0.302 C 
HETATM   22  O2  UNL     1       3.542  -1.617   0.889  1.00  0.00    -0.259 OA
BRANCH  21  23
HETATM   23  O1  UNL     1       2.212  -2.980   1.958  1.00  0.00    -0.317 OA
BRANCH  23  24
HETATM   24  C2  UNL     1       3.397  -3.554   2.546  1.00  0.00     0.174 C 
HETATM   25  C1  UNL     1       4.133  -2.499   3.317  1.00  0.00     0.034 C 
ENDBRANCH  23  24
ENDBRANCH  21  23
ENDBRANCH   1  21
TORSDOF 6
