REMARK  6 active torsions:
REMARK  status: ('A' for Active; 'I' for Inactive)
REMARK    1  A    between atoms: C2_4  and  N2_5 
REMARK    2  A    between atoms: N2_5  and  C3_7 
REMARK    3  A    between atoms: C3_7  and  C4_8 
REMARK    4  A    between atoms: C4_8  and  C5_9 
REMARK    5  A    between atoms: C5_9  and  N3_10 
REMARK    6  A    between atoms: C11_17  and  C12_18 
ROOT
HETATM    1  C1  UNL     1      -0.303  -3.533   0.706  1.00  0.00     0.182 A 
HETATM    2  N1  UNL     1      -0.432  -2.211   0.637  1.00  0.00    -0.338 N 
ATOM      3  H1  UNL     1      -1.358  -1.824   0.820  1.00  0.00     0.168 HD
HETATM    4  C2  UNL     1       0.545  -1.346   0.349  1.00  0.00     0.119 A 
HETATM    5  C10 UNL     1       1.847  -1.846   0.089  1.00  0.00     0.049 A 
HETATM    6  C11 UNL     1       3.005  -1.141  -0.182  1.00  0.00    -0.031 A 
HETATM    7  C18 UNL     1       4.141  -1.889  -0.352  1.00  0.00     0.060 A 
HETATM    8  S1  UNL     1       3.603  -3.515  -0.135  1.00  0.00    -0.083 SA
HETATM    9  C19 UNL     1       1.964  -3.198   0.163  1.00  0.00     0.089 A 
HETATM   10  N4  UNL     1       0.900  -4.039   0.469  1.00  0.00    -0.346 N 
ATOM     11  H4  UNL     1       1.045  -5.048   0.511  1.00  0.00     0.167 HD
ENDROOT
BRANCH   4  12
HETATM   12  N2  UNL     1       0.282  -0.148   0.294  1.00  0.00    -0.355 N 
ATOM     13  H2  UNL     1       1.118   0.392   0.070  1.00  0.00     0.166 HD
BRANCH  12  14
HETATM   14  C3  UNL     1      -0.817   0.692   0.446  1.00  0.00     0.064 C 
BRANCH  14  15
HETATM   15  C4  UNL     1      -2.048   0.232  -0.316  1.00  0.00     0.064 C 
BRANCH  15  16
HETATM   16  C5  UNL     1      -3.142   1.242  -0.138  1.00  0.00     0.122 C 
BRANCH  16  17
HETATM   17  N3  UNL     1      -4.350   0.884  -0.814  1.00  0.00    -0.408 N 
HETATM   18  C6  UNL     1      -5.319   1.960  -0.802  1.00  0.00     0.143 C 
HETATM   19  C7  UNL     1      -6.715   1.555  -0.473  1.00  0.00     0.187 C 
HETATM   20  O1  UNL     1      -6.621   0.693   0.647  1.00  0.00    -0.388 OA
HETATM   21  C8  UNL     1      -6.185  -0.503   0.129  1.00  0.00     0.187 C 
HETATM   22  C9  UNL     1      -4.859  -0.418  -0.597  1.00  0.00     0.143 C 
ENDBRANCH  16  17
ENDBRANCH  15  16
ENDBRANCH  14  15
ENDBRANCH  12  14
ENDBRANCH   4  12
BRANCH   6  23
HETATM   23  C12 UNL     1       3.025   0.373  -0.397  1.00  0.00     0.020 C 
HETATM   24  C13 UNL     1       3.733   1.080   0.709  1.00  0.00     0.009 C 
HETATM   25  C14 UNL     1       5.156   0.760   0.941  1.00  0.00     0.001 C 
HETATM   26  C15 UNL     1       5.917   1.367  -0.225  1.00  0.00     0.000 C 
HETATM   27  C16 UNL     1       5.295   0.954  -1.496  1.00  0.00     0.001 C 
HETATM   28  C17 UNL     1       3.871   0.681  -1.649  1.00  0.00     0.009 C 
ENDBRANCH   6  23
TORSDOF 6
