REMARK  6 active torsions:
REMARK  status: ('A' for Active; 'I' for Inactive)
REMARK       I    between atoms: C1_2  and  N1_3 
REMARK    1  A    between atoms: C1_2  and  O3_14 
REMARK    2  A    between atoms: N1_3  and  N2_5 
REMARK    3  A    between atoms: C5_11  and  O2_12 
REMARK    4  A    between atoms: O3_14  and  N3_15 
REMARK    5  A    between atoms: C7_18  and  O4_19 
REMARK    6  A    between atoms: N4_22  and  O5_24 
ROOT
HETATM    1  N3  UNL     1      -1.309  -0.298  -0.790  1.00  0.00    -0.246 N 
ATOM      2  H3  UNL     1      -1.013   0.116  -1.674  1.00  0.00     0.195 HD
HETATM    3  C6  UNL     1      -2.557  -0.292  -0.515  1.00  0.00     0.161 C 
HETATM    4  C7  UNL     1      -3.707   0.236  -1.291  1.00  0.00     0.230 C 
HETATM    5  C8  UNL     1      -4.730   0.682  -0.338  1.00  0.00     0.059 C 
HETATM    6  N4  UNL     1      -5.388   1.801  -0.326  1.00  0.00    -0.274 N 
ATOM      7  H4  UNL     1      -6.074   1.961   0.412  1.00  0.00     0.193 HD
HETATM    8  C9  UNL     1      -4.975  -0.362   0.720  1.00  0.00     0.204 C 
HETATM    9  S2  UNL     1      -3.291  -0.952   0.955  1.00  0.00     0.197 S 
HETATM   10  O6  UNL     1      -3.248  -2.439   0.958  1.00  0.00    -0.221 OA
HETATM   11  O7  UNL     1      -2.648  -0.325   2.133  1.00  0.00    -0.221 OA
ENDROOT
BRANCH   1  12
HETATM   12  O3  UNL     1      -0.356  -0.818   0.017  1.00  0.00    -0.179 OA
BRANCH  12  13
HETATM   13  C1  UNL     1       0.960  -0.890  -0.382  1.00  0.00     0.401 C 
HETATM   14  O1  UNL     1       1.283  -0.466  -1.511  1.00  0.00    -0.235 OA
HETATM   15  N1  UNL     1       1.927  -1.435   0.478  1.00  0.00    -0.244 N 
ATOM     16  H1  UNL     1       1.662  -1.780   1.401  1.00  0.00     0.192 HD
BRANCH  15  17
HETATM   17  N2  UNL     1       3.251  -1.498   0.055  1.00  0.00    -0.301 N 
HETATM   18  C2  UNL     1       4.005  -0.460  -0.085  1.00  0.00     0.043 C 
HETATM   19  C3  UNL     1       3.586   0.907   0.176  1.00  0.00     0.068 C 
HETATM   20  C5  UNL     1       5.411  -0.560  -0.538  1.00  0.00     0.226 C 
HETATM   21  C4  UNL     1       4.670   1.592   0.997  1.00  0.00     0.082 C 
HETATM   22  S1  UNL     1       6.146   0.998   0.076  1.00  0.00    -0.131 SA
ATOM     23  H2  UNL     1       3.647  -2.414  -0.156  1.00  0.00     0.186 HD
BRANCH  20  24
HETATM   24  O2  UNL     1       6.031  -1.590   0.176  1.00  0.00    -0.379 OA
ATOM     25  H2  UNL     1       6.933  -1.654  -0.115  1.00  0.00     0.211 HD
ENDBRANCH  20  24
ENDBRANCH  15  17
ENDBRANCH  12  13
ENDBRANCH   1  12
BRANCH   4  26
HETATM   26  O4  UNL     1      -4.285  -0.780  -2.082  1.00  0.00    -0.383 OA
ATOM     27  H4  UNL     1      -5.021  -0.442  -2.579  1.00  0.00     0.211 HD
ENDBRANCH   4  26
BRANCH   6  28
HETATM   28  O5  UNL     1      -5.194   2.775  -1.270  1.00  0.00    -0.290 OA
ATOM     29  H5  UNL     1      -5.676   3.594  -1.261  1.00  0.00     0.244 HD
ENDBRANCH   6  28
TORSDOF 6
