REMARK  8 active torsions:
REMARK  status: ('A' for Active; 'I' for Inactive)
REMARK    1  A    between atoms: O1_2  and  C2_3 
REMARK    2  A    between atoms: C2_3  and  O3_5 
REMARK    3  A    between atoms: O3_5  and  C3_6 
REMARK    4  A    between atoms: C3_6  and  O4_7 
REMARK    5  A    between atoms: C9_21  and  N4_22 
REMARK    6  A    between atoms: C10_26  and  O6_27 
REMARK    7  A    between atoms: C10_26  and  C11_29 
REMARK    8  A    between atoms: C11_29  and  O7_30 
ROOT
HETATM    1  C3  UNL     1       1.037   0.123  -0.371  1.00  0.00     0.305 C 
HETATM    2  C4  UNL     1       1.220   1.571  -0.060  1.00  0.00     0.094 C 
HETATM    3  N1  UNL     1       1.979   1.994   0.865  1.00  0.00    -0.398 N 
ATOM      4  H11 UNL     1       2.104   2.984   1.078  1.00  0.00     0.156 HD
ATOM      5  H12 UNL     1       2.497   1.317   1.426  1.00  0.00     0.156 HD
HETATM    6  C5  UNL     1       0.452   2.574  -0.891  1.00  0.00     0.208 C 
HETATM    7  C6  UNL     1       0.019   3.678  -0.021  1.00  0.00     0.081 C 
HETATM    8  N2  UNL     1      -0.323   4.541   0.680  1.00  0.00    -0.196 NA
HETATM    9  S1  UNL     1      -1.048   1.678  -1.430  1.00  0.00    -0.114 SA
HETATM   10  C7  UNL     1      -1.414   0.525  -0.098  1.00  0.00     0.196 C 
HETATM   11  N3  UNL     1      -0.275  -0.336   0.096  1.00  0.00    -0.272 N 
HETATM   12  C8  UNL     1      -0.747  -1.500   0.742  1.00  0.00     0.259 C 
HETATM   13  O5  UNL     1      -0.077  -2.276   1.437  1.00  0.00    -0.271 OA
HETATM   14  C9  UNL     1      -2.193  -1.609   0.427  1.00  0.00     0.314 C 
HETATM   15  C10 UNL     1      -2.536  -0.422  -0.424  1.00  0.00     0.145 C 
ENDROOT
BRANCH   1  16
HETATM   16  O3  UNL     1       2.030  -0.663   0.210  1.00  0.00    -0.234 OA
BRANCH  16  17
HETATM   17  C2  UNL     1       3.383  -0.561  -0.010  1.00  0.00     0.410 C 
HETATM   18  O2  UNL     1       3.805   0.301  -0.797  1.00  0.00    -0.229 OA
BRANCH  17  19
HETATM   19  O1  UNL     1       4.316  -1.387   0.614  1.00  0.00    -0.303 OA
HETATM   20  C1  UNL     1       5.708  -1.260   0.369  1.00  0.00     0.215 C 
ENDBRANCH  17  19
ENDBRANCH  16  17
ENDBRANCH   1  16
BRANCH   1  21
HETATM   21  O4  UNL     1       1.087  -0.009  -1.774  1.00  0.00    -0.343 OA
ATOM     22  H4  UNL     1       0.410   0.527  -2.170  1.00  0.00     0.215 HD
ENDBRANCH   1  21
BRANCH  15  23
HETATM   23  O6  UNL     1      -2.507  -0.709  -1.783  1.00  0.00    -0.382 OA
ATOM     24  H6  UNL     1      -3.216  -1.307  -1.989  1.00  0.00     0.210 HD
ENDBRANCH  15  23
BRANCH  15  25
HETATM   25  C11 UNL     1      -3.826   0.250  -0.002  1.00  0.00     0.207 C 
BRANCH  25  26
HETATM   26  O7  UNL     1      -4.922  -0.562  -0.273  1.00  0.00    -0.398 OA
ATOM     27  H7  UNL     1      -5.731  -0.140  -0.008  1.00  0.00     0.209 HD
ENDBRANCH  25  26
ENDBRANCH  15  25
BRANCH  14  28
HETATM   28  N4  UNL     1      -2.401  -2.864  -0.237  1.00  0.00    -0.063 N 
ATOM     29  H43 UNL     1      -1.806  -2.982  -1.057  1.00  0.00     0.275 HD
ATOM     30  H42 UNL     1      -2.051  -3.659   0.298  1.00  0.00     0.275 HD
ATOM     31  H41 UNL     1      -3.395  -2.939  -0.454  1.00  0.00     0.275 HD
ENDBRANCH  14  28
TORSDOF 8
