REMARK  11 active torsions:
REMARK  status: ('A' for Active; 'I' for Inactive)
REMARK    1  A    between atoms: O1_2  and  C2_3 
REMARK    2  A    between atoms: C2_3  and  C3_5 
REMARK    3  A    between atoms: C4_6  and  O3_7 
REMARK    4  A    between atoms: C5_9  and  O4_10 
REMARK    5  A    between atoms: C6_12  and  O5_13 
REMARK    6  A    between atoms: C7_15  and  N1_16 
REMARK    7  A    between atoms: C8_20  and  O6_21 
REMARK    8  A    between atoms: O6_21  and  C9_22 
REMARK    9  A    between atoms: C9_22  and  O8_24 
REMARK   10  A    between atoms: O8_24  and  C10_25 
REMARK   11  A    between atoms: C14_29  and  O9_30 
ROOT
HETATM    1  C3  UNL     1       2.475   0.534   0.140  1.00  0.00     0.148 C 
HETATM    2  C4  UNL     1       3.066   0.464  -1.202  1.00  0.00     0.165 C 
HETATM    3  C5  UNL     1       2.831  -0.810  -1.954  1.00  0.00     0.178 C 
HETATM    4  C6  UNL     1       1.501  -0.933  -2.596  1.00  0.00     0.182 C 
HETATM    5  C7  UNL     1       0.354  -0.239  -1.958  1.00  0.00     0.246 C 
HETATM    6  C8  UNL     1       0.179  -0.408  -0.501  1.00  0.00     0.197 C 
HETATM    7  C14 UNL     1       1.301  -0.336   0.412  1.00  0.00     0.166 C 
ENDROOT
BRANCH   6   8
HETATM    8  O6  UNL     1      -0.850   0.527  -0.118  1.00  0.00    -0.288 OA
BRANCH   8   9
HETATM    9  C9  UNL     1      -2.091   0.169   0.322  1.00  0.00     0.407 C 
HETATM   10  O7  UNL     1      -2.362  -1.059   0.400  1.00  0.00    -0.229 OA
BRANCH   9  11
HETATM   11  O8  UNL     1      -3.075   1.076   0.688  1.00  0.00    -0.288 OA
BRANCH  11  12
HETATM   12  C10 UNL     1      -4.344   0.715   1.138  1.00  0.00     0.062 C 
HETATM   13  C11 UNL     1      -5.101   2.016   1.429  1.00  0.00     0.046 C 
HETATM   14  C12 UNL     1      -5.159  -0.027   0.107  1.00  0.00     0.046 C 
HETATM   15  C13 UNL     1      -4.332  -0.065   2.425  1.00  0.00     0.046 C 
ENDBRANCH  11  12
ENDBRANCH   9  11
ENDBRANCH   8   9
ENDBRANCH   6   8
BRANCH   5  16
HETATM   16  N1  UNL     1       0.152   1.122  -2.424  1.00  0.00    -0.070 N 
ATOM     17  H13 UNL     1       1.006   1.668  -2.315  1.00  0.00     0.274 HD
ATOM     18  H12 UNL     1       0.063   1.143  -3.440  1.00  0.00     0.274 HD
ATOM     19  H11 UNL     1      -0.636   1.599  -1.986  1.00  0.00     0.274 HD
ENDBRANCH   5  16
BRANCH   7  20
HETATM   20  O9  UNL     1       1.796  -1.630   0.722  1.00  0.00    -0.392 OA
ATOM     21  H9  UNL     1       1.046  -2.186   0.896  1.00  0.00     0.210 HD
ENDBRANCH   7  20
BRANCH   4  22
HETATM   22  O5  UNL     1       1.527  -0.512  -3.948  1.00  0.00    -0.391 OA
ATOM     23  H5  UNL     1       0.674  -0.591  -4.360  1.00  0.00     0.210 HD
ENDBRANCH   4  22
BRANCH   1  24
HETATM   24  C2  UNL     1       3.487   0.123   1.157  1.00  0.00     0.267 C 
HETATM   25  O2  UNL     1       4.631  -0.266   0.824  1.00  0.00    -0.265 OA
BRANCH  24  26
HETATM   26  O1  UNL     1       3.217   0.147   2.518  1.00  0.00    -0.326 OA
HETATM   27  C1  UNL     1       4.216  -0.256   3.433  1.00  0.00     0.213 C 
ENDBRANCH  24  26
ENDBRANCH   1  24
BRANCH   3  28
HETATM   28  O4  UNL     1       3.777  -0.806  -3.013  1.00  0.00    -0.390 OA
ATOM     29  H4  UNL     1       3.628  -1.614  -3.490  1.00  0.00     0.210 HD
ENDBRANCH   3  28
BRANCH   2  30
HETATM   30  O3  UNL     1       4.434   0.733  -1.251  1.00  0.00    -0.392 OA
ATOM     31  H3  UNL     1       4.816   0.688  -2.119  1.00  0.00     0.210 HD
ENDBRANCH   2  30
TORSDOF 11
