REMARK  3 active torsions:
REMARK  status: ('A' for Active; 'I' for Inactive)
REMARK    1  A    between atoms: O1_2  and  C2_3 
REMARK    2  A    between atoms: C2_3  and  C3_5 
REMARK    3  A    between atoms: C8_17  and  N6_18 
ROOT
HETATM    1  C3  UNL     1       3.014   0.222   0.686  1.00  0.00     0.213 C 
HETATM    2  N1  UNL     1       2.958   1.323   1.410  1.00  0.00    -0.281 N 
ATOM      3  H1  UNL     1       3.751   1.834   1.798  1.00  0.00     0.184 HD
HETATM    4  N2  UNL     1       1.570   1.668   1.549  1.00  0.00    -0.109 NA
HETATM    5  C4  UNL     1       1.018   1.180   0.303  1.00  0.00     0.260 C 
HETATM    6  N3  UNL     1       1.666  -0.140   0.363  1.00  0.00    -0.231 N 
HETATM    7  N4  UNL     1       0.968  -1.317   0.184  1.00  0.00    -0.231 N 
ATOM      8  H4  UNL     1       1.482  -2.196   0.121  1.00  0.00     0.209 HD
HETATM    9  N5  UNL     1      -0.430  -1.335   0.086  1.00  0.00    -0.252 N 
HETATM   10  C5  UNL     1      -1.030  -2.560   0.026  1.00  0.00     0.127 A 
HETATM   11  C6  UNL     1      -2.399  -2.682   0.043  1.00  0.00    -0.017 A 
HETATM   12  C7  UNL     1      -3.085  -4.006  -0.022  1.00  0.00     0.052 C 
HETATM   13  C8  UNL     1      -3.120  -1.518   0.123  1.00  0.00     0.056 A 
HETATM   14  C9  UNL     1      -2.466  -0.283   0.181  1.00  0.00     0.098 A 
HETATM   15  C10 UNL     1      -3.338   0.868   0.282  1.00  0.00     0.104 C 
HETATM   16  N7  UNL     1      -4.057   1.769   0.373  1.00  0.00    -0.191 NA
HETATM   17  C11 UNL     1      -1.091  -0.181   0.160  1.00  0.00     0.091 A 
HETATM   18  C12 UNL     1      -0.437   1.181   0.118  1.00  0.00     0.133 C 
HETATM   19  C13 UNL     1      -0.666   1.703  -1.306  1.00  0.00     0.208 C 
HETATM   20  O3  UNL     1      -1.288   2.882  -1.430  1.00  0.00    -0.387 OA
HETATM   21  C14 UNL     1      -1.056   3.882  -0.550  1.00  0.00     0.187 C 
HETATM   22  C15 UNL     1      -0.726   3.440   0.843  1.00  0.00     0.141 C 
HETATM   23  N8  UNL     1      -1.021   2.076   1.047  1.00  0.00    -0.401 N 
ATOM     24  H8  UNL     1      -1.615   1.756   1.812  1.00  0.00     0.154 HD
ENDROOT
BRANCH  13  25
HETATM   25  N6  UNL     1      -4.401  -1.611   0.142  1.00  0.00    -0.397 N 
ATOM     26  H62 UNL     1      -4.878  -2.512   0.100  1.00  0.00     0.156 HD
ATOM     27  H61 UNL     1      -4.937  -0.745   0.201  1.00  0.00     0.156 HD
ENDBRANCH  13  25
BRANCH   1  28
HETATM   28  C2  UNL     1       4.185  -0.536   0.261  1.00  0.00     0.330 C 
HETATM   29  O2  UNL     1       5.317  -0.122   0.610  1.00  0.00    -0.256 OA
BRANCH  28  30
HETATM   30  O1  UNL     1       4.106  -1.686  -0.503  1.00  0.00    -0.320 OA
HETATM   31  C1  UNL     1       5.288  -2.369  -0.877  1.00  0.00     0.213 C 
ENDBRANCH  28  30
ENDBRANCH   1  28
TORSDOF 3
