REMARK  6 active torsions:
REMARK  status: ('A' for Active; 'I' for Inactive)
REMARK    1  A    between atoms: C10_13  and  O4_14 
REMARK    2  A    between atoms: C12_17  and  O5_18 
REMARK    3  A    between atoms: O5_18  and  C13_19 
REMARK    4  A    between atoms: C13_19  and  C14_21 
REMARK    5  A    between atoms: C14_21  and  C16_23 
REMARK    6  A    between atoms: C20_27  and  O7_28 
ROOT
HETATM    1  C1  UNL     1      -2.608   3.574   2.025  1.00  0.00     0.012 C 
HETATM    2  C2  UNL     1      -2.660   2.355   1.092  1.00  0.00     0.008 C 
HETATM    3  C3  UNL     1      -3.987   2.386   0.420  1.00  0.00     0.183 C 
HETATM    4  O1  UNL     1      -4.177   1.599  -0.684  1.00  0.00    -0.321 OA
HETATM    5  C4  UNL     1      -3.908   0.333  -1.016  1.00  0.00     0.261 C 
HETATM    6  O2  UNL     1      -3.531   0.010  -2.161  1.00  0.00    -0.265 OA
HETATM    7  C5  UNL     1      -4.045  -0.758  -0.032  1.00  0.00     0.151 C 
HETATM    8  C6  UNL     1      -3.754  -2.110  -0.578  1.00  0.00     0.092 A 
HETATM    9  C7  UNL     1      -4.950  -2.956  -1.051  1.00  0.00     0.049 C 
HETATM   10  O3  UNL     1      -2.681  -2.133  -1.610  1.00  0.00    -0.369 OA
HETATM   11  C8  UNL     1      -2.537  -2.756  -0.371  1.00  0.00     0.159 A 
HETATM   12  C9  UNL     1      -1.492  -2.249   0.554  1.00  0.00     0.067 C 
HETATM   13  C10 UNL     1      -0.149  -2.062  -0.150  1.00  0.00     0.123 C 
HETATM   14  C11 UNL     1       0.806  -1.450   0.811  1.00  0.00     0.064 C 
HETATM   15  C12 UNL     1       1.124  -0.006   0.577  1.00  0.00     0.136 C 
HETATM   16  C19 UNL     1       0.125   0.758  -0.214  1.00  0.00     0.064 C 
HETATM   17  C20 UNL     1      -0.238   2.053   0.502  1.00  0.00     0.121 C 
HETATM   18  C21 UNL     1      -1.566   2.578   0.072  1.00  0.00     0.038 C 
ENDROOT
BRANCH  15  19
HETATM   19  O5  UNL     1       2.392   0.153  -0.037  1.00  0.00    -0.316 OA
BRANCH  19  20
HETATM   20  C13 UNL     1       3.457   0.775   0.569  1.00  0.00     0.263 C 
HETATM   21  O6  UNL     1       3.336   1.233   1.718  1.00  0.00    -0.265 OA
BRANCH  20  22
HETATM   22  C14 UNL     1       4.741   0.902  -0.133  1.00  0.00     0.085 C 
HETATM   23  C15 UNL     1       4.485   1.702  -1.399  1.00  0.00     0.021 C 
BRANCH  22  24
HETATM   24  C16 UNL     1       5.317  -0.439  -0.540  1.00  0.00    -0.010 C 
HETATM   25  C17 UNL     1       5.567  -1.336   0.640  1.00  0.00     0.010 C 
HETATM   26  C18 UNL     1       4.489  -1.162  -1.547  1.00  0.00     0.010 C 
ENDBRANCH  22  24
ENDBRANCH  20  22
ENDBRANCH  19  20
ENDBRANCH  15  19
BRANCH  13  27
HETATM   27  O4  UNL     1       0.268  -3.373  -0.492  1.00  0.00    -0.395 OA
ATOM     28  H4  UNL     1       1.103  -3.257  -0.930  1.00  0.00     0.210 HD
ENDBRANCH  13  27
BRANCH  17  29
HETATM   29  O7  UNL     1      -0.112   1.955   1.885  1.00  0.00    -0.395 OA
ATOM     30  H7  UNL     1      -0.338   2.762   2.331  1.00  0.00     0.210 HD
ENDBRANCH  17  29
TORSDOF 6
