REMARK  6 active torsions:
REMARK  status: ('A' for Active; 'I' for Inactive)
REMARK    1  A    between atoms: C2_2  and  O2_4 
REMARK    2  A    between atoms: O2_4  and  C3_5 
REMARK    3  A    between atoms: C3_5  and  C4_6 
REMARK    4  A    between atoms: C8_12  and  O5_13 
REMARK    5  A    between atoms: C12_18  and  O6_19 
REMARK    6  A    between atoms: O6_19  and  C13_20 
ROOT
HETATM    1  C4  UNL     1      -1.122  -0.107   0.249  1.00  0.00     0.134 C 
HETATM    2  O3  UNL     1      -2.040   0.530   1.174  1.00  0.00    -0.303 OA
HETATM    3  C5  UNL     1      -2.790  -0.534   1.663  1.00  0.00     0.266 C 
HETATM    4  O4  UNL     1      -3.961  -0.448   2.095  1.00  0.00    -0.265 OA
HETATM    5  C6  UNL     1      -2.017  -1.798   1.607  1.00  0.00     0.119 C 
HETATM    6  C7  UNL     1      -1.887  -2.407   3.011  1.00  0.00     0.024 C 
HETATM    7  C8  UNL     1      -0.674  -1.191   1.172  1.00  0.00     0.105 C 
HETATM    8  C9  UNL     1       0.322  -2.147   0.704  1.00  0.00     0.042 C 
HETATM    9  C10 UNL     1       1.686  -1.592   0.918  1.00  0.00     0.011 C 
HETATM   10  C11 UNL     1       2.076  -0.403   0.168  1.00  0.00     0.024 C 
HETATM   11  C12 UNL     1       1.256   0.838   0.301  1.00  0.00     0.148 C 
HETATM   12  C15 UNL     1      -0.114   0.774  -0.327  1.00  0.00     0.020 C 
HETATM   13  C16 UNL     1      -0.618   2.225  -0.160  1.00  0.00     0.021 C 
HETATM   14  C17 UNL     1       0.170   0.619  -1.809  1.00  0.00     0.016 C 
HETATM   15  C18 UNL     1       1.133  -0.457  -2.173  1.00  0.00     0.010 C 
HETATM   16  C19 UNL     1       2.319  -0.618  -1.308  1.00  0.00    -0.042 C 
HETATM   17  C20 UNL     1       3.373   0.399  -1.772  1.00  0.00     0.015 C 
HETATM   18  C21 UNL     1       2.944  -1.979  -1.504  1.00  0.00     0.015 C 
ENDROOT
BRANCH   1  19
HETATM   19  C3  UNL     1      -2.099  -0.613  -0.810  1.00  0.00     0.221 C 
BRANCH  19  20
HETATM   20  O2  UNL     1      -2.840   0.479  -1.362  1.00  0.00    -0.319 OA
BRANCH  20  21
HETATM   21  C2  UNL     1      -3.795   0.338  -2.322  1.00  0.00     0.254 C 
HETATM   22  C1  UNL     1      -4.493   1.559  -2.811  1.00  0.00     0.126 C 
HETATM   23  O1  UNL     1      -4.070  -0.786  -2.774  1.00  0.00    -0.266 OA
ENDBRANCH  20  21
ENDBRANCH  19  20
ENDBRANCH   1  19
BRANCH   7  24
HETATM   24  O5  UNL     1      -0.239  -0.660   2.408  1.00  0.00    -0.386 OA
ATOM     25  H5  UNL     1       0.046  -1.350   2.995  1.00  0.00     0.210 HD
ENDBRANCH   7  24
BRANCH  11  26
HETATM   26  O6  UNL     1       1.345   1.501   1.520  1.00  0.00    -0.315 OA
BRANCH  26  27
HETATM   27  C13 UNL     1       1.955   2.693   1.797  1.00  0.00     0.255 C 
HETATM   28  C14 UNL     1       1.980   3.302   3.152  1.00  0.00     0.126 C 
HETATM   29  O7  UNL     1       2.520   3.283   0.825  1.00  0.00    -0.266 OA
ENDBRANCH  26  27
ENDBRANCH  11  26
TORSDOF 6
