REMARK  5 active torsions:
REMARK  status: ('A' for Active; 'I' for Inactive)
REMARK    1  A    between atoms: C2_2  and  C4_4 
REMARK    2  A    between atoms: C6_6  and  O1_7 
REMARK    3  A    between atoms: C9_11  and  N1_12 
REMARK    4  A    between atoms: C10_16  and  O2_17 
REMARK    5  A    between atoms: O2_17  and  C11_18 
ROOT
HETATM    1  C4  UNL     1       3.197   0.089  -0.123  1.00  0.00     0.091 C 
HETATM    2  C5  UNL     1       2.915   1.184   0.821  1.00  0.00     0.048 C 
HETATM    3  C6  UNL     1       2.057   2.304   0.349  1.00  0.00     0.119 C 
HETATM    4  C7  UNL     1       0.785   1.944  -0.375  1.00  0.00     0.039 C 
HETATM    5  C8  UNL     1      -0.357   1.616   0.532  1.00  0.00     0.033 C 
HETATM    6  C9  UNL     1      -1.523   2.527   0.195  1.00  0.00     0.218 C 
HETATM    7  C10 UNL     1      -2.082   1.353  -0.593  1.00  0.00     0.175 C 
HETATM    8  C12 UNL     1      -1.203   0.431   0.194  1.00  0.00     0.004 C 
HETATM    9  C13 UNL     1      -2.001  -0.075   1.380  1.00  0.00     0.013 C 
HETATM   10  C14 UNL     1      -2.737  -1.348   1.127  1.00  0.00     0.002 C 
HETATM   11  C15 UNL     1      -1.994  -2.434   0.463  1.00  0.00     0.009 C 
HETATM   12  C16 UNL     1      -1.270  -1.903  -0.725  1.00  0.00    -0.038 C 
HETATM   13  C17 UNL     1      -0.440  -3.055  -1.263  1.00  0.00     0.015 C 
HETATM   14  C18 UNL     1      -2.330  -1.701  -1.823  1.00  0.00     0.015 C 
HETATM   15  C19 UNL     1      -0.467  -0.667  -0.502  1.00  0.00     0.081 C 
HETATM   16  C20 UNL     1       0.794  -0.950   0.274  1.00  0.00     0.294 A 
HETATM   17  O5  UNL     1       0.780  -0.758   1.672  1.00  0.00    -0.185 OA
HETATM   18  O6  UNL     1       0.784  -1.969   1.248  1.00  0.00    -0.185 OA
HETATM   19  C21 UNL     1       2.062  -0.834  -0.428  1.00  0.00     0.202 C 
HETATM   20  O7  UNL     1       2.277  -1.563  -1.403  1.00  0.00    -0.291 OA
ENDROOT
BRANCH   6  21
HETATM   21  N1  UNL     1      -2.280   3.073   1.255  1.00  0.00    -0.072 N 
ATOM     22  H13 UNL     1      -2.614   2.314   1.849  1.00  0.00     0.274 HD
ATOM     23  H12 UNL     1      -1.652   3.561   1.894  1.00  0.00     0.274 HD
ATOM     24  H11 UNL     1      -3.064   3.685   1.028  1.00  0.00     0.274 HD
ENDBRANCH   6  21
BRANCH   7  25
HETATM   25  O2  UNL     1      -3.474   1.324  -0.323  1.00  0.00    -0.288 OA
BRANCH  25  26
HETATM   26  C11 UNL     1      -4.339   1.523  -1.379  1.00  0.00     0.333 C 
HETATM   27  O3  UNL     1      -3.872   1.720  -2.526  1.00  0.00    -0.624 OA
HETATM   28  O4  UNL     1      -5.719   1.519  -1.251  1.00  0.00    -0.624 OA
ENDBRANCH  25  26
ENDBRANCH   7  25
BRANCH   3  29
HETATM   29  O1  UNL     1       1.738   3.081   1.490  1.00  0.00    -0.396 OA
ATOM     30  H1  UNL     1       1.190   3.796   1.189  1.00  0.00     0.210 HD
ENDBRANCH   3  29
BRANCH   1  31
HETATM   31  C2  UNL     1       4.381  -0.697   0.385  1.00  0.00    -0.082 C 
HETATM   32  C1  UNL     1       4.900  -0.514   1.574  1.00  0.00     0.015 C 
HETATM   33  C3  UNL     1       5.016  -1.736  -0.490  1.00  0.00     0.043 C 
ENDBRANCH   1  31
TORSDOF 5
