REMARK  9 active torsions:
REMARK  status: ('A' for Active; 'I' for Inactive)
REMARK    1  A    between atoms: O1_2  and  C2_3 
REMARK    2  A    between atoms: C4_5  and  N1_6 
REMARK    3  A    between atoms: C5_11  and  C6_12 
REMARK       I    between atoms: N3_14  and  C8_15 
REMARK    4  A    between atoms: C8_15  and  O3_17 
REMARK    5  A    between atoms: O3_17  and  C9_18 
REMARK    6  A    between atoms: C14_23  and  O4_24 
REMARK    7  A    between atoms: O4_24  and  C15_25 
REMARK    8  A    between atoms: C15_25  and  O6_27 
REMARK    9  A    between atoms: O6_27  and  C16_28 
ROOT
HETATM    1  C6  UNL     1      -0.242   1.125  -0.001  1.00  0.00     0.103 C 
HETATM    2  C7  UNL     1      -1.691   0.930   0.463  1.00  0.00     0.143 C 
HETATM    3  N3  UNL     1      -1.659  -0.450   0.887  1.00  0.00    -0.325 N 
HETATM    4  C8  UNL     1      -2.655  -1.419   0.605  1.00  0.00     0.363 C 
HETATM    5  O2  UNL     1      -2.568  -2.607   1.004  1.00  0.00    -0.238 OA
HETATM    6  C13 UNL     1      -0.426  -0.597   1.634  1.00  0.00     0.161 C 
HETATM    7  C14 UNL     1       0.565   0.099   0.722  1.00  0.00     0.165 C 
ENDROOT
BRANCH   1   8
HETATM    8  C5  UNL     1       0.213   2.515   0.229  1.00  0.00     0.093 A 
HETATM    9  N2  UNL     1       0.518   3.339  -0.785  1.00  0.00    -0.332 N 
HETATM   10  C4  UNL     1       0.932   4.594  -0.674  1.00  0.00     0.104 A 
ATOM     11  H2  UNL     1       0.423   2.965  -1.729  1.00  0.00     0.168 HD
HETATM   12  C3  UNL     1       1.061   5.099   0.617  1.00  0.00     0.104 A 
HETATM   13  C2  UNL     1       0.759   4.288   1.688  1.00  0.00     0.146 A 
HETATM   14  N4  UNL     1       0.347   3.030   1.476  1.00  0.00    -0.326 N 
ATOM     15  H4  UNL     1       0.127   2.441   2.279  1.00  0.00     0.169 HD
BRANCH  10  16
HETATM   16  N1  UNL     1       1.190   5.277  -1.714  1.00  0.00    -0.385 N 
ATOM     17  H12 UNL     1       1.508   6.242  -1.629  1.00  0.00     0.157 HD
ATOM     18  H11 UNL     1       1.095   4.907  -2.660  1.00  0.00     0.157 HD
ENDBRANCH  10  16
BRANCH  13  19
HETATM   19  O1  UNL     1       0.895   4.814   2.980  1.00  0.00    -0.341 OA
HETATM   20  C1  UNL     1       1.331   6.143   3.188  1.00  0.00     0.211 C 
ENDBRANCH  13  19
ENDBRANCH   1   8
BRANCH   7  21
HETATM   21  O4  UNL     1       0.965  -0.888  -0.240  1.00  0.00    -0.290 OA
BRANCH  21  22
HETATM   22  C15 UNL     1       2.292  -1.243  -0.403  1.00  0.00     0.407 C 
HETATM   23  O5  UNL     1       3.135  -0.668   0.323  1.00  0.00    -0.229 OA
BRANCH  22  24
HETATM   24  O6  UNL     1       2.737  -2.181  -1.307  1.00  0.00    -0.288 OA
BRANCH  24  25
HETATM   25  C16 UNL     1       4.108  -2.465  -1.391  1.00  0.00     0.062 C 
HETATM   26  C17 UNL     1       4.686  -2.984  -0.092  1.00  0.00     0.046 C 
HETATM   27  C18 UNL     1       4.272  -3.574  -2.426  1.00  0.00     0.046 C 
HETATM   28  C19 UNL     1       4.929  -1.285  -1.823  1.00  0.00     0.046 C 
ENDBRANCH  24  25
ENDBRANCH  22  24
ENDBRANCH  21  22
ENDBRANCH   7  21
BRANCH   4  29
HETATM   29  O3  UNL     1      -3.773  -1.072  -0.132  1.00  0.00    -0.294 OA
BRANCH  29  30
HETATM   30  C9  UNL     1      -4.748  -2.045  -0.402  1.00  0.00     0.061 C 
HETATM   31  C10 UNL     1      -5.365  -2.630   0.845  1.00  0.00     0.046 C 
HETATM   32  C11 UNL     1      -4.268  -3.133  -1.327  1.00  0.00     0.046 C 
HETATM   33  C12 UNL     1      -5.883  -1.323  -1.140  1.00  0.00     0.046 C 
ENDBRANCH  29  30
ENDBRANCH   4  29
TORSDOF 9
