REMARK  3 active torsions:
REMARK  status: ('A' for Active; 'I' for Inactive)
REMARK    1  A    between atoms: C6_6  and  N1_7 
REMARK       I    between atoms: N1_7  and  C7_9 
REMARK    2  A    between atoms: C7_9  and  C8_11 
REMARK    3  A    between atoms: C8_11  and  N2_12 
ROOT
HETATM    1  N1  UNL     1      -0.965  -1.003  -0.054  1.00  0.00    -0.351 N 
ATOM      2  H1  UNL     1      -1.375  -1.872  -0.397  1.00  0.00     0.163 HD
HETATM    3  C7  UNL     1       0.439  -0.821  -0.072  1.00  0.00     0.256 C 
HETATM    4  O1  UNL     1       0.921   0.245   0.352  1.00  0.00    -0.267 OA
ENDROOT
BRANCH   3   5
HETATM    5  C8  UNL     1       1.323  -1.885  -0.587  1.00  0.00     0.160 C 
BRANCH   5   6
HETATM    6  N2  UNL     1       2.677  -1.532  -0.528  1.00  0.00    -0.385 N 
HETATM    7  C9  UNL     1       3.159  -0.489  -1.391  1.00  0.00     0.128 C 
HETATM    8  C10 UNL     1       4.508  -0.176  -0.807  1.00  0.00     0.024 C 
HETATM    9  C11 UNL     1       5.048   1.181  -0.979  1.00  0.00     0.147 C 
HETATM   10  C13 UNL     1       4.121  -0.171   0.678  1.00  0.00     0.024 C 
HETATM   11  S1  UNL     1       6.218   1.166   0.410  1.00  0.00     0.145 S 
HETATM   12  O2  UNL     1       6.086   2.395   1.228  1.00  0.00    -0.228 OA
HETATM   13  O3  UNL     1       7.593   0.877  -0.058  1.00  0.00    -0.228 OA
HETATM   14  C12 UNL     1       5.508  -0.263   1.277  1.00  0.00     0.147 C 
HETATM   15  C14 UNL     1       3.270  -1.361   0.761  1.00  0.00     0.128 C 
ENDBRANCH   5   6
ENDBRANCH   3   5
BRANCH   1  16
HETATM   16  C6  UNL     1      -1.808   0.046   0.452  1.00  0.00     0.093 C 
HETATM   17  C5  UNL     1      -2.522  -0.423   1.713  1.00  0.00     0.027 C 
HETATM   18  C4  UNL     1      -3.691   0.546   1.753  1.00  0.00     0.011 C 
HETATM   19  C2  UNL     1      -4.203   0.436   0.322  1.00  0.00    -0.039 C 
HETATM   20  C1  UNL     1      -5.051   1.655   0.035  1.00  0.00     0.015 C 
HETATM   21  C3  UNL     1      -5.041  -0.797   0.241  1.00  0.00     0.015 C 
HETATM   22  C15 UNL     1      -2.942   0.392  -0.466  1.00  0.00    -0.020 C 
HETATM   23  C16 UNL     1      -2.676   1.806  -0.988  1.00  0.00     0.018 C 
HETATM   24  C17 UNL     1      -3.019  -0.499  -1.682  1.00  0.00     0.018 C 
ENDBRANCH   1  16
TORSDOF 3
