REMARK  5 active torsions:
REMARK  status: ('A' for Active; 'I' for Inactive)
REMARK    1  A    between atoms: C2_2  and  N1_3 
REMARK    2  A    between atoms: N1_3  and  C3_5 
REMARK    3  A    between atoms: C3_5  and  N2_7 
REMARK    4  A    between atoms: C6_10  and  N3_11 
REMARK    5  A    between atoms: N4_14  and  C9_15 
ROOT
HETATM    1  N3  UNL     1      -0.391   0.001  -0.190  1.00  0.00    -0.387 N 
HETATM    2  C7  UNL     1      -1.130   0.006   0.997  1.00  0.00     0.138 C 
HETATM    3  C8  UNL     1      -2.458  -0.700   0.713  1.00  0.00     0.141 C 
HETATM    4  N4  UNL     1      -3.099  -0.252  -0.452  1.00  0.00    -0.384 N 
HETATM    5  C14 UNL     1      -2.320   0.076  -1.572  1.00  0.00     0.098 C 
HETATM    6  C15 UNL     1      -0.970   0.697  -1.286  1.00  0.00     0.226 C 
HETATM    7  C16 UNL     1      -1.202   2.117  -1.008  1.00  0.00     0.089 C 
HETATM    8  N5  UNL     1      -1.388   3.227  -0.809  1.00  0.00    -0.195 NA
ENDROOT
BRANCH   1   9
HETATM    9  C6  UNL     1       0.971  -0.274  -0.222  1.00  0.00     0.084 C 
HETATM   10  C5  UNL     1       1.909   0.620   0.501  1.00  0.00     0.045 C 
HETATM   11  C4  UNL     1       3.328   0.310  -0.048  1.00  0.00     0.127 C 
HETATM   12  N2  UNL     1       3.638  -1.071   0.037  1.00  0.00    -0.358 N 
HETATM   13  C18 UNL     1       2.613  -2.123   0.079  1.00  0.00     0.127 C 
HETATM   14  C17 UNL     1       1.235  -1.675   0.349  1.00  0.00     0.045 C 
BRANCH  12  15
HETATM   15  C3  UNL     1       4.957  -1.576   0.058  1.00  0.00     0.169 C 
HETATM   16  S1  UNL     1       5.103  -3.277   0.199  1.00  0.00    -0.041 SA
BRANCH  15  17
HETATM   17  N1  UNL     1       6.173  -0.939  -0.014  1.00  0.00    -0.367 N 
ATOM     18  H1  UNL     1       6.963  -1.582   0.045  1.00  0.00     0.161 HD
BRANCH  17  19
HETATM   19  C2  UNL     1       6.572   0.418  -0.153  1.00  0.00     0.117 C 
HETATM   20  C1  UNL     1       6.300   1.037  -1.491  1.00  0.00     0.026 C 
ENDBRANCH  17  19
ENDBRANCH  15  17
ENDBRANCH  12  15
ENDBRANCH   1   9
BRANCH   4  21
HETATM   21  C9  UNL     1      -4.385   0.302  -0.346  1.00  0.00     0.083 C 
HETATM   22  C10 UNL     1      -5.371  -0.718   0.178  1.00  0.00     0.025 C 
HETATM   23  C11 UNL     1      -6.509   0.183   0.665  1.00  0.00     0.002 C 
HETATM   24  C12 UNL     1      -5.726   1.230   1.453  1.00  0.00     0.002 C 
HETATM   25  C13 UNL     1      -4.514   1.484   0.576  1.00  0.00     0.025 C 
ENDBRANCH   4  21
TORSDOF 5
