REMARK  4 active torsions:
REMARK  status: ('A' for Active; 'I' for Inactive)
REMARK    1  A    between atoms: C2_2  and  C5_5 
REMARK       I    between atoms: C5_5  and  N1_7 
REMARK    2  A    between atoms: N1_7  and  C6_9 
REMARK    3  A    between atoms: C6_9  and  C7_10 
REMARK    4  A    between atoms: C7_10  and  C8_11 
REMARK       I    between atoms: C8_11  and  N2_13 
ROOT
HETATM    1  C8  UNL     1       0.005   0.277   1.334  1.00  0.00     0.222 C 
HETATM    2  O2  UNL     1       0.282   1.005   2.355  1.00  0.00    -0.273 OA
HETATM    3  N2  UNL     1      -1.329  -0.124   1.179  1.00  0.00    -0.343 N 
HETATM    4  C9  UNL     1      -2.301   0.309   2.158  1.00  0.00     0.129 C 
HETATM    5  C10 UNL     1      -3.483   0.987   1.466  1.00  0.00     0.058 C 
HETATM    6  C11 UNL     1      -4.141   0.002   0.501  1.00  0.00     0.066 C 
HETATM    7  C12 UNL     1      -4.633   0.798  -0.662  1.00  0.00     0.059 C 
HETATM    8  C13 UNL     1      -6.131   0.585  -0.588  1.00  0.00     0.119 C 
HETATM    9  C14 UNL     1      -6.811   1.818  -0.995  1.00  0.00     0.066 C 
HETATM   10  N3  UNL     1      -7.340   2.803  -1.305  1.00  0.00    -0.197 NA
HETATM   11  C15 UNL     1      -6.300   0.408   0.906  1.00  0.00     0.188 C 
HETATM   12  O3  UNL     1      -5.265  -0.468   1.197  1.00  0.00    -0.379 OA
HETATM   13  C16 UNL     1      -3.307  -1.175   0.187  1.00  0.00     0.068 C 
HETATM   14  C17 UNL     1      -1.816  -0.955   0.104  1.00  0.00     0.030 C 
HETATM   15  C18 UNL     1      -1.423  -0.453  -1.272  1.00  0.00     0.038 C 
HETATM   16  C19 UNL     1      -1.189  -2.330   0.265  1.00  0.00     0.038 C 
ENDROOT
BRANCH   1  17
HETATM   17  C7  UNL     1       1.142  -0.037   0.459  1.00  0.00     0.122 C 
BRANCH  17  18
HETATM   18  C6  UNL     1       2.457   0.465   1.025  1.00  0.00     0.132 C 
BRANCH  18  19
HETATM   19  N1  UNL     1       3.563   0.137   0.133  1.00  0.00    -0.360 N 
HETATM   20  C5  UNL     1       4.903   0.518   0.470  1.00  0.00     0.225 C 
HETATM   21  O1  UNL     1       5.152   1.138   1.535  1.00  0.00    -0.273 OA
ATOM     22  H1  UNL     1       3.382  -0.366  -0.736  1.00  0.00     0.162 HD
BRANCH  20  23
HETATM   23  C2  UNL     1       5.978   0.147  -0.492  1.00  0.00     0.030 C 
HETATM   24  C1  UNL     1       7.324   0.611  -0.003  1.00  0.00     0.024 C 
HETATM   25  C3  UNL     1       5.951  -1.385  -0.588  1.00  0.00     0.024 C 
HETATM   26  C4  UNL     1       5.615   0.754  -1.838  1.00  0.00     0.024 C 
ENDBRANCH  20  23
ENDBRANCH  18  19
ENDBRANCH  17  18
ENDBRANCH   1  17
TORSDOF 4
