REMARK  2 active torsions:
REMARK  status: ('A' for Active; 'I' for Inactive)
REMARK       I    between atoms: N1_4  and  C4_5 
REMARK       I    between atoms: C4_5  and  N2_7 
REMARK    1  A    between atoms: N2_7  and  C5_9 
REMARK    2  A    between atoms: N3_12  and  C8_13 
ROOT
HETATM    1  C1  UNL     1       4.744   0.615  -1.860  1.00  0.00     0.013 C 
HETATM    2  C2  UNL     1       3.865  -0.116  -0.834  1.00  0.00     0.015 A 
HETATM    3  C3  UNL     1       3.261   0.647   0.186  1.00  0.00     0.102 A 
HETATM    4  N1  UNL     1       2.445   0.364   1.295  1.00  0.00    -0.328 N 
HETATM    5  C4  UNL     1       1.081   0.035   1.136  1.00  0.00     0.319 C 
HETATM    6  O1  UNL     1       0.418  -0.200   2.181  1.00  0.00    -0.247 OA
HETATM    7  N2  UNL     1       0.456  -0.033  -0.140  1.00  0.00    -0.337 N 
ATOM      8  H2  UNL     1       1.016   0.162  -0.970  1.00  0.00     0.164 HD
HETATM    9  C14 UNL     1       3.131   0.445   2.569  1.00  0.00     0.128 C 
HETATM   10  C15 UNL     1       4.521   0.968   2.458  1.00  0.00     0.021 C 
HETATM   11  C16 UNL     1       5.339   0.406   1.297  1.00  0.00     0.013 C 
HETATM   12  C17 UNL     1       4.440  -0.365   0.440  1.00  0.00    -0.018 A 
HETATM   13  C18 UNL     1       4.060  -1.713   1.064  1.00  0.00     0.018 C 
ENDROOT
BRANCH   7  14
HETATM   14  C5  UNL     1      -0.916  -0.361  -0.304  1.00  0.00     0.116 C 
HETATM   15  C6  UNL     1      -1.171  -1.622  -1.100  1.00  0.00     0.057 C 
HETATM   16  C7  UNL     1      -2.511  -1.326  -1.730  1.00  0.00     0.275 C 
HETATM   17  N3  UNL     1      -2.909   0.006  -1.365  1.00  0.00     0.095 N 
HETATM   18  C13 UNL     1      -1.716   0.696  -1.029  1.00  0.00     0.298 C 
BRANCH  17  19
HETATM   19  C8  UNL     1      -3.928  -0.045  -0.375  1.00  0.00     0.227 C 
HETATM   20  C9  UNL     1      -4.375   1.319   0.100  1.00  0.00     0.062 C 
HETATM   21  C10 UNL     1      -5.455   1.116   1.138  1.00  0.00     0.169 C 
HETATM   22  O2  UNL     1      -6.387   0.164   0.813  1.00  0.00    -0.391 OA
HETATM   23  C11 UNL     1      -6.420  -0.053  -0.541  1.00  0.00     0.169 C 
HETATM   24  C12 UNL     1      -5.136  -0.752  -0.942  1.00  0.00     0.062 C 
ENDBRANCH  17  19
ENDBRANCH   7  14
TORSDOF 2
