REMARK  2 active torsions:
REMARK  status: ('A' for Active; 'I' for Inactive)
REMARK    1  A    between atoms: C2_2  and  N1_4 
REMARK    2  A    between atoms: N3_14  and  C8_15 
ROOT
HETATM    1  N1  UNL     1      -2.456   0.630   1.023  1.00  0.00    -0.369 N 
HETATM    2  C4  UNL     1      -2.888  -0.663   1.381  1.00  0.00     0.065 C 
HETATM    3  C5  UNL     1      -1.646  -1.503   1.215  1.00  0.00     0.067 C 
HETATM    4  C6  UNL     1      -0.899  -0.879   0.031  1.00  0.00     0.046 C 
HETATM    5  C7  UNL     1      -1.496  -1.440  -1.185  1.00  0.00     0.154 C 
HETATM    6  N2  UNL     1      -0.736  -1.370  -2.387  1.00  0.00    -0.301 N 
ATOM      7  H2  UNL     1      -1.010  -0.951  -3.276  1.00  0.00     0.173 HD
HETATM    8  S1  UNL     1       0.773  -2.165  -1.996  1.00  0.00     0.321 S 
HETATM    9  O1  UNL     1       0.367  -3.534  -1.463  1.00  0.00    -0.182 OA
HETATM   10  O2  UNL     1       1.600  -2.401  -3.197  1.00  0.00    -0.182 OA
HETATM   11  N3  UNL     1       1.425  -1.273  -0.761  1.00  0.00    -0.268 N 
HETATM   12  C14 UNL     1       0.538  -1.035   0.287  1.00  0.00     0.095 C 
HETATM   13  C15 UNL     1      -1.344   0.576   0.164  1.00  0.00     0.080 C 
ENDROOT
BRANCH  11  14
HETATM   14  C8  UNL     1       2.612  -0.567  -0.888  1.00  0.00     0.102 C 
HETATM   15  C9  UNL     1       2.360   0.927  -0.664  1.00  0.00     0.026 C 
HETATM   16  C10 UNL     1       3.588   1.612  -1.282  1.00  0.00     0.002 C 
HETATM   17  C11 UNL     1       4.724   1.316  -0.323  1.00  0.00     0.000 C 
HETATM   18  C12 UNL     1       4.947  -0.130  -0.093  1.00  0.00     0.002 C 
HETATM   19  C13 UNL     1       3.697  -0.945   0.087  1.00  0.00     0.026 C 
ENDBRANCH  11  14
BRANCH   1  20
HETATM   20  C2  UNL     1      -3.451   1.598   0.781  1.00  0.00     0.080 C 
HETATM   21  C1  UNL     1      -4.255   1.828   2.068  1.00  0.00     0.032 C 
HETATM   22  C3  UNL     1      -4.449   1.256  -0.285  1.00  0.00     0.032 C 
ENDBRANCH   1  20
TORSDOF 2
