REMARK  3 active torsions:
REMARK  status: ('A' for Active; 'I' for Inactive)
REMARK    1  A    between atoms: C2_2  and  C4_4 
REMARK    2  A    between atoms: C11_11  and  C12_12 
REMARK       I    between atoms: C12_12  and  N1_14 
REMARK       I    between atoms: N1_14  and  C13_16 
REMARK    3  A    between atoms: C16_23  and  O3_24 
ROOT
HETATM    1  C4  UNL     1      -2.652   0.576  -1.046  1.00  0.00     0.077 C 
HETATM    2  C5  UNL     1      -2.582  -0.929  -0.958  1.00  0.00     0.022 C 
HETATM    3  C6  UNL     1      -1.324  -1.539  -0.495  1.00  0.00     0.029 C 
HETATM    4  C7  UNL     1      -0.326  -1.506  -1.625  1.00  0.00     0.130 C 
HETATM    5  C8  UNL     1       0.999  -2.088  -1.370  1.00  0.00     0.037 C 
HETATM    6  C9  UNL     1       2.070  -1.166  -0.896  1.00  0.00     0.002 C 
HETATM    7  C10 UNL     1       3.136  -1.015  -1.999  1.00  0.00     0.011 C 
HETATM    8  C11 UNL     1       1.618   0.209  -0.456  1.00  0.00     0.146 C 
HETATM    9  C15 UNL     1       0.140   0.227  -0.413  1.00  0.00     0.250 C 
HETATM   10  N2  UNL     1      -0.483   1.526  -0.371  1.00  0.00    -0.008 N 
ATOM     11  H21 UNL     1      -0.389   2.058  -1.236  1.00  0.00     0.284 HD
ATOM     12  H22 UNL     1      -0.003   2.196   0.230  1.00  0.00     0.284 HD
HETATM   13  C16 UNL     1      -1.883   1.263   0.022  1.00  0.00     0.236 C 
HETATM   14  C17 UNL     1      -1.667   0.315   1.152  1.00  0.00     0.084 C 
HETATM   15  C18 UNL     1      -0.606  -0.607   0.495  1.00  0.00     0.026 C 
HETATM   16  C19 UNL     1      -0.061  -1.417   1.569  1.00  0.00     0.021 C 
HETATM   17  O4  UNL     1      -0.178  -0.142  -1.766  1.00  0.00    -0.347 OA
ENDROOT
BRANCH   8  18
HETATM   18  C12 UNL     1       2.319   0.767   0.691  1.00  0.00     0.233 C 
HETATM   19  O1  UNL     1       1.772   1.244   1.722  1.00  0.00    -0.273 OA
HETATM   20  N1  UNL     1       3.732   0.792   0.681  1.00  0.00    -0.297 N 
HETATM   21  C13 UNL     1       4.431   1.321   1.795  1.00  0.00     0.220 C 
ATOM     22  H1  UNL     1       4.246   0.432  -0.123  1.00  0.00     0.171 HD
HETATM   23  C14 UNL     1       5.907   1.329   1.785  1.00  0.00     0.117 C 
HETATM   24  O2  UNL     1       3.833   1.782   2.790  1.00  0.00    -0.274 OA
ENDBRANCH   8  18
BRANCH  13  25
HETATM   25  O3  UNL     1      -2.390   2.492   0.405  1.00  0.00    -0.364 OA
ATOM     26  H3  UNL     1      -1.898   2.932   1.088  1.00  0.00     0.212 HD
ENDBRANCH  13  25
BRANCH   1  27
HETATM   27  C2  UNL     1      -4.122   0.869  -1.006  1.00  0.00    -0.084 C 
HETATM   28  C1  UNL     1      -4.683   1.495  -2.032  1.00  0.00     0.014 C 
HETATM   29  C3  UNL     1      -4.993   0.427   0.113  1.00  0.00     0.043 C 
ENDBRANCH   1  27
TORSDOF 3
