REMARK  7 active torsions:
REMARK  status: ('A' for Active; 'I' for Inactive)
REMARK    1  A    between atoms: N2_10  and  C8_11 
REMARK    2  A    between atoms: C8_11  and  C9_12 
REMARK    3  A    between atoms: C9_12  and  O1_13 
REMARK    4  A    between atoms: C9_12  and  C10_15 
REMARK    5  A    between atoms: C11_16  and  C12_17 
REMARK    6  A    between atoms: C12_17  and  O2_18 
REMARK    7  A    between atoms: C15_22  and  O3_23 
ROOT
HETATM    1  N1  UNL     1      -6.715  -1.827   0.291  1.00  0.00    -0.197 NA
HETATM    2  C1  UNL     1      -5.904  -1.018   0.379  1.00  0.00     0.065 C 
HETATM    3  C2  UNL     1      -4.883   0.015   0.468  1.00  0.00     0.114 C 
HETATM    4  C3  UNL     1      -5.381   1.357  -0.004  1.00  0.00     0.031 C 
HETATM    5  C4  UNL     1      -5.758   1.203  -1.460  1.00  0.00     0.076 C 
HETATM    6  S1  UNL     1      -4.381   0.132  -2.052  1.00  0.00    -0.156 SA
HETATM    7  C5  UNL     1      -3.723  -0.356  -0.434  1.00  0.00     0.052 C 
HETATM    8  C6  UNL     1      -3.369  -1.798  -0.322  1.00  0.00     0.054 C 
HETATM    9  C7  UNL     1      -2.276  -1.774   0.727  1.00  0.00     0.274 C 
HETATM   10  N2  UNL     1      -1.522  -0.557   0.482  1.00  0.00     0.093 N 
HETATM   11  C18 UNL     1      -2.468   0.392  -0.078  1.00  0.00     0.294 C 
ENDROOT
BRANCH  10  12
HETATM   12  C8  UNL     1      -1.086   0.023   1.757  1.00  0.00     0.316 C 
BRANCH  12  13
HETATM   13  C9  UNL     1      -0.164   1.168   1.539  1.00  0.00     0.225 C 
BRANCH  13  14
HETATM   14  O1  UNL     1      -0.663   2.214   0.818  1.00  0.00    -0.382 OA
ATOM     15  H1  UNL     1      -0.074   2.946   0.679  1.00  0.00     0.211 HD
ENDBRANCH  13  14
BRANCH  13  16
HETATM   16  C10 UNL     1       1.028   0.658   0.840  1.00  0.00    -0.070 C 
HETATM   17  C11 UNL     1       2.017   0.257   0.281  1.00  0.00    -0.066 C 
BRANCH  17  18
HETATM   18  C12 UNL     1       3.250  -0.211  -0.399  1.00  0.00     0.121 C 
HETATM   19  C13 UNL     1       3.997  -1.056   0.571  1.00  0.00     0.054 C 
HETATM   20  C14 UNL     1       5.449  -1.240   0.290  1.00  0.00     0.035 C 
HETATM   21  C15 UNL     1       6.119   0.007  -0.248  1.00  0.00     0.118 C 
HETATM   22  C16 UNL     1       5.328   0.613  -1.385  1.00  0.00     0.035 C 
HETATM   23  C17 UNL     1       3.963   1.009  -0.879  1.00  0.00     0.054 C 
BRANCH  18  24
HETATM   24  O2  UNL     1       2.846  -0.940  -1.529  1.00  0.00    -0.378 OA
ATOM     25  H2  UNL     1       3.635  -1.240  -1.964  1.00  0.00     0.211 HD
ENDBRANCH  18  24
BRANCH  21  26
HETATM   26  O3  UNL     1       7.362  -0.389  -0.739  1.00  0.00    -0.396 OA
ATOM     27  H3  UNL     1       7.782   0.393  -1.076  1.00  0.00     0.210 HD
ENDBRANCH  21  26
ENDBRANCH  17  18
ENDBRANCH  13  16
ENDBRANCH  12  13
ENDBRANCH  10  12
TORSDOF 7
