REMARK  5 active torsions:
REMARK  status: ('A' for Active; 'I' for Inactive)
REMARK    1  A    between atoms: C9_9  and  C10_10 
REMARK    2  A    between atoms: C10_10  and  C11_11 
REMARK    3  A    between atoms: C12_13  and  O2_14 
REMARK    4  A    between atoms: C16_19  and  O3_20 
REMARK    5  A    between atoms: C18_23  and  O4_24 
ROOT
HETATM    1  C1  UNL     1      -0.025   3.588   0.669  1.00  0.00     0.010 C 
HETATM    2  C2  UNL     1      -0.512   2.282  -0.033  1.00  0.00    -0.011 C 
HETATM    3  C3  UNL     1      -1.690   1.695   0.671  1.00  0.00     0.010 C 
HETATM    4  C4  UNL     1      -1.846   0.293   1.077  1.00  0.00    -0.002 C 
HETATM    5  C5  UNL     1      -0.646  -0.256   1.701  1.00  0.00     0.011 C 
HETATM    6  C6  UNL     1       0.266  -0.646   0.507  1.00  0.00     0.009 C 
HETATM    7  C7  UNL     1       0.030  -2.021   0.002  1.00  0.00     0.065 C 
HETATM    8  C8  UNL     1      -1.352  -2.139   0.328  1.00  0.00     0.025 C 
HETATM    9  C9  UNL     1      -2.119  -0.793   0.088  1.00  0.00    -0.003 C 
HETATM   10  C12 UNL     1      -1.418  -0.112  -1.053  1.00  0.00     0.136 C 
HETATM   11  C13 UNL     1       0.039   0.147  -0.695  1.00  0.00    -0.007 C 
HETATM   12  C14 UNL     1       0.536   0.007  -2.037  1.00  0.00     0.019 C 
HETATM   13  C15 UNL     1       0.553   1.380  -0.121  1.00  0.00     0.029 C 
HETATM   14  C16 UNL     1       1.950   1.445  -0.598  1.00  0.00     0.126 C 
HETATM   15  C17 UNL     1       2.968   0.493  -0.131  1.00  0.00     0.068 C 
HETATM   16  C18 UNL     1       3.160  -0.950  -0.212  1.00  0.00     0.146 C 
HETATM   17  C19 UNL     1       2.582  -2.007   0.609  1.00  0.00     0.055 C 
HETATM   18  C20 UNL     1       1.239  -2.629   0.473  1.00  0.00     0.152 C 
HETATM   19  O5  UNL     1       1.149  -3.795   0.799  1.00  0.00    -0.293 OA
ENDROOT
BRANCH   9  20
HETATM   20  C10 UNL     1      -3.549  -1.030  -0.043  1.00  0.00     0.081 C 
BRANCH  20  21
HETATM   21  C11 UNL     1      -4.003  -2.053  -0.969  1.00  0.00     0.232 C 
HETATM   22  O1  UNL     1      -4.459  -1.752  -2.052  1.00  0.00    -0.307 OA
ENDBRANCH  20  21
ENDBRANCH   9  20
BRANCH  10  23
HETATM   23  O2  UNL     1      -2.086   0.819  -1.740  1.00  0.00    -0.394 OA
ATOM     24  H2  UNL     1      -1.643   1.250  -2.462  1.00  0.00     0.210 HD
ENDBRANCH  10  23
BRANCH  14  25
HETATM   25  O3  UNL     1       2.423   2.705  -0.062  1.00  0.00    -0.395 OA
ATOM     26  H3  UNL     1       3.321   2.747  -0.369  1.00  0.00     0.210 HD
ENDBRANCH  14  25
BRANCH  16  27
HETATM   27  O4  UNL     1       4.574  -1.077   0.112  1.00  0.00    -0.392 OA
ATOM     28  H4  UNL     1       4.699  -2.017   0.059  1.00  0.00     0.210 HD
ENDBRANCH  16  27
TORSDOF 5
