REMARK  6 active torsions:
REMARK  status: ('A' for Active; 'I' for Inactive)
REMARK    1  A    between atoms: O1_2  and  C2_3 
REMARK    2  A    between atoms: C3_4  and  C4_5 
REMARK    3  A    between atoms: C4_5  and  O2_7 
REMARK    4  A    between atoms: C9_13  and  O3_14 
REMARK    5  A    between atoms: C10_16  and  C11_17 
REMARK    6  A    between atoms: C12_18  and  C13_19 
ROOT
HETATM    1  C2  UNL     1      -2.748   0.764  -0.225  1.00  0.00     0.165 C 
HETATM    2  C3  UNL     1      -3.940  -0.161  -0.109  1.00  0.00     0.047 C 
HETATM    3  C6  UNL     1      -3.610  -1.558  -0.527  1.00  0.00     0.040 C 
HETATM    4  C7  UNL     1      -2.161  -1.813  -0.092  1.00  0.00     0.274 C 
HETATM    5  N1  UNL     1      -1.935  -1.051   1.099  1.00  0.00     0.103 N 
HETATM    6  C8  UNL     1      -0.950  -1.655   1.934  1.00  0.00     0.306 C 
HETATM    7  C9  UNL     1       0.444  -1.518   1.389  1.00  0.00     0.162 C 
HETATM    8  C10 UNL     1       0.696  -0.051   1.131  1.00  0.00     0.098 C 
HETATM    9  C18 UNL     1      -0.296   0.514   0.156  1.00  0.00     0.064 C 
HETATM   10  C19 UNL     1      -1.688   0.315   0.770  1.00  0.00     0.183 C 
HETATM   11  C20 UNL     1      -1.757   1.205   1.992  1.00  0.00     0.052 C 
ENDROOT
BRANCH   8  12
HETATM   12  C11 UNL     1       2.029   0.138   0.526  1.00  0.00    -0.099 C 
HETATM   13  C12 UNL     1       3.132   0.286   0.044  1.00  0.00    -0.101 C 
BRANCH  13  14
HETATM   14  C13 UNL     1       4.476   0.454  -0.523  1.00  0.00     0.068 C 
HETATM   15  C14 UNL     1       5.111  -0.901  -0.835  1.00  0.00     0.044 C 
HETATM   16  C15 UNL     1       6.413  -0.589  -1.568  1.00  0.00     0.233 C 
HETATM   17  N2  UNL     1       7.307   0.205  -0.787  1.00  0.00    -0.075 N 
HETATM   18  C16 UNL     1       6.705   1.387  -0.230  1.00  0.00     0.233 C 
ATOM     19  H22 UNL     1       7.738  -0.357  -0.053  1.00  0.00     0.277 HD
ATOM     20  H21 UNL     1       8.137   0.447  -1.328  1.00  0.00     0.277 HD
HETATM   21  C17 UNL     1       5.418   1.110   0.492  1.00  0.00     0.044 C 
ENDBRANCH  13  14
ENDBRANCH   8  12
BRANCH   7  22
HETATM   22  O3  UNL     1       0.689  -2.317   0.295  1.00  0.00    -0.393 OA
ATOM     23  H3  UNL     1       1.570  -2.230  -0.049  1.00  0.00     0.210 HD
ENDBRANCH   7  22
BRANCH   1  24
HETATM   24  O1  UNL     1      -2.253   0.825  -1.512  1.00  0.00    -0.388 OA
HETATM   25  C1  UNL     1      -2.343   2.134  -2.034  1.00  0.00     0.202 C 
ENDBRANCH   1  24
BRANCH   2  26
HETATM   26  C4  UNL     1      -5.148   0.395  -0.827  1.00  0.00     0.120 C 
HETATM   27  C5  UNL     1      -6.340  -0.502  -0.728  1.00  0.00     0.040 C 
BRANCH  26  28
HETATM   28  O2  UNL     1      -5.507   1.635  -0.285  1.00  0.00    -0.395 OA
ATOM     29  H2  UNL     1      -6.266   1.985  -0.736  1.00  0.00     0.210 HD
ENDBRANCH  26  28
ENDBRANCH   2  26
TORSDOF 6
