REMARK  7 active torsions:
REMARK  status: ('A' for Active; 'I' for Inactive)
REMARK    1  A    between atoms: C2_2  and  O2_4 
REMARK    2  A    between atoms: O2_4  and  C3_5 
REMARK    3  A    between atoms: C3_5  and  C5_7 
REMARK    4  A    between atoms: C6_8  and  C7_9 
REMARK    5  A    between atoms: C15_17  and  C16_18 
REMARK    6  A    between atoms: C21_24  and  O4_25 
REMARK    7  A    between atoms: C29_35  and  O6_36 
ROOT
HETATM    1  C5  UNL     1       2.368   0.112  -0.434  1.00  0.00     0.028 C 
HETATM    2  C6  UNL     1       2.422  -1.335  -0.741  1.00  0.00    -0.004 C 
HETATM    3  C10 UNL     1       1.481  -1.512  -1.913  1.00  0.00     0.006 C 
HETATM    4  C11 UNL     1       0.107  -1.378  -1.302  1.00  0.00     0.011 C 
HETATM    5  C12 UNL     1      -0.125  -0.218  -0.410  1.00  0.00    -0.025 C 
HETATM    6  C13 UNL     1      -0.988   0.761  -1.204  1.00  0.00     0.017 C 
HETATM    7  C14 UNL     1      -2.324   0.832  -0.539  1.00  0.00     0.016 C 
HETATM    8  C15 UNL     1      -3.470   0.696  -1.527  1.00  0.00     0.043 C 
HETATM    9  C17 UNL     1      -3.633  -0.765  -1.770  1.00  0.00     0.020 C 
HETATM   10  C18 UNL     1      -3.078  -1.467  -0.560  1.00  0.00     0.015 C 
HETATM   11  C19 UNL     1      -2.461  -0.384   0.330  1.00  0.00     0.005 C 
HETATM   12  C20 UNL     1      -1.060  -0.726   0.702  1.00  0.00     0.036 C 
HETATM   13  C21 UNL     1      -0.506  -0.253   1.971  1.00  0.00     0.124 C 
HETATM   14  C22 UNL     1       0.998  -0.158   1.670  1.00  0.00     0.042 C 
HETATM   15  C23 UNL     1       1.058   0.403   0.271  1.00  0.00    -0.027 C 
HETATM   16  C24 UNL     1       0.844   1.908   0.461  1.00  0.00     0.016 C 
HETATM   17  C25 UNL     1      -3.389  -0.226   1.485  1.00  0.00     0.092 A 
HETATM   18  C26 UNL     1      -3.179  -1.322   2.550  1.00  0.00     0.049 C 
HETATM   19  O5  UNL     1      -3.709   1.046   1.853  1.00  0.00    -0.369 OA
HETATM   20  C27 UNL     1      -4.700   0.231   1.332  1.00  0.00     0.160 A 
HETATM   21  C28 UNL     1      -5.367   0.500   0.052  1.00  0.00     0.068 C 
HETATM   22  C29 UNL     1      -4.678   1.356  -0.939  1.00  0.00     0.136 C 
ENDROOT
BRANCH   1  23
HETATM   23  C3  UNL     1       3.592   0.756   0.056  1.00  0.00     0.133 C 
HETATM   24  C4  UNL     1       4.576   0.755  -1.161  1.00  0.00     0.040 C 
BRANCH  23  25
HETATM   25  O2  UNL     1       3.540   2.119   0.378  1.00  0.00    -0.316 OA
BRANCH  25  26
HETATM   26  C2  UNL     1       4.107   2.654   1.528  1.00  0.00     0.255 C 
HETATM   27  C1  UNL     1       4.030   4.115   1.836  1.00  0.00     0.126 C 
HETATM   28  O1  UNL     1       4.688   1.838   2.291  1.00  0.00    -0.266 OA
ENDBRANCH  25  26
ENDBRANCH  23  25
ENDBRANCH   1  23
BRANCH   2  29
HETATM   29  C7  UNL     1       3.682  -2.077  -0.866  1.00  0.00    -0.018 C 
HETATM   30  C8  UNL     1       3.247  -3.536  -1.219  1.00  0.00     0.010 C 
HETATM   31  C9  UNL     1       4.360  -2.318   0.498  1.00  0.00     0.010 C 
ENDBRANCH   2  29
BRANCH  13  32
HETATM   32  O4  UNL     1      -0.906   0.943   2.474  1.00  0.00    -0.395 OA
ATOM     33  H4  UNL     1      -0.546   1.250   3.298  1.00  0.00     0.210 HD
ENDBRANCH  13  32
BRANCH   8  34
HETATM   34  C16 UNL     1      -3.044   1.445  -2.766  1.00  0.00     0.243 C 
HETATM   35  O3  UNL     1      -3.567   1.113  -3.812  1.00  0.00    -0.306 OA
ENDBRANCH   8  34
BRANCH  22  36
HETATM   36  O6  UNL     1      -4.344   2.582  -0.373  1.00  0.00    -0.394 OA
ATOM     37  H6  UNL     1      -5.111   3.001   0.000  1.00  0.00     0.210 HD
ENDBRANCH  22  36
TORSDOF 7
