REMARK  6 active torsions:
REMARK  status: ('A' for Active; 'I' for Inactive)
REMARK    1  A    between atoms: O1_2  and  C2_3 
REMARK    2  A    between atoms: C2_3  and  C3_5 
REMARK    3  A    between atoms: C15_17  and  C16_18 
REMARK       I    between atoms: C16_18  and  N1_20 
REMARK    4  A    between atoms: N1_20  and  S1_22 
REMARK    5  A    between atoms: S1_22  and  C17_25 
REMARK    6  A    between atoms: C22_30  and  O6_31 
ROOT
HETATM    1  C3  UNL     1      -4.710  -0.229  -0.189  1.00  0.00     0.049 C 
HETATM    2  C4  UNL     1      -5.347  -1.114   0.900  1.00  0.00     0.026 C 
HETATM    3  C5  UNL     1      -4.852  -1.023  -1.454  1.00  0.00     0.020 C 
HETATM    4  C6  UNL     1      -3.816  -2.099  -1.559  1.00  0.00     0.002 C 
HETATM    5  C7  UNL     1      -2.442  -1.532  -1.523  1.00  0.00     0.010 C 
HETATM    6  C8  UNL     1      -2.279  -0.198  -0.901  1.00  0.00    -0.035 C 
HETATM    7  C9  UNL     1      -2.282   0.867  -2.012  1.00  0.00     0.016 C 
HETATM    8  C10 UNL     1      -0.919  -0.016  -0.243  1.00  0.00     0.001 C 
HETATM    9  C11 UNL     1       0.209  -0.127  -1.250  1.00  0.00     0.007 C 
HETATM   10  C12 UNL     1       1.488   0.298  -0.555  1.00  0.00     0.013 C 
HETATM   11  C13 UNL     1       1.780  -0.520   0.664  1.00  0.00    -0.001 C 
HETATM   12  C14 UNL     1       2.171  -1.936   0.313  1.00  0.00     0.019 C 
HETATM   13  C15 UNL     1       2.771   0.044   1.610  1.00  0.00     0.090 C 
HETATM   14  C20 UNL     1       1.977   1.210   2.208  1.00  0.00     0.018 C 
HETATM   15  C21 UNL     1       0.536   0.697   2.315  1.00  0.00     0.040 C 
HETATM   16  C22 UNL     1       0.573  -0.609   1.595  1.00  0.00     0.070 C 
HETATM   17  C23 UNL     1      -0.625  -1.004   0.833  1.00  0.00     0.025 C 
HETATM   18  C24 UNL     1      -1.850  -1.276   1.619  1.00  0.00     0.008 C 
HETATM   19  C25 UNL     1      -2.888  -0.182   1.547  1.00  0.00     0.007 C 
HETATM   20  C26 UNL     1      -3.311   0.161   0.151  1.00  0.00     0.012 C 
ENDROOT
BRANCH  13  21
HETATM   21  C16 UNL     1       4.074   0.432   1.123  1.00  0.00     0.235 C 
HETATM   22  O3  UNL     1       5.079  -0.182   1.649  1.00  0.00    -0.272 OA
HETATM   23  N1  UNL     1       4.396   1.388   0.152  1.00  0.00    -0.254 N 
ATOM     24  H1  UNL     1       3.645   1.909  -0.301  1.00  0.00     0.181 HD
BRANCH  23  25
HETATM   25  S1  UNL     1       6.011   1.705  -0.294  1.00  0.00     0.236 S 
HETATM   26  O4  UNL     1       6.186   3.122  -0.828  1.00  0.00    -0.205 OA
HETATM   27  O5  UNL     1       6.951   1.621   0.891  1.00  0.00    -0.205 OA
BRANCH  25  28
HETATM   28  C17 UNL     1       6.638   0.627  -1.545  1.00  0.00     0.121 C 
HETATM   29  C18 UNL     1       6.790  -0.787  -1.031  1.00  0.00     0.027 C 
HETATM   30  C19 UNL     1       8.063   1.079  -1.907  1.00  0.00     0.027 C 
ENDBRANCH  25  28
ENDBRANCH  23  25
ENDBRANCH  13  21
BRANCH  16  31
HETATM   31  O6  UNL     1       0.874  -1.609   2.525  1.00  0.00    -0.389 OA
ATOM     32  H6  UNL     1       0.123  -1.664   3.104  1.00  0.00     0.210 HD
ENDBRANCH  16  31
BRANCH   1  33
HETATM   33  C2  UNL     1      -5.631   0.932  -0.282  1.00  0.00     0.267 C 
HETATM   34  O2  UNL     1      -6.182   1.205  -1.353  1.00  0.00    -0.264 OA
BRANCH  33  35
HETATM   35  O1  UNL     1      -5.840   1.674   0.848  1.00  0.00    -0.326 OA
HETATM   36  C1  UNL     1      -6.705   2.781   0.798  1.00  0.00     0.213 C 
ENDBRANCH  33  35
ENDBRANCH   1  33
TORSDOF 6
