REMARK  6 active torsions:
REMARK  status: ('A' for Active; 'I' for Inactive)
REMARK    1  A    between atoms: C2_2  and  S1_4 
REMARK    2  A    between atoms: S1_4  and  N1_7 
REMARK       I    between atoms: N1_7  and  C4_9 
REMARK    3  A    between atoms: C4_9  and  C5_11 
REMARK    4  A    between atoms: C6_12  and  C7_13 
REMARK    5  A    between atoms: C15_21  and  O4_22 
REMARK    6  A    between atoms: C24_33  and  S2_34 
ROOT
HETATM    1  C7  UNL     1       1.014   1.170   0.642  1.00  0.00    -0.019 C 
HETATM    2  C8  UNL     1       1.591   2.080   1.704  1.00  0.00     0.020 C 
HETATM    3  C9  UNL     1       0.729   2.041  -0.560  1.00  0.00     0.013 C 
HETATM    4  C10 UNL     1      -0.297   3.072  -0.211  1.00  0.00     0.002 C 
HETATM    5  C11 UNL     1      -1.236   2.686   0.849  1.00  0.00     0.011 C 
HETATM    6  C12 UNL     1      -1.509   1.199   0.982  1.00  0.00    -0.020 C 
HETATM    7  C13 UNL     1      -2.094   1.141   2.422  1.00  0.00     0.017 C 
HETATM    8  C14 UNL     1      -0.225   0.430   1.101  1.00  0.00     0.036 C 
HETATM    9  C15 UNL     1      -0.202  -0.926   0.487  1.00  0.00     0.124 C 
HETATM   10  C16 UNL     1      -1.592  -1.580   0.475  1.00  0.00     0.039 C 
HETATM   11  C17 UNL     1      -2.376  -0.715  -0.447  1.00  0.00     0.022 C 
HETATM   12  C18 UNL     1      -3.636  -1.349  -0.919  1.00  0.00     0.018 C 
HETATM   13  C19 UNL     1      -4.404  -2.086   0.135  1.00  0.00     0.023 C 
HETATM   14  C20 UNL     1      -3.286  -2.388  -1.997  1.00  0.00     0.023 C 
HETATM   15  C21 UNL     1      -4.483  -0.336  -1.624  1.00  0.00     0.135 C 
HETATM   16  O5  UNL     1      -5.575  -0.741  -2.000  1.00  0.00    -0.297 OA
HETATM   17  C22 UNL     1      -4.088   1.044  -1.872  1.00  0.00     0.080 C 
HETATM   18  C23 UNL     1      -2.852   1.518  -1.149  1.00  0.00     0.029 C 
HETATM   19  C24 UNL     1      -2.575   0.692   0.108  1.00  0.00     0.021 C 
ENDROOT
BRANCH   1  20
HETATM   20  C6  UNL     1       2.104   0.260   0.214  1.00  0.00    -0.011 C 
HETATM   21  C5  UNL     1       3.074  -0.196   0.980  1.00  0.00     0.072 C 
BRANCH  21  22
HETATM   22  C4  UNL     1       4.125  -1.075   0.555  1.00  0.00     0.254 C 
HETATM   23  N1  UNL     1       4.278  -1.588  -0.760  1.00  0.00    -0.247 N 
ATOM     24  H1  UNL     1       3.594  -1.326  -1.470  1.00  0.00     0.182 HD
HETATM   25  O3  UNL     1       5.001  -1.436   1.408  1.00  0.00    -0.268 OA
BRANCH  23  26
HETATM   26  S1  UNL     1       5.562  -2.626  -1.202  1.00  0.00     0.260 S 
HETATM   27  O1  UNL     1       5.442  -3.100  -2.620  1.00  0.00    -0.200 OA
HETATM   28  O2  UNL     1       5.621  -3.848  -0.328  1.00  0.00    -0.200 OA
BRANCH  26  29
HETATM   29  C2  UNL     1       7.136  -1.845  -1.063  1.00  0.00     0.044 C 
HETATM   30  C1  UNL     1       7.659  -1.166  -2.068  1.00  0.00     0.033 C 
HETATM   31  C3  UNL     1       7.882  -1.949   0.211  1.00  0.00     0.062 C 
ENDBRANCH  26  29
ENDBRANCH  23  26
ENDBRANCH  21  22
ENDBRANCH   1  20
BRANCH   9  32
HETATM   32  O4  UNL     1       0.582  -1.849   1.193  1.00  0.00    -0.395 OA
ATOM     33  H4  UNL     1       0.597  -2.714   0.801  1.00  0.00     0.210 HD
ENDBRANCH   9  32
BRANCH  19  34
HETATM   34  S2  UNL     1      -4.202   0.632   0.928  1.00  0.00    -0.162 SA
HETATM   35  C25 UNL     1      -4.907   2.226   1.282  1.00  0.00     0.090 C 
ENDBRANCH  19  34
TORSDOF 6
