REMARK  8 active torsions:
REMARK  status: ('A' for Active; 'I' for Inactive)
REMARK    1  A    between atoms: C2_2  and  N1_3 
REMARK    2  A    between atoms: N1_3  and  C3_4 
REMARK    3  A    between atoms: C5_6  and  O1_7 
REMARK    4  A    between atoms: C5_6  and  C6_9 
REMARK    5  A    between atoms: C8_11  and  O2_12 
REMARK    6  A    between atoms: C21_27  and  O4_28 
REMARK    7  A    between atoms: C25_33  and  C27_35 
REMARK    8  A    between atoms: C27_35  and  O6_37 
ROOT
HETATM    1  C6  UNL     1      -2.068   1.185  -0.771  1.00  0.00     0.073 C 
HETATM    2  C7  UNL     1      -1.891   0.856  -2.237  1.00  0.00     0.029 C 
HETATM    3  C8  UNL     1      -2.534   2.629  -0.644  1.00  0.00     0.137 C 
HETATM    4  C9  UNL     1      -1.846   3.540   0.253  1.00  0.00     0.034 C 
HETATM    5  C10 UNL     1      -0.634   3.127   0.999  1.00  0.00     0.015 C 
HETATM    6  C11 UNL     1       0.135   2.071   0.156  1.00  0.00    -0.010 C 
HETATM    7  C12 UNL     1       0.521   2.874  -1.009  1.00  0.00     0.018 C 
HETATM    8  C13 UNL     1      -0.847   0.972   0.066  1.00  0.00     0.150 C 
HETATM    9  O3  UNL     1      -0.272  -0.292  -0.029  1.00  0.00    -0.370 OA
HETATM   10  C14 UNL     1       0.356  -0.682   1.144  1.00  0.00     0.093 C 
HETATM   11  C15 UNL     1      -0.745  -1.136   2.104  1.00  0.00     0.050 C 
HETATM   12  C16 UNL     1       1.210  -1.885   0.822  1.00  0.00     0.024 C 
HETATM   13  C17 UNL     1       0.516  -2.916  -0.029  1.00  0.00     0.013 C 
HETATM   14  C18 UNL     1       2.634  -1.637   0.581  1.00  0.00     0.010 C 
HETATM   15  C19 UNL     1       3.177  -1.070   1.889  1.00  0.00     0.009 C 
HETATM   16  C20 UNL     1       2.361  -0.014   2.509  1.00  0.00     0.042 C 
HETATM   17  C21 UNL     1       1.113   0.423   1.809  1.00  0.00     0.093 C 
HETATM   18  C22 UNL     1       1.379   1.591   0.861  1.00  0.00     0.034 C 
HETATM   19  C23 UNL     1       2.600   1.412   0.053  1.00  0.00     0.010 C 
HETATM   20  C24 UNL     1       2.744   0.394  -0.966  1.00  0.00     0.020 C 
HETATM   21  C25 UNL     1       3.151  -0.987  -0.617  1.00  0.00     0.048 C 
HETATM   22  C26 UNL     1       2.706  -1.847  -1.843  1.00  0.00     0.026 C 
ENDROOT
BRANCH   1  23
HETATM   23  C5  UNL     1      -3.152   0.350  -0.209  1.00  0.00     0.127 C 
HETATM   24  N1  UNL     1      -3.610  -0.919  -0.396  1.00  0.00    -0.365 N 
BRANCH  24  25
HETATM   25  C2  UNL     1      -3.132  -1.897  -1.301  1.00  0.00     0.120 C 
HETATM   26  C1  UNL     1      -3.942  -1.792  -2.600  1.00  0.00     0.026 C 
ENDBRANCH  24  25
BRANCH  24  27
HETATM   27  C3  UNL     1      -4.761  -1.378   0.434  1.00  0.00     0.120 C 
HETATM   28  C4  UNL     1      -6.063  -1.081  -0.242  1.00  0.00     0.026 C 
ENDBRANCH  24  27
BRANCH  23  29
HETATM   29  O1  UNL     1      -3.859   0.997   0.724  1.00  0.00    -0.349 OA
ATOM     30  H1  UNL     1      -3.540   1.882   0.854  1.00  0.00     0.219 HD
ENDBRANCH  23  29
ENDBRANCH   1  23
BRANCH   3  31
HETATM   31  O2  UNL     1      -3.923   2.769  -0.531  1.00  0.00    -0.394 OA
ATOM     32  H2  UNL     1      -4.214   3.670  -0.452  1.00  0.00     0.210 HD
ENDBRANCH   3  31
BRANCH  17  33
HETATM   33  O4  UNL     1       0.361   0.974   2.854  1.00  0.00    -0.386 OA
ATOM     34  H4  UNL     1       0.842   1.676   3.276  1.00  0.00     0.210 HD
ENDBRANCH  17  33
BRANCH  21  35
HETATM   35  C27 UNL     1       4.637  -1.182  -0.683  1.00  0.00     0.267 C 
HETATM   36  O5  UNL     1       5.165  -1.998   0.091  1.00  0.00    -0.264 OA
BRANCH  35  37
HETATM   37  O6  UNL     1       5.463  -0.509  -1.559  1.00  0.00    -0.326 OA
HETATM   38  C28 UNL     1       6.850  -0.777  -1.534  1.00  0.00     0.213 C 
ENDBRANCH  35  37
ENDBRANCH  21  35
TORSDOF 8
