REMARK  7 active torsions:
REMARK  status: ('A' for Active; 'I' for Inactive)
REMARK    1  A    between atoms: C3_3  and  C4_4 
REMARK    2  A    between atoms: C4_4  and  O1_7 
REMARK    3  A    between atoms: O1_7  and  C7_8 
REMARK    4  A    between atoms: C7_8  and  C8_10 
REMARK       I    between atoms: C8_10  and  N1_12 
REMARK    5  A    between atoms: N1_12  and  C9_14 
REMARK       I    between atoms: N2_22  and  C16_23 
REMARK       I    between atoms: C16_23  and  N3_25 
REMARK    6  A    between atoms: N3_25  and  C17_27 
REMARK    7  A    between atoms: C17_27  and  C18_28 
ROOT
HETATM    1  C1  UNL     1       7.893   2.008  -1.855  1.00  0.00     0.112 C 
HETATM    2  C2  UNL     1       7.563   0.985  -0.854  1.00  0.00    -0.108 C 
HETATM    3  C3  UNL     1       7.279   0.159  -0.020  1.00  0.00    -0.069 C 
ENDROOT
BRANCH   3   4
HETATM    4  C4  UNL     1       6.920  -0.836   1.019  1.00  0.00     0.126 C 
HETATM    5  C5  UNL     1       7.033  -2.198   0.413  1.00  0.00     0.061 C 
HETATM    6  C6  UNL     1       7.871  -0.615   2.173  1.00  0.00     0.061 C 
BRANCH   4   7
HETATM    7  O1  UNL     1       5.574  -0.534   1.422  1.00  0.00    -0.290 OA
BRANCH   7   8
HETATM    8  C7  UNL     1       4.524  -0.559   0.549  1.00  0.00     0.353 C 
HETATM    9  O2  UNL     1       4.777  -0.864  -0.658  1.00  0.00    -0.254 OA
BRANCH   8  10
HETATM   10  C8  UNL     1       3.153  -0.255   0.942  1.00  0.00     0.317 C 
HETATM   11  O3  UNL     1       2.914   0.055   2.138  1.00  0.00    -0.262 OA
HETATM   12  N1  UNL     1       2.083  -0.300   0.012  1.00  0.00    -0.347 N 
ATOM     13  H1  UNL     1       2.275  -0.553  -0.957  1.00  0.00     0.163 HD
BRANCH  12  14
HETATM   14  C9  UNL     1       0.702   0.010   0.415  1.00  0.00     0.093 C 
HETATM   15  C10 UNL     1       0.276   1.132  -0.512  1.00  0.00     0.028 C 
HETATM   16  C11 UNL     1      -0.486   0.428  -1.627  1.00  0.00     0.028 C 
HETATM   17  C12 UNL     1      -1.159  -0.699  -0.867  1.00  0.00     0.098 C 
HETATM   18  C13 UNL     1      -0.124  -1.177   0.086  1.00  0.00     0.067 C 
HETATM   19  N2  UNL     1      -2.258  -0.286  -0.073  1.00  0.00    -0.326 N 
HETATM   20  C14 UNL     1      -0.927  -1.696   1.259  1.00  0.00     0.196 C 
HETATM   21  F1  UNL     1      -0.251  -1.731   2.434  1.00  0.00    -0.247 F 
HETATM   22  C15 UNL     1      -2.038  -0.652   1.305  1.00  0.00     0.165 C 
HETATM   23  C16 UNL     1      -3.426   0.386  -0.557  1.00  0.00     0.318 C 
HETATM   24  O4  UNL     1      -3.508   0.626  -1.782  1.00  0.00    -0.247 OA
HETATM   25  N3  UNL     1      -4.427   0.746   0.357  1.00  0.00    -0.342 N 
ATOM     26  H3  UNL     1      -4.242   0.512   1.332  1.00  0.00     0.164 HD
BRANCH  25  27
HETATM   27  C17 UNL     1      -5.662   1.393   0.102  1.00  0.00     0.132 C 
BRANCH  27  28
HETATM   28  C18 UNL     1      -6.657   0.654  -0.693  1.00  0.00    -0.035 C 
HETATM   29  C19 UNL     1      -7.003  -0.674   0.004  1.00  0.00     0.016 C 
HETATM   30  C20 UNL     1      -7.974   1.518  -0.579  1.00  0.00     0.016 C 
HETATM   31  C21 UNL     1      -6.486   0.434  -2.132  1.00  0.00     0.016 C 
ENDBRANCH  27  28
ENDBRANCH  25  27
ENDBRANCH  12  14
ENDBRANCH   8  10
ENDBRANCH   7   8
ENDBRANCH   4   7
ENDBRANCH   3   4
TORSDOF 7
