REMARK  7 active torsions:
REMARK  status: ('A' for Active; 'I' for Inactive)
REMARK    1  A    between atoms: C3_3  and  C4_4 
REMARK    2  A    between atoms: C5_6  and  N1_7 
REMARK    3  A    between atoms: C5_6  and  C12_18 
REMARK    4  A    between atoms: N1_7  and  C6_9 
REMARK    5  A    between atoms: C6_9  and  N2_11 
REMARK    6  A    between atoms: C12_18  and  N5_26 
REMARK    7  A    between atoms: N4_19  and  C13_21 
REMARK       I    between atoms: N5_26  and  C18_28 
ROOT
HETATM    1  C1  UNL     1      -0.899   4.426  -5.248  1.00  0.00     0.112 C 
HETATM    2  C2  UNL     1      -0.637   3.433  -4.238  1.00  0.00    -0.105 C 
HETATM    3  C3  UNL     1      -0.417   2.580  -3.401  1.00  0.00    -0.052 C 
ENDROOT
BRANCH   3   4
HETATM    4  C4  UNL     1      -0.104   1.588  -2.455  1.00  0.00     0.117 C 
HETATM    5 CL1  UNL     1       1.708   1.147  -2.608  1.00  0.00    -0.072 Cl
HETATM    6  C5  UNL     1      -0.682   0.926  -1.581  1.00  0.00     0.109 C 
BRANCH   6   7
HETATM    7  N1  UNL     1       0.341  -0.004  -0.919  1.00  0.00    -0.328 N 
ATOM      8  H1  UNL     1       0.401  -0.985  -1.190  1.00  0.00     0.168 HD
BRANCH   7   9
HETATM    9  C6  UNL     1       1.186   0.513   0.058  1.00  0.00     0.174 C 
HETATM   10  S1  UNL     1       1.053   2.074   0.509  1.00  0.00    -0.041 SA
BRANCH   9  11
HETATM   11  N2  UNL     1       2.159  -0.287   0.693  1.00  0.00    -0.355 N 
HETATM   12  C7  UNL     1       2.343  -1.684   0.370  1.00  0.00     0.155 C 
HETATM   13  C8  UNL     1       3.827  -2.041   0.402  1.00  0.00     0.291 C 
HETATM   14  N3  UNL     1       4.414  -1.771   1.695  1.00  0.00     0.087 N 
HETATM   15  C9  UNL     1       5.741  -1.198   1.570  1.00  0.00     0.310 C 
HETATM   16  C10 UNL     1       3.552  -0.947   2.519  1.00  0.00     0.291 C 
HETATM   17  C11 UNL     1       3.051   0.252   1.727  1.00  0.00     0.155 C 
ENDBRANCH   9  11
ENDBRANCH   7   9
ENDBRANCH   6   7
BRANCH   6  18
HETATM   18  C12 UNL     1      -1.938   0.740  -0.956  1.00  0.00     0.133 C 
HETATM   19  N4  UNL     1      -2.042  -0.177  -0.020  1.00  0.00    -0.370 N 
ATOM     20  H4  UNL     1      -3.026  -0.078   0.229  1.00  0.00     0.161 HD
BRANCH  19  21
HETATM   21  C13 UNL     1      -1.692  -1.117   0.779  1.00  0.00     0.083 C 
HETATM   22  C14 UNL     1      -2.780  -2.264   0.953  1.00  0.00     0.025 C 
HETATM   23  C15 UNL     1      -2.033  -3.127   1.945  1.00  0.00     0.002 C 
HETATM   24  C16 UNL     1      -1.425  -2.141   2.907  1.00  0.00     0.002 C 
HETATM   25  C17 UNL     1      -1.635  -0.771   2.306  1.00  0.00     0.025 C 
ENDBRANCH  19  21
BRANCH  18  26
HETATM   26  N5  UNL     1      -3.174   1.402  -1.159  1.00  0.00    -0.312 N 
HETATM   27  C18 UNL     1      -3.863   2.352  -1.835  1.00  0.00     0.219 C 
HETATM   28  C19 UNL     1      -5.380   2.497  -1.443  1.00  0.00     0.117 C 
HETATM   29  O1  UNL     1      -3.589   3.171  -2.721  1.00  0.00    -0.274 OA
ATOM     30  H5  UNL     1      -3.836   0.976  -0.511  1.00  0.00     0.170 HD
ENDBRANCH  18  26
ENDBRANCH   6  18
ENDBRANCH   3   4
TORSDOF 7
