REMARK  4 active torsions:
REMARK  status: ('A' for Active; 'I' for Inactive)
REMARK    1  A    between atoms: C2_5  and  C3_6 
REMARK    2  A    between atoms: C3_6  and  C4_8 
REMARK       I    between atoms: C4_8  and  N2_10 
REMARK    3  A    between atoms: N2_10  and  C5_12 
REMARK    4  A    between atoms: C5_12  and  C6_13 
REMARK       I    between atoms: C6_13  and  N3_15 
ROOT
HETATM    1  C3  UNL     1      -1.825  -1.986   0.633  1.00  0.00     0.227 C 
HETATM    2  O1  UNL     1      -1.376  -3.027   1.171  1.00  0.00    -0.286 OA
ENDROOT
BRANCH   1   3
HETATM    3  C2  UNL     1      -3.270  -1.882   0.311  1.00  0.00     0.133 C 
HETATM    4  C1  UNL     1      -3.823  -0.733   1.041  1.00  0.00     0.091 C 
HETATM    5  N1  UNL     1      -3.218  -0.436   2.124  1.00  0.00    -0.388 N 
HETATM    6  N4  UNL     1      -4.944   0.062   0.649  1.00  0.00    -0.302 N 
ATOM      7  H12 UNL     1      -2.418  -1.003   2.404  1.00  0.00     0.157 HD
ATOM      8  H11 UNL     1      -3.602   0.362   2.631  1.00  0.00     0.157 HD
HETATM    9  C17 UNL     1      -6.056  -0.354  -0.115  1.00  0.00     0.094 C 
HETATM   10  C20 UNL     1      -5.087   1.431   0.987  1.00  0.00     0.225 C 
HETATM   11  C16 UNL     1      -5.711  -0.940  -1.457  1.00  0.00     0.026 C 
HETATM   12  C18 UNL     1      -6.941   0.866  -0.295  1.00  0.00     0.035 C 
HETATM   13  C15 UNL     1      -4.227  -0.658  -1.676  1.00  0.00     0.003 C 
HETATM   14  C14 UNL     1      -3.473  -1.838  -1.160  1.00  0.00     0.020 C 
HETATM   15  C19 UNL     1      -6.496   1.842   0.776  1.00  0.00     0.105 C 
HETATM   16  O4  UNL     1      -4.140   2.187   1.409  1.00  0.00    -0.273 OA
ENDBRANCH   1   3
BRANCH   1  17
HETATM   17  C4  UNL     1      -0.882  -0.913   0.347  1.00  0.00     0.288 C 
HETATM   18  O2  UNL     1      -1.275   0.159  -0.194  1.00  0.00    -0.264 OA
HETATM   19  N2  UNL     1       0.484  -1.048   0.665  1.00  0.00    -0.346 N 
ATOM     20  H2  UNL     1       0.813  -1.909   1.101  1.00  0.00     0.163 HD
BRANCH  19  21
HETATM   21  C5  UNL     1       1.427   0.010   0.386  1.00  0.00     0.226 C 
BRANCH  21  22
HETATM   22  C6  UNL     1       2.791  -0.356   0.805  1.00  0.00     0.239 C 
HETATM   23  O3  UNL     1       2.965  -1.485   1.327  1.00  0.00    -0.271 OA
HETATM   24  N3  UNL     1       3.916   0.493   0.652  1.00  0.00    -0.320 N 
HETATM   25  C7  UNL     1       5.146  -0.102   1.145  1.00  0.00     0.129 C 
HETATM   26  C13 UNL     1       3.654   1.774   0.047  1.00  0.00     0.273 C 
HETATM   27  C8  UNL     1       5.759  -1.071   0.204  1.00  0.00     0.020 C 
HETATM   28  C9  UNL     1       6.931  -0.566  -0.560  1.00  0.00     0.002 C 
HETATM   29  C10 UNL     1       6.842   0.909  -0.889  1.00  0.00     0.000 C 
HETATM   30  C11 UNL     1       5.515   1.166  -1.530  1.00  0.00     0.004 C 
HETATM   31  C12 UNL     1       4.829   2.271  -0.773  1.00  0.00     0.059 C 
HETATM   32  F1  UNL     1       3.421   2.732   1.027  1.00  0.00    -0.227 F 
ENDBRANCH  21  22
ENDBRANCH  19  21
ENDBRANCH   1  17
TORSDOF 4
