REMARK  3 active torsions:
REMARK  status: ('A' for Active; 'I' for Inactive)
REMARK    1  A    between atoms: C7_7  and  C8_8 
REMARK       I    between atoms: C8_8  and  N1_10 
REMARK    2  A    between atoms: C14_18  and  C15_19 
REMARK       I    between atoms: C15_19  and  N3_21 
REMARK    3  A    between atoms: N3_21  and  C16_23 
ROOT
HETATM    1  C8  UNL     1       1.797   0.313   0.621  1.00  0.00     0.226 C 
HETATM    2  O1  UNL     1       1.555   0.552   1.834  1.00  0.00    -0.273 OA
HETATM    3  N1  UNL     1       2.694   1.172  -0.056  1.00  0.00    -0.333 N 
HETATM    4  C9  UNL     1       3.067   1.009  -1.470  1.00  0.00     0.147 C 
HETATM    5  C10 UNL     1       3.469   2.413  -1.883  1.00  0.00     0.103 C 
HETATM    6 CL1  UNL     1       1.993   3.297  -2.274  1.00  0.00    -0.123 Cl
HETATM    7  C11 UNL     1       4.134   2.906  -0.635  1.00  0.00     0.062 C 
HETATM    8  C12 UNL     1       3.373   2.319   0.490  1.00  0.00     0.196 C 
HETATM    9  C13 UNL     1       2.347   3.246   0.974  1.00  0.00     0.085 C 
HETATM   10  N2  UNL     1       1.542   3.988   1.341  1.00  0.00    -0.195 NA
ENDROOT
BRANCH   1  11
HETATM   11  C7  UNL     1       1.184  -0.804  -0.073  1.00  0.00     0.096 C 
HETATM   12  C6  UNL     1       2.108  -1.867  -0.552  1.00  0.00     0.004 C 
HETATM   13  C2  UNL     1       1.073  -2.958  -0.876  1.00  0.00    -0.009 C 
HETATM   14  C5  UNL     1       2.777  -2.481   0.652  1.00  0.00     0.006 C 
HETATM   15  C1  UNL     1       1.703  -4.225  -1.310  1.00  0.00     0.011 C 
HETATM   16  C3  UNL     1       0.501  -3.030   0.546  1.00  0.00     0.003 C 
HETATM   17  C4  UNL     1       1.733  -3.342   1.332  1.00  0.00     0.006 C 
HETATM   18  C14 UNL     1       0.183  -1.569   0.763  1.00  0.00     0.095 C 
BRANCH  18  19
HETATM   19  C15 UNL     1      -1.207  -1.235   0.434  1.00  0.00     0.223 C 
HETATM   20  O2  UNL     1      -1.956  -2.160   0.026  1.00  0.00    -0.273 OA
HETATM   21  N3  UNL     1      -1.762   0.060   0.544  1.00  0.00    -0.356 N 
ATOM     22  H3  UNL     1      -1.159   0.813   0.874  1.00  0.00     0.162 HD
BRANCH  21  23
HETATM   23  C16 UNL     1      -3.131   0.381   0.218  1.00  0.00     0.088 C 
HETATM   24  C17 UNL     1      -3.919   0.808   1.437  1.00  0.00     0.058 C 
HETATM   25  C18 UNL     1      -5.209   1.427   0.929  1.00  0.00     0.190 C 
HETATM   26  C19 UNL     1      -4.871   2.753   0.314  1.00  0.00     0.066 C 
HETATM   27  N4  UNL     1      -5.536   0.913  -0.406  1.00  0.00    -0.066 N 
HETATM   28  C20 UNL     1      -4.650   1.935  -0.938  1.00  0.00     0.190 C 
HETATM   29  C21 UNL     1      -3.242   1.368  -0.910  1.00  0.00     0.058 C 
ATOM     30  H42 UNL     1      -5.408  -0.072  -0.640  1.00  0.00     0.278 HD
ATOM     31  H41 UNL     1      -6.503   0.835  -0.721  1.00  0.00     0.278 HD
ENDBRANCH  21  23
ENDBRANCH  18  19
ENDBRANCH   1  11
TORSDOF 3
