REMARK  7 active torsions:
REMARK  status: ('A' for Active; 'I' for Inactive)
REMARK    1  A    between atoms: C2_2  and  C4_4 
REMARK    2  A    between atoms: C4_4  and  N1_6 
REMARK    3  A    between atoms: C4_4  and  N2_10 
REMARK    4  A    between atoms: N2_10  and  C6_12 
REMARK    5  A    between atoms: C7_15  and  C8_16 
REMARK    6  A    between atoms: C8_16  and  O1_17 
REMARK    7  A    between atoms: C8_16  and  N4_19 
REMARK       I    between atoms: N5_22  and  C11_23 
REMARK       I    between atoms: C11_23  and  N6_25 
ROOT
HETATM    1  C6  UNL     1      -3.117   0.884   0.293  1.00  0.00     0.146 A 
HETATM    2  N3  UNL     1      -1.843   1.181   0.003  1.00  0.00    -0.333 N 
ATOM      3  H3  UNL     1      -1.332   0.630  -0.686  1.00  0.00     0.168 HD
HETATM    4  C7  UNL     1      -1.266   2.171   0.603  1.00  0.00     0.092 A 
HETATM    5  C18 UNL     1      -2.050   2.870   1.532  1.00  0.00     0.087 A 
HETATM    6  S1  UNL     1      -3.531   2.041   1.456  1.00  0.00    -0.064 SA
ENDROOT
BRANCH   4   7
HETATM    7  C8  UNL     1       0.127   2.619   0.406  1.00  0.00     0.166 C 
BRANCH   7   8
HETATM    8  O1  UNL     1       0.530   3.654   1.099  1.00  0.00    -0.344 OA
ATOM      9  H1  UNL     1       1.426   3.942   0.972  1.00  0.00     0.219 HD
ENDBRANCH   7   8
BRANCH   7  10
HETATM   10  N4  UNL     1       1.125   2.115  -0.418  1.00  0.00    -0.357 N 
HETATM   11  C9  UNL     1       2.455   2.777  -0.421  1.00  0.00     0.145 C 
HETATM   12  C10 UNL     1       3.537   1.762  -0.033  1.00  0.00     0.147 C 
HETATM   13  N5  UNL     1       3.414   0.613  -0.880  1.00  0.00    -0.331 N 
HETATM   14  C11 UNL     1       4.143  -0.574  -0.754  1.00  0.00     0.320 C 
HETATM   15  C16 UNL     1       2.413   0.739  -1.966  1.00  0.00     0.147 C 
HETATM   16  O2  UNL     1       3.858  -1.478  -1.639  1.00  0.00    -0.247 OA
HETATM   17  N6  UNL     1       5.122  -0.939   0.169  1.00  0.00    -0.331 N 
HETATM   18  C12 UNL     1       5.708  -0.232   1.263  1.00  0.00     0.130 C 
HETATM   19  C15 UNL     1       5.782  -2.271   0.180  1.00  0.00     0.164 C 
HETATM   20  C13 UNL     1       7.192  -0.619   1.125  1.00  0.00     0.058 C 
HETATM   21  C14 UNL     1       7.092  -2.098   0.872  1.00  0.00     0.189 C 
HETATM   22  F1  UNL     1       8.154  -2.531   0.087  1.00  0.00    -0.248 F 
HETATM   23  C17 UNL     1       1.036   0.992  -1.303  1.00  0.00     0.145 C 
ENDBRANCH   7  10
ENDBRANCH   4   7
BRANCH   1  24
HETATM   24  N2  UNL     1      -3.827  -0.080  -0.224  1.00  0.00    -0.338 N 
ATOM     25  H2  UNL     1      -3.380  -0.676  -0.921  1.00  0.00     0.164 HD
BRANCH  24  26
HETATM   26  C4  UNL     1      -5.185  -0.360   0.116  1.00  0.00     0.196 C 
HETATM   27  C5  UNL     1      -5.602   0.040   1.504  1.00  0.00     0.071 C 
BRANCH  26  28
HETATM   28  C2  UNL     1      -5.488  -1.841  -0.075  1.00  0.00     0.033 C 
HETATM   29  C1  UNL     1      -5.087  -2.305  -1.457  1.00  0.00     0.014 C 
HETATM   30  C3  UNL     1      -6.947  -2.157   0.116  1.00  0.00     0.014 C 
ENDBRANCH  26  28
BRANCH  26  31
HETATM   31  N1  UNL     1      -6.032   0.409  -0.812  1.00  0.00    -0.053 N 
ATOM     32  H13 UNL     1      -5.926   0.108  -1.781  1.00  0.00     0.277 HD
ATOM     33  H12 UNL     1      -7.024   0.194  -0.708  1.00  0.00     0.277 HD
ATOM     34  H11 UNL     1      -5.829   1.400  -0.684  1.00  0.00     0.277 HD
ENDBRANCH  26  31
ENDBRANCH  24  26
ENDBRANCH   1  24
TORSDOF 7
