REMARK  3 active torsions:
REMARK  status: ('A' for Active; 'I' for Inactive)
REMARK    1  A    between atoms: C2_3  and  C3_4 
REMARK    2  A    between atoms: C2_3  and  C14_19 
REMARK       I    between atoms: C3_4  and  N2_6 
REMARK    3  A    between atoms: N2_6  and  C4_8 
ROOT
HETATM    1  N1  UNL     1       5.280  -1.039   2.968  1.00  0.00    -0.196 NA
HETATM    2  C1  UNL     1       4.614  -0.563   2.155  1.00  0.00     0.080 C 
HETATM    3  C2  UNL     1       3.750   0.031   1.101  1.00  0.00     0.242 C 
ENDROOT
BRANCH   3   4
HETATM    4  C3  UNL     1       2.335  -0.345   1.324  1.00  0.00     0.242 C 
HETATM    5  O1  UNL     1       2.115  -1.156   2.263  1.00  0.00    -0.272 OA
HETATM    6  N2  UNL     1       1.322   0.188   0.518  1.00  0.00    -0.353 N 
ATOM      7  H2  UNL     1       1.604   0.838  -0.215  1.00  0.00     0.163 HD
BRANCH   6   8
HETATM    8  C4  UNL     1      -0.086  -0.102   0.634  1.00  0.00     0.103 C 
HETATM    9  C5  UNL     1      -0.769   1.141   1.104  1.00  0.00     0.085 C 
HETATM   10 BR1  UNL     1      -1.133   1.115   3.001  1.00  0.00    -0.089 Br
HETATM   11  C6  UNL     1      -2.047   1.402   0.326  1.00  0.00     0.003 C 
HETATM   12  C7  UNL     1      -3.059   0.357   0.559  1.00  0.00     0.010 C 
HETATM   13  C11 UNL     1      -1.585   1.522  -1.113  1.00  0.00     0.011 C 
HETATM   14  C8  UNL     1      -3.016  -0.830  -0.332  1.00  0.00    -0.013 C 
HETATM   15  C9  UNL     1      -2.707  -0.479  -1.783  1.00  0.00     0.010 C 
HETATM   16  C13 UNL     1      -1.783  -1.706  -0.058  1.00  0.00     0.011 C 
HETATM   17  C10 UNL     1      -1.302   0.114  -1.572  1.00  0.00    -0.008 C 
HETATM   18  C12 UNL     1      -0.692  -0.759  -0.542  1.00  0.00     0.014 C 
ENDBRANCH   6   8
ENDBRANCH   3   4
BRANCH   3  19
HETATM   19  C14 UNL     1       4.264  -0.348  -0.237  1.00  0.00     0.117 C 
HETATM   20  N3  UNL     1       3.683   0.072  -1.452  1.00  0.00    -0.092 NA
HETATM   21  S1  UNL     1       5.567  -1.300  -0.325  1.00  0.00    -0.067 SA
ENDBRANCH   3  19
TORSDOF 3
