REMARK  3 active torsions:
REMARK  status: ('A' for Active; 'I' for Inactive)
REMARK    1  A    between atoms: C13_15  and  N3_16 
REMARK       I    between atoms: N3_16  and  C14_18 
REMARK       I    between atoms: C14_18  and  N4_20 
REMARK    2  A    between atoms: N4_20  and  C15_22 
REMARK    3  A    between atoms: C15_22  and  C16_23 
ROOT
HETATM    1  C1  UNL     1      -0.833   4.187   0.541  1.00  0.00     0.309 C 
HETATM    2  N1  UNL     1      -0.061   3.022   0.168  1.00  0.00     0.085 N 
HETATM    3  C2  UNL     1      -0.140   2.875  -1.269  1.00  0.00     0.273 C 
HETATM    4  C3  UNL     1       0.303   1.408  -1.391  1.00  0.00     0.044 C 
HETATM    5  C4  UNL     1      -0.513   0.735  -0.345  1.00  0.00     0.019 C 
HETATM    6  C5  UNL     1      -0.684   1.795   0.697  1.00  0.00     0.284 C 
HETATM    7  C6  UNL     1      -1.858   0.465  -1.052  1.00  0.00     0.001 C 
HETATM    8  C7  UNL     1      -3.014   0.287  -0.174  1.00  0.00     0.010 C 
HETATM    9  C8  UNL     1      -3.831  -0.963  -0.438  1.00  0.00     0.044 C 
HETATM   10  C9  UNL     1      -3.161  -2.248  -0.159  1.00  0.00     0.058 C 
HETATM   11  N2  UNL     1      -1.803  -2.339  -0.056  1.00  0.00    -0.386 N 
HETATM   12  C10 UNL     1      -1.198  -3.139   0.939  1.00  0.00     0.122 C 
HETATM   13  C11 UNL     1      -0.642  -2.240   1.990  1.00  0.00     0.022 C 
HETATM   14  C12 UNL     1      -0.291  -0.860   1.586  1.00  0.00     0.035 C 
HETATM   15  C13 UNL     1      -0.066  -0.602   0.122  1.00  0.00     0.065 C 
HETATM   16  C17 UNL     1      -0.877  -1.589  -0.742  1.00  0.00     0.113 C 
HETATM   17  C18 UNL     1      -1.526  -0.775  -1.809  1.00  0.00     0.033 C 
ENDROOT
BRANCH  15  18
HETATM   18  N3  UNL     1       1.329  -0.788  -0.181  1.00  0.00    -0.331 N 
HETATM   19  C14 UNL     1       2.455  -0.130   0.337  1.00  0.00     0.316 C 
HETATM   20  O1  UNL     1       2.471   0.776   1.204  1.00  0.00    -0.247 OA
HETATM   21  N4  UNL     1       3.727  -0.519  -0.164  1.00  0.00    -0.342 N 
ATOM     22  H4  UNL     1       3.802  -1.249  -0.872  1.00  0.00     0.164 HD
ATOM     23  H3  UNL     1       1.529  -1.506  -0.877  1.00  0.00     0.165 HD
BRANCH  21  24
HETATM   24  C15 UNL     1       4.909   0.131   0.341  1.00  0.00     0.139 C 
BRANCH  24  25
HETATM   25  C16 UNL     1       6.168  -0.410  -0.304  1.00  0.00     0.134 C 
HETATM   26 CL1  UNL     1       7.597   0.421   0.349  1.00  0.00    -0.129 Cl
ENDBRANCH  24  25
ENDBRANCH  21  24
ENDBRANCH  15  18
TORSDOF 3
