REMARK  4 active torsions:
REMARK  status: ('A' for Active; 'I' for Inactive)
REMARK    1  A    between atoms: C1_2  and  C2_3 
REMARK       I    between atoms: C1_2  and  N2_19 
REMARK    2  A    between atoms: C2_3  and  N1_4 
REMARK       I    between atoms: N1_4  and  C3_6 
REMARK    3  A    between atoms: C3_6  and  C4_8 
REMARK    4  A    between atoms: C17_23  and  O3_24 
ROOT
HETATM    1  N1  UNL     1      -0.458   0.273   0.219  1.00  0.00    -0.352 N 
ATOM      2  H1  UNL     1      -0.666  -0.718   0.094  1.00  0.00     0.162 HD
HETATM    3  C3  UNL     1      -1.517   1.195   0.190  1.00  0.00     0.227 C 
HETATM    4  O2  UNL     1      -1.245   2.433   0.347  1.00  0.00    -0.273 OA
ENDROOT
BRANCH   1   5
HETATM    5  C2  UNL     1       0.924   0.677   0.420  1.00  0.00     0.225 C 
BRANCH   5   6
HETATM    6  C1  UNL     1       1.838  -0.494   0.407  1.00  0.00     0.238 C 
HETATM    7  O1  UNL     1       1.308  -1.631   0.230  1.00  0.00    -0.272 OA
HETATM    8  N2  UNL     1       3.204  -0.318   0.583  1.00  0.00    -0.341 N 
HETATM    9  C14 UNL     1       3.700   1.057   0.780  1.00  0.00     0.206 C 
HETATM   10  C19 UNL     1       4.037  -1.496   0.562  1.00  0.00     0.129 C 
HETATM   11  C15 UNL     1       5.127   1.026   0.705  1.00  0.00    -0.161 C 
HETATM   12  C16 UNL     1       6.480   0.672   0.585  1.00  0.00     0.113 C 
HETATM   13  C17 UNL     1       6.561  -0.877   0.372  1.00  0.00     0.130 C 
HETATM   14  C18 UNL     1       5.310  -1.479  -0.161  1.00  0.00     0.052 C 
BRANCH  13  15
HETATM   15  O3  UNL     1       7.556  -1.094  -0.580  1.00  0.00    -0.395 OA
ATOM     16  H3  UNL     1       7.605  -2.034  -0.709  1.00  0.00     0.210 HD
ENDBRANCH  13  15
ENDBRANCH   5   6
ENDBRANCH   1   5
BRANCH   3  17
HETATM   17  C4  UNL     1      -2.893   0.730  -0.016  1.00  0.00     0.044 C 
HETATM   18  C5  UNL     1      -3.235  -0.222   1.112  1.00  0.00     0.024 C 
HETATM   19  C6  UNL     1      -4.603  -0.809   0.867  1.00  0.00    -0.010 C 
HETATM   20  C7  UNL     1      -5.610   0.308   0.830  1.00  0.00     0.009 C 
HETATM   21  C11 UNL     1      -4.612  -1.584  -0.436  1.00  0.00     0.048 C 
HETATM   22  C8  UNL     1      -5.260   1.225  -0.301  1.00  0.00    -0.010 C 
HETATM   23  C9  UNL     1      -5.304   0.507  -1.613  1.00  0.00     0.048 C 
HETATM   24  C13 UNL     1      -3.906   1.829  -0.043  1.00  0.00     0.024 C 
HETATM   25  C10 UNL     1      -4.316  -0.633  -1.560  1.00  0.00     0.105 C 
HETATM   26  F1  UNL     1      -4.280  -1.312  -2.755  1.00  0.00    -0.243 F 
HETATM   27  C12 UNL     1      -2.936  -0.050  -1.329  1.00  0.00     0.062 C 
ENDBRANCH   3  17
TORSDOF 4
