REMARK  4 active torsions:
REMARK  status: ('A' for Active; 'I' for Inactive)
REMARK       I    between atoms: N1_2  and  C2_4 
REMARK       I    between atoms: C2_4  and  N2_6 
REMARK    1  A    between atoms: C6_10  and  C8_12 
REMARK    2  A    between atoms: C8_12  and  N3_15 
REMARK       I    between atoms: N3_15  and  C10_17 
REMARK    3  A    between atoms: C10_17  and  C11_19 
REMARK    4  A    between atoms: C11_19  and  N4_20 
ROOT
HETATM    1  C8  UNL     1       0.741  -1.599  -0.575  1.00  0.00     0.183 C 
HETATM    2  C9  UNL     1       0.473  -1.608  -2.066  1.00  0.00     0.077 C 
HETATM    3  F1  UNL     1       0.269  -2.784   0.000  1.00  0.00    -0.219 F 
ENDROOT
BRANCH   1   4
HETATM    4  C6  UNL     1       2.231  -1.599  -0.381  1.00  0.00     0.027 C 
HETATM    5  C5  UNL     1       2.522  -1.589   1.105  1.00  0.00     0.017 C 
HETATM    6  C4  UNL     1       3.996  -1.690   1.356  1.00  0.00     0.021 C 
HETATM    7  C3  UNL     1       4.823  -0.967   0.312  1.00  0.00     0.127 C 
HETATM    8  N2  UNL     1       4.038   0.082  -0.303  1.00  0.00    -0.333 N 
HETATM    9  C2  UNL     1       4.367   1.445  -0.252  1.00  0.00     0.317 C 
HETATM   10  C18 UNL     1       2.837  -0.370  -1.011  1.00  0.00     0.141 C 
HETATM   11  N1  UNL     1       5.490   1.985   0.395  1.00  0.00    -0.347 N 
HETATM   12  O1  UNL     1       3.595   2.258  -0.831  1.00  0.00    -0.247 OA
HETATM   13  C1  UNL     1       5.762   3.419   0.403  1.00  0.00     0.151 C 
ATOM     14  H1  UNL     1       6.135   1.356   0.874  1.00  0.00     0.163 HD
HETATM   15  C7  UNL     1       2.788  -2.872  -0.972  1.00  0.00     0.022 C 
ENDBRANCH   1   4
BRANCH   1  16
HETATM   16  N3  UNL     1       0.092  -0.483   0.046  1.00  0.00    -0.320 N 
HETATM   17  C10 UNL     1      -1.316  -0.351  -0.054  1.00  0.00     0.259 C 
HETATM   18  O2  UNL     1      -1.962  -1.213  -0.684  1.00  0.00    -0.267 OA
ATOM     19  H3  UNL     1       0.639   0.211   0.556  1.00  0.00     0.166 HD
BRANCH  17  20
HETATM   20  C11 UNL     1      -2.039   0.803   0.583  1.00  0.00     0.169 C 
BRANCH  20  21
HETATM   21  N4  UNL     1      -3.415   0.795   0.399  1.00  0.00    -0.345 N 
HETATM   22  C12 UNL     1      -4.232  -0.175   1.000  1.00  0.00     0.068 C 
HETATM   23  C13 UNL     1      -5.294  -0.643   0.049  1.00  0.00     0.045 C 
HETATM   24  C14 UNL     1      -6.420   0.284  -0.178  1.00  0.00     0.005 C 
HETATM   25  C15 UNL     1      -6.263   1.667   0.366  1.00  0.00     0.005 C 
HETATM   26  C16 UNL     1      -5.067   2.399  -0.163  1.00  0.00     0.045 C 
HETATM   27  C17 UNL     1      -3.992   1.468  -0.677  1.00  0.00     0.068 C 
ENDBRANCH  20  21
ENDBRANCH  17  20
ENDBRANCH   1  16
TORSDOF 4
