REMARK  5 active torsions:
REMARK  status: ('A' for Active; 'I' for Inactive)
REMARK    1  A    between atoms: C3_3  and  C5_5 
REMARK    2  A    between atoms: C6_6  and  C7_7 
REMARK    3  A    between atoms: C7_7  and  N1_8 
REMARK    4  A    between atoms: N2_12  and  C11_13 
REMARK    5  A    between atoms: C14_16  and  O1_17 
ROOT
HETATM    1  N1  UNL     1       1.155  -0.472   0.496  1.00  0.00     0.094 N 
HETATM    2  C8  UNL     1       2.166  -1.139   1.339  1.00  0.00     0.274 C 
HETATM    3  C9  UNL     1       2.823  -0.062   2.167  1.00  0.00     0.050 C 
HETATM    4  C10 UNL     1       3.060   1.149   1.291  1.00  0.00     0.125 C 
HETATM    5  N2  UNL     1       3.455   0.647  -0.021  1.00  0.00    -0.379 N 
HETATM    6  C17 UNL     1       2.612   0.408  -1.186  1.00  0.00     0.153 C 
HETATM    7  C18 UNL     1       1.595  -0.653  -0.894  1.00  0.00     0.292 C 
ENDROOT
BRANCH   1   8
HETATM    8  C7  UNL     1      -0.114  -1.162   0.713  1.00  0.00     0.319 C 
BRANCH   8   9
HETATM    9  C6  UNL     1      -1.194  -0.363   0.015  1.00  0.00     0.022 A 
HETATM   10  C5  UNL     1      -2.564  -0.641  -0.041  1.00  0.00    -0.008 A 
HETATM   11  C20 UNL     1      -3.317   0.255  -0.706  1.00  0.00    -0.033 A 
HETATM   12  C19 UNL     1      -2.642   1.356  -1.255  1.00  0.00    -0.010 A 
HETATM   13  C21 UNL     1      -4.811   0.095  -0.995  1.00  0.00     0.040 C 
HETATM   14  S1  UNL     1      -1.046   1.098  -0.838  1.00  0.00    -0.096 SA
HETATM   15  C25 UNL     1      -3.131   2.521  -2.035  1.00  0.00     0.046 C 
HETATM   16  C24 UNL     1      -4.403   3.103  -1.526  1.00  0.00     0.005 C 
HETATM   17  C23 UNL     1      -4.789   2.477  -0.219  1.00  0.00     0.001 C 
HETATM   18  C22 UNL     1      -5.607   1.246  -0.528  1.00  0.00     0.005 C 
BRANCH  10  19
HETATM   19  C3  UNL     1      -3.011  -1.938   0.564  1.00  0.00    -0.054 C 
HETATM   20  C2  UNL     1      -3.970  -2.149   1.390  1.00  0.00    -0.023 C 
HETATM   21  C1  UNL     1      -4.841  -1.236   2.140  1.00  0.00     0.036 C 
HETATM   22  C4  UNL     1      -2.346  -3.195   0.008  1.00  0.00     0.049 C 
ENDBRANCH  10  19
ENDBRANCH   8   9
ENDBRANCH   1   8
BRANCH   5  23
HETATM   23  C11 UNL     1       4.823   0.356  -0.200  1.00  0.00     0.030 A 
HETATM   24  C12 UNL     1       5.234  -0.622  -1.115  1.00  0.00     0.032 A 
HETATM   25  C13 UNL     1       6.564  -0.910  -1.321  1.00  0.00     0.039 A 
HETATM   26  C14 UNL     1       7.553  -0.243  -0.631  1.00  0.00     0.065 A 
HETATM   27  C15 UNL     1       7.135   0.714   0.264  1.00  0.00     0.039 A 
HETATM   28  C16 UNL     1       5.826   1.021   0.490  1.00  0.00     0.032 A 
BRANCH  26  29
HETATM   29  O1  UNL     1       8.899  -0.521  -0.828  1.00  0.00    -0.361 OA
ATOM     30  H1  UNL     1       9.581  -0.061  -0.352  1.00  0.00     0.217 HD
ENDBRANCH  26  29
ENDBRANCH   5  23
TORSDOF 5
