REMARK  7 active torsions:
REMARK  status: ('A' for Active; 'I' for Inactive)
REMARK    1  A    between atoms: C2_2  and  C3_3 
REMARK    2  A    between atoms: C9_11  and  N1_12 
REMARK    3  A    between atoms: N1_12  and  C10_14 
REMARK    4  A    between atoms: C10_14  and  N2_16 
REMARK    5  A    between atoms: N2_16  and  C11_18 
REMARK    6  A    between atoms: C17_25  and  C18_26 
REMARK    7  A    between atoms: C18_26  and  O3_28 
ROOT
HETATM    1  C3  UNL     1      -3.748   0.639  -0.064  1.00  0.00     0.059 C 
HETATM    2  O1  UNL     1      -4.680  -0.264  -0.593  1.00  0.00    -0.344 OA
HETATM    3  C4  UNL     1      -5.213  -1.063   0.413  1.00  0.00     0.064 C 
HETATM    4  C5  UNL     1      -5.541  -2.407  -0.241  1.00  0.00     0.046 C 
HETATM    5  C6  UNL     1      -6.528  -0.476   0.873  1.00  0.00     0.046 C 
HETATM    6  C7  UNL     1      -4.317  -1.238   1.579  1.00  0.00     0.085 C 
HETATM    7  C8  UNL     1      -2.868  -1.156   1.114  1.00  0.00     0.001 A 
HETATM    8  S1  UNL     1      -1.477  -1.999   1.395  1.00  0.00    -0.075 SA
HETATM    9  C9  UNL     1      -0.388  -1.134   0.375  1.00  0.00     0.090 A 
HETATM   10  C17 UNL     1      -1.192  -0.163  -0.201  1.00  0.00     0.040 A 
HETATM   11  C20 UNL     1      -2.509  -0.139   0.175  1.00  0.00     0.022 A 
ENDROOT
BRANCH   9  12
HETATM   12  N1  UNL     1       1.002  -1.451   0.251  1.00  0.00    -0.327 N 
ATOM     13  H1  UNL     1       1.207  -2.450   0.253  1.00  0.00     0.169 HD
BRANCH  12  14
HETATM   14  C10 UNL     1       2.120  -0.637   0.129  1.00  0.00     0.174 C 
HETATM   15  S2  UNL     1       2.179   0.993   0.318  1.00  0.00    -0.041 SA
BRANCH  14  16
HETATM   16  N2  UNL     1       3.406  -1.289  -0.058  1.00  0.00    -0.341 N 
ATOM     17  H2  UNL     1       3.446  -2.308  -0.095  1.00  0.00     0.164 HD
BRANCH  16  18
HETATM   18  C11 UNL     1       4.625  -0.534  -0.193  1.00  0.00     0.222 C 
HETATM   19  C12 UNL     1       4.854   0.239   1.089  1.00  0.00     0.054 C 
HETATM   20  C13 UNL     1       6.270  -0.041   1.591  1.00  0.00     0.004 C 
HETATM   21  C14 UNL     1       7.211   0.841   0.808  1.00  0.00     0.002 C 
HETATM   22  C15 UNL     1       7.006   0.633  -0.656  1.00  0.00     0.026 C 
HETATM   23  C16 UNL     1       6.758  -0.797  -1.046  1.00  0.00     0.170 C 
HETATM   24  O2  UNL     1       5.695  -1.388  -0.406  1.00  0.00    -0.367 OA
ENDBRANCH  16  18
ENDBRANCH  14  16
ENDBRANCH  12  14
ENDBRANCH   9  12
BRANCH  10  25
HETATM   25  C18 UNL     1      -0.634   0.483  -1.434  1.00  0.00     0.053 C 
HETATM   26  C19 UNL     1      -0.946   1.727  -2.095  1.00  0.00     0.077 C 
BRANCH  25  27
HETATM   27  O3  UNL     1       0.330  -0.163  -2.061  1.00  0.00    -0.364 OA
ATOM     28  H3  UNL     1       0.683   0.246  -2.842  1.00  0.00     0.217 HD
ENDBRANCH  25  27
ENDBRANCH  10  25
BRANCH   1  29
HETATM   29  C2  UNL     1      -3.814   1.977  -0.599  1.00  0.00     0.061 C 
HETATM   30  C1  UNL     1      -5.226   2.575  -0.260  1.00  0.00     0.012 C 
ENDBRANCH   1  29
TORSDOF 7
