REMARK  8 active torsions:
REMARK  status: ('A' for Active; 'I' for Inactive)
REMARK    1  A    between atoms: C6_7  and  C7_8 
REMARK    2  A    between atoms: N1_15  and  C13_16 
REMARK    3  A    between atoms: C13_16  and  C14_17 
REMARK    4  A    between atoms: C14_17  and  O1_18 
REMARK    5  A    between atoms: C14_17  and  C15_20 
REMARK    6  A    between atoms: C15_20  and  N2_21 
REMARK    7  A    between atoms: C18_24  and  N3_25 
REMARK    8  A    between atoms: N3_25  and  C19_27 
ROOT
HETATM    1  C13 UNL     1      -0.391  -0.054  -0.860  1.00  0.00     0.091 C 
ENDROOT
BRANCH   1   2
HETATM    2  N1  UNL     1      -1.773  -0.207  -0.697  1.00  0.00    -0.390 N 
HETATM    3  C12 UNL     1      -2.236  -1.181   0.232  1.00  0.00     0.123 C 
HETATM    4  C11 UNL     1      -3.221  -0.595   1.205  1.00  0.00     0.042 C 
HETATM    5  C6  UNL     1      -4.444  -0.081   0.420  1.00  0.00     0.053 C 
HETATM    6  C5  UNL     1      -5.243   0.667   1.414  1.00  0.00     0.105 C 
HETATM    7  C28 UNL     1      -4.026   0.659  -0.783  1.00  0.00     0.025 C 
HETATM    8  C4  UNL     1      -5.967   1.696   1.048  1.00  0.00     0.021 C 
HETATM    9  F1  UNL     1      -5.227   0.267   2.736  1.00  0.00    -0.210 F 
HETATM   10  C2  UNL     1      -6.005   2.145  -0.342  1.00  0.00    -0.027 C 
HETATM   11  C1  UNL     1      -6.266   3.660  -0.319  1.00  0.00     0.019 C 
HETATM   12  C3  UNL     1      -7.176   1.557  -1.094  1.00  0.00     0.019 C 
HETATM   13  C29 UNL     1      -4.702   1.953  -1.066  1.00  0.00     0.020 C 
HETATM   14  C27 UNL     1      -2.530   1.015  -0.610  1.00  0.00     0.128 C 
BRANCH   5  15
HETATM   15  C7  UNL     1      -5.223  -1.342   0.123  1.00  0.00    -0.002 A 
HETATM   16  C8  UNL     1      -5.542  -1.954  -1.047  1.00  0.00     0.016 A 
HETATM   17  C9  UNL     1      -6.250  -3.092  -0.991  1.00  0.00     0.008 A 
HETATM   18  C10 UNL     1      -6.603  -3.556   0.247  1.00  0.00     0.050 A 
HETATM   19  S1  UNL     1      -5.940  -2.395   1.296  1.00  0.00    -0.105 SA
ENDBRANCH   5  15
ENDBRANCH   1   2
BRANCH   1  20
HETATM   20  C14 UNL     1       0.424   0.550   0.220  1.00  0.00     0.184 C 
BRANCH  20  21
HETATM   21  O1  UNL     1       0.368  -0.154   1.415  1.00  0.00    -0.389 OA
ATOM     22  H1  UNL     1       0.891   0.233   2.107  1.00  0.00     0.210 HD
ENDBRANCH  20  21
BRANCH  20  23
HETATM   23  C15 UNL     1       1.865   0.791  -0.206  1.00  0.00     0.309 C 
BRANCH  23  24
HETATM   24  N2  UNL     1       2.613  -0.387  -0.420  1.00  0.00     0.091 N 
HETATM   25  C16 UNL     1       2.905  -1.193   0.730  1.00  0.00     0.274 C 
HETATM   26  C17 UNL     1       4.223  -1.963   0.510  1.00  0.00     0.055 C 
HETATM   27  C18 UNL     1       5.395  -1.019   0.663  1.00  0.00     0.085 C 
HETATM   28  C25 UNL     1       4.918   0.307   0.062  1.00  0.00     0.055 C 
HETATM   29  C26 UNL     1       3.894  -0.035  -0.999  1.00  0.00     0.274 C 
BRANCH  27  30
HETATM   30  N3  UNL     1       6.486  -1.493  -0.124  1.00  0.00    -0.385 N 
ATOM     31  H3  UNL     1       6.343  -2.308  -0.721  1.00  0.00     0.160 HD
BRANCH  30  32
HETATM   32  C19 UNL     1       7.783  -0.864  -0.108  1.00  0.00     0.028 A 
HETATM   33  C20 UNL     1       8.078   0.180   0.739  1.00  0.00     0.032 A 
HETATM   34  C21 UNL     1       9.315   0.799   0.768  1.00  0.00     0.044 A 
HETATM   35  C22 UNL     1      10.306   0.357  -0.087  1.00  0.00     0.116 A 
HETATM   36  F2  UNL     1      11.520   0.951  -0.069  1.00  0.00    -0.206 F 
HETATM   37  C23 UNL     1      10.022  -0.690  -0.943  1.00  0.00     0.044 A 
HETATM   38  C24 UNL     1       8.785  -1.295  -0.959  1.00  0.00     0.032 A 
ENDBRANCH  30  32
ENDBRANCH  27  30
ENDBRANCH  23  24
ENDBRANCH  20  23
ENDBRANCH   1  20
TORSDOF 8
