REMARK  8 active torsions:
REMARK  status: ('A' for Active; 'I' for Inactive)
REMARK    1  A    between atoms: C2_2  and  O1_3 
REMARK    2  A    between atoms: O1_3  and  C3_4 
REMARK    3  A    between atoms: C4_5  and  S1_6 
REMARK    4  A    between atoms: S1_6  and  N1_9 
REMARK    5  A    between atoms: N1_9  and  C5_11 
REMARK    6  A    between atoms: C12_21  and  N3_22 
REMARK       I    between atoms: N3_22  and  C13_24 
REMARK    7  A    between atoms: C13_24  and  C14_26 
REMARK    8  A    between atoms: C17_29  and  C18_30 
ROOT
HETATM    1  C3  UNL     1      -2.336   0.770   1.423  1.00  0.00     0.133 A 
HETATM    2  C4  UNL     1      -3.018   1.513   0.511  1.00  0.00     0.116 A 
HETATM    3  C10 UNL     1      -2.263   1.955  -0.593  1.00  0.00     0.030 A 
HETATM    4  C11 UNL     1      -0.930   1.655  -0.726  1.00  0.00     0.034 A 
HETATM    5  C12 UNL     1      -0.225   0.911   0.185  1.00  0.00     0.076 A 
HETATM    6  C24 UNL     1      -0.976   0.471   1.279  1.00  0.00     0.177 A 
HETATM    7  F1  UNL     1      -0.377  -0.268   2.238  1.00  0.00    -0.201 F 
ENDROOT
BRANCH   5   8
HETATM    8  N3  UNL     1       1.135   0.577   0.102  1.00  0.00    -0.324 N 
HETATM    9  C13 UNL     1       2.062   0.904  -0.882  1.00  0.00     0.226 C 
HETATM   10  O5  UNL     1       1.789   1.586  -1.894  1.00  0.00    -0.273 OA
ATOM     11  H3  UNL     1       1.495   0.014   0.873  1.00  0.00     0.169 HD
BRANCH   9  12
HETATM   12  C14 UNL     1       3.484   0.462  -0.816  1.00  0.00     0.078 C 
HETATM   13  C15 UNL     1       4.053   1.055   0.459  1.00  0.00     0.014 C 
HETATM   14  C16 UNL     1       5.550   0.865   0.546  1.00  0.00     0.006 C 
HETATM   15  C17 UNL     1       5.962  -0.222  -0.393  1.00  0.00    -0.007 C 
HETATM   16  C22 UNL     1       5.001  -1.372  -0.261  1.00  0.00     0.006 C 
HETATM   17  C23 UNL     1       3.621  -1.032  -0.731  1.00  0.00     0.014 C 
BRANCH  15  18
HETATM   18  C18 UNL     1       7.372  -0.689  -0.184  1.00  0.00    -0.048 C 
HETATM   19  C19 UNL     1       7.635  -1.238   1.174  1.00  0.00     0.015 C 
HETATM   20  C20 UNL     1       8.287   0.514  -0.388  1.00  0.00     0.015 C 
HETATM   21  C21 UNL     1       7.697  -1.725  -1.227  1.00  0.00     0.015 C 
ENDBRANCH  15  18
ENDBRANCH   9  12
ENDBRANCH   5   8
BRANCH   1  22
HETATM   22  O1  UNL     1      -2.984   0.261   2.548  1.00  0.00    -0.347 OA
BRANCH  22  23
HETATM   23  C2  UNL     1      -3.290  -1.082   2.722  1.00  0.00     0.171 C 
HETATM   24  C1  UNL     1      -4.096  -1.814   1.743  1.00  0.00     0.034 C 
ENDBRANCH  22  23
ENDBRANCH   1  22
BRANCH   2  25
HETATM   25  S1  UNL     1      -4.671   2.049   0.650  1.00  0.00     0.267 S 
HETATM   26  O2  UNL     1      -4.918   3.084  -0.437  1.00  0.00    -0.200 OA
HETATM   27  O3  UNL     1      -4.805   2.882   1.946  1.00  0.00    -0.200 OA
BRANCH  25  28
HETATM   28  N1  UNL     1      -5.889   0.906   0.598  1.00  0.00    -0.258 N 
ATOM     29  H1  UNL     1      -5.869   0.138   1.268  1.00  0.00     0.181 HD
BRANCH  28  30
HETATM   30  C5  UNL     1      -6.853   0.958  -0.257  1.00  0.00     0.187 A 
HETATM   31  O4  UNL     1      -7.088   1.836  -1.203  1.00  0.00    -0.218 OA
HETATM   32  N2  UNL     1      -8.168   1.540  -1.859  1.00  0.00    -0.263 N 
HETATM   33  C6  UNL     1      -8.726   0.413  -1.369  1.00  0.00     0.039 A 
ATOM     34  H2  UNL     1      -8.543   2.083  -2.637  1.00  0.00     0.194 HD
HETATM   35  C7  UNL     1      -9.960  -0.290  -1.808  1.00  0.00     0.071 C 
HETATM   36  C8  UNL     1      -7.873   0.037  -0.331  1.00  0.00     0.016 A 
HETATM   37  C9  UNL     1      -8.019  -1.144   0.552  1.00  0.00     0.055 C 
ENDBRANCH  28  30
ENDBRANCH  25  28
ENDBRANCH   2  25
TORSDOF 8
