REMARK  9 active torsions:
REMARK  status: ('A' for Active; 'I' for Inactive)
REMARK    1  A    between atoms: C2_2  and  C3_3 
REMARK    2  A    between atoms: C3_3  and  C4_4 
REMARK    3  A    between atoms: C5_6  and  C6_7 
REMARK    4  A    between atoms: C6_7  and  C7_8 
REMARK    5  A    between atoms: C8_9  and  O1_10 
REMARK    6  A    between atoms: O1_10  and  C9_11 
REMARK    7  A    between atoms: C20_25  and  O4_26 
REMARK    8  A    between atoms: C21_28  and  O5_29 
REMARK    9  A    between atoms: C21_28  and  C22_31 
ROOT
HETATM    1  C7  UNL     1       0.062  -0.631  -0.399  1.00  0.00     0.057 C 
HETATM    2  C8  UNL     1      -0.981  -1.726  -0.523  1.00  0.00     0.142 C 
HETATM    3  C11 UNL     1      -1.909  -1.349  -1.678  1.00  0.00     0.074 C 
HETATM    4  C12 UNL     1      -2.597  -0.098  -1.202  1.00  0.00     0.105 C 
HETATM    5  C13 UNL     1      -3.751  -0.396  -0.350  1.00  0.00     0.050 C 
HETATM    6  O3  UNL     1      -3.200   0.625  -2.304  1.00  0.00    -0.336 OA
HETATM    7  C14 UNL     1      -3.416   1.892  -1.734  1.00  0.00     0.079 A 
HETATM    8  C15 UNL     1      -4.420   2.824  -2.000  1.00  0.00     0.039 A 
HETATM    9  C16 UNL     1      -4.423   4.014  -1.306  1.00  0.00     0.026 A 
HETATM   10  C17 UNL     1      -3.446   4.267  -0.370  1.00  0.00     0.034 A 
HETATM   11 CL1  UNL     1      -3.449   5.798   0.524  1.00  0.00    -0.084 Cl
HETATM   12  C18 UNL     1      -2.466   3.318  -0.132  1.00  0.00     0.037 A 
HETATM   13  C19 UNL     1      -2.424   2.132  -0.792  1.00  0.00     0.017 A 
HETATM   14  C20 UNL     1      -1.614   0.958  -0.826  1.00  0.00     0.150 C 
HETATM   15  C21 UNL     1      -0.561   0.650   0.137  1.00  0.00     0.102 C 
ENDROOT
BRANCH   1  16
HETATM   16  C6  UNL     1       1.276  -1.127   0.256  1.00  0.00     0.038 C 
BRANCH  16  17
HETATM   17  C5  UNL     1       2.388  -0.178   0.402  1.00  0.00    -0.011 C 
HETATM   18  C4  UNL     1       3.596  -0.400  -0.182  1.00  0.00    -0.015 C 
HETATM   19 BR1  UNL     1       3.786  -2.001  -1.203  1.00  0.00    -0.056 Br
BRANCH  18  20
HETATM   20  C3  UNL     1       4.739   0.519  -0.065  1.00  0.00     0.046 C 
BRANCH  20  21
HETATM   21  C2  UNL     1       5.907  -0.198   0.582  1.00  0.00     0.001 C 
HETATM   22  C1  UNL     1       7.105   0.697   0.727  1.00  0.00     0.005 C 
ENDBRANCH  20  21
ENDBRANCH  18  20
ENDBRANCH  16  17
ENDBRANCH   1  16
BRANCH   2  23
HETATM   23  O1  UNL     1      -0.375  -2.948  -0.658  1.00  0.00    -0.316 OA
BRANCH  23  24
HETATM   24  C9  UNL     1      -0.556  -3.954   0.271  1.00  0.00     0.255 C 
HETATM   25  C10 UNL     1       0.077  -5.294   0.171  1.00  0.00     0.126 C 
HETATM   26  O2  UNL     1      -1.302  -3.670   1.228  1.00  0.00    -0.266 OA
ENDBRANCH  23  24
ENDBRANCH   2  23
BRANCH  15  27
HETATM   27  O5  UNL     1       0.473   1.611  -0.183  1.00  0.00    -0.386 OA
ATOM     28  H5  UNL     1       0.084   2.411   0.152  1.00  0.00     0.210 HD
ENDBRANCH  15  27
BRANCH  15  29
HETATM   29  C22 UNL     1      -0.682   0.796   1.565  1.00  0.00     0.037 C 
HETATM   30  C23 UNL     1      -1.434  -0.095   2.462  1.00  0.00     0.008 C 
ENDBRANCH  15  29
BRANCH  14  31
HETATM   31  O4  UNL     1      -0.903   1.092  -2.081  1.00  0.00    -0.379 OA
ATOM     32  H4  UNL     1      -0.277   1.765  -1.841  1.00  0.00     0.211 HD
ENDBRANCH  14  31
TORSDOF 9
