REMARK  6 active torsions:
REMARK  status: ('A' for Active; 'I' for Inactive)
REMARK    1  A    between atoms: N1_7  and  C7_8 
REMARK    2  A    between atoms: C7_8  and  C8_9 
REMARK    3  A    between atoms: C8_9  and  C9_10 
REMARK    4  A    between atoms: C9_10  and  N2_11 
REMARK    5  A    between atoms: C9_10  and  C21_24 
REMARK    6  A    between atoms: N2_11  and  C10_13 
ROOT
HETATM    1  C9  UNL     1      -0.318  -1.298   0.328  1.00  0.00     0.136 C 
ENDROOT
BRANCH   1   2
HETATM    2  C8  UNL     1       1.154  -1.149   0.315  1.00  0.00     0.062 C 
BRANCH   2   3
HETATM    3  C7  UNL     1       1.623   0.197   0.706  1.00  0.00     0.275 C 
BRANCH   3   4
HETATM    4  N1  UNL     1       3.021   0.507   0.579  1.00  0.00     0.089 N 
HETATM    5  C6  UNL     1       3.306   1.016  -0.790  1.00  0.00     0.276 C 
HETATM    6  C4  UNL     1       4.741   1.439  -0.771  1.00  0.00     0.010 C 
HETATM    7  C3  UNL     1       5.372   1.244   0.624  1.00  0.00     0.012 C 
HETATM    8  C5  UNL     1       4.900   2.941  -1.037  1.00  0.00     0.011 C 
HETATM    9  C2  UNL     1       5.250  -0.248   0.954  1.00  0.00     0.010 C 
HETATM   10  C1  UNL     1       6.304  -0.935   0.141  1.00  0.00     0.011 C 
HETATM   11  C25 UNL     1       3.843  -0.717   0.667  1.00  0.00     0.276 C 
ENDBRANCH   3   4
ENDBRANCH   2   3
ENDBRANCH   1   2
BRANCH   1  12
HETATM   12  N2  UNL     1      -1.085  -0.583  -0.579  1.00  0.00    -0.403 N 
ATOM     13  H2  UNL     1      -0.818  -0.661  -1.560  1.00  0.00     0.154 HD
BRANCH  12  14
HETATM   14  C10 UNL     1      -2.181   0.231  -0.297  1.00  0.00     0.027 C 
HETATM   15  C11 UNL     1      -1.873   1.653   0.000  1.00  0.00     0.031 C 
HETATM   16  C12 UNL     1      -2.956   2.604  -0.481  1.00  0.00     0.007 C 
HETATM   17  C13 UNL     1      -4.346   2.239  -0.146  1.00  0.00    -0.014 C 
HETATM   18  C14 UNL     1      -5.037   1.487  -1.250  1.00  0.00     0.009 C 
HETATM   19  C18 UNL     1      -4.524   1.573   1.196  1.00  0.00     0.009 C 
HETATM   20  C15 UNL     1      -4.534   0.056  -1.246  1.00  0.00    -0.012 C 
HETATM   21  C16 UNL     1      -4.969  -0.613   0.012  1.00  0.00     0.009 C 
HETATM   22  C20 UNL     1      -3.090   0.090  -1.489  1.00  0.00     0.035 C 
HETATM   23  C17 UNL     1      -4.257   0.105   1.138  1.00  0.00    -0.012 C 
HETATM   24  C19 UNL     1      -2.823  -0.245   1.024  1.00  0.00     0.035 C 
ENDBRANCH  12  14
ENDBRANCH   1  12
BRANCH   1  25
HETATM   25  C21 UNL     1      -0.663  -2.781   0.213  1.00  0.00     0.074 A 
HETATM   26  C22 UNL     1       0.044  -3.857   0.587  1.00  0.00     0.037 A 
HETATM   27  C23 UNL     1      -0.733  -4.980   0.261  1.00  0.00     0.027 A 
HETATM   28  C24 UNL     1      -1.879  -4.478  -0.301  1.00  0.00     0.142 A 
HETATM   29  O1  UNL     1      -1.799  -3.201  -0.312  1.00  0.00    -0.325 OA
ENDBRANCH   1  25
TORSDOF 6
