REMARK  7 active torsions:
REMARK  status: ('A' for Active; 'I' for Inactive)
REMARK    1  A    between atoms: C2_2  and  C3_3 
REMARK    2  A    between atoms: C3_3  and  C5_5 
REMARK    3  A    between atoms: C7_7  and  O1_8 
REMARK    4  A    between atoms: C10_12  and  C11_13 
REMARK    5  A    between atoms: N1_22  and  O2_24 
REMARK    6  A    between atoms: O2_24  and  C20_25 
REMARK    7  A    between atoms: C20_25  and  C21_26 
ROOT
HETATM    1  C5  UNL     1       0.879   2.670   0.064  1.00  0.00    -0.054 C 
HETATM    2  C6  UNL     1       0.086   3.898  -0.332  1.00  0.00     0.068 C 
HETATM    3  C7  UNL     1      -1.380   3.674  -0.351  1.00  0.00     0.122 C 
HETATM    4  C8  UNL     1      -1.849   2.320  -0.824  1.00  0.00     0.038 C 
HETATM    5  C9  UNL     1      -1.000   1.269  -0.243  1.00  0.00     0.011 C 
HETATM    6  C10 UNL     1      -1.262  -0.143  -0.537  1.00  0.00     0.001 C 
HETATM    7  C18 UNL     1       0.062  -0.754   0.011  1.00  0.00     0.061 C 
HETATM    8  C19 UNL     1       1.054   0.202  -0.622  1.00  0.00     0.023 C 
HETATM    9  N1  UNL     1       2.206  -0.155  -1.033  1.00  0.00    -0.274 N 
ATOM     10  H1  UNL     1       2.788   0.576  -1.443  1.00  0.00     0.193 HD
HETATM   11  C24 UNL     1       0.443   1.506  -0.708  1.00  0.00     0.025 C 
HETATM   12  C25 UNL     1       0.409   1.817  -2.228  1.00  0.00     0.027 C 
ENDROOT
BRANCH   6  13
HETATM   13  C11 UNL     1      -2.441  -0.762   0.127  1.00  0.00    -0.005 C 
HETATM   14  C12 UNL     1      -2.406  -0.757   1.621  1.00  0.00     0.009 C 
HETATM   15  C13 UNL     1      -3.718  -1.271   2.155  1.00  0.00     0.028 C 
HETATM   16  C14 UNL     1      -4.404  -2.204   1.250  1.00  0.00    -0.024 C 
HETATM   17  C15 UNL     1      -3.941  -2.657   0.107  1.00  0.00    -0.087 C 
HETATM   18  C16 UNL     1      -4.683  -3.599  -0.763  1.00  0.00     0.043 C 
HETATM   19  C17 UNL     1      -2.597  -2.197  -0.336  1.00  0.00     0.038 C 
ENDBRANCH   6  13
BRANCH   3  20
HETATM   20  O1  UNL     1      -1.821   3.801   0.991  1.00  0.00    -0.395 OA
ATOM     21  H1  UNL     1      -2.760   3.658   0.979  1.00  0.00     0.210 HD
ENDBRANCH   3  20
BRANCH   1  22
HETATM   22  C3  UNL     1       2.239   2.968   0.393  1.00  0.00    -0.043 C 
HETATM   23  C4  UNL     1       2.841   3.995  -0.237  1.00  0.00     0.023 C 
BRANCH  22  24
HETATM   24  C2  UNL     1       3.003   2.313   1.423  1.00  0.00     0.000 C 
HETATM   25  C1  UNL     1       2.672   1.337   2.207  1.00  0.00     0.012 C 
ENDBRANCH  22  24
ENDBRANCH   1  22
BRANCH   9  26
HETATM   26  O2  UNL     1       2.741  -1.393  -0.986  1.00  0.00    -0.280 OA
BRANCH  26  27
HETATM   27  C20 UNL     1       4.070  -1.628  -1.399  1.00  0.00     0.205 C 
BRANCH  27  28
HETATM   28  C21 UNL     1       4.475  -3.065  -1.269  1.00  0.00     0.012 A 
HETATM   29  C22 UNL     1       4.402  -3.629   0.169  1.00  0.00     0.007 A 
HETATM   30  C23 UNL     1       3.504  -4.116  -0.895  1.00  0.00     0.007 A 
ENDBRANCH  27  28
ENDBRANCH  26  27
ENDBRANCH   9  26
TORSDOF 7
