REMARK  8 active torsions:
REMARK  status: ('A' for Active; 'I' for Inactive)
REMARK    1  A    between atoms: C2_2  and  C3_3 
REMARK    2  A    between atoms: C5_5  and  C6_6 
REMARK    3  A    between atoms: C6_6  and  C7_7 
REMARK    4  A    between atoms: C7_7  and  C8_8 
REMARK    5  A    between atoms: C15_15  and  O1_16 
REMARK    6  A    between atoms: C19_21  and  C21_23 
REMARK    7  A    between atoms: C21_23  and  C22_24 
REMARK    8  A    between atoms: C22_24  and  C23_25 
ROOT
HETATM    1  C8  UNL     1       1.165  -0.560   0.004  1.00  0.00     0.018 C 
HETATM    2  C9  UNL     1       1.961  -1.229   1.119  1.00  0.00     0.023 C 
HETATM    3  C10 UNL     1       0.546  -1.780  -0.713  1.00  0.00     0.017 C 
HETATM    4  C11 UNL     1      -0.693  -2.238  -0.037  1.00  0.00     0.010 C 
HETATM    5  C12 UNL     1      -1.806  -1.445  -0.687  1.00  0.00     0.021 C 
HETATM    6  C13 UNL     1      -2.895  -2.391  -0.969  1.00  0.00    -0.056 C 
HETATM    7  C14 UNL     1      -3.152  -2.861  -2.196  1.00  0.00     0.017 C 
HETATM    8  C15 UNL     1      -3.760  -2.866   0.158  1.00  0.00     0.146 C 
HETATM    9  C16 UNL     1      -4.338  -1.582   0.754  1.00  0.00     0.037 C 
HETATM   10  C17 UNL     1      -3.134  -0.790   1.283  1.00  0.00     0.009 C 
HETATM   11  C18 UNL     1      -2.267  -0.290   0.119  1.00  0.00     0.009 C 
HETATM   12  C19 UNL     1      -1.261   0.687   0.576  1.00  0.00     0.022 C 
HETATM   13  C20 UNL     1      -1.478   1.040   2.068  1.00  0.00     0.024 C 
HETATM   14  C25 UNL     1       0.167   0.380   0.474  1.00  0.00     0.143 C 
HETATM   15  O3  UNL     1       0.793   1.326   1.023  1.00  0.00    -0.296 OA
ENDROOT
BRANCH   1  16
HETATM   16  C7  UNL     1       2.008   0.052  -1.063  1.00  0.00     0.021 C 
BRANCH  16  17
HETATM   17  C6  UNL     1       2.997   1.097  -0.760  1.00  0.00     0.029 C 
BRANCH  17  18
HETATM   18  C5  UNL     1       4.034   0.698   0.206  1.00  0.00    -0.020 C 
HETATM   19  C3  UNL     1       5.220   0.198  -0.097  1.00  0.00    -0.067 C 
HETATM   20  C4  UNL     1       5.657  -0.046  -1.492  1.00  0.00     0.048 C 
BRANCH  19  21
HETATM   21  C2  UNL     1       6.118  -0.138   0.994  1.00  0.00    -0.004 C 
HETATM   22  C1  UNL     1       7.242  -0.645   0.973  1.00  0.00     0.012 C 
ENDBRANCH  19  21
ENDBRANCH  17  18
ENDBRANCH  16  17
ENDBRANCH   1  16
BRANCH  12  23
HETATM   23  C21 UNL     1      -1.474   1.992  -0.162  1.00  0.00     0.025 C 
BRANCH  23  24
HETATM   24  C22 UNL     1      -2.773   2.669   0.025  1.00  0.00     0.079 C 
BRANCH  24  25
HETATM   25  C23 UNL     1      -2.698   3.918  -0.834  1.00  0.00     0.123 C 
HETATM   26  C24 UNL     1      -2.972   5.276  -0.295  1.00  0.00     0.091 C 
HETATM   27  O2  UNL     1      -2.392   3.787  -2.028  1.00  0.00    -0.298 OA
ENDBRANCH  24  25
ENDBRANCH  23  24
ENDBRANCH  12  23
BRANCH   8  28
HETATM   28  O1  UNL     1      -2.994  -3.451   1.173  1.00  0.00    -0.391 OA
ATOM     29  H1  UNL     1      -3.543  -3.752   1.888  1.00  0.00     0.210 HD
ENDBRANCH   8  28
TORSDOF 8
