REMARK  6 active torsions:
REMARK  status: ('A' for Active; 'I' for Inactive)
REMARK    1  A    between atoms: N1_2  and  C2_3 
REMARK    2  A    between atoms: N1_2  and  C9_10 
REMARK    3  A    between atoms: C2_3  and  C3_4 
REMARK    4  A    between atoms: C17_18  and  N2_19 
REMARK    5  A    between atoms: N2_19  and  C18_21 
REMARK    6  A    between atoms: C18_21  and  C19_22 
ROOT
HETATM    1  C9  UNL     1       0.843  -0.948  -0.419  1.00  0.00     0.031 C 
HETATM    2  C10 UNL     1       0.472  -1.699  -1.674  1.00  0.00     0.031 C 
HETATM    3  C11 UNL     1      -0.112  -3.067  -1.440  1.00  0.00     0.003 C 
HETATM    4  C12 UNL     1      -1.506  -3.063  -0.900  1.00  0.00     0.005 C 
HETATM    5  C13 UNL     1      -1.685  -2.561   0.473  1.00  0.00    -0.013 C 
HETATM    6  C14 UNL     1      -0.548  -2.190   1.288  1.00  0.00     0.007 C 
HETATM    7  C15 UNL     1       0.788  -1.861   0.738  1.00  0.00     0.031 C 
HETATM    8  C16 UNL     1      -2.827  -1.536   0.469  1.00  0.00     0.029 C 
HETATM    9  C17 UNL     1      -2.440  -0.118   0.472  1.00  0.00     0.077 C 
HETATM   10  C24 UNL     1      -1.409   0.272  -0.593  1.00  0.00     0.027 C 
HETATM   11  C25 UNL     1      -0.028   0.242  -0.119  1.00  0.00     0.033 C 
ENDROOT
BRANCH   9  12
HETATM   12  N2  UNL     1      -3.637   0.659   0.228  1.00  0.00    -0.413 N 
ATOM     13  H2  UNL     1      -3.744   1.237  -0.606  1.00  0.00     0.153 HD
BRANCH  12  14
HETATM   14  C18 UNL     1      -4.654   0.571   1.216  1.00  0.00     0.153 C 
BRANCH  14  15
HETATM   15  C19 UNL     1      -5.822   1.413   0.918  1.00  0.00    -0.038 A 
HETATM   16  C20 UNL     1      -5.900   2.683   1.428  1.00  0.00     0.025 A 
HETATM   17  C21 UNL     1      -7.007   3.488   1.147  1.00  0.00     0.088 A 
HETATM   18  N3  UNL     1      -7.988   3.018   0.381  1.00  0.00    -0.375 N 
HETATM   19  C22 UNL     1      -7.924   1.782  -0.120  1.00  0.00     0.088 A 
ATOM     20  H3  UNL     1      -8.795   3.606   0.175  1.00  0.00     0.164 HD
HETATM   21  C23 UNL     1      -6.840   0.939   0.131  1.00  0.00     0.025 A 
ENDBRANCH  14  15
ENDBRANCH  12  14
ENDBRANCH   9  12
BRANCH   1  22
HETATM   22  N1  UNL     1       2.148  -0.390  -0.719  1.00  0.00    -0.388 N 
HETATM   23  C1  UNL     1       2.019   0.524  -1.817  1.00  0.00     0.149 C 
BRANCH  22  24
HETATM   24  C2  UNL     1       3.085  -0.138   0.247  1.00  0.00     0.063 C 
BRANCH  24  25
HETATM   25  C3  UNL     1       4.549  -0.196  -0.047  1.00  0.00     0.024 C 
HETATM   26  C4  UNL     1       5.118   0.706  -1.054  1.00  0.00     0.010 C 
HETATM   27  C5  UNL     1       5.112   2.181  -0.626  1.00  0.00     0.001 C 
HETATM   28  C6  UNL     1       6.082   2.302   0.499  1.00  0.00     0.000 C 
HETATM   29  C7  UNL     1       6.423   0.993   1.145  1.00  0.00     0.001 C 
HETATM   30  C8  UNL     1       5.268   0.061   1.278  1.00  0.00     0.010 C 
ENDBRANCH  24  25
ENDBRANCH  22  24
ENDBRANCH   1  22
TORSDOF 6
