REMARK  7 active torsions:
REMARK  status: ('A' for Active; 'I' for Inactive)
REMARK    1  A    between atoms: C2_2  and  C4_4 
REMARK    2  A    between atoms: C4_4  and  C5_5 
REMARK    3  A    between atoms: C5_5  and  C6_6 
REMARK    4  A    between atoms: C6_6  and  C7_7 
REMARK    5  A    between atoms: C7_7  and  C9_9 
REMARK    6  A    between atoms: C17_17  and  O1_18 
REMARK    7  A    between atoms: O1_18  and  N1_19 
ROOT
HETATM    1  C9  UNL     1      -1.379   0.450   0.004  1.00  0.00    -0.002 C 
HETATM    2  C10 UNL     1      -1.613   0.170   1.450  1.00  0.00     0.006 C 
HETATM    3  C11 UNL     1      -0.232  -0.095   2.072  1.00  0.00     0.006 C 
HETATM    4  C12 UNL     1       0.662   0.247   0.960  1.00  0.00    -0.002 C 
HETATM    5  C13 UNL     1       2.074  -0.123   1.052  1.00  0.00    -0.005 C 
HETATM    6  C14 UNL     1       2.871   1.138   1.357  1.00  0.00     0.006 C 
HETATM    7  C15 UNL     1       4.344   0.974   1.335  1.00  0.00     0.008 C 
HETATM    8  C16 UNL     1       4.695   0.502  -0.078  1.00  0.00     0.029 C 
HETATM    9  C17 UNL     1       6.166   0.211  -0.252  1.00  0.00     0.225 C 
HETATM   10  C18 UNL     1       6.159  -0.953  -1.184  1.00  0.00     0.158 C 
HETATM   11  O2  UNL     1       7.116  -1.429  -1.764  1.00  0.00    -0.295 OA
HETATM   12  C19 UNL     1       4.754  -1.482  -1.317  1.00  0.00     0.086 C 
HETATM   13  C20 UNL     1       4.122  -0.896  -0.119  1.00  0.00     0.004 C 
HETATM   14  C21 UNL     1       2.620  -0.940  -0.067  1.00  0.00    -0.005 C 
HETATM   15  C22 UNL     1       2.073  -0.562  -1.388  1.00  0.00     0.006 C 
HETATM   16  C23 UNL     1       0.754   0.181  -1.379  1.00  0.00     0.010 C 
HETATM   17  C24 UNL     1      -0.114  -0.312  -0.267  1.00  0.00    -0.036 C 
HETATM   18  C25 UNL     1      -0.224  -1.791  -0.203  1.00  0.00     0.016 C 
ENDROOT
BRANCH   1  19
HETATM   19  C7  UNL     1      -2.476   0.523  -0.927  1.00  0.00    -0.014 C 
HETATM   20  C8  UNL     1      -2.022   1.083  -2.305  1.00  0.00     0.010 C 
BRANCH  19  21
HETATM   21  C6  UNL     1      -3.419  -0.539  -1.266  1.00  0.00     0.005 C 
BRANCH  21  22
HETATM   22  C5  UNL     1      -4.171  -1.327  -0.273  1.00  0.00     0.001 C 
BRANCH  22  23
HETATM   23  C4  UNL     1      -5.143  -0.687   0.624  1.00  0.00     0.004 C 
BRANCH  23  24
HETATM   24  C2  UNL     1      -6.349  -0.032   0.092  1.00  0.00    -0.023 C 
HETATM   25  C1  UNL     1      -6.253   1.103  -0.831  1.00  0.00     0.009 C 
HETATM   26  C3  UNL     1      -7.161   0.442   1.323  1.00  0.00     0.009 C 
ENDBRANCH  23  24
ENDBRANCH  22  23
ENDBRANCH  21  22
ENDBRANCH  19  21
ENDBRANCH   1  19
BRANCH   9  27
HETATM   27  O1  UNL     1       6.803   1.258  -0.917  1.00  0.00    -0.274 OA
BRANCH  27  28
HETATM   28  N1  UNL     1       7.872   1.715  -0.220  1.00  0.00    -0.310 N 
ATOM     29  H12 UNL     1       8.162   1.330   0.679  1.00  0.00     0.184 HD
ATOM     30  H11 UNL     1       8.338   2.481  -0.706  1.00  0.00     0.184 HD
ENDBRANCH  27  28
ENDBRANCH   9  27
TORSDOF 7
