REMARK  8 active torsions:
REMARK  status: ('A' for Active; 'I' for Inactive)
REMARK    1  A    between atoms: C2_2  and  C3_3 
REMARK    2  A    between atoms: C2_2  and  C11_12 
REMARK    3  A    between atoms: C3_3  and  C4_4 
REMARK    4  A    between atoms: C4_4  and  C5_5 
REMARK    5  A    between atoms: C5_5  and  N1_6 
REMARK    6  A    between atoms: C14_15  and  C15_16 
REMARK    7  A    between atoms: C22_23  and  C24_25 
REMARK    8  A    between atoms: C24_25  and  O1_26 
ROOT
HETATM    1  C11 UNL     1       0.028   0.128   0.708  1.00  0.00     0.125 C 
HETATM    2  C12 UNL     1      -0.236   0.913  -0.569  1.00  0.00     0.035 C 
HETATM    3  C13 UNL     1      -1.756   1.094  -0.399  1.00  0.00     0.035 C 
HETATM    4  C14 UNL     1      -2.204   0.072   0.520  1.00  0.00     0.130 C 
HETATM    5  O2  UNL     1      -1.057  -0.711   0.849  1.00  0.00    -0.379 OA
ENDROOT
BRANCH   4   6
HETATM    6  C15 UNL     1      -3.263  -0.874   0.258  1.00  0.00    -0.013 C 
HETATM    7  C16 UNL     1      -3.301  -1.753   1.540  1.00  0.00     0.018 C 
HETATM    8  C17 UNL     1      -2.773  -1.881  -0.803  1.00  0.00     0.012 C 
HETATM    9  C18 UNL     1      -3.393  -1.416  -2.100  1.00  0.00     0.006 C 
HETATM   10  C19 UNL     1      -4.686  -0.826  -1.680  1.00  0.00    -0.009 C 
HETATM   11  C20 UNL     1      -5.069   0.473  -2.292  1.00  0.00     0.006 C 
HETATM   12  C25 UNL     1      -4.612  -0.614  -0.158  1.00  0.00     0.010 C 
HETATM   13  C21 UNL     1      -5.300   1.478  -1.205  1.00  0.00     0.012 C 
HETATM   14  C22 UNL     1      -5.379   0.597   0.040  1.00  0.00    -0.018 C 
HETATM   15  C23 UNL     1      -6.888   0.232   0.084  1.00  0.00     0.018 C 
BRANCH  14  16
HETATM   16  C24 UNL     1      -5.175   1.418   1.273  1.00  0.00     0.173 C 
BRANCH  16  17
HETATM   17  O1  UNL     1      -6.203   2.397   1.307  1.00  0.00    -0.400 OA
ATOM     18  H1  UNL     1      -6.073   2.919   2.090  1.00  0.00     0.209 HD
ENDBRANCH  16  17
ENDBRANCH  14  16
ENDBRANCH   4   6
BRANCH   1  19
HETATM   19  C2  UNL     1       1.314  -0.633   0.460  1.00  0.00     0.011 C 
HETATM   20  C1  UNL     1       1.703  -1.464   1.662  1.00  0.00     0.012 C 
BRANCH  19  21
HETATM   21  C3  UNL     1       2.442   0.304   0.115  1.00  0.00     0.008 C 
BRANCH  21  22
HETATM   22  C4  UNL     1       3.670  -0.547  -0.195  1.00  0.00     0.031 C 
BRANCH  22  23
HETATM   23  C5  UNL     1       4.774   0.422  -0.540  1.00  0.00     0.272 C 
BRANCH  23  24
HETATM   24  N1  UNL     1       5.963  -0.301  -0.845  1.00  0.00     0.088 N 
HETATM   25  C6  UNL     1       6.560  -0.961   0.268  1.00  0.00     0.272 C 
HETATM   26  C7  UNL     1       7.044   0.019   1.316  1.00  0.00     0.030 C 
HETATM   27  C8  UNL     1       7.712   1.211   0.664  1.00  0.00     0.003 C 
HETATM   28  C9  UNL     1       8.058   0.962  -0.780  1.00  0.00     0.030 C 
HETATM   29  C10 UNL     1       6.909   0.491  -1.609  1.00  0.00     0.272 C 
ENDBRANCH  23  24
ENDBRANCH  22  23
ENDBRANCH  21  22
ENDBRANCH  19  21
ENDBRANCH   1  19
TORSDOF 8
