REMARK  5 active torsions:
REMARK  status: ('A' for Active; 'I' for Inactive)
REMARK    1  A    between atoms: N1_1  and  C1_4 
REMARK    2  A    between atoms: N3_15  and  C8_16 
REMARK    3  A    between atoms: C8_16  and  C9_17 
REMARK    4  A    between atoms: C9_17  and  C10_18 
REMARK    5  A    between atoms: C10_18  and  C11_19 
ROOT
HETATM    1  C1  UNL     1       2.083  -0.729  -1.551  1.00  0.00     0.679 A 
HETATM    2  N2  UNL     1       3.410  -0.940  -1.484  1.00  0.00    -0.190 N 
ATOM      3  H2  UNL     1       3.947  -1.500  -2.146  1.00  0.00     0.184 HD
HETATM    4  C2  UNL     1       3.929  -0.298  -0.406  1.00  0.00     0.079 A 
HETATM    5  C3  UNL     1       5.221  -0.211   0.084  1.00  0.00     0.076 A 
HETATM    6  C4  UNL     1       5.465   0.527   1.224  1.00  0.00     0.140 A 
HETATM    7  F1  UNL     1       6.743   0.619   1.715  1.00  0.00    -0.204 F 
HETATM    8  C5  UNL     1       4.404   1.156   1.838  1.00  0.00     0.074 A 
HETATM    9 CL1  UNL     1       4.707   2.095   3.285  1.00  0.00    -0.081 Cl
HETATM   10  C6  UNL     1       3.111   1.079   1.363  1.00  0.00     0.059 A 
HETATM   11  C7  UNL     1       2.864   0.331   0.208  1.00  0.00     0.080 A 
HETATM   12  N3  UNL     1       1.765   0.050  -0.509  1.00  0.00    -0.181 N 
ENDROOT
BRANCH  12  13
HETATM   13  C8  UNL     1       0.451   0.545  -0.160  1.00  0.00     0.148 C 
BRANCH  13  14
HETATM   14  C9  UNL     1      -0.282  -0.403   0.761  1.00  0.00     0.021 C 
BRANCH  14  15
HETATM   15  C10 UNL     1      -1.635   0.077   1.138  1.00  0.00     0.006 C 
BRANCH  15  16
HETATM   16  C11 UNL     1      -2.575   0.285  -0.008  1.00  0.00    -0.014 C 
HETATM   17  C12 UNL     1      -3.902   0.772   0.558  1.00  0.00     0.004 C 
HETATM   18  C13 UNL     1      -4.974   0.188  -0.304  1.00  0.00     0.000 C 
HETATM   19  C14 UNL     1      -4.273  -0.565  -1.385  1.00  0.00     0.000 C 
HETATM   20  C15 UNL     1      -2.925  -0.948  -0.759  1.00  0.00     0.004 C 
ENDBRANCH  15  16
ENDBRANCH  14  15
ENDBRANCH  13  14
ENDBRANCH  12  13
BRANCH   1  21
HETATM   21  N1  UNL     1       1.283  -1.209  -2.471  1.00  0.00    -0.234 N 
ATOM     22  H12 UNL     1       1.525  -1.802  -3.265  1.00  0.00     0.174 HD
ATOM     23  H11 UNL     1       0.277  -1.049  -2.522  1.00  0.00     0.174 HD
ENDBRANCH   1  21
TORSDOF 5
