REMARK  5 active torsions:
REMARK  status: ('A' for Active; 'I' for Inactive)
REMARK    1  A    between atoms: C2_2  and  C4_4 
REMARK    2  A    between atoms: C4_4  and  C5_5 
REMARK    3  A    between atoms: C5_5  and  C6_6 
REMARK    4  A    between atoms: C6_6  and  O1_7 
REMARK    5  A    between atoms: C6_6  and  C7_10 
ROOT
HETATM    1  C7  UNL     1      -1.051  -0.274  -0.131  1.00  0.00     0.206 C 
HETATM    2  O2  UNL     1      -1.323  -0.706   1.176  1.00  0.00    -0.367 OA
HETATM    3  C8  UNL     1      -2.683  -0.740   1.309  1.00  0.00     0.152 C 
HETATM    4  C9  UNL     1      -3.304  -2.053   0.867  1.00  0.00     0.045 C 
HETATM    5  C10 UNL     1      -3.201   0.309   0.401  1.00  0.00    -0.018 A 
HETATM    6  C11 UNL     1      -4.428   0.980   0.319  1.00  0.00     0.052 A 
HETATM    7  C12 UNL     1      -4.659   1.935  -0.646  1.00  0.00     0.117 A 
HETATM    8  F1  UNL     1      -5.849   2.592  -0.732  1.00  0.00    -0.206 F 
HETATM    9  C13 UNL     1      -3.641   2.212  -1.533  1.00  0.00     0.043 A 
HETATM   10  C14 UNL     1      -2.436   1.549  -1.449  1.00  0.00     0.013 A 
HETATM   11  C15 UNL     1      -2.183   0.587  -0.487  1.00  0.00    -0.016 A 
ENDROOT
BRANCH   1  12
HETATM   12  C6  UNL     1       0.272   0.454  -0.149  1.00  0.00     0.164 C 
HETATM   13 CL1  UNL     1       0.270   1.820   0.979  1.00  0.00    -0.085 Cl
BRANCH  12  14
HETATM   14  C5  UNL     1       1.421  -0.450   0.240  1.00  0.00     0.058 C 
BRANCH  14  15
HETATM   15  C4  UNL     1       2.683   0.340   0.131  1.00  0.00     0.008 C 
BRANCH  15  16
HETATM   16  C2  UNL     1       3.920  -0.438   0.490  1.00  0.00    -0.023 C 
HETATM   17  C1  UNL     1       4.147  -1.638  -0.364  1.00  0.00     0.009 C 
HETATM   18  C3  UNL     1       5.109   0.497   0.411  1.00  0.00     0.009 C 
ENDBRANCH  15  16
ENDBRANCH  14  15
ENDBRANCH  12  14
BRANCH  12  19
HETATM   19  O1  UNL     1       0.508   0.861  -1.460  1.00  0.00    -0.372 OA
ATOM     20  H1  UNL     1      -0.214   1.429  -1.704  1.00  0.00     0.212 HD
ENDBRANCH  12  19
ENDBRANCH   1  12
TORSDOF 5
