REMARK  6 active torsions:
REMARK  status: ('A' for Active; 'I' for Inactive)
REMARK    1  A    between atoms: C2_2  and  C4_4 
REMARK    2  A    between atoms: C4_4  and  C5_5 
REMARK    3  A    between atoms: C7_7  and  O1_8 
REMARK    4  A    between atoms: C8_10  and  O2_11 
REMARK    5  A    between atoms: C9_13  and  C10_14 
REMARK    6  A    between atoms: C11_15  and  C12_16 
ROOT
HETATM    1  C5  UNL     1      -2.341  -0.869  -0.021  1.00  0.00    -0.054 A 
HETATM    2  C6  UNL     1      -2.361  -1.776   1.007  1.00  0.00     0.046 A 
HETATM    3  C7  UNL     1      -1.211  -2.186   1.653  1.00  0.00     0.100 A 
HETATM    4  C8  UNL     1       0.034  -1.672   1.263  1.00  0.00     0.109 A 
HETATM    5  C9  UNL     1       0.093  -0.765   0.241  1.00  0.00     0.000 A 
HETATM    6  C18 UNL     1      -1.114  -0.379  -0.385  1.00  0.00     0.021 A 
ENDROOT
BRANCH   5   7
HETATM    7  C10 UNL     1       1.337  -0.193  -0.213  1.00  0.00     0.015 C 
HETATM    8  C11 UNL     1       2.537  -0.395   0.204  1.00  0.00     0.012 C 
BRANCH   8   9
HETATM    9  C12 UNL     1       3.712   0.272  -0.370  1.00  0.00    -0.030 A 
HETATM   10  C13 UNL     1       4.988   0.019   0.117  1.00  0.00     0.053 A 
HETATM   11  C14 UNL     1       6.074   0.638  -0.418  1.00  0.00     0.120 A 
HETATM   12  F1  UNL     1       7.314   0.373   0.078  1.00  0.00    -0.206 F 
HETATM   13  C15 UNL     1       5.982   1.543  -1.459  1.00  0.00     0.084 A 
HETATM   14  C16 UNL     1       4.718   1.789  -1.937  1.00  0.00     0.120 A 
HETATM   15  F2  UNL     1       4.616   2.677  -2.961  1.00  0.00    -0.206 F 
HETATM   16  C17 UNL     1       3.591   1.155  -1.392  1.00  0.00     0.053 A 
ENDBRANCH   8   9
ENDBRANCH   5   7
BRANCH   4  17
HETATM   17  O2  UNL     1       1.152  -2.110   1.936  1.00  0.00    -0.357 OA
ATOM     18  H2  UNL     1       1.995  -1.762   1.672  1.00  0.00     0.217 HD
ENDBRANCH   4  17
BRANCH   3  19
HETATM   19  O1  UNL     1      -1.325  -3.102   2.675  1.00  0.00    -0.358 OA
ATOM     20  H1  UNL     1      -0.534  -3.384   3.119  1.00  0.00     0.217 HD
ENDBRANCH   3  19
BRANCH   1  21
HETATM   21  C4  UNL     1      -3.568  -0.443  -0.697  1.00  0.00     0.042 C 
BRANCH  21  22
HETATM   22  C2  UNL     1      -4.222   0.761  -0.075  1.00  0.00    -0.019 C 
HETATM   23  C1  UNL     1      -3.327   1.970  -0.075  1.00  0.00     0.010 C 
HETATM   24  C3  UNL     1      -4.734   0.481   1.319  1.00  0.00     0.010 C 
ENDBRANCH  21  22
ENDBRANCH   1  21
TORSDOF 6
