REMARK  7 active torsions:
REMARK  status: ('A' for Active; 'I' for Inactive)
REMARK    1  A    between atoms: C2_2  and  C3_3 
REMARK    2  A    between atoms: C3_3  and  C11_19 
REMARK    3  A    between atoms: C4_4  and  C5_5 
REMARK    4  A    between atoms: C6_8  and  C7_9 
REMARK    5  A    between atoms: C7_9  and  C8_10 
REMARK    6  A    between atoms: C8_10  and  O1_11 
REMARK    7  A    between atoms: C8_10  and  C9_13 
ROOT
HETATM    1  C5  UNL     1       0.581  -0.676   0.059  1.00  0.00     0.105 A 
HETATM    2  N1  UNL     1       1.417   0.309  -0.218  1.00  0.00    -0.341 N 
ATOM      3  H1  UNL     1       1.158   1.147  -0.738  1.00  0.00     0.167 HD
HETATM    4  C6  UNL     1       2.656   0.076   0.269  1.00  0.00     0.051 A 
HETATM    5  C10 UNL     1       2.548  -1.141   0.887  1.00  0.00     0.119 A 
HETATM    6  N2  UNL     1       1.277  -1.605   0.759  1.00  0.00    -0.350 N 
ATOM      7  H2  UNL     1       0.915  -2.487   1.122  1.00  0.00     0.166 HD
ENDROOT
BRANCH   1   8
HETATM    8  C4  UNL     1      -0.838  -0.861  -0.244  1.00  0.00     0.056 C 
HETATM    9  C3  UNL     1      -1.784   0.006   0.020  1.00  0.00    -0.048 C 
BRANCH   9  10
HETATM   10  C2  UNL     1      -1.449   1.254   0.661  1.00  0.00    -0.002 C 
HETATM   11  C1  UNL     1      -2.315   2.201   0.972  1.00  0.00     0.012 C 
ENDBRANCH   9  10
BRANCH   9  12
HETATM   12  C11 UNL     1      -3.182  -0.364  -0.362  1.00  0.00    -0.024 C 
HETATM   13  C12 UNL     1      -4.094  -0.547   0.807  1.00  0.00     0.019 C 
HETATM   14  C13 UNL     1      -3.796   0.691  -1.268  1.00  0.00     0.019 C 
HETATM   15  C14 UNL     1      -3.202  -1.658  -1.169  1.00  0.00     0.019 C 
ENDBRANCH   9  12
ENDBRANCH   1   8
BRANCH   4  16
HETATM   16  C7  UNL     1       3.838   0.903   0.171  1.00  0.00     0.065 C 
BRANCH  16  17
HETATM   17  C8  UNL     1       5.036   0.361  -0.009  1.00  0.00     0.078 C 
BRANCH  17  18
HETATM   18  O1  UNL     1       5.106  -1.021  -0.097  1.00  0.00    -0.362 OA
ATOM     19  H1  UNL     1       5.964  -1.409  -0.226  1.00  0.00     0.217 HD
ENDBRANCH  17  18
BRANCH  17  20
HETATM   20  C9  UNL     1       6.272   1.183  -0.118  1.00  0.00     0.234 C 
HETATM   21 CL1  UNL     1       7.430   0.827   1.179  1.00  0.00    -0.101 Cl
HETATM   22 CL2  UNL     1       5.922   2.900  -0.256  1.00  0.00    -0.101 Cl
ENDBRANCH  17  20
ENDBRANCH  16  17
ENDBRANCH   4  16
TORSDOF 7
