REMARK  12 active torsions:
REMARK  status: ('A' for Active; 'I' for Inactive)
REMARK    1  A    between atoms: O1_2  and  C2_3 
REMARK    2  A    between atoms: C2_3  and  C3_5 
REMARK    3  A    between atoms: C3_5  and  C4_6 
REMARK    4  A    between atoms: C3_5  and  C9_19 
REMARK    5  A    between atoms: C7_15  and  C8_16 
REMARK    6  A    between atoms: C11_26  and  N6_27 
REMARK    7  A    between atoms: N6_27  and  N7_29 
REMARK       I    between atoms: N7_29  and  C12_31 
REMARK    8  A    between atoms: C12_31  and  C13_33 
REMARK    9  A    between atoms: C13_33  and  N8_34 
REMARK   10  A    between atoms: C13_33  and  C14_38 
REMARK   11  A    between atoms: C14_38  and  C15_39 
REMARK   12  A    between atoms: C15_39  and  S1_40 
ROOT
HETATM    1  C9  UNL     1      -2.355  -0.914  -0.103  1.00  0.00     0.098 A 
HETATM    2  N3  UNL     1      -2.125  -2.022   0.618  1.00  0.00    -0.298 N 
ATOM      3  H3  UNL     1      -2.923  -2.481   1.057  1.00  0.00     0.186 HD
HETATM    4  N4  UNL     1      -0.947  -2.547   0.792  1.00  0.00    -0.285 N 
ATOM      5  H4  UNL     1      -0.833  -3.393   1.351  1.00  0.00     0.188 HD
HETATM    6  C10 UNL     1       0.130  -1.949   0.216  1.00  0.00     0.163 A 
HETATM    7  N5  UNL     1       1.420  -2.551   0.422  1.00  0.00    -0.079 NA
HETATM    8  C11 UNL     1      -0.032  -0.826  -0.526  1.00  0.00     0.143 A 
HETATM    9  C17 UNL     1      -1.302  -0.273  -0.705  1.00  0.00     0.228 A 
HETATM   10  O8  UNL     1      -1.444   0.785  -1.407  1.00  0.00    -0.284 OA
ENDROOT
BRANCH   1  11
HETATM   11  C3  UNL     1      -3.741  -0.380  -0.240  1.00  0.00     0.192 C 
BRANCH  11  12
HETATM   12  C2  UNL     1      -4.733  -1.339   0.299  1.00  0.00     0.274 C 
HETATM   13  O2  UNL     1      -5.514  -0.988   1.218  1.00  0.00    -0.264 OA
BRANCH  12  14
HETATM   14  O1  UNL     1      -4.863  -2.644  -0.158  1.00  0.00    -0.326 OA
HETATM   15  C1  UNL     1      -5.817  -3.551   0.367  1.00  0.00     0.213 C 
ENDBRANCH  12  14
ENDBRANCH  11  12
BRANCH  11  16
HETATM   16  C4  UNL     1      -3.894   0.904   0.485  1.00  0.00     0.056 A 
HETATM   17  N1  UNL     1      -3.446   1.057   1.741  1.00  0.00    -0.310 N 
HETATM   18  C5  UNL     1      -3.559   2.205   2.432  1.00  0.00     0.327 A 
ATOM     19  H1  UNL     1      -2.997   0.262   2.195  1.00  0.00     0.170 HD
HETATM   20  O3  UNL     1      -3.115   2.253   3.586  1.00  0.00    -0.247 OA
HETATM   21  N2  UNL     1      -4.155   3.279   1.848  1.00  0.00    -0.275 N 
HETATM   22  C6  UNL     1      -4.615   3.143   0.580  1.00  0.00     0.268 A 
ATOM     23  H2  UNL     1      -4.253   4.162   2.350  1.00  0.00     0.173 HD
HETATM   24  O4  UNL     1      -5.158   4.139   0.066  1.00  0.00    -0.267 OA
HETATM   25  C7  UNL     1      -4.502   1.966  -0.136  1.00  0.00     0.132 A 
BRANCH  25  26
HETATM   26  C8  UNL     1      -5.031   1.921  -1.493  1.00  0.00     0.217 C 
HETATM   27  O5  UNL     1      -6.224   1.570  -1.647  1.00  0.00    -0.644 OA
HETATM   28  O6  UNL     1      -4.282   2.246  -2.611  1.00  0.00    -0.644 OA
ENDBRANCH  25  26
ENDBRANCH  11  16
ENDBRANCH   1  11
BRANCH   8  29
HETATM   29  N6  UNL     1       1.058  -0.164  -1.134  1.00  0.00    -0.291 N 
ATOM     30  H6  UNL     1       0.863   0.658  -1.706  1.00  0.00     0.187 HD
BRANCH  29  31
HETATM   31  N7  UNL     1       2.377  -0.568  -0.997  1.00  0.00    -0.268 N 
HETATM   32  C12 UNL     1       3.283   0.033  -0.082  1.00  0.00     0.266 C 
HETATM   33  O7  UNL     1       2.931   0.986   0.672  1.00  0.00    -0.269 OA
ATOM     34  H7  UNL     1       2.713  -1.334  -1.581  1.00  0.00     0.190 HD
BRANCH  32  35
HETATM   35  C13 UNL     1       4.677  -0.447   0.016  1.00  0.00     0.277 C 
BRANCH  35  36
HETATM   36  N8  UNL     1       5.371   0.285   1.028  1.00  0.00    -0.066 N 
ATOM     37  H83 UNL     1       5.322   1.292   0.874  1.00  0.00     0.275 HD
ATOM     38  H82 UNL     1       4.889   0.249   1.926  1.00  0.00     0.275 HD
ATOM     39  H81 UNL     1       6.333  -0.046   1.096  1.00  0.00     0.275 HD
ENDBRANCH  35  36
BRANCH  35  40
HETATM   40  C14 UNL     1       5.382  -0.407  -1.325  1.00  0.00     0.053 C 
BRANCH  40  41
HETATM   41  C15 UNL     1       5.426   0.997  -1.886  1.00  0.00     0.076 C 
BRANCH  41  42
HETATM   42  S1  UNL     1       6.283   2.143  -0.802  1.00  0.00    -0.173 SA
HETATM   43  C16 UNL     1       8.033   1.807  -0.617  1.00  0.00     0.089 C 
ENDBRANCH  41  42
ENDBRANCH  40  41
ENDBRANCH  35  40
ENDBRANCH  32  35
ENDBRANCH  29  31
ENDBRANCH   8  29
TORSDOF 12
