REMARK  17 active torsions:
REMARK  status: ('A' for Active; 'I' for Inactive)
REMARK    1  A    between atoms: S1_2  and  C2_3 
REMARK    2  A    between atoms: C3_4  and  C4_5 
REMARK    3  A    between atoms: C4_5  and  C5_6 
REMARK    4  A    between atoms: C5_6  and  C6_7 
REMARK    5  A    between atoms: C6_7  and  O1_8 
REMARK    6  A    between atoms: C6_7  and  C7_10 
REMARK    7  A    between atoms: C7_10  and  O2_11 
REMARK    8  A    between atoms: C7_10  and  C8_13 
REMARK    9  A    between atoms: C8_13  and  C9_15 
REMARK   10  A    between atoms: C9_15  and  O4_16 
REMARK   11  A    between atoms: C9_15  and  C10_18 
REMARK   12  A    between atoms: C10_18  and  O5_19 
REMARK   13  A    between atoms: C11_22  and  C12_23 
REMARK   14  A    between atoms: C12_23  and  N1_24 
REMARK   15  A    between atoms: N1_24  and  C13_26 
REMARK   16  A    between atoms: C16_33  and  C17_34 
REMARK       I    between atoms: C17_34  and  N4_36 
REMARK   17  A    between atoms: N4_36  and  C18_38 
ROOT
HETATM    1  C2  UNL     1      -0.418   1.836  -0.753  1.00  0.00     0.048 A 
HETATM    2  C3  UNL     1       0.269   0.636  -0.711  1.00  0.00     0.071 A 
HETATM    3  O6  UNL     1      -0.607  -0.339  -0.688  1.00  0.00    -0.315 OA
HETATM    4  C11 UNL     1      -1.829   0.107  -0.709  1.00  0.00     0.088 A 
HETATM    5  C16 UNL     1      -1.750   1.496  -0.751  1.00  0.00     0.083 A 
ENDROOT
BRANCH   2   6
HETATM    6  C4  UNL     1       1.764   0.436  -0.694  1.00  0.00     0.069 C 
BRANCH   6   7
HETATM    7  C5  UNL     1       2.302   0.729   0.684  1.00  0.00     0.041 C 
BRANCH   7   8
HETATM    8  C6  UNL     1       3.768   0.572   0.837  1.00  0.00     0.154 C 
BRANCH   8   9
HETATM    9  O1  UNL     1       4.465   1.400  -0.006  1.00  0.00    -0.393 OA
ATOM     10  H1  UNL     1       5.405   1.299   0.092  1.00  0.00     0.210 HD
ENDBRANCH   8   9
BRANCH   8  11
HETATM   11  C7  UNL     1       4.267  -0.866   0.806  1.00  0.00     0.219 C 
BRANCH  11  12
HETATM   12  O2  UNL     1       4.188  -1.427  -0.429  1.00  0.00    -0.385 OA
ATOM     13  H2  UNL     1       4.499  -2.324  -0.448  1.00  0.00     0.210 HD
ENDBRANCH  11  12
BRANCH  11  14
HETATM   14  C8  UNL     1       5.561  -0.874   1.481  1.00  0.00     0.188 C 
HETATM   15  O3  UNL     1       5.538  -0.313   2.602  1.00  0.00    -0.292 OA
BRANCH  14  16
HETATM   16  C9  UNL     1       6.848  -1.414   1.074  1.00  0.00     0.213 C 
BRANCH  16  17
HETATM   17  O4  UNL     1       7.870  -1.066   1.995  1.00  0.00    -0.386 OA
ATOM     18  H4  UNL     1       8.711  -1.419   1.729  1.00  0.00     0.210 HD
ENDBRANCH  16  17
BRANCH  16  19
HETATM   19  C10 UNL     1       6.947  -2.909   0.941  1.00  0.00     0.203 C 
BRANCH  19  20
HETATM   20  O5  UNL     1       6.068  -3.499   0.083  1.00  0.00    -0.398 OA
ATOM     21  H5  UNL     1       6.131  -4.443  -0.001  1.00  0.00     0.209 HD
ENDBRANCH  19  20
ENDBRANCH  16  19
ENDBRANCH  14  16
ENDBRANCH  11  14
ENDBRANCH   8  11
ENDBRANCH   7   8
ENDBRANCH   6   7
ENDBRANCH   2   6
BRANCH   1  22
HETATM   22  S1  UNL     1       0.378   3.401  -0.796  1.00  0.00    -0.131 SA
HETATM   23  C1  UNL     1      -0.714   4.810  -0.851  1.00  0.00     0.095 C 
ENDBRANCH   1  22
BRANCH   5  24
HETATM   24  C17 UNL     1      -2.889   2.398  -0.785  1.00  0.00     0.273 C 
HETATM   25  O7  UNL     1      -3.393   2.775  -1.868  1.00  0.00    -0.267 OA
HETATM   26  N4  UNL     1      -3.435   2.854   0.428  1.00  0.00    -0.153 N 
ATOM     27  H4  UNL     1      -3.083   2.402   1.272  1.00  0.00     0.187 HD
BRANCH  26  28
HETATM   28  C18 UNL     1      -4.306   3.752   0.606  1.00  0.00     0.710 A 
HETATM   29  N5  UNL     1      -4.741   4.089   1.851  1.00  0.00    -0.117 N 
HETATM   30  N6  UNL     1      -5.644   5.047   1.753  1.00  0.00     0.006 NA
ATOM     31  H5  UNL     1      -4.420   3.668   2.723  1.00  0.00     0.202 HD
HETATM   32  N7  UNL     1      -5.791   5.325   0.470  1.00  0.00     0.006 NA
HETATM   33  N8  UNL     1      -4.979   4.540  -0.235  1.00  0.00    -0.117 N 
ATOM     34  H8  UNL     1      -4.886   4.541  -1.251  1.00  0.00     0.202 HD
ENDBRANCH  26  28
ENDBRANCH   5  24
BRANCH   4  35
HETATM   35  C12 UNL     1      -3.064  -0.701  -0.692  1.00  0.00     0.189 C 
BRANCH  35  36
HETATM   36  N1  UNL     1      -2.750  -2.107  -0.645  1.00  0.00    -0.356 N 
ATOM     37  H1  UNL     1      -1.773  -2.399  -0.649  1.00  0.00     0.162 HD
BRANCH  36  38
HETATM   38  C13 UNL     1      -3.764  -3.092  -0.594  1.00  0.00     0.171 C 
HETATM   39  N2  UNL     1      -4.285  -3.463   0.545  1.00  0.00    -0.361 N 
HETATM   40  C14 UNL     1      -5.291  -4.468   0.356  1.00  0.00     0.142 C 
ATOM     41  H2  UNL     1      -4.012  -3.086   1.453  1.00  0.00     0.162 HD
HETATM   42  C15 UNL     1      -5.528  -4.484  -1.126  1.00  0.00     0.142 C 
HETATM   43  N3  UNL     1      -4.365  -3.806  -1.655  1.00  0.00    -0.361 N 
ATOM     44  H3  UNL     1      -4.038  -3.838  -2.620  1.00  0.00     0.162 HD
ENDBRANCH  36  38
ENDBRANCH  35  36
ENDBRANCH   4  35
TORSDOF 17
