REMARK  13 active torsions:
REMARK  status: ('A' for Active; 'I' for Inactive)
REMARK    1  A    between atoms: N1_1  and  C1_4 
REMARK    2  A    between atoms: C5_14  and  C6_15 
REMARK    3  A    between atoms: C6_15  and  O1_16 
REMARK    4  A    between atoms: C6_15  and  N5_18 
REMARK    5  A    between atoms: N5_18  and  C7_20 
REMARK    6  A    between atoms: C9_26  and  C10_27 
REMARK       I    between atoms: C10_27  and  N8_29 
REMARK    7  A    between atoms: N8_29  and  C11_31 
REMARK    8  A    between atoms: C11_31  and  C12_32 
REMARK    9  A    between atoms: N11_37  and  C13_38 
REMARK   10  A    between atoms: C13_38  and  C14_39 
REMARK   11  A    between atoms: C14_39  and  C15_40 
REMARK   12  A    between atoms: C15_40  and  C16_41 
REMARK   13  A    between atoms: C16_41  and  O3_42 
ROOT
HETATM    1  C7  UNL     1      -2.099  -0.518  -0.180  1.00  0.00     0.141 A 
HETATM    2  N6  UNL     1      -2.692  -1.241   0.790  1.00  0.00    -0.337 N 
ATOM      3  H6  UNL     1      -3.499  -0.938   1.335  1.00  0.00     0.168 HD
HETATM    4  C8  UNL     1      -2.071  -2.408   0.932  1.00  0.00     0.182 A 
HETATM    5  N7  UNL     1      -1.078  -2.434   0.054  1.00  0.00    -0.345 N 
ATOM      6  H7  UNL     1      -0.430  -3.213  -0.062  1.00  0.00     0.167 HD
HETATM    7  C9  UNL     1      -1.038  -1.276  -0.677  1.00  0.00     0.146 A 
ENDROOT
BRANCH   1   8
HETATM    8  N5  UNL     1      -2.417   0.787  -0.598  1.00  0.00    -0.320 N 
ATOM      9  H5  UNL     1      -1.768   1.169  -1.286  1.00  0.00     0.169 HD
BRANCH   8  10
HETATM   10  C6  UNL     1      -3.444   1.655  -0.254  1.00  0.00     0.157 C 
BRANCH  10  11
HETATM   11  C5  UNL     1      -4.621   1.481   0.561  1.00  0.00     0.081 A 
HETATM   12  C4  UNL     1      -4.766   2.179   1.757  1.00  0.00     0.109 A 
HETATM   13  N4  UNL     1      -5.837   2.022   2.523  1.00  0.00    -0.350 N 
HETATM   14  C3  UNL     1      -6.804   1.164   2.123  1.00  0.00     0.124 A 
ATOM     15  H4  UNL     1      -5.930   2.538   3.398  1.00  0.00     0.166 HD
HETATM   16  N3  UNL     1      -7.898   1.026   2.922  1.00  0.00    -0.338 N 
HETATM   17  C19 UNL     1      -6.746   0.432   0.952  1.00  0.00     0.102 A 
HETATM   18  C2  UNL     1      -8.889   0.195   2.568  1.00  0.00     0.183 A 
ATOM     19  H3  UNL     1      -7.964   1.556   3.791  1.00  0.00     0.168 HD
HETATM   20  N2  UNL     1      -8.833  -0.507   1.446  1.00  0.00    -0.338 N 
HETATM   21  C1  UNL     1      -7.773  -0.442   0.565  1.00  0.00     0.117 A 
ATOM     22  H2  UNL     1      -9.612  -1.126   1.222  1.00  0.00     0.168 HD
HETATM   23  C18 UNL     1      -5.617   0.618   0.177  1.00  0.00     0.205 A 
HETATM   24  O5  UNL     1      -5.518  -0.030  -0.906  1.00  0.00    -0.286 OA
BRANCH  21  25
HETATM   25  N1  UNL     1      -7.772  -1.091  -0.457  1.00  0.00    -0.385 N 
ATOM     26  H12 UNL     1      -8.519  -1.726  -0.738  1.00  0.00     0.157 HD
ATOM     27  H11 UNL     1      -6.988  -1.043  -1.108  1.00  0.00     0.157 HD
ENDBRANCH  21  25
ENDBRANCH  10  11
BRANCH  10  28
HETATM   28  O1  UNL     1      -3.333   2.858  -0.759  1.00  0.00    -0.345 OA
ATOM     29  H1  UNL     1      -2.558   2.973  -1.296  1.00  0.00     0.219 HD
ENDBRANCH  10  28
ENDBRANCH   8  10
ENDBRANCH   1   8
BRANCH   7  30
HETATM   30  C10 UNL     1      -0.067  -1.012  -1.714  1.00  0.00     0.272 C 
HETATM   31  O2  UNL     1      -0.057   0.020  -2.377  1.00  0.00    -0.266 OA
HETATM   32  N8  UNL     1       0.952  -1.985  -2.003  1.00  0.00    -0.348 N 
ATOM     33  H8  UNL     1       0.979  -2.855  -1.471  1.00  0.00     0.163 HD
BRANCH  32  34
HETATM   34  C11 UNL     1       1.942  -1.752  -3.036  1.00  0.00     0.202 C 
BRANCH  34  35
HETATM   35  C12 UNL     1       2.975  -0.786  -2.582  1.00  0.00     0.131 A 
HETATM   36  N9  UNL     1       2.952   0.549  -2.796  1.00  0.00    -0.271 N 
HETATM   37  N10 UNL     1       4.037   1.038  -2.245  1.00  0.00    -0.225 N 
ATOM     38  H9  UNL     1       2.231   1.074  -3.290  1.00  0.00     0.190 HD
HETATM   39  N11 UNL     1       4.758   0.088  -1.687  1.00  0.00    -0.218 N 
ATOM     40  H10 UNL     1       4.290   2.026  -2.248  1.00  0.00     0.210 HD
HETATM   41  N12 UNL     1       4.102  -1.041  -1.894  1.00  0.00    -0.269 N 
ATOM     42  H12 UNL     1       4.404  -1.963  -1.580  1.00  0.00     0.190 HD
BRANCH  39  43
HETATM   43  C13 UNL     1       6.022   0.249  -0.994  1.00  0.00     0.174 C 
BRANCH  43  44
HETATM   44  C14 UNL     1       5.879   0.512   0.467  1.00  0.00     0.066 C 
BRANCH  44  45
HETATM   45  C15 UNL     1       7.268   0.656   1.066  1.00  0.00     0.105 A 
HETATM   46  C17 UNL     1       7.856   2.052   0.968  1.00  0.00     0.209 A 
HETATM   47  O4  UNL     1       7.394   1.472   2.190  1.00  0.00    -0.373 OA
BRANCH  45  48
HETATM   48  C16 UNL     1       8.241  -0.488   0.978  1.00  0.00     0.204 C 
BRANCH  48  49
HETATM   49  O3  UNL     1       8.120  -1.356   2.064  1.00  0.00    -0.398 OA
ATOM     50  H3  UNL     1       8.734  -2.078   2.008  1.00  0.00     0.209 HD
ENDBRANCH  48  49
ENDBRANCH  45  48
ENDBRANCH  44  45
ENDBRANCH  43  44
ENDBRANCH  39  43
ENDBRANCH  34  35
ENDBRANCH  32  34
ENDBRANCH   7  30
TORSDOF 13
