REMARK  14 active torsions:
REMARK  status: ('A' for Active; 'I' for Inactive)
REMARK    1  A    between atoms: C2_2  and  C5_5 
REMARK    2  A    between atoms: C6_10  and  N3_11 
REMARK    3  A    between atoms: N3_11  and  C7_14 
REMARK    4  A    between atoms: C7_14  and  O1_15 
REMARK    5  A    between atoms: C7_14  and  C8_17 
REMARK    6  A    between atoms: C8_17  and  N4_18 
REMARK    7  A    between atoms: C8_17  and  C13_34 
REMARK       I    between atoms: N4_18  and  C9_20 
REMARK    8  A    between atoms: C9_20  and  C10_22 
REMARK    9  A    between atoms: C10_22  and  O3_23 
REMARK   10  A    between atoms: C10_22  and  C11_25 
REMARK   11  A    between atoms: C11_25  and  O4_26 
REMARK   12  A    between atoms: C11_25  and  C12_28 
REMARK   13  A    between atoms: C12_28  and  O5_29 
REMARK   14  A    between atoms: O5_29  and  S1_30 
ROOT
HETATM    1  C8  UNL     1       0.480  -0.529   1.078  1.00  0.00     0.242 C 
ENDROOT
BRANCH   1   2
HETATM    2  C7  UNL     1      -0.407  -1.096  -0.026  1.00  0.00     0.355 C 
BRANCH   2   3
HETATM    3  N3  UNL     1      -1.594  -1.588   0.598  1.00  0.00    -0.014 N 
ATOM      4  H32 UNL     1      -2.087  -0.829   1.068  1.00  0.00     0.283 HD
ATOM      5  H31 UNL     1      -1.356  -2.169   1.402  1.00  0.00     0.283 HD
BRANCH   3   6
HETATM    6  C6  UNL     1      -2.488  -2.294  -0.279  1.00  0.00     0.376 C 
HETATM    7  N2  UNL     1      -2.900  -1.418  -1.312  1.00  0.00    -0.296 N 
HETATM    8  N1  UNL     1      -3.774  -0.366  -1.146  1.00  0.00    -0.299 N 
ATOM      9  H2  UNL     1      -2.523  -1.577  -2.246  1.00  0.00     0.183 HD
HETATM   10  C5  UNL     1      -4.959  -0.501  -0.657  1.00  0.00     0.080 C 
ATOM     11  H1  UNL     1      -3.468   0.566  -1.424  1.00  0.00     0.187 HD
HETATM   12  S3  UNL     1      -5.491  -2.102  -0.179  1.00  0.00    -0.038 SA
HETATM   13  S2  UNL     1      -3.796  -2.934   0.802  1.00  0.00    -0.036 SA
BRANCH  10  14
HETATM   14  C2  UNL     1      -5.837   0.625  -0.501  1.00  0.00    -0.000 C 
HETATM   15  C1  UNL     1      -5.155   1.885  -0.988  1.00  0.00     0.021 C 
HETATM   16  C3  UNL     1      -7.147   0.500  -1.259  1.00  0.00     0.021 C 
HETATM   17  C4  UNL     1      -6.222   0.774   0.969  1.00  0.00     0.021 C 
ENDBRANCH  10  14
ENDBRANCH   3   6
ENDBRANCH   2   3
BRANCH   2  18
HETATM   18  O1  UNL     1       0.280  -2.220  -0.525  1.00  0.00    -0.368 OA
ATOM     19  H1  UNL     1       1.069  -1.893  -0.940  1.00  0.00     0.212 HD
ENDBRANCH   2  18
ENDBRANCH   1   2
BRANCH   1  20
HETATM   20  N4  UNL     1       1.742  -0.186   0.455  1.00  0.00    -0.341 N 
HETATM   21  C9  UNL     1       2.922  -0.924   0.719  1.00  0.00     0.249 C 
HETATM   22  O2  UNL     1       2.897  -1.895   1.505  1.00  0.00    -0.271 OA
ATOM     23  H4  UNL     1       1.782   0.605  -0.188  1.00  0.00     0.163 HD
BRANCH  21  24
HETATM   24  C10 UNL     1       4.188  -0.544   0.064  1.00  0.00     0.240 C 
BRANCH  24  25
HETATM   25  O3  UNL     1       5.187  -1.397   0.460  1.00  0.00    -0.383 OA
ATOM     26  H3  UNL     1       6.002  -1.152   0.038  1.00  0.00     0.210 HD
ENDBRANCH  24  25
BRANCH  24  27
HETATM   27  C11 UNL     1       4.471   0.898   0.467  1.00  0.00     0.181 C 
BRANCH  27  28
HETATM   28  O4  UNL     1       4.590   0.999   1.849  1.00  0.00    -0.390 OA
ATOM     29  H4  UNL     1       4.766   1.898   2.100  1.00  0.00     0.210 HD
ENDBRANCH  27  28
BRANCH  27  30
HETATM   30  C12 UNL     1       5.757   1.365  -0.205  1.00  0.00     0.227 C 
BRANCH  30  31
HETATM   31  O5  UNL     1       6.808   0.560   0.227  1.00  0.00    -0.254 OA
BRANCH  31  32
HETATM   32  S1  UNL     1       8.261   0.987  -0.450  1.00  0.00     0.251 S 
HETATM   33  O6  UNL     1       9.015  -0.295  -0.750  1.00  0.00    -0.572 OA
HETATM   34  O7  UNL     1       8.089   1.698  -1.760  1.00  0.00    -0.572 OA
HETATM   35  O8  UNL     1       9.215   1.897   0.564  1.00  0.00    -0.572 OA
ENDBRANCH  31  32
ENDBRANCH  30  31
ENDBRANCH  27  30
ENDBRANCH  24  27
ENDBRANCH  21  24
ENDBRANCH   1  20
BRANCH   1  36
HETATM   36  C13 UNL     1      -0.117   0.593   1.799  1.00  0.00     0.201 C 
HETATM   37  O9  UNL     1       0.431   1.720   1.855  1.00  0.00    -0.646 OA
HETATM   38  O10 UNL     1      -1.330   0.428   2.450  1.00  0.00    -0.646 OA
ENDBRANCH   1  36
TORSDOF 14
