REMARK  13 active torsions:
REMARK  status: ('A' for Active; 'I' for Inactive)
REMARK       I    between atoms: C2_2  and  N1_4 
REMARK    1  A    between atoms: N1_4  and  C3_6 
REMARK    2  A    between atoms: C3_6  and  C4_7 
REMARK    3  A    between atoms: C3_6  and  C7_16 
REMARK    4  A    between atoms: C6_10  and  N2_11 
REMARK    5  A    between atoms: C7_16  and  C8_17 
REMARK    6  A    between atoms: C7_16  and  N8_29 
REMARK    7  A    between atoms: C7_16  and  C16_43 
REMARK    8  A    between atoms: C8_17  and  O2_18 
REMARK    9  A    between atoms: O2_18  and  C9_19 
REMARK   10  A    between atoms: C9_19  and  C10_21 
REMARK   11  A    between atoms: C10_21  and  N4_22 
REMARK   12  A    between atoms: N8_29  and  C12_31 
REMARK   13  A    between atoms: C14_35  and  N10_36 
ROOT
HETATM    1  C7  UNL     1      -0.639  -0.250  -1.226  1.00  0.00     0.158 C 
ENDROOT
BRANCH   1   2
HETATM    2  C3  UNL     1      -1.513   0.919  -0.976  1.00  0.00     0.174 C 
BRANCH   2   3
HETATM    3  N1  UNL     1      -1.126   2.005  -1.893  1.00  0.00    -0.348 N 
HETATM    4  C2  UNL     1      -2.033   2.579  -2.802  1.00  0.00     0.214 C 
HETATM    5  C1  UNL     1      -1.627   3.672  -3.702  1.00  0.00     0.117 C 
HETATM    6  O1  UNL     1      -3.207   2.152  -2.842  1.00  0.00    -0.274 OA
ATOM      7  H1  UNL     1      -0.167   2.353  -1.868  1.00  0.00     0.163 HD
ENDBRANCH   2   3
BRANCH   2   8
HETATM    8  C4  UNL     1      -1.540   1.517   0.410  1.00  0.00     0.043 A 
HETATM    9  C5  UNL     1      -2.673   1.398   1.179  1.00  0.00     0.080 A 
HETATM   10  S1  UNL     1      -2.264   2.228   2.611  1.00  0.00    -0.064 SA
HETATM   11  C6  UNL     1      -0.685   2.686   2.173  1.00  0.00     0.142 A 
HETATM   12  N3  UNL     1      -0.535   2.186   0.951  1.00  0.00    -0.338 N 
ATOM     13  H3  UNL     1       0.338   2.316   0.440  1.00  0.00     0.168 HD
BRANCH  11  14
HETATM   14  N2  UNL     1       0.208   3.378   2.861  1.00  0.00    -0.380 N 
ATOM     15  H22 UNL     1       0.093   3.762   3.799  1.00  0.00     0.158 HD
ATOM     16  H21 UNL     1       1.155   3.653   2.598  1.00  0.00     0.158 HD
ENDBRANCH  11  14
ENDBRANCH   2   8
ENDBRANCH   1   2
BRANCH   1  17
HETATM   17  C8  UNL     1       0.827  -0.087  -1.012  1.00  0.00     0.222 C 
BRANCH  17  18
HETATM   18  O2  UNL     1       1.339  -0.347   0.248  1.00  0.00    -0.317 OA
BRANCH  18  19
HETATM   19  C9  UNL     1       2.675  -0.237   0.513  1.00  0.00     0.278 C 
HETATM   20  O3  UNL     1       3.434   0.113  -0.430  1.00  0.00    -0.263 OA
BRANCH  19  21
HETATM   21  C10 UNL     1       3.296  -0.499   1.825  1.00  0.00     0.261 C 
BRANCH  21  22
HETATM   22  N4  UNL     1       4.719  -0.322   1.815  1.00  0.00    -0.265 N 
HETATM   23  C11 UNL     1       5.362   0.823   2.086  1.00  0.00     0.217 A 
HETATM   24  N5  UNL     1       6.705   0.602   1.974  1.00  0.00    -0.278 N 
HETATM   25  N6  UNL     1       6.832  -0.669   1.640  1.00  0.00    -0.006 NA
ATOM     26  H5  UNL     1       7.455   1.279   2.118  1.00  0.00     0.185 HD
HETATM   27  N7  UNL     1       5.617  -1.232   1.543  1.00  0.00    -0.223 N 
ATOM     28  H7  UNL     1       5.427  -2.204   1.299  1.00  0.00     0.206 HD
ENDBRANCH  21  22
ENDBRANCH  19  21
ENDBRANCH  18  19
ENDBRANCH  17  18
ENDBRANCH   1  17
BRANCH   1  29
HETATM   29  N8  UNL     1      -1.145  -1.553  -0.930  1.00  0.00    -0.363 N 
ATOM     30  H8  UNL     1      -1.338  -2.076  -1.784  1.00  0.00     0.161 HD
BRANCH  29  31
HETATM   31  C12 UNL     1      -1.443  -2.296   0.182  1.00  0.00     0.114 A 
HETATM   32  C13 UNL     1      -1.199  -1.968   1.476  1.00  0.00     0.141 A 
HETATM   33  N9  UNL     1      -1.497  -2.785   2.512  1.00  0.00    -0.200 N 
HETATM   34  C14 UNL     1      -2.058  -3.980   2.316  1.00  0.00     0.678 A 
ATOM     35  H9  UNL     1      -1.289  -2.481   3.463  1.00  0.00     0.183 HD
HETATM   36  N11 UNL     1      -2.324  -4.362   1.061  1.00  0.00    -0.154 N 
HETATM   37  C15 UNL     1      -2.036  -3.568   0.029  1.00  0.00     0.287 A 
ATOM     38  H11 UNL     1      -2.752  -5.272   0.892  1.00  0.00     0.187 HD
HETATM   39  O4  UNL     1      -2.305  -3.974  -1.103  1.00  0.00    -0.265 OA
BRANCH  34  40
HETATM   40  N10 UNL     1      -2.346  -4.767   3.317  1.00  0.00    -0.234 N 
ATOM     41 2H10 UNL     1      -2.143  -4.476   4.273  1.00  0.00     0.174 HD
ATOM     42 1H10 UNL     1      -2.775  -5.680   3.167  1.00  0.00     0.174 HD
ENDBRANCH  34  40
ENDBRANCH  29  31
ENDBRANCH   1  29
BRANCH   1  43
HETATM   43  C16 UNL     1      -0.691  -0.262  -2.805  1.00  0.00     0.264 C 
HETATM   44  N12 UNL     1       0.251   0.471  -3.544  1.00  0.00    -0.060 NA
HETATM   45  O5  UNL     1      -1.565  -0.926  -3.389  1.00  0.00    -0.274 OA
ENDBRANCH   1  43
TORSDOF 13
