REMARK  3 active torsions:
REMARK  status: ('A' for Active; 'I' for Inactive)
REMARK    1  A    between atoms: N1_2  and  C2_4 
REMARK    2  A    between atoms: C5_13  and  N5_14 
REMARK    3  A    between atoms: N5_14  and  C6_16 
ROOT
HETATM    1  C2  UNL     1       1.169  -0.516   0.332  1.00  0.00     0.706 A 
HETATM    2  N2  UNL     1       1.835   0.637   0.518  1.00  0.00    -0.022 N 
ATOM      3  H2  UNL     1       2.814   0.615   0.802  1.00  0.00     0.203 HD
HETATM    4  C3  UNL     1       1.230   1.802   0.335  1.00  0.00     0.706 A 
HETATM    5  N3  UNL     1       1.869   2.911   0.514  1.00  0.00    -0.229 N 
ATOM      6  H3  UNL     1       1.393   3.802   0.370  1.00  0.00     0.177 HD
HETATM    7  C4  UNL     1       3.239   2.891   0.913  1.00  0.00     0.165 C 
HETATM    8  N4  UNL     1      -0.081   1.851  -0.046  1.00  0.00    -0.021 N 
ATOM      9  H4  UNL     1      -0.545   2.749  -0.186  1.00  0.00     0.203 HD
HETATM   10  C5  UNL     1      -0.752   0.701  -0.234  1.00  0.00     0.712 A 
HETATM   11  N7  UNL     1      -0.121  -0.468  -0.043  1.00  0.00    -0.021 N 
ATOM     12  H7  UNL     1      -0.632  -1.339  -0.186  1.00  0.00     0.203 HD
ENDROOT
BRANCH  10  13
HETATM   13  N5  UNL     1      -1.995   0.787  -0.596  1.00  0.00    -0.180 N 
ATOM     14  H5  UNL     1      -2.408   1.711  -0.721  1.00  0.00     0.185 HD
BRANCH  13  15
HETATM   15  C6  UNL     1      -2.802  -0.359  -0.824  1.00  0.00     0.087 C 
HETATM   16  C7  UNL     1      -3.858  -0.762   0.113  1.00  0.00     0.089 C 
HETATM   17  N6  UNL     1      -2.570  -1.038  -1.892  1.00  0.00    -0.389 N 
ATOM     18  H62 UNL     1      -1.836  -0.758  -2.543  1.00  0.00     0.157 HD
ATOM     19  H61 UNL     1      -3.150  -1.861  -2.056  1.00  0.00     0.157 HD
ENDBRANCH  13  15
ENDBRANCH  10  13
BRANCH   1  20
HETATM   20  N1  UNL     1       1.751  -1.659   0.508  1.00  0.00    -0.229 N 
HETATM   21  C1  UNL     1       1.095  -2.913   0.326  1.00  0.00     0.165 C 
ATOM     22  H1  UNL     1       2.731  -1.663   0.792  1.00  0.00     0.177 HD
ENDBRANCH   1  20
TORSDOF 3
