REMARK  4 active torsions:
REMARK  status: ('A' for Active; 'I' for Inactive)
REMARK    1  A    between atoms: C2_2  and  C4_10 
REMARK    2  A    between atoms: N1_3  and  N2_5 
REMARK    3  A    between atoms: N5_13  and  O1_14 
REMARK    4  A    between atoms: C7_16  and  N6_17 
ROOT
HETATM    1  C4  UNL     1      -1.239  -0.384   0.253  1.00  0.00     0.074 A 
HETATM    2  C5  UNL     1      -2.303  -1.250   0.351  1.00  0.00     0.052 A 
HETATM    3  C6  UNL     1      -3.613  -0.834   0.447  1.00  0.00     0.144 A 
HETATM    4  N5  UNL     1      -3.845   0.490   0.443  1.00  0.00    -0.064 N 
HETATM    5  C7  UNL     1      -2.826   1.367   0.349  1.00  0.00     0.702 A 
HETATM    6  N7  UNL     1      -1.558   0.942   0.256  1.00  0.00    -0.188 N 
ATOM      7  H7  UNL     1      -0.809   1.631   0.185  1.00  0.00     0.184 HD
ENDROOT
BRANCH   1   8
HETATM    8  C2  UNL     1       0.137  -0.830   0.153  1.00  0.00     0.049 C 
HETATM    9  C1  UNL     1       0.419  -2.280   0.155  1.00  0.00     0.072 C 
HETATM   10  N1  UNL     1       1.104   0.004   0.063  1.00  0.00    -0.301 N 
ATOM     11  H1  UNL     1       0.905   1.004   0.061  1.00  0.00     0.186 HD
BRANCH  10  12
HETATM   12  N2  UNL     1       2.425  -0.433  -0.033  1.00  0.00    -0.276 N 
HETATM   13  C3  UNL     1       3.406   0.386   0.096  1.00  0.00     0.215 C 
HETATM   14  N3  UNL     1       3.114   1.754   0.340  1.00  0.00    -0.065 NA
HETATM   15  N4  UNL     1       4.763  -0.011   0.006  1.00  0.00    -0.065 NA
ATOM     16  H2  UNL     1       2.615  -1.420  -0.209  1.00  0.00     0.189 HD
ENDBRANCH  10  12
ENDBRANCH   1   8
BRANCH   5  17
HETATM   17  N6  UNL     1      -3.138   2.628   0.352  1.00  0.00    -0.232 N 
ATOM     18  H62 UNL     1      -4.103   2.951   0.423  1.00  0.00     0.174 HD
ATOM     19  H61 UNL     1      -2.367   3.292   0.281  1.00  0.00     0.174 HD
ENDBRANCH   5  17
BRANCH   4  20
HETATM   20  O1  UNL     1      -5.143   0.954   0.538  1.00  0.00    -0.270 OA
ATOM     21  H1  UNL     1      -5.307   1.890   0.535  1.00  0.00     0.245 HD
ENDBRANCH   4  20
TORSDOF 4
