REMARK  9 active torsions:
REMARK  status: ('A' for Active; 'I' for Inactive)
REMARK    1  A    between atoms: C2_2  and  O1_3 
REMARK    2  A    between atoms: O1_3  and  C3_4 
REMARK    3  A    between atoms: C3_4  and  C4_6 
REMARK    4  A    between atoms: C4_6  and  N1_7 
REMARK    5  A    between atoms: N1_7  and  C5_8 
REMARK    6  A    between atoms: N1_7  and  C9_20 
REMARK    7  A    between atoms: C5_8  and  C6_10 
REMARK    8  A    between atoms: C6_10  and  C7_14 
REMARK    9  A    between atoms: C7_14  and  C8_16 
ROOT
HETATM    1  N1  UNL     1      -0.384   0.367  -0.207  1.00  0.00    -0.335 N 
ENDROOT
BRANCH   1   2
HETATM    2  C4  UNL     1       0.961   0.501   0.319  1.00  0.00     0.174 C 
BRANCH   2   3
HETATM    3  C3  UNL     1       1.737  -0.657   0.671  1.00  0.00     0.298 C 
HETATM    4  O2  UNL     1       1.503  -1.829   0.450  1.00  0.00    -0.259 OA
BRANCH   3   5
HETATM    5  O1  UNL     1       2.954  -0.423   1.378  1.00  0.00    -0.317 OA
BRANCH   5   6
HETATM    6  C2  UNL     1       3.763  -1.490   1.757  1.00  0.00     0.174 C 
HETATM    7  C1  UNL     1       4.972  -0.916   2.477  1.00  0.00     0.034 C 
ENDBRANCH   5   6
ENDBRANCH   3   5
ENDBRANCH   2   3
ENDBRANCH   1   2
BRANCH   1   8
HETATM    8  C5  UNL     1      -0.997   1.563  -0.632  1.00  0.00     0.133 C 
HETATM    9  S1  UNL     1      -2.473   1.528  -1.357  1.00  0.00    -0.058 SA
BRANCH   8  10
HETATM   10  C6  UNL     1      -0.396   2.902  -0.548  1.00  0.00     0.120 C 
HETATM   11  N2  UNL     1       0.726   3.181  -0.030  1.00  0.00    -0.393 N 
ATOM     12  H22 UNL     1       1.227   2.380   0.355  1.00  0.00     0.156 HD
ATOM     13  H21 UNL     1       1.143   4.110   0.028  1.00  0.00     0.156 HD
BRANCH  10  14
HETATM   14  C7  UNL     1      -1.124   4.065  -1.107  1.00  0.00     0.284 C 
HETATM   15  O3  UNL     1      -2.260   3.883  -1.646  1.00  0.00    -0.281 OA
BRANCH  14  16
HETATM   16  C8  UNL     1      -0.554   5.418  -1.045  1.00  0.00     0.457 C 
HETATM   17  F1  UNL     1      -1.500   6.286  -1.633  1.00  0.00    -0.163 F 
HETATM   18  F2  UNL     1       0.596   5.473  -1.801  1.00  0.00    -0.163 F 
HETATM   19  F3  UNL     1      -0.380   5.884   0.219  1.00  0.00    -0.163 F 
ENDBRANCH  14  16
ENDBRANCH  10  14
ENDBRANCH   8  10
ENDBRANCH   1   8
BRANCH   1  20
HETATM   20  C9  UNL     1      -1.064  -0.870  -0.307  1.00  0.00     0.090 C 
HETATM   21  C10 UNL     1      -2.547  -0.808  -0.058  1.00  0.00     0.026 C 
HETATM   22  C11 UNL     1      -2.867  -2.192   0.600  1.00  0.00     0.002 C 
HETATM   23  C12 UNL     1      -2.123  -3.239  -0.161  1.00  0.00     0.000 C 
HETATM   24  C13 UNL     1      -1.791  -2.872  -1.588  1.00  0.00     0.002 C 
HETATM   25  C14 UNL     1      -0.957  -1.578  -1.651  1.00  0.00     0.026 C 
ENDBRANCH   1  20
TORSDOF 9
