REMARK  9 active torsions:
REMARK  status: ('A' for Active; 'I' for Inactive)
REMARK    1  A    between atoms: C2_2  and  C3_3 
REMARK    2  A    between atoms: C2_2  and  C12_20 
REMARK    3  A    between atoms: C3_3  and  O2_5 
REMARK    4  A    between atoms: O2_5  and  C4_6 
REMARK    5  A    between atoms: C4_6  and  C5_7 
REMARK    6  A    between atoms: C5_7  and  O4_9 
REMARK    7  A    between atoms: O4_9  and  C6_10 
REMARK    8  A    between atoms: C9_13  and  C10_14 
REMARK    9  A    between atoms: C12_20  and  O5_23 
ROOT
HETATM    1  C5  UNL     1       0.480   0.252  -0.053  1.00  0.00     0.284 C 
HETATM    2  O3  UNL     1       0.741  -0.351  -1.122  1.00  0.00    -0.263 OA
ENDROOT
BRANCH   1   3
HETATM    3  C4  UNL     1      -0.893   0.629   0.359  1.00  0.00     0.290 C 
BRANCH   3   4
HETATM    4  O2  UNL     1      -1.855   0.236  -0.576  1.00  0.00    -0.308 OA
BRANCH   4   5
HETATM    5  C3  UNL     1      -3.202   0.536  -0.303  1.00  0.00     0.291 C 
HETATM    6  O1  UNL     1      -3.474   1.140   0.764  1.00  0.00    -0.260 OA
BRANCH   5   7
HETATM    7  C2  UNL     1      -4.267   0.170  -1.210  1.00  0.00     0.041 C 
HETATM    8  C1  UNL     1      -3.970  -0.465  -2.330  1.00  0.00     0.028 C 
BRANCH   7   9
HETATM    9  C12 UNL     1      -5.661   0.519  -0.856  1.00  0.00     0.083 C 
HETATM   10  C13 UNL     1      -6.589   0.031  -1.962  1.00  0.00     0.051 C 
HETATM   11  C14 UNL     1      -5.987  -0.111   0.463  1.00  0.00     0.051 C 
BRANCH   9  12
HETATM   12  O5  UNL     1      -5.748   1.907  -0.812  1.00  0.00    -0.386 OA
ATOM     13  H5  UNL     1      -6.643   2.131  -0.585  1.00  0.00     0.211 HD
ENDBRANCH   9  12
ENDBRANCH   7   9
ENDBRANCH   5   7
ENDBRANCH   4   5
ENDBRANCH   3   4
ENDBRANCH   1   3
BRANCH   1  14
HETATM   14  O4  UNL     1       1.551   0.565   0.756  1.00  0.00    -0.304 OA
BRANCH  14  15
HETATM   15  C6  UNL     1       2.849   0.236   0.418  1.00  0.00     0.193 C 
HETATM   16  C7  UNL     1       3.549  -0.671   1.395  1.00  0.00     0.044 C 
HETATM   17  C8  UNL     1       4.786  -1.214   0.711  1.00  0.00     0.017 C 
HETATM   18  C9  UNL     1       5.804  -0.181   0.400  1.00  0.00     0.103 C 
HETATM   19  C11 UNL     1       5.516   1.177   0.978  1.00  0.00     0.090 C 
HETATM   20  S1  UNL     1       3.924   1.709   0.229  1.00  0.00    -0.136 SA
BRANCH  18  21
HETATM   21  C10 UNL     1       7.157  -0.640   0.953  1.00  0.00     0.392 C 
HETATM   22  F1  UNL     1       7.483  -1.853   0.339  1.00  0.00    -0.171 F 
HETATM   23  F2  UNL     1       8.131   0.290   0.716  1.00  0.00    -0.171 F 
HETATM   24  F3  UNL     1       7.040  -0.812   2.310  1.00  0.00    -0.171 F 
ENDBRANCH  18  21
ENDBRANCH  14  15
ENDBRANCH   1  14
TORSDOF 9
