REMARK  7 active torsions:
REMARK  status: ('A' for Active; 'I' for Inactive)
REMARK    1  A    between atoms: O1_2  and  C2_3 
REMARK       I    between atoms: C2_3  and  N1_5 
REMARK    2  A    between atoms: N1_5  and  C3_7 
REMARK    3  A    between atoms: C4_8  and  C5_9 
REMARK    4  A    between atoms: N3_17  and  C8_18 
REMARK    5  A    between atoms: C8_18  and  C9_19 
REMARK    6  A    between atoms: C9_19  and  O4_20 
REMARK    7  A    between atoms: O4_20  and  C10_21 
ROOT
HETATM    1  C3  UNL     1       1.632  -0.929  -0.205  1.00  0.00     0.148 A 
HETATM    2  C4  UNL     1       2.438  -1.960  -0.589  1.00  0.00     0.167 A 
HETATM    3  N2  UNL     1       1.897  -3.173  -0.181  1.00  0.00    -0.296 N 
HETATM    4  C6  UNL     1       2.446  -4.498  -0.375  1.00  0.00     0.161 C 
HETATM    5  C7  UNL     1       0.754  -2.870   0.453  1.00  0.00     0.330 A 
HETATM    6  O3  UNL     1      -0.005  -3.739   0.958  1.00  0.00    -0.246 OA
HETATM    7  N3  UNL     1       0.588  -1.552   0.445  1.00  0.00    -0.281 N 
ENDROOT
BRANCH   7   8
HETATM    8  C8  UNL     1      -0.545  -0.886   1.058  1.00  0.00     0.162 C 
BRANCH   8   9
HETATM    9  C9  UNL     1      -1.604  -0.758  -0.008  1.00  0.00     0.189 C 
BRANCH   9  10
HETATM   10  O4  UNL     1      -2.765  -0.209   0.309  1.00  0.00    -0.379 OA
BRANCH  10  11
HETATM   11  C10 UNL     1      -3.013   1.002   0.766  1.00  0.00     0.057 C 
HETATM   12  C11 UNL     1      -2.431   1.338   2.111  1.00  0.00     0.046 C 
HETATM   13  C12 UNL     1      -2.886   2.195  -0.143  1.00  0.00     0.038 C 
HETATM   14  C13 UNL     1      -4.256   1.859  -0.688  1.00  0.00     0.006 C 
HETATM   15  C14 UNL     1      -4.539   1.265   0.699  1.00  0.00     0.038 C 
ENDBRANCH  10  11
ENDBRANCH   9  10
ENDBRANCH   8   9
ENDBRANCH   7   8
BRANCH   1  16
HETATM   16  N1  UNL     1       1.693   0.464  -0.265  1.00  0.00    -0.286 N 
HETATM   17  C2  UNL     1       2.612   1.436  -0.540  1.00  0.00     0.365 C 
HETATM   18  O2  UNL     1       3.805   1.335  -0.768  1.00  0.00    -0.238 OA
ATOM     19  H1  UNL     1       0.788   0.876  -0.037  1.00  0.00     0.172 HD
BRANCH  17  20
HETATM   20  O1  UNL     1       2.168   2.798  -0.580  1.00  0.00    -0.309 OA
HETATM   21  C1  UNL     1       3.087   3.843  -0.862  1.00  0.00     0.215 C 
ENDBRANCH  17  20
ENDBRANCH   1  16
BRANCH   2  22
HETATM   22  C5  UNL     1       3.685  -1.869  -1.356  1.00  0.00     0.436 C 
HETATM   23  F1  UNL     1       3.536  -1.223  -2.593  1.00  0.00    -0.165 F 
HETATM   24  F2  UNL     1       3.957  -3.204  -1.858  1.00  0.00    -0.165 F 
HETATM   25  F3  UNL     1       4.821  -1.608  -0.678  1.00  0.00    -0.165 F 
ENDBRANCH   2  22
TORSDOF 7
