REMARK  5 active torsions:
REMARK  status: ('A' for Active; 'I' for Inactive)
REMARK    1  A    between atoms: N1_1  and  C1_4 
REMARK    2  A    between atoms: C2_9  and  N4_10 
REMARK    3  A    between atoms: N4_10  and  N5_12 
REMARK    4  A    between atoms: N5_12  and  C3_14 
REMARK    5  A    between atoms: N9_24  and  N10_25 
ROOT
HETATM    1  N4  UNL     1      -0.350   1.095  -0.286  1.00  0.00    -0.127 N 
ATOM      2  H4  UNL     1      -0.458   1.977   0.215  1.00  0.00     0.206 HD
ENDROOT
BRANCH   1   3
HETATM    3  C2  UNL     1      -1.324   0.261  -0.195  1.00  0.00     0.747 A 
HETATM    4  N3  UNL     1      -1.429  -0.956  -0.754  1.00  0.00    -0.114 N 
HETATM    5  N2  UNL     1      -2.604  -1.426  -0.371  1.00  0.00    -0.116 N 
ATOM      6  H3  UNL     1      -0.744  -1.421  -1.350  1.00  0.00     0.206 HD
HETATM    7  C1  UNL     1      -3.260  -0.563   0.410  1.00  0.00     0.727 A 
ATOM      8  H2  UNL     1      -2.967  -2.340  -0.640  1.00  0.00     0.206 HD
HETATM    9  N9  UNL     1      -2.460   0.507   0.527  1.00  0.00     0.087 N 
BRANCH   7  10
HETATM   10  N1  UNL     1      -4.432  -0.692   0.965  1.00  0.00    -0.231 N 
ATOM     11  H12 UNL     1      -5.040  -1.506   0.876  1.00  0.00     0.174 HD
ATOM     12  H11 UNL     1      -4.933  -0.033   1.561  1.00  0.00     0.174 HD
ENDBRANCH   7  10
BRANCH   9  13
HETATM   13  N10 UNL     1      -2.749   1.655   1.256  1.00  0.00    -0.309 N 
ATOM     14 2H10 UNL     1      -3.596   1.838   1.794  1.00  0.00     0.178 HD
ATOM     15 1H10 UNL     1      -2.141   2.469   1.345  1.00  0.00     0.178 HD
ENDBRANCH   9  13
ENDBRANCH   1   3
BRANCH   1  16
HETATM   16  N5  UNL     1       0.822   0.927  -0.985  1.00  0.00    -0.270 N 
ATOM     17  H5  UNL     1       0.867   1.308  -1.930  1.00  0.00     0.189 HD
BRANCH  16  18
HETATM   18  C3  UNL     1       1.977   0.261  -0.488  1.00  0.00     0.141 A 
HETATM   19  C4  UNL     1       2.919   0.927   0.269  1.00  0.00     0.127 A 
HETATM   20  C5  UNL     1       4.034   0.285   0.744  1.00  0.00     0.264 A 
HETATM   21  O1  UNL     1       4.916   0.867   1.441  1.00  0.00    -0.267 OA
HETATM   22  N6  UNL     1       4.213  -1.014   0.467  1.00  0.00    -0.252 N 
HETATM   23  N7  UNL     1       3.290  -1.646  -0.269  1.00  0.00    -0.238 N 
ATOM     24  H6  UNL     1       5.035  -1.511   0.810  1.00  0.00     0.191 HD
HETATM   25  N8  UNL     1       2.213  -1.037  -0.731  1.00  0.00    -0.270 N 
ATOM     26  H7  UNL     1       3.424  -2.635  -0.481  1.00  0.00     0.208 HD
ATOM     27  H8  UNL     1       1.543  -1.568  -1.287  1.00  0.00     0.190 HD
ENDBRANCH  16  18
ENDBRANCH   1  16
TORSDOF 5
