REMARK  6 active torsions:
REMARK  status: ('A' for Active; 'I' for Inactive)
REMARK    1  A    between atoms: N1_1  and  C1_4 
REMARK    2  A    between atoms: C2_9  and  N4_10 
REMARK    3  A    between atoms: C4_12  and  C5_13 
REMARK    4  A    between atoms: C5_13  and  N5_14 
REMARK    5  A    between atoms: C5_13  and  N6_18 
REMARK    6  A    between atoms: C6_26  and  N9_27 
ROOT
HETATM    1  N4  UNL     1       0.144  -0.008  -0.787  1.00  0.00    -0.230 N 
HETATM    2  C3  UNL     1      -1.018   0.057  -0.094  1.00  0.00     0.150 A 
HETATM    3  C4  UNL     1      -2.068  -0.317  -0.904  1.00  0.00     0.102 A 
HETATM    4  N7  UNL     1      -1.497  -0.604  -2.095  1.00  0.00    -0.285 N 
ATOM      5  H7  UNL     1      -1.991  -0.916  -2.931  1.00  0.00     0.188 HD
HETATM    6  N8  UNL     1      -0.182  -0.412  -1.998  1.00  0.00    -0.234 N 
ATOM      7  H8  UNL     1       0.482  -0.558  -2.758  1.00  0.00     0.209 HD
ENDROOT
BRANCH   1   8
HETATM    8  C2  UNL     1       1.445   0.300  -0.302  1.00  0.00     0.188 A 
HETATM    9  N3  UNL     1       1.927   1.548  -0.156  1.00  0.00    -0.267 N 
HETATM   10  N2  UNL     1       3.155   1.781   0.305  1.00  0.00    -0.131 N 
ATOM     11  H3  UNL     1       1.334   2.339  -0.406  1.00  0.00     0.189 HD
HETATM   12  C1  UNL     1       3.938   0.755   0.633  1.00  0.00     0.692 A 
ATOM     13  H2  UNL     1       3.493   2.738   0.406  1.00  0.00     0.205 HD
HETATM   14  N10 UNL     1       3.488  -0.514   0.499  1.00  0.00    -0.172 N 
HETATM   15  C6  UNL     1       2.255  -0.759   0.038  1.00  0.00     0.162 A 
ATOM     16  H10 UNL     1       4.095  -1.293   0.752  1.00  0.00     0.186 HD
BRANCH  12  17
HETATM   17  N1  UNL     1       5.132   0.998   1.079  1.00  0.00    -0.233 N 
ATOM     18  H12 UNL     1       5.471   1.955   1.180  1.00  0.00     0.174 HD
ATOM     19  H11 UNL     1       5.732   0.212   1.330  1.00  0.00     0.174 HD
ENDBRANCH  12  17
BRANCH  15  20
HETATM   20  N9  UNL     1       1.821  -1.959  -0.092  1.00  0.00    -0.382 N 
ATOM     21  H92 UNL     1       0.882  -2.146  -0.443  1.00  0.00     0.157 HD
ATOM     22  H91 UNL     1       2.421  -2.744   0.160  1.00  0.00     0.157 HD
ENDBRANCH  15  20
ENDBRANCH   1   8
BRANCH   3  23
HETATM   23  C5  UNL     1      -3.518  -0.398  -0.577  1.00  0.00     0.430 C 
BRANCH  23  24
HETATM   24  N5  UNL     1      -3.946   0.797   0.167  1.00  0.00    -0.045 N 
ATOM     25  H53 UNL     1      -3.377   0.949   1.000  1.00  0.00     0.277 HD
ATOM     26  H52 UNL     1      -3.717   1.657  -0.332  1.00  0.00     0.277 HD
ATOM     27  H51 UNL     1      -4.940   0.741   0.391  1.00  0.00     0.277 HD
ENDBRANCH  23  24
BRANCH  23  28
HETATM   28  N6  UNL     1      -3.830  -1.547   0.229  1.00  0.00    -0.045 N 
ATOM     29  H63 UNL     1      -3.503  -2.407  -0.212  1.00  0.00     0.277 HD
ATOM     30  H62 UNL     1      -3.259  -1.571   1.074  1.00  0.00     0.277 HD
ATOM     31  H61 UNL     1      -4.824  -1.603   0.453  1.00  0.00     0.277 HD
ENDBRANCH  23  28
ENDBRANCH   3  23
TORSDOF 6
