REMARK  4 active torsions:
REMARK  status: ('A' for Active; 'I' for Inactive)
REMARK       I    between atoms: N1_2  and  C2_3 
REMARK    1  A    between atoms: N1_2  and  C3_11 
REMARK       I    between atoms: C2_3  and  N3_5 
REMARK    2  A    between atoms: N3_5  and  N4_6 
REMARK    3  A    between atoms: N4_6  and  N5_8 
REMARK    4  A    between atoms: C5_15  and  C6_16 
ROOT
HETATM    1  C3  UNL     1       0.009  -0.620  -0.359  1.00  0.00     0.127 A 
HETATM    2  C4  UNL     1      -0.410  -0.792   0.945  1.00  0.00     0.137 A 
HETATM    3  N6  UNL     1      -1.670  -0.453   1.264  1.00  0.00    -0.355 N 
ATOM      4  H6  UNL     1      -1.975  -0.581   2.229  1.00  0.00     0.165 HD
HETATM    5  C5  UNL     1      -2.559   0.051   0.372  1.00  0.00     0.139 A 
HETATM    6  C7  UNL     1      -2.121   0.213  -0.918  1.00  0.00     0.150 A 
HETATM    7  N8  UNL     1      -2.931   0.744  -1.967  1.00  0.00    -0.080 NA
HETATM    8  N9  UNL     1      -0.842  -0.128  -1.255  1.00  0.00    -0.328 N 
ATOM      9  H9  UNL     1      -0.532  -0.002  -2.218  1.00  0.00     0.168 HD
ENDROOT
BRANCH   1  10
HETATM   10  N1  UNL     1       1.347  -0.982  -0.645  1.00  0.00    -0.297 N 
HETATM   11  C1  UNL     1       1.764  -2.367  -0.733  1.00  0.00     0.161 C 
HETATM   12  C2  UNL     1       2.325   0.062  -0.875  1.00  0.00     0.294 C 
HETATM   13  N2  UNL     1       2.731   0.146  -2.250  1.00  0.00    -0.047 NA
HETATM   14  N3  UNL     1       2.744   0.766  -0.013  1.00  0.00    -0.276 NA
BRANCH  14  15
HETATM   15  N4  UNL     1       3.220   1.548   0.894  1.00  0.00    -0.179 N 
ATOM     16  H4  UNL     1       3.858   2.281   0.585  1.00  0.00     0.223 HD
BRANCH  15  17
HETATM   17  N5  UNL     1       2.939   1.483   2.281  1.00  0.00    -0.320 N 
ATOM     18  H52 UNL     1       2.299   0.744   2.571  1.00  0.00     0.179 HD
ATOM     19  H51 UNL     1       3.316   2.102   2.999  1.00  0.00     0.179 HD
ENDBRANCH  15  17
ENDBRANCH  14  15
ENDBRANCH   1  10
BRANCH   5  20
HETATM   20  C6  UNL     1      -3.920   0.394   0.741  1.00  0.00     0.284 C 
HETATM   21  N7  UNL     1      -4.378   0.235   2.074  1.00  0.00    -0.056 NA
HETATM   22  O1  UNL     1      -4.714   0.836  -0.110  1.00  0.00    -0.269 OA
ENDBRANCH   5  20
TORSDOF 4
