REMARK  5 active torsions:
REMARK  status: ('A' for Active; 'I' for Inactive)
REMARK    1  A    between atoms: N1_1  and  C1_4 
REMARK    2  A    between atoms: C3_7  and  N3_8 
REMARK    3  A    between atoms: N3_8  and  N4_10 
REMARK    4  A    between atoms: N8_21  and  C6_22 
REMARK    5  A    between atoms: C6_22  and  C7_23 
ROOT
HETATM    1  C1  UNL     1      -1.001  -1.567   1.273  1.00  0.00     0.086 A 
HETATM    2  C2  UNL     1      -1.805  -0.640   0.658  1.00  0.00     0.120 A 
HETATM    3  N2  UNL     1      -3.196  -0.628   0.923  1.00  0.00    -0.096 NA
HETATM    4  C3  UNL     1      -1.287   0.301  -0.231  1.00  0.00     0.148 A 
HETATM    5  N5  UNL     1       0.006   0.325  -0.506  1.00  0.00    -0.323 N 
ATOM      6  H5  UNL     1       0.386   1.013  -1.155  1.00  0.00     0.169 HD
HETATM    7  C4  UNL     1       0.814  -0.579   0.089  1.00  0.00     0.156 A 
HETATM    8  C5  UNL     1       0.355  -1.527   0.972  1.00  0.00     0.123 A 
HETATM    9  N6  UNL     1       1.427  -2.232   1.349  1.00  0.00    -0.280 N 
ATOM     10  H6  UNL     1       1.427  -3.015   2.003  1.00  0.00     0.188 HD
HETATM   11  N7  UNL     1       2.486  -1.741   0.729  1.00  0.00    -0.238 N 
ATOM     12  H7  UNL     1       3.436  -2.095   0.837  1.00  0.00     0.208 HD
HETATM   13  N8  UNL     1       2.148  -0.735  -0.045  1.00  0.00    -0.250 N 
ENDROOT
BRANCH   4  14
HETATM   14  N3  UNL     1      -2.166   1.233  -0.835  1.00  0.00    -0.290 N 
ATOM     15  H3  UNL     1      -3.160   1.199  -0.610  1.00  0.00     0.188 HD
BRANCH  14  16
HETATM   16  N4  UNL     1      -1.701   2.197  -1.732  1.00  0.00    -0.344 N 
ATOM     17  H42 UNL     1      -0.704   2.217  -1.946  1.00  0.00     0.176 HD
ATOM     18  H41 UNL     1      -2.334   2.868  -2.167  1.00  0.00     0.176 HD
ENDBRANCH  14  16
ENDBRANCH   4  14
BRANCH   1  19
HETATM   19  N1  UNL     1      -1.448  -2.431   2.084  1.00  0.00    -0.396 N 
ATOM     20  H12 UNL     1      -2.443  -2.460   2.305  1.00  0.00     0.156 HD
ATOM     21  H11 UNL     1      -0.851  -3.120   2.541  1.00  0.00     0.156 HD
ENDBRANCH   1  19
BRANCH  13  22
HETATM   22  C6  UNL     1       3.024   0.080  -0.899  1.00  0.00     0.265 C 
BRANCH  22  23
HETATM   23  C7  UNL     1       3.552   1.243  -0.182  1.00  0.00     0.193 C 
HETATM   24  O1  UNL     1       4.626   1.176   0.447  1.00  0.00    -0.647 OA
HETATM   25  O2  UNL     1       2.851   2.431  -0.202  1.00  0.00    -0.647 OA
ENDBRANCH  22  23
ENDBRANCH  13  22
TORSDOF 5
