REMARK  5 active torsions:
REMARK  status: ('A' for Active; 'I' for Inactive)
REMARK    1  A    between atoms: C3_6  and  N2_7 
REMARK    2  A    between atoms: C5_11  and  C6_12 
REMARK       I    between atoms: C6_12  and  N4_14 
REMARK    3  A    between atoms: N4_14  and  C7_16 
REMARK    4  A    between atoms: C7_16  and  C8_17 
REMARK    5  A    between atoms: C8_17  and  O2_18 
ROOT
HETATM    1  N2  UNL     1      -1.359   0.377  -0.238  1.00  0.00    -0.225 N 
HETATM    2  N3  UNL     1      -0.933   1.179  -1.198  1.00  0.00    -0.301 N 
ATOM      3  H3  UNL     1      -1.536   1.818  -1.717  1.00  0.00     0.186 HD
HETATM    4  C4  UNL     1       0.385   1.054  -1.410  1.00  0.00     0.128 A 
HETATM    5  C5  UNL     1       0.841   0.108  -0.527  1.00  0.00     0.091 A 
HETATM    6  C9  UNL     1      -0.266  -0.293   0.187  1.00  0.00     0.157 A 
HETATM    7  N5  UNL     1      -0.293  -1.259   1.215  1.00  0.00    -0.080 NA
ENDROOT
BRANCH   1   8
HETATM    8  C3  UNL     1      -2.695   0.238   0.258  1.00  0.00     0.133 A 
HETATM    9  C2  UNL     1      -3.778   0.126  -0.605  1.00  0.00     0.098 A 
HETATM   10  C1  UNL     1      -5.054  -0.007  -0.102  1.00  0.00     0.103 A 
HETATM   11  N1  UNL     1      -6.078  -0.114  -0.874  1.00  0.00    -0.385 N 
HETATM   12  N7  UNL     1      -5.295  -0.033   1.222  1.00  0.00    -0.339 N 
ATOM     13  H12 UNL     1      -5.895  -0.094  -1.877  1.00  0.00     0.157 HD
ATOM     14  H11 UNL     1      -7.023  -0.212  -0.502  1.00  0.00     0.157 HD
HETATM   15  C10 UNL     1      -4.240   0.076   2.050  1.00  0.00     0.183 A 
ATOM     16  H7  UNL     1      -6.243  -0.132   1.585  1.00  0.00     0.168 HD
HETATM   17  N6  UNL     1      -2.985   0.207   1.571  1.00  0.00    -0.337 N 
ATOM     18  H6  UNL     1      -2.218   0.287   2.238  1.00  0.00     0.168 HD
ENDBRANCH   1   8
BRANCH   5  19
HETATM   19  C6  UNL     1       2.222  -0.389  -0.361  1.00  0.00     0.256 C 
HETATM   20  O1  UNL     1       2.454  -1.260   0.499  1.00  0.00    -0.267 OA
HETATM   21  N4  UNL     1       3.246   0.118  -1.165  1.00  0.00    -0.355 N 
ATOM     22  H4  UNL     1       3.009   0.826  -1.860  1.00  0.00     0.162 HD
BRANCH  21  23
HETATM   23  C7  UNL     1       4.614  -0.306  -1.064  1.00  0.00     0.148 C 
BRANCH  23  24
HETATM   24  C8  UNL     1       5.204  -0.009   0.285  1.00  0.00     0.183 C 
BRANCH  24  25
HETATM   25  O2  UNL     1       5.176   1.359   0.563  1.00  0.00    -0.399 OA
ATOM     26  H2  UNL     1       5.549   1.547   1.416  1.00  0.00     0.209 HD
ENDBRANCH  24  25
ENDBRANCH  23  24
ENDBRANCH  21  23
ENDBRANCH   5  19
TORSDOF 5
