REMARK  6 active torsions:
REMARK  status: ('A' for Active; 'I' for Inactive)
REMARK    1  A    between atoms: N2_3  and  C2_4 
REMARK    2  A    between atoms: N2_3  and  C5_17 
REMARK    3  A    between atoms: C2_4  and  S1_5 
REMARK    4  A    between atoms: S1_5  and  C3_6 
REMARK    5  A    between atoms: C4_9  and  N4_10 
REMARK    6  A    between atoms: C6_20  and  N8_21 
ROOT
HETATM    1  N1  UNL     1       0.636   2.011   0.907  1.00  0.00    -0.171 NA
HETATM    2  C1  UNL     1       0.099   1.087   0.413  1.00  0.00     0.204 C 
HETATM    3  N2  UNL     1      -0.590  -0.006  -0.163  1.00  0.00    -0.084 N 
ENDROOT
BRANCH   3   4
HETATM    4  C2  UNL     1       0.096  -1.042  -0.835  1.00  0.00     0.180 C 
BRANCH   4   5
HETATM    5  S1  UNL     1       1.418  -1.857   0.045  1.00  0.00    -0.045 SA
BRANCH   5   6
HETATM    6  C3  UNL     1       2.939  -0.943   0.097  1.00  0.00     0.179 A 
HETATM    7  N3  UNL     1       4.026  -1.248   0.875  1.00  0.00    -0.168 N 
HETATM    8  C4  UNL     1       4.997  -0.349   0.678  1.00  0.00     0.692 A 
ATOM      9  H3  UNL     1       4.086  -2.043   1.511  1.00  0.00     0.186 HD
HETATM   10  N5  UNL     1       4.501   0.510  -0.225  1.00  0.00    -0.130 N 
HETATM   11  N6  UNL     1       3.275   0.165  -0.576  1.00  0.00    -0.265 N 
ATOM     12  H5  UNL     1       5.002   1.319  -0.591  1.00  0.00     0.205 HD
ATOM     13  H6  UNL     1       2.685   0.659  -1.246  1.00  0.00     0.189 HD
BRANCH   8  14
HETATM   14  N4  UNL     1       6.168  -0.280   1.213  1.00  0.00    -0.233 N 
ATOM     15  H42 UNL     1       6.545  -0.933   1.900  1.00  0.00     0.174 HD
ATOM     16  H41 UNL     1       6.908   0.405   1.063  1.00  0.00     0.174 HD
ENDBRANCH   8  14
ENDBRANCH   5   6
ENDBRANCH   4   5
ENDBRANCH   3   4
BRANCH   3  17
HETATM   17  C5  UNL     1      -2.019  -0.010  -0.032  1.00  0.00     0.716 A 
HETATM   18  N7  UNL     1      -2.611   0.995   0.679  1.00  0.00    -0.021 N 
HETATM   19  C6  UNL     1      -3.940   1.069   0.838  1.00  0.00     0.694 A 
ATOM     20  H7  UNL     1      -2.023   1.712   1.103  1.00  0.00     0.203 HD
HETATM   21  N9  UNL     1      -4.755   0.140   0.294  1.00  0.00    -0.141 N 
HETATM   22  C7  UNL     1      -4.189  -0.848  -0.403  1.00  0.00     0.352 A 
ATOM     23  H9  UNL     1      -5.767   0.191   0.411  1.00  0.00     0.189 HD
HETATM   24  O1  UNL     1      -4.926  -1.732  -0.924  1.00  0.00    -0.246 OA
HETATM   25  N10 UNL     1      -2.824  -0.915  -0.561  1.00  0.00    -0.139 N 
ATOM     26  H10 UNL     1      -2.423  -1.683  -1.100  1.00  0.00     0.189 HD
BRANCH  19  27
HETATM   27  N8  UNL     1      -4.493   2.019   1.512  1.00  0.00    -0.234 N 
ATOM     28  H82 UNL     1      -3.877   2.721   1.923  1.00  0.00     0.174 HD
ATOM     29  H81 UNL     1      -5.504   2.075   1.633  1.00  0.00     0.174 HD
ENDBRANCH  19  27
ENDBRANCH   3  17
TORSDOF 6
