REMARK  5 active torsions:
REMARK  status: ('A' for Active; 'I' for Inactive)
REMARK    1  A    between atoms: C4_4  and  N1_5 
REMARK       I    between atoms: N1_5  and  C5_7 
REMARK    2  A    between atoms: C5_7  and  C6_9 
REMARK    3  A    between atoms: C8_11  and  C9_12 
REMARK    4  A    between atoms: C16_26  and  C17_27 
REMARK    5  A    between atoms: C16_26  and  C23_34 
ROOT
HETATM    1  C1  UNL     1       0.110  -2.556   0.280  1.00  0.00     0.011 C 
HETATM    2  C2  UNL     1      -0.468  -1.282   0.793  1.00  0.00     0.001 C 
HETATM    3  C3  UNL     1       0.728  -0.359   1.071  1.00  0.00     0.057 C 
HETATM    4  C4  UNL     1       1.416  -0.125  -0.234  1.00  0.00    -0.010 C 
HETATM    5  C14 UNL     1       0.561   0.523  -1.248  1.00  0.00     0.053 C 
HETATM    6  C15 UNL     1      -0.673  -0.332  -1.554  1.00  0.00     0.021 C 
HETATM    7  C16 UNL     1      -1.431  -0.640  -0.274  1.00  0.00    -0.001 C 
ENDROOT
BRANCH   4   8
HETATM    8  N1  UNL     1       2.751   0.344  -0.164  1.00  0.00    -0.330 N 
HETATM    9  C5  UNL     1       3.647   0.264   0.925  1.00  0.00     0.256 C 
HETATM   10  O1  UNL     1       3.282  -0.186   2.041  1.00  0.00    -0.267 OA
ATOM     11  H1  UNL     1       3.110   0.796  -1.005  1.00  0.00     0.168 HD
BRANCH   9  12
HETATM   12  C6  UNL     1       5.055   0.685   0.806  1.00  0.00     0.047 A 
HETATM   13  C7  UNL     1       5.653   0.371  -0.404  1.00  0.00     0.034 A 
HETATM   14  C8  UNL     1       7.013   0.577  -0.546  1.00  0.00     0.051 A 
HETATM   15  C10 UNL     1       7.731   1.090   0.514  1.00  0.00     0.048 A 
HETATM   16  C11 UNL     1       7.114   1.402   1.713  1.00  0.00     0.061 A 
HETATM   17  N2  UNL     1       7.524   1.894   2.897  1.00  0.00    -0.300 N 
HETATM   18  C13 UNL     1       5.721   1.198   1.883  1.00  0.00     0.025 A 
HETATM   19  N3  UNL     1       6.507   2.003   3.748  1.00  0.00    -0.311 N 
ATOM     20  H2  UNL     1       8.487   2.150   3.113  1.00  0.00     0.187 HD
HETATM   21  C12 UNL     1       5.385   1.586   3.168  1.00  0.00     0.121 A 
ATOM     22  H3  UNL     1       6.577   2.354   4.703  1.00  0.00     0.186 HD
BRANCH  14  23
HETATM   23  C9  UNL     1       7.725   0.254  -1.797  1.00  0.00     0.417 C 
HETATM   24  F1  UNL     1       8.550  -0.841  -1.494  1.00  0.00    -0.166 F 
HETATM   25  F2  UNL     1       6.835  -0.014  -2.802  1.00  0.00    -0.166 F 
HETATM   26  F3  UNL     1       8.594   1.281  -2.142  1.00  0.00    -0.166 F 
ENDBRANCH  14  23
ENDBRANCH   9  12
ENDBRANCH   4   8
BRANCH   7  27
HETATM   27  C17 UNL     1      -1.943   0.589   0.360  1.00  0.00     0.068 C 
HETATM   28  N4  UNL     1      -2.774   1.544  -0.132  1.00  0.00    -0.393 N 
HETATM   29  C18 UNL     1      -2.770   2.754   0.775  1.00  0.00     0.122 C 
HETATM   30  C22 UNL     1      -4.068   1.483  -0.633  1.00  0.00     0.122 C 
HETATM   31  C19 UNL     1      -4.077   2.907   1.482  1.00  0.00     0.020 C 
HETATM   32  C20 UNL     1      -5.059   3.470   0.458  1.00  0.00     0.003 C 
HETATM   33  C21 UNL     1      -4.637   2.921  -0.872  1.00  0.00     0.020 C 
ENDBRANCH   7  27
BRANCH   7  34
HETATM   34  C23 UNL     1      -2.388  -1.740  -0.508  1.00  0.00    -0.001 C 
HETATM   35  C24 UNL     1      -3.406  -1.674  -1.572  1.00  0.00     0.006 C 
HETATM   36  C25 UNL     1      -3.644  -3.141  -2.016  1.00  0.00     0.000 C 
HETATM   37  C26 UNL     1      -4.192  -3.885  -0.805  1.00  0.00     0.000 C 
HETATM   38  C27 UNL     1      -4.325  -3.035   0.423  1.00  0.00     0.000 C 
HETATM   39  C28 UNL     1      -3.060  -2.267   0.765  1.00  0.00     0.006 C 
ENDBRANCH   7  34
TORSDOF 5
