REMARK  7 active torsions:
REMARK  status: ('A' for Active; 'I' for Inactive)
REMARK    1  A    between atoms: C16_17  and  C17_18 
REMARK    2  A    between atoms: C16_17  and  C23_28 
REMARK    3  A    between atoms: C17_18  and  C18_19 
REMARK    4  A    between atoms: C18_19  and  C19_20 
REMARK    5  A    between atoms: C19_20  and  O2_21 
REMARK    6  A    between atoms: C19_20  and  C20_23 
REMARK    7  A    between atoms: C20_23  and  C22_26 
ROOT
HETATM    1  C1  UNL     1      -5.311  -2.078   1.257  1.00  0.00     0.023 C 
HETATM    2  C2  UNL     1      -5.236  -0.851   0.793  1.00  0.00    -0.016 C 
HETATM    3  C3  UNL     1      -6.341   0.130   0.980  1.00  0.00     0.155 C 
HETATM    4  O1  UNL     1      -7.512  -0.108   1.369  1.00  0.00    -0.293 OA
HETATM    5  C4  UNL     1      -5.808   1.500   0.616  1.00  0.00     0.093 C 
HETATM    6  C5  UNL     1      -4.359   1.246   0.815  1.00  0.00     0.030 C 
HETATM    7  C6  UNL     1      -3.396   2.227   0.384  1.00  0.00    -0.082 C 
HETATM    8  C7  UNL     1      -3.549   3.638   0.808  1.00  0.00     0.043 C 
HETATM    9  C8  UNL     1      -2.377   1.904  -0.380  1.00  0.00    -0.018 C 
HETATM   10  C9  UNL     1      -2.165   0.546  -0.834  1.00  0.00     0.022 C 
HETATM   11  C10 UNL     1      -2.817  -0.429   0.167  1.00  0.00     0.003 C 
HETATM   12  C11 UNL     1      -2.324  -1.733  -0.308  1.00  0.00     0.012 C 
HETATM   13  C12 UNL     1      -1.051  -1.475  -1.046  1.00  0.00     0.003 C 
HETATM   14  C13 UNL     1      -0.810   0.033  -1.011  1.00  0.00    -0.032 C 
HETATM   15  C14 UNL     1      -0.303   0.521  -2.377  1.00  0.00     0.016 C 
HETATM   16  C15 UNL     1       0.182   0.230   0.070  1.00  0.00     0.026 C 
HETATM   17  C16 UNL     1       0.962  -1.052   0.253  1.00  0.00     0.027 C 
HETATM   18  C24 UNL     1       0.184  -2.104  -0.487  1.00  0.00    -0.030 C 
HETATM   19  C25 UNL     1      -0.045  -3.376   0.257  1.00  0.00     0.016 C 
HETATM   20  C26 UNL     1       0.979  -2.564  -1.731  1.00  0.00     0.016 C 
HETATM   21  C27 UNL     1      -4.241  -0.097   0.051  1.00  0.00     0.035 C 
ENDROOT
BRANCH  17  22
HETATM   22  C17 UNL     1       2.344  -0.920  -0.345  1.00  0.00     0.018 C 
BRANCH  22  23
HETATM   23  C18 UNL     1       3.189   0.160   0.241  1.00  0.00     0.034 C 
BRANCH  23  24
HETATM   24  C19 UNL     1       4.531   0.125  -0.514  1.00  0.00     0.142 C 
BRANCH  24  25
HETATM   25  O2  UNL     1       5.135  -1.098  -0.355  1.00  0.00    -0.394 OA
ATOM     26  H2  UNL     1       5.963  -1.120  -0.821  1.00  0.00     0.210 HD
ENDBRANCH  24  25
BRANCH  24  27
HETATM   27  C20 UNL     1       5.428   1.221   0.065  1.00  0.00     0.068 C 
HETATM   28  C21 UNL     1       4.735   2.557  -0.131  1.00  0.00     0.036 C 
HETATM   29 CL1  UNL     1       5.655   0.866   1.793  1.00  0.00    -0.116 Cl
BRANCH  27  30
HETATM   30  C22 UNL     1       6.734   1.244  -0.647  1.00  0.00     0.114 C 
HETATM   31  S1  UNL     1       7.752   2.572   0.095  1.00  0.00    -0.096 SA
ENDBRANCH  27  30
ENDBRANCH  24  27
ENDBRANCH  23  24
ENDBRANCH  22  23
ENDBRANCH  17  22
BRANCH  17  32
HETATM   32  C23 UNL     1       1.114  -1.299   1.712  1.00  0.00     0.362 C 
HETATM   33  F1  UNL     1       1.819  -2.455   1.996  1.00  0.00    -0.214 F 
HETATM   34  F2  UNL     1      -0.058  -1.230   2.446  1.00  0.00    -0.214 F 
ENDBRANCH  17  32
TORSDOF 7
