REMARK  8 active torsions:
REMARK  status: ('A' for Active; 'I' for Inactive)
REMARK    1  A    between atoms: C2_2  and  O1_5 
REMARK    2  A    between atoms: O1_5  and  C5_6 
REMARK       I    between atoms: C5_6  and  N1_8 
REMARK    3  A    between atoms: N1_8  and  C6_10 
REMARK    4  A    between atoms: C9_13  and  C10_14 
REMARK    5  A    between atoms: C10_14  and  C11_15 
REMARK    6  A    between atoms: C11_15  and  N2_16 
REMARK    7  A    between atoms: C14_19  and  C15_20 
REMARK    8  A    between atoms: C23_30  and  C24_31 
ROOT
HETATM    1  N2  UNL     1      -1.272  -0.584   0.932  1.00  0.00     0.088 N 
HETATM    2  C12 UNL     1      -1.962  -0.476   2.234  1.00  0.00     0.273 C 
HETATM    3  C13 UNL     1      -3.346  -1.109   2.065  1.00  0.00     0.039 C 
HETATM    4  C14 UNL     1      -4.130  -0.110   1.227  1.00  0.00     0.024 C 
HETATM    5  C25 UNL     1      -3.362  -0.039  -0.095  1.00  0.00     0.039 C 
HETATM    6  C26 UNL     1      -1.952   0.433   0.111  1.00  0.00     0.273 C 
ENDROOT
BRANCH   1   7
HETATM    7  C11 UNL     1       0.131  -0.242   1.103  1.00  0.00     0.272 C 
BRANCH   7   8
HETATM    8  C10 UNL     1       0.858  -0.407  -0.182  1.00  0.00     0.034 C 
BRANCH   8   9
HETATM    9  C9  UNL     1       2.336  -0.058  -0.067  1.00  0.00    -0.013 C 
HETATM   10  C8  UNL     1       2.962  -0.262  -1.404  1.00  0.00     0.007 C 
HETATM   11  C7  UNL     1       4.389  -0.751  -1.323  1.00  0.00     0.026 C 
HETATM   12  C6  UNL     1       5.119  -0.152  -0.138  1.00  0.00     0.086 C 
HETATM   13  C28 UNL     1       4.466  -0.560   1.141  1.00  0.00     0.026 C 
HETATM   14  C27 UNL     1       2.998  -0.834   1.037  1.00  0.00     0.007 C 
BRANCH  12  15
HETATM   15  N1  UNL     1       6.463  -0.700  -0.146  1.00  0.00    -0.332 N 
HETATM   16  C5  UNL     1       7.596   0.126  -0.340  1.00  0.00     0.361 C 
HETATM   17  O2  UNL     1       7.424   1.355  -0.511  1.00  0.00    -0.238 OA
ATOM     18  H1  UNL     1       6.594  -1.702  -0.009  1.00  0.00     0.165 HD
BRANCH  16  19
HETATM   19  O1  UNL     1       8.864  -0.436  -0.338  1.00  0.00    -0.294 OA
BRANCH  19  20
HETATM   20  C2  UNL     1      10.029   0.331  -0.529  1.00  0.00     0.061 C 
HETATM   21  C1  UNL     1      11.230  -0.603  -0.450  1.00  0.00     0.046 C 
HETATM   22  C3  UNL     1      10.080   0.951  -1.910  1.00  0.00     0.046 C 
HETATM   23  C4  UNL     1      10.182   1.437   0.485  1.00  0.00     0.046 C 
ENDBRANCH  19  20
ENDBRANCH  16  19
ENDBRANCH  12  15
ENDBRANCH   8   9
ENDBRANCH   7   8
ENDBRANCH   1   7
BRANCH   4  24
HETATM   24  C15 UNL     1      -5.487  -0.614   0.906  1.00  0.00    -0.030 A 
HETATM   25  C16 UNL     1      -6.008  -1.897   1.069  1.00  0.00     0.096 A 
HETATM   26  N3  UNL     1      -7.279  -1.915   0.636  1.00  0.00    -0.368 N 
HETATM   27  C17 UNL     1      -7.633  -0.697   0.191  1.00  0.00     0.025 A 
ATOM     28  H3  UNL     1      -7.887  -2.734   0.644  1.00  0.00     0.165 HD
HETATM   29  C18 UNL     1      -6.517   0.123   0.356  1.00  0.00    -0.027 A 
HETATM   30  C23 UNL     1      -8.985  -0.377  -0.355  1.00  0.00     0.101 C 
HETATM   31  C19 UNL     1      -6.415   1.546   0.030  1.00  0.00     0.041 C 
HETATM   32  C20 UNL     1      -6.680   1.875  -1.413  1.00  0.00     0.005 C 
HETATM   33  C21 UNL     1      -7.894   1.153  -1.930  1.00  0.00     0.001 C 
HETATM   34  C22 UNL     1      -8.964   1.037  -0.897  1.00  0.00     0.016 C 
BRANCH  30  35
HETATM   35  C24 UNL     1     -10.035  -0.505   0.702  1.00  0.00     0.363 C 
HETATM   36  F1  UNL     1     -10.108  -1.760   1.227  1.00  0.00    -0.214 F 
HETATM   37  F2  UNL     1      -9.790   0.471   1.668  1.00  0.00    -0.214 F 
ENDBRANCH  30  35
ENDBRANCH   4  24
TORSDOF 8
