REMARK  18 active torsions:
REMARK  status: ('A' for Active; 'I' for Inactive)
REMARK    1  A    between atoms: C2_2  and  C3_3 
REMARK    2  A    between atoms: C3_3  and  C4_4 
REMARK    3  A    between atoms: C4_4  and  C5_5 
REMARK    4  A    between atoms: C5_5  and  C6_6 
REMARK    5  A    between atoms: C6_6  and  O1_7 
REMARK    6  A    between atoms: O1_7  and  C7_8 
REMARK       I    between atoms: C7_8  and  N1_10 
REMARK       I    between atoms: N2_13  and  C10_14 
REMARK    7  A    between atoms: C10_14  and  C11_16 
REMARK    8  A    between atoms: C11_16  and  C12_17 
REMARK    9  A    between atoms: C12_17  and  C13_18 
REMARK   10  A    between atoms: C13_18  and  C14_19 
REMARK   11  A    between atoms: C14_19  and  N3_20 
REMARK   12  A    between atoms: N4_23  and  C17_24 
REMARK   13  A    between atoms: C17_24  and  C18_25 
REMARK   14  A    between atoms: C18_25  and  O4_26 
REMARK   15  A    between atoms: C18_25  and  C19_28 
REMARK   16  A    between atoms: C19_28  and  N5_31 
REMARK       I    between atoms: N5_31  and  C22_33 
REMARK   17  A    between atoms: C22_33  and  O6_35 
REMARK   18  A    between atoms: O6_35  and  C23_36 
ROOT
HETATM    1  N3  UNL     1      -0.494   0.370   0.883  1.00  0.00     0.101 N 
HETATM    2  C15 UNL     1      -1.252   0.412  -0.313  1.00  0.00     0.303 C 
HETATM    3  C16 UNL     1      -2.583  -0.234  -0.303  1.00  0.00     0.302 C 
HETATM    4  N4  UNL     1      -3.366  -0.039   0.924  1.00  0.00     0.095 N 
HETATM    5  C31 UNL     1      -2.465  -0.313   2.042  1.00  0.00     0.314 C 
HETATM    6  C32 UNL     1      -1.346   0.665   2.030  1.00  0.00     0.186 C 
HETATM    7  C33 UNL     1      -0.519   0.711   3.307  1.00  0.00     0.044 C 
HETATM    8  C34 UNL     1      -1.322   1.953   3.688  1.00  0.00     0.005 C 
HETATM    9  C35 UNL     1      -1.717   2.087   2.225  1.00  0.00     0.044 C 
ENDROOT
BRANCH   1  10
HETATM   10  C14 UNL     1       0.342  -0.736   1.131  1.00  0.00     0.273 C 
BRANCH  10  11
HETATM   11  C13 UNL     1       1.528  -0.754   0.186  1.00  0.00     0.031 C 
BRANCH  11  12
HETATM   12  C12 UNL     1       2.398  -1.928   0.528  1.00  0.00     0.011 C 
BRANCH  12  13
HETATM   13  C11 UNL     1       3.609  -2.087  -0.300  1.00  0.00     0.103 C 
BRANCH  13  14
HETATM   14  C10 UNL     1       4.601  -1.014  -0.257  1.00  0.00     0.219 C 
HETATM   15  N2  UNL     1       5.842  -1.088  -0.948  1.00  0.00    -0.349 N 
HETATM   16  C9  UNL     1       6.846  -0.059  -0.961  1.00  0.00     0.145 C 
HETATM   17  C36 UNL     1       6.157  -2.302  -1.686  1.00  0.00     0.145 C 
HETATM   18  C8  UNL     1       7.942  -0.377  -1.950  1.00  0.00     0.148 C 
HETATM   19  N1  UNL     1       8.472  -1.692  -1.675  1.00  0.00    -0.325 N 
HETATM   20  C7  UNL     1       9.876  -1.975  -1.799  1.00  0.00     0.362 C 
HETATM   21  C37 UNL     1       7.574  -2.754  -1.286  1.00  0.00     0.148 C 
HETATM   22  O2  UNL     1      10.306  -3.116  -1.527  1.00  0.00    -0.238 OA
HETATM   23  O3  UNL     1       4.408   0.060   0.409  1.00  0.00    -0.273 OA
BRANCH  20  24
HETATM   24  O1  UNL     1      10.771  -1.011  -2.217  1.00  0.00    -0.304 OA
BRANCH  24  25
HETATM   25  C6  UNL     1      12.154  -1.296  -2.332  1.00  0.00     0.180 C 
BRANCH  25  26
HETATM   26  C5  UNL     1      12.838  -0.053  -2.854  1.00  0.00     0.027 C 
BRANCH  26  27
HETATM   27  C4  UNL     1      12.675   1.147  -1.984  1.00  0.00     0.002 C 
BRANCH  27  28
HETATM   28  C3  UNL     1      13.225   0.993  -0.589  1.00  0.00    -0.000 C 
BRANCH  28  29
HETATM   29  C2  UNL     1      12.964   2.338   0.106  1.00  0.00    -0.005 C 
HETATM   30  C1  UNL     1      13.484   2.287   1.505  1.00  0.00     0.005 C 
ENDBRANCH  28  29
ENDBRANCH  27  28
ENDBRANCH  26  27
ENDBRANCH  25  26
ENDBRANCH  24  25
ENDBRANCH  20  24
ENDBRANCH  13  14
ENDBRANCH  12  13
ENDBRANCH  11  12
ENDBRANCH  10  11
ENDBRANCH   1  10
BRANCH   4  31
HETATM   31  C17 UNL     1      -4.342  -1.133   0.905  1.00  0.00     0.306 C 
BRANCH  31  32
HETATM   32  C18 UNL     1      -5.285  -1.157   2.033  1.00  0.00     0.173 C 
BRANCH  32  33
HETATM   33  O4  UNL     1      -6.099  -2.336   1.882  1.00  0.00    -0.391 OA
ATOM     34  H4  UNL     1      -6.708  -2.352   2.611  1.00  0.00     0.210 HD
ENDBRANCH  32  33
BRANCH  32  35
HETATM   35  C19 UNL     1      -6.277  -0.001   2.082  1.00  0.00     0.055 C 
HETATM   36  C20 UNL     1      -5.636   1.268   2.512  1.00  0.00     0.041 C 
HETATM   37  C21 UNL     1      -7.308  -0.351   3.177  1.00  0.00     0.041 C 
BRANCH  35  38
HETATM   38  N5  UNL     1      -7.029   0.044   0.866  1.00  0.00    -0.326 N 
HETATM   39  C22 UNL     1      -8.054   0.995   0.699  1.00  0.00     0.361 C 
HETATM   40  O5  UNL     1      -8.325   1.810   1.594  1.00  0.00    -0.238 OA
ATOM     41  H5  UNL     1      -6.822  -0.616   0.116  1.00  0.00     0.165 HD
BRANCH  39  42
HETATM   42  O6  UNL     1      -8.835   1.110  -0.436  1.00  0.00    -0.296 OA
BRANCH  42  43
HETATM   43  C23 UNL     1      -9.838   2.042  -0.580  1.00  0.00     0.164 C 
HETATM   44  C24 UNL     1      -9.854   2.965  -1.713  1.00  0.00     0.201 C 
HETATM   45  O7  UNL     1     -10.573   2.337  -2.703  1.00  0.00    -0.383 OA
HETATM   46  C25 UNL     1     -11.666   1.785  -2.039  1.00  0.00     0.128 C 
HETATM   47  C26 UNL     1     -12.165   0.633  -2.882  1.00  0.00     0.032 C 
HETATM   48  C30 UNL     1     -11.225   1.395  -0.679  1.00  0.00     0.046 C 
HETATM   49  C27 UNL     1     -11.060  -0.408  -2.863  1.00  0.00     0.002 C 
HETATM   50  C28 UNL     1     -11.052  -1.000  -1.483  1.00  0.00     0.001 C 
HETATM   51  C29 UNL     1     -11.228  -0.050  -0.370  1.00  0.00     0.010 C 
ENDBRANCH  42  43
ENDBRANCH  39  42
ENDBRANCH  35  38
ENDBRANCH  32  35
ENDBRANCH  31  32
ENDBRANCH   4  31
TORSDOF 18
