REMARK  17 active torsions:
REMARK  status: ('A' for Active; 'I' for Inactive)
REMARK    1  A    between atoms: C2_2  and  C3_3 
REMARK    2  A    between atoms: C4_6  and  N2_7 
REMARK    3  A    between atoms: N2_7  and  C5_9 
REMARK    4  A    between atoms: C5_9  and  O1_10 
REMARK    5  A    between atoms: C5_9  and  C6_12 
REMARK    6  A    between atoms: C6_12  and  C7_13 
REMARK    7  A    between atoms: C6_12  and  N3_20 
REMARK    8  A    between atoms: C7_13  and  O2_14 
REMARK    9  A    between atoms: O2_14  and  C8_15 
REMARK       I    between atoms: N3_20  and  C13_22 
REMARK   10  A    between atoms: C13_22  and  C14_24 
REMARK   11  A    between atoms: C14_24  and  C15_25 
REMARK   12  A    between atoms: C15_25  and  N4_26 
REMARK   13  A    between atoms: N4_26  and  C16_27 
REMARK   14  A    between atoms: N4_26  and  C18_29 
REMARK       I    between atoms: N5_32  and  C21_33 
REMARK   15  A    between atoms: C21_33  and  C22_35 
REMARK       I    between atoms: C22_35  and  N6_37 
REMARK   16  A    between atoms: N7_40  and  C25_41 
REMARK   17  A    between atoms: C25_41  and  C26_42 
ROOT
HETATM    1  C3  UNL     1       1.034  -0.053  -1.019  1.00  0.00     0.091 A 
HETATM    2  N1  UNL     1       2.174  -0.304  -0.350  1.00  0.00    -0.330 N 
ATOM      3  H1  UNL     1       3.070  -0.478  -0.806  1.00  0.00     0.168 HD
HETATM    4  C4  UNL     1       2.008  -0.301   0.971  1.00  0.00     0.124 A 
HETATM    5  C20 UNL     1       0.641  -0.019   1.141  1.00  0.00     0.150 A 
HETATM    6  N5  UNL     1       0.088   0.121  -0.036  1.00  0.00    -0.270 N 
HETATM    7  C21 UNL     1      -1.263   0.452  -0.363  1.00  0.00     0.321 C 
HETATM    8  O4  UNL     1      -1.618   0.487  -1.598  1.00  0.00    -0.261 OA
ENDROOT
BRANCH   4   9
HETATM    9  N2  UNL     1       2.877  -0.531   2.047  1.00  0.00    -0.324 N 
ATOM     10  H2  UNL     1       2.484  -0.493   2.988  1.00  0.00     0.169 HD
BRANCH   9  11
HETATM   11  C5  UNL     1       4.241  -0.808   1.926  1.00  0.00     0.142 C 
BRANCH  11  12
HETATM   12  O1  UNL     1       4.919  -1.057   3.019  1.00  0.00    -0.348 OA
ATOM     13  H1  UNL     1       5.846  -1.245   2.937  1.00  0.00     0.219 HD
ENDBRANCH  11  12
BRANCH  11  14
HETATM   14  C6  UNL     1       5.028  -0.858   0.718  1.00  0.00     0.183 C 
BRANCH  14  15
HETATM   15  C7  UNL     1       5.886   0.452   0.631  1.00  0.00     0.201 C 
BRANCH  15  16
HETATM   16  O2  UNL     1       5.025   1.514   0.523  1.00  0.00    -0.383 OA
BRANCH  16  17
HETATM   17  C8  UNL     1       5.742   2.718   0.408  1.00  0.00     0.121 C 
HETATM   18  C9  UNL     1       5.443   3.610   1.619  1.00  0.00     0.032 C 
HETATM   19  C10 UNL     1       4.006   3.991   1.325  1.00  0.00     0.002 C 
HETATM   20  C11 UNL     1       3.901   4.073  -0.179  1.00  0.00     0.002 C 
HETATM   21  C12 UNL     1       5.197   3.508  -0.733  1.00  0.00     0.032 C 
ENDBRANCH  16  17
ENDBRANCH  15  16
ENDBRANCH  14  15
BRANCH  14  22
HETATM   22  N3  UNL     1       6.041  -1.938   0.878  1.00  0.00    -0.347 N 
HETATM   23  C13 UNL     1       6.908  -2.339  -0.129  1.00  0.00     0.220 C 
HETATM   24  O3  UNL     1       6.896  -1.801  -1.277  1.00  0.00    -0.274 OA
ATOM     25  H3  UNL     1       6.101  -2.410   1.780  1.00  0.00     0.163 HD
BRANCH  23  26
HETATM   26  C14 UNL     1       7.892  -3.409   0.098  1.00  0.00     0.133 C 
BRANCH  26  27
HETATM   27  C15 UNL     1       9.047  -3.329  -0.893  1.00  0.00     0.281 C 
BRANCH  27  28
HETATM   28  N4  UNL     1       9.743  -2.074  -0.761  1.00  0.00     0.088 N 
BRANCH  28  29
HETATM   29  C16 UNL     1      10.441  -1.929   0.482  1.00  0.00     0.268 C 
HETATM   30  C17 UNL     1      11.606  -2.855   0.620  1.00  0.00     0.037 C 
ENDBRANCH  28  29
BRANCH  28  31
HETATM   31  C18 UNL     1      10.656  -1.798  -1.820  1.00  0.00     0.268 C 
HETATM   32  C19 UNL     1      10.052  -1.511  -3.152  1.00  0.00     0.037 C 
ENDBRANCH  28  31
ENDBRANCH  27  28
ENDBRANCH  26  27
ENDBRANCH  23  26
ENDBRANCH  14  22
ENDBRANCH  11  14
ENDBRANCH   9  11
ENDBRANCH   4   9
BRANCH   1  33
HETATM   33  C2  UNL     1       0.826   0.051  -2.480  1.00  0.00     0.073 C 
HETATM   34  C1  UNL     1       2.202  -0.135  -3.127  1.00  0.00     0.013 C 
ENDBRANCH   1  33
BRANCH   7  35
HETATM   35  C22 UNL     1      -2.227   0.747   0.663  1.00  0.00     0.312 C 
HETATM   36  O5  UNL     1      -1.833   0.839   1.874  1.00  0.00    -0.262 OA
HETATM   37  N6  UNL     1      -3.580   0.940   0.384  1.00  0.00    -0.338 N 
HETATM   38  C23 UNL     1      -4.487   1.334   1.487  1.00  0.00     0.146 C 
HETATM   39  C38 UNL     1      -4.263   0.763  -0.874  1.00  0.00     0.170 C 
HETATM   40  C24 UNL     1      -5.555   0.225   1.439  1.00  0.00     0.143 C 
HETATM   41  N7  UNL     1      -6.369   0.448   0.334  1.00  0.00    -0.381 N 
HETATM   42  C37 UNL     1      -5.759   0.995  -0.782  1.00  0.00     0.079 C 
BRANCH  41  43
HETATM   43  C25 UNL     1      -7.627  -0.229   0.229  1.00  0.00     0.035 C 
HETATM   44  C32 UNL     1      -8.120  -0.479   1.623  1.00  0.00     0.031 C 
HETATM   45  C33 UNL     1      -7.840  -1.814   2.180  1.00  0.00     0.002 C 
HETATM   46  C34 UNL     1      -8.287  -2.937   1.282  1.00  0.00     0.000 C 
HETATM   47  C35 UNL     1      -7.829  -2.765  -0.115  1.00  0.00     0.002 C 
HETATM   48  C36 UNL     1      -7.446  -1.437  -0.604  1.00  0.00     0.031 C 
BRANCH  43  49
HETATM   49  C26 UNL     1      -8.584   0.792  -0.466  1.00  0.00     0.014 C 
HETATM   50  C27 UNL     1      -9.944   0.252  -0.642  1.00  0.00     0.007 C 
HETATM   51  C28 UNL     1     -11.085   0.879   0.057  1.00  0.00     0.000 C 
HETATM   52  C29 UNL     1     -10.910   2.341   0.183  1.00  0.00     0.000 C 
HETATM   53  C30 UNL     1      -9.590   2.760   0.768  1.00  0.00     0.000 C 
HETATM   54  C31 UNL     1      -8.416   2.142   0.096  1.00  0.00     0.007 C 
ENDBRANCH  43  49
ENDBRANCH  41  43
ENDBRANCH   7  35
TORSDOF 17
