REMARK  3 active torsions:
REMARK  status: ('A' for Active; 'I' for Inactive)
REMARK       I    between atoms: C2_2  and  N1_4 
REMARK    1  A    between atoms: N1_4  and  C3_6 
REMARK    2  A    between atoms: N2_8  and  N3_10 
REMARK    3  A    between atoms: N3_10  and  C5_12 
ROOT
HETATM    1  N3  UNL     1       0.007   1.611  -0.165  1.00  0.00    -0.278 N 
ATOM      2  H3  UNL     1       0.513   2.185  -0.839  1.00  0.00     0.189 HD
ENDROOT
BRANCH   1   3
HETATM    3  N2  UNL     1       0.564   1.419   1.083  1.00  0.00    -0.287 N 
HETATM    4  C3  UNL     1       1.635   0.691   1.272  1.00  0.00     0.094 C 
HETATM    5  C4  UNL     1       2.194   0.514   2.632  1.00  0.00     0.090 C 
ATOM      6  H2  UNL     1       0.124   1.862   1.890  1.00  0.00     0.188 HD
BRANCH   4   7
HETATM    7  N1  UNL     1       2.224   0.092   0.137  1.00  0.00    -0.316 N 
HETATM    8  C2  UNL     1       3.368  -0.701   0.239  1.00  0.00     0.218 C 
HETATM    9  C1  UNL     1       3.966  -1.323  -0.999  1.00  0.00     0.117 C 
HETATM   10  O1  UNL     1       3.927  -0.921   1.332  1.00  0.00    -0.274 OA
ATOM     11  H1  UNL     1       1.803   0.243  -0.780  1.00  0.00     0.170 HD
ENDBRANCH   4   7
ENDBRANCH   1   3
BRANCH   1  12
HETATM   12  C5  UNL     1      -1.131   1.096  -0.523  1.00  0.00     0.163 A 
HETATM   13  C6  UNL     1      -1.559   1.383  -1.820  1.00  0.00     0.078 A 
HETATM   14  C7  UNL     1      -2.772   0.836  -2.205  1.00  0.00     0.035 A 
HETATM   15 BR1  UNL     1      -3.417   1.187  -3.960  1.00  0.00    -0.049 Br
HETATM   16  C8  UNL     1      -3.494   0.051  -1.327  1.00  0.00     0.057 A 
HETATM   17 BR2  UNL     1      -5.162  -0.675  -1.920  1.00  0.00    -0.047 Br
HETATM   18  C9  UNL     1      -2.999  -0.185  -0.057  1.00  0.00     0.070 A 
HETATM   19  C10 UNL     1      -3.796  -1.034   0.871  1.00  0.00     0.078 C 
HETATM   20  O2  UNL     1      -1.850   0.345   0.279  1.00  0.00    -0.296 OA
ENDBRANCH   1  12
TORSDOF 3
