REMARK  3 active torsions:
REMARK  status: ('A' for Active; 'I' for Inactive)
REMARK    1  A    between atoms: N1_2  and  C3_4 
REMARK    2  A    between atoms: C3_4  and  N2_6 
REMARK       I    between atoms: N2_6  and  C4_8 
REMARK    3  A    between atoms: C4_8  and  C5_10 
ROOT
HETATM    1  N2  UNL     1      -0.337  -0.133  -0.386  1.00  0.00    -0.299 N 
ATOM      2  H2  UNL     1       0.262   0.139   0.394  1.00  0.00     0.171 HD
HETATM    3  C4  UNL     1       0.190  -0.160  -1.693  1.00  0.00     0.264 C 
HETATM    4  O1  UNL     1      -0.468  -0.478  -2.690  1.00  0.00    -0.267 OA
ENDROOT
BRANCH   3   5
HETATM    5  C5  UNL     1       1.610   0.212  -1.882  1.00  0.00     0.075 A 
HETATM    6  C6  UNL     1       2.528   0.595  -0.945  1.00  0.00     0.045 A 
HETATM    7  C7  UNL     1       3.771   0.884  -1.386  1.00  0.00     0.036 A 
HETATM    8 BR1  UNL     1       5.202   1.443  -0.202  1.00  0.00    -0.049 Br
HETATM    9  C8  UNL     1       4.000   0.769  -2.725  1.00  0.00     0.069 A 
HETATM   10 BR2  UNL     1       5.635   1.098  -3.689  1.00  0.00    -0.042 Br
HETATM   11  S2  UNL     1       2.490   0.264  -3.338  1.00  0.00    -0.076 SA
ENDBRANCH   3   5
BRANCH   1  12
HETATM   12  C3  UNL     1      -1.713  -0.485  -0.139  1.00  0.00     0.176 C 
HETATM   13  S1  UNL     1      -2.649  -0.914  -1.380  1.00  0.00    -0.041 SA
BRANCH  12  14
HETATM   14  N1  UNL     1      -2.253  -0.461   1.171  1.00  0.00    -0.367 N 
HETATM   15  C1  UNL     1      -3.635  -0.821   1.379  1.00  0.00     0.151 C 
HETATM   16  C2  UNL     1      -1.385  -0.072   2.265  1.00  0.00     0.151 C 
ENDBRANCH  12  14
ENDBRANCH   1  12
TORSDOF 3
