REMARK  2 active torsions:
REMARK  status: ('A' for Active; 'I' for Inactive)
REMARK    1  A    between atoms: O1_2  and  C2_3 
REMARK    2  A    between atoms: C7_10  and  O2_12 
ROOT
HETATM    1  C2  UNL     1       1.885  -0.346  -0.053  1.00  0.00     0.135 C 
HETATM    2 BR1  UNL     1       3.280  -1.661  -0.453  1.00  0.00    -0.053 Br
HETATM    3  C3  UNL     1       1.758  -0.269   1.413  1.00  0.00     0.053 C 
HETATM    4  C4  UNL     1       0.417   0.164   1.926  1.00  0.00     0.033 C 
HETATM    5  C5  UNL     1      -0.728  -0.646   1.371  1.00  0.00     0.083 C 
HETATM    6 BR2  UNL     1      -1.244  -1.908   2.749  1.00  0.00    -0.077 Br
HETATM    7  C6  UNL     1      -1.879   0.257   1.114  1.00  0.00     0.070 C 
HETATM    8  C7  UNL     1      -2.237   0.452  -0.319  1.00  0.00     0.073 C 
HETATM    9  C8  UNL     1      -3.328   1.520  -0.353  1.00  0.00     0.050 C 
HETATM   10  C9  UNL     1      -1.186   0.791  -1.248  1.00  0.00     0.007 C 
HETATM   11  C10 UNL     1       0.002   0.269  -1.445  1.00  0.00    -0.007 C 
HETATM   12  C11 UNL     1       0.629  -0.867  -0.737  1.00  0.00     0.077 C 
HETATM   13  C12 UNL     1       0.976  -1.922  -1.793  1.00  0.00     0.032 C 
HETATM   14  C13 UNL     1      -0.322  -1.445   0.200  1.00  0.00     0.162 C 
HETATM   15  O3  UNL     1      -0.776  -2.547   0.036  1.00  0.00    -0.295 OA
ENDROOT
BRANCH   1  16
HETATM   16  O1  UNL     1       2.270   0.814  -0.689  1.00  0.00    -0.372 OA
HETATM   17  C1  UNL     1       3.467   1.354  -0.342  1.00  0.00     0.204 C 
ENDBRANCH   1  16
BRANCH   8  18
HETATM   18  O2  UNL     1      -2.871  -0.729  -0.770  1.00  0.00    -0.386 OA
ATOM     19  H2  UNL     1      -3.099  -0.605  -1.684  1.00  0.00     0.211 HD
ENDBRANCH   8  18
TORSDOF 2
