REMARK  10 active torsions:
REMARK  status: ('A' for Active; 'I' for Inactive)
REMARK    1  A    between atoms: N1_1  and  C1_4 
REMARK    2  A    between atoms: C3_8  and  C4_9 
REMARK    3  A    between atoms: C4_9  and  C5_10 
REMARK    4  A    between atoms: C5_10  and  C6_11 
REMARK    5  A    between atoms: C6_11  and  C7_12 
REMARK    6  A    between atoms: C7_12  and  C8_13 
REMARK    7  A    between atoms: C8_13  and  N3_14 
REMARK    8  A    between atoms: N4_17  and  C11_18 
REMARK    9  A    between atoms: C11_18  and  C12_19 
REMARK   10  A    between atoms: C12_19  and  O1_20 
ROOT
HETATM    1  C5  UNL     1       2.099  -0.419  -1.057  1.00  0.00     0.005 C 
ENDROOT
BRANCH   1   2
HETATM    2  C4  UNL     1       3.135  -1.503  -1.143  1.00  0.00     0.046 C 
BRANCH   2   3
HETATM    3  C3  UNL     1       4.384  -1.266  -0.404  1.00  0.00     0.026 A 
HETATM    4  C2  UNL     1       5.483  -0.677  -1.057  1.00  0.00     0.118 A 
HETATM    5  N2  UNL     1       6.622  -0.420  -0.394  1.00  0.00    -0.201 N 
HETATM    6  C1  UNL     1       6.781  -0.705   0.911  1.00  0.00     0.678 A 
ATOM      7  H2  UNL     1       7.397   0.008  -0.900  1.00  0.00     0.183 HD
HETATM    8  N5  UNL     1       5.749  -1.267   1.557  1.00  0.00    -0.156 N 
HETATM    9  C15 UNL     1       4.565  -1.550   0.926  1.00  0.00     0.267 A 
ATOM     10  H5  UNL     1       5.848  -1.491   2.547  1.00  0.00     0.187 HD
HETATM   11  O2  UNL     1       3.640  -2.087   1.602  1.00  0.00    -0.267 OA
BRANCH   6  12
HETATM   12  N1  UNL     1       7.912  -0.431   1.487  1.00  0.00    -0.234 N 
ATOM     13  H12 UNL     1       8.697  -0.004   0.996  1.00  0.00     0.174 HD
ATOM     14  H11 UNL     1       8.033  -0.647   2.477  1.00  0.00     0.174 HD
ENDBRANCH   6  12
ENDBRANCH   2   3
ENDBRANCH   1   2
BRANCH   1  15
HETATM   15  C6  UNL     1       1.584  -0.081   0.280  1.00  0.00     0.002 C 
BRANCH  15  16
HETATM   16  C7  UNL     1       0.523   1.026   0.299  1.00  0.00     0.030 C 
BRANCH  16  17
HETATM   17  C8  UNL     1      -0.630   0.613  -0.502  1.00  0.00     0.272 C 
BRANCH  17  18
HETATM   18  N3  UNL     1      -1.736   1.510  -0.562  1.00  0.00     0.091 N 
HETATM   19  C9  UNL     1      -2.807   1.058  -1.395  1.00  0.00     0.291 C 
HETATM   20  C10 UNL     1      -3.521  -0.067  -0.716  1.00  0.00     0.147 C 
HETATM   21  N4  UNL     1      -4.109   0.400   0.487  1.00  0.00    -0.407 N 
HETATM   22  C13 UNL     1      -3.361   1.284   1.297  1.00  0.00     0.147 C 
HETATM   23  C14 UNL     1      -2.241   2.023   0.661  1.00  0.00     0.291 C 
BRANCH  21  24
HETATM   24  C11 UNL     1      -5.526   0.519   0.512  1.00  0.00     0.143 C 
BRANCH  24  25
HETATM   25  C12 UNL     1      -6.166  -0.859   0.464  1.00  0.00     0.183 C 
BRANCH  25  26
HETATM   26  O1  UNL     1      -7.562  -0.779   0.480  1.00  0.00    -0.399 OA
ATOM     27  H1  UNL     1      -7.962  -1.640   0.450  1.00  0.00     0.209 HD
ENDBRANCH  25  26
ENDBRANCH  24  25
ENDBRANCH  21  24
ENDBRANCH  17  18
ENDBRANCH  16  17
ENDBRANCH  15  16
ENDBRANCH   1  15
TORSDOF 10
