REMARK  10 active torsions:
REMARK  status: ('A' for Active; 'I' for Inactive)
REMARK    1  A    between atoms: C2_2  and  O1_3 
REMARK    2  A    between atoms: O1_3  and  C3_4 
REMARK    3  A    between atoms: C3_4  and  C4_5 
REMARK    4  A    between atoms: C4_5  and  C5_6 
REMARK    5  A    between atoms: C5_6  and  N1_7 
REMARK    6  A    between atoms: C7_12  and  N3_13 
REMARK    7  A    between atoms: N3_13  and  C8_15 
REMARK    8  A    between atoms: C8_15  and  C9_16 
REMARK    9  A    between atoms: C9_16  and  C10_17 
REMARK   10  A    between atoms: C10_17  and  N4_18 
ROOT
HETATM    1  N1  UNL     1      -1.301  -0.540   0.297  1.00  0.00    -0.375 N 
ATOM      2  H1  UNL     1      -1.440   0.457   0.134  1.00  0.00     0.161 HD
HETATM    3  C6  UNL     1      -0.121  -0.900   0.099  1.00  0.00     0.131 A 
HETATM    4  N2  UNL     1       0.752   0.085  -0.291  1.00  0.00    -0.176 N 
ATOM      5  H2  UNL     1       0.403   1.038  -0.397  1.00  0.00     0.186 HD
HETATM    6  C7  UNL     1       2.046  -0.159  -0.538  1.00  0.00     0.681 A 
HETATM    7  N5  UNL     1       2.546  -1.399  -0.409  1.00  0.00    -0.176 N 
ATOM      8  H5  UNL     1       3.532  -1.582  -0.596  1.00  0.00     0.186 HD
HETATM    9  C11 UNL     1       1.718  -2.406  -0.025  1.00  0.00     0.135 A 
HETATM   10  N6  UNL     1       1.928  -3.726   0.185  1.00  0.00    -0.345 N 
ATOM     11  H6  UNL     1       2.824  -4.201   0.074  1.00  0.00     0.167 HD
HETATM   12  C12 UNL     1       0.793  -4.312   0.557  1.00  0.00     0.008 A 
HETATM   13  C13 UNL     1       0.567  -5.732   0.885  1.00  0.00     0.068 C 
HETATM   14  C14 UNL     1      -0.212  -3.341   0.596  1.00  0.00     0.043 A 
HETATM   15  C15 UNL     1       0.403  -2.169   0.227  1.00  0.00     0.055 A 
ENDROOT
BRANCH   6  16
HETATM   16  N3  UNL     1       2.875   0.758  -0.905  1.00  0.00    -0.226 N 
ATOM     17  H3  UNL     1       3.856   0.543  -1.086  1.00  0.00     0.177 HD
BRANCH  16  18
HETATM   18  C8  UNL     1       2.364   2.096  -1.050  1.00  0.00     0.139 C 
BRANCH  18  19
HETATM   19  C9  UNL     1       3.378   3.104  -1.476  1.00  0.00     0.047 C 
BRANCH  19  20
HETATM   20  C10 UNL     1       4.494   3.163  -0.434  1.00  0.00     0.231 C 
BRANCH  20  21
HETATM   21  N4  UNL     1       5.124   1.875  -0.317  1.00  0.00    -0.079 N 
ATOM     22  H43 UNL     1       4.450   1.136  -0.115  1.00  0.00     0.274 HD
ATOM     23  H42 UNL     1       5.458   1.529  -1.217  1.00  0.00     0.274 HD
ATOM     24  H41 UNL     1       5.869   1.914   0.379  1.00  0.00     0.274 HD
ENDBRANCH  20  21
ENDBRANCH  19  20
ENDBRANCH  18  19
ENDBRANCH  16  18
ENDBRANCH   6  16
BRANCH   1  25
HETATM   25  C5  UNL     1      -2.478  -1.192   0.692  1.00  0.00     0.123 C 
BRANCH  25  26
HETATM   26  C4  UNL     1      -3.670  -0.224   0.823  1.00  0.00     0.046 C 
BRANCH  26  27
HETATM   27  C3  UNL     1      -3.939   0.442  -0.486  1.00  0.00     0.169 C 
BRANCH  27  28
HETATM   28  O1  UNL     1      -5.012   1.304  -0.398  1.00  0.00    -0.391 OA
BRANCH  28  29
HETATM   29  C2  UNL     1      -4.882   2.332   0.497  1.00  0.00     0.163 C 
HETATM   30  C1  UNL     1      -3.685   3.212   0.189  1.00  0.00     0.033 C 
ENDBRANCH  28  29
ENDBRANCH  27  28
ENDBRANCH  26  27
ENDBRANCH  25  26
ENDBRANCH   1  25
TORSDOF 10
