REMARK  8 active torsions:
REMARK  status: ('A' for Active; 'I' for Inactive)
REMARK    1  A    between atoms: C1_2  and  C2_3 
REMARK       I    between atoms: C1_2  and  N3_16 
REMARK    2  A    between atoms: C2_3  and  C3_4 
REMARK    3  A    between atoms: C3_4  and  N1_5 
REMARK    4  A    between atoms: N1_5  and  C4_8 
REMARK    5  A    between atoms: C4_8  and  C5_9 
REMARK    6  A    between atoms: N3_16  and  C10_18 
REMARK    7  A    between atoms: C10_18  and  C11_19 
REMARK    8  A    between atoms: C11_19  and  C12_20 
ROOT
HETATM    1  O1  UNL     1      -0.831  -0.250  -1.681  1.00  0.00    -0.274 OA
HETATM    2  C1  UNL     1      -0.712  -0.588  -0.476  1.00  0.00     0.219 C 
HETATM    3  N3  UNL     1      -1.655  -1.389   0.199  1.00  0.00    -0.361 N 
ATOM      4  H3  UNL     1      -1.491  -1.629   1.177  1.00  0.00     0.162 HD
ENDROOT
BRANCH   2   5
HETATM    5  C2  UNL     1       0.488  -0.134   0.326  1.00  0.00     0.130 C 
BRANCH   5   6
HETATM    6  C3  UNL     1       1.312   0.738  -0.582  1.00  0.00     0.241 C 
BRANCH   6   7
HETATM    7  N1  UNL     1       2.496   1.250   0.067  1.00  0.00    -0.074 N 
ATOM      8  H12 UNL     1       2.928   2.011  -0.457  1.00  0.00     0.277 HD
ATOM      9  H11 UNL     1       2.279   1.768   0.918  1.00  0.00     0.277 HD
BRANCH   7  10
HETATM   10  C4  UNL     1       3.403   0.168   0.304  1.00  0.00     0.237 C 
BRANCH  10  11
HETATM   11  C5  UNL     1       4.669   0.660   0.978  1.00  0.00     0.021 C 
HETATM   12  C6  UNL     1       5.390   1.689   0.140  1.00  0.00     0.051 C 
HETATM   13  C7  UNL     1       5.807   1.189  -1.189  1.00  0.00     0.060 C 
HETATM   14  N2  UNL     1       6.206  -0.159  -1.277  1.00  0.00    -0.382 N 
HETATM   15  C8  UNL     1       5.981  -1.026  -0.214  1.00  0.00     0.060 C 
ATOM     16  H2  UNL     1       6.662  -0.500  -2.124  1.00  0.00     0.163 HD
HETATM   17  C9  UNL     1       5.632  -0.496   1.117  1.00  0.00     0.051 C 
ENDBRANCH  10  11
ENDBRANCH   7  10
ENDBRANCH   6   7
ENDBRANCH   5   6
ENDBRANCH   2   5
BRANCH   3  18
HETATM   18  C10 UNL     1      -2.841  -1.878  -0.450  1.00  0.00     0.123 C 
BRANCH  18  19
HETATM   19  C11 UNL     1      -3.694  -0.712  -0.878  1.00  0.00     0.024 C 
BRANCH  19  20
HETATM   20  C12 UNL     1      -4.040   0.128   0.322  1.00  0.00    -0.010 C 
HETATM   21  C13 UNL     1      -4.806  -0.648   1.319  1.00  0.00     0.024 C 
HETATM   22  C14 UNL     1      -6.303  -0.568   1.163  1.00  0.00     0.114 C 
HETATM   23  N4  UNL     1      -6.769  -0.237  -0.137  1.00  0.00    -0.421 N 
HETATM   24  C15 UNL     1      -6.092   0.825  -0.794  1.00  0.00     0.114 C 
ATOM     25  H4  UNL     1      -7.545  -0.733  -0.574  1.00  0.00     0.153 HD
HETATM   26  C16 UNL     1      -4.890   1.336  -0.076  1.00  0.00     0.024 C 
ENDBRANCH  19  20
ENDBRANCH  18  19
ENDBRANCH   3  18
TORSDOF 8
