REMARK  12 active torsions:
REMARK  status: ('A' for Active; 'I' for Inactive)
REMARK    1  A    between atoms: N1_3  and  C3_5 
REMARK    2  A    between atoms: C4_8  and  N3_9 
REMARK    3  A    between atoms: C5_14  and  C6_15 
REMARK    4  A    between atoms: C7_16  and  C8_17 
REMARK    5  A    between atoms: C8_17  and  O1_18 
REMARK    6  A    between atoms: O1_18  and  C9_19 
REMARK    7  A    between atoms: C9_19  and  C10_20 
REMARK    8  A    between atoms: C12_22  and  C13_23 
REMARK    9  A    between atoms: C13_23  and  O2_24 
REMARK   10  A    between atoms: O2_24  and  C14_25 
REMARK   11  A    between atoms: C14_25  and  C15_26 
REMARK   12  A    between atoms: C15_26  and  C16_27 
ROOT
HETATM    1  C1  UNL     1      -3.426   5.825  -1.320  1.00  0.00     0.123 C 
HETATM    2  C2  UNL     1      -2.973   4.695  -1.235  1.00  0.00    -0.074 C 
HETATM    3  N1  UNL     1      -2.443   3.404  -1.158  1.00  0.00    -0.311 N 
ATOM      4  H1  UNL     1      -2.987   2.625  -1.528  1.00  0.00     0.177 HD
ENDROOT
BRANCH   3   5
HETATM    5  C3  UNL     1      -1.294   3.166  -0.637  1.00  0.00     0.139 A 
HETATM    6  N2  UNL     1      -0.540   4.139  -0.138  1.00  0.00    -0.176 N 
HETATM    7  C4  UNL     1       0.655   3.835   0.396  1.00  0.00     0.678 A 
ATOM      8  H2  UNL     1      -0.864   5.106  -0.160  1.00  0.00     0.186 HD
HETATM    9  N4  UNL     1       1.101   2.571   0.434  1.00  0.00    -0.183 N 
HETATM   10  C5  UNL     1       0.373   1.516  -0.064  1.00  0.00     0.115 A 
ATOM     11  H4  UNL     1       2.015   2.385   0.848  1.00  0.00     0.185 HD
HETATM   12  C12 UNL     1      -0.843   1.826  -0.606  1.00  0.00     0.047 A 
BRANCH   7  13
HETATM   13  N3  UNL     1       1.379   4.784   0.878  1.00  0.00    -0.234 N 
ATOM     14  H32 UNL     1       1.040   5.745   0.849  1.00  0.00     0.174 HD
ATOM     15  H31 UNL     1       2.286   4.553   1.283  1.00  0.00     0.174 HD
ENDBRANCH   7  13
BRANCH  10  16
HETATM   16  C6  UNL     1       0.929   0.198  -0.013  1.00  0.00    -0.045 C 
HETATM   17  C7  UNL     1       1.431  -0.893   0.031  1.00  0.00    -0.073 C 
BRANCH  17  18
HETATM   18  C8  UNL     1       2.076  -2.227   0.078  1.00  0.00     0.261 C 
BRANCH  18  19
HETATM   19  O1  UNL     1       2.381  -2.600   1.373  1.00  0.00    -0.376 OA
BRANCH  19  20
HETATM   20  C9  UNL     1       3.242  -1.688   1.947  1.00  0.00     0.195 C 
BRANCH  20  21
HETATM   21  C10 UNL     1       4.535  -1.528   1.261  1.00  0.00    -0.011 C 
HETATM   22  C11 UNL     1       5.694  -1.773   1.854  1.00  0.00     0.009 C 
ENDBRANCH  20  21
ENDBRANCH  19  20
ENDBRANCH  18  19
ENDBRANCH  17  18
ENDBRANCH  10  16
BRANCH  12  23
HETATM   23  C13 UNL     1      -1.721   0.819  -1.184  1.00  0.00     0.213 C 
BRANCH  23  24
HETATM   24  O2  UNL     1      -1.266  -0.472  -1.092  1.00  0.00    -0.386 OA
BRANCH  24  25
HETATM   25  C14 UNL     1      -2.195  -1.320  -1.740  1.00  0.00     0.168 C 
BRANCH  25  26
HETATM   26  C15 UNL     1      -1.778  -2.750  -1.617  1.00  0.00     0.026 C 
BRANCH  26  27
HETATM   27  C16 UNL     1      -1.735  -3.228  -0.187  1.00  0.00    -0.002 C 
HETATM   28  C17 UNL     1      -3.164  -3.062   0.348  1.00  0.00     0.005 C 
ENDBRANCH  26  27
ENDBRANCH  25  26
ENDBRANCH  24  25
ENDBRANCH  23  24
ENDBRANCH  12  23
ENDBRANCH   3   5
TORSDOF 12
