REMARK  4 active torsions:
REMARK  status: ('A' for Active; 'I' for Inactive)
REMARK    1  A    between atoms: N1_1  and  C1_4 
REMARK    2  A    between atoms: N3_9  and  N4_10 
REMARK    3  A    between atoms: N5_13  and  N6_14 
REMARK    4  A    between atoms: C3_16  and  C4_17 
ROOT
HETATM    1  N6  UNL     1      -0.749  -0.320   0.364  1.00  0.00    -0.273 N 
ATOM      2  H6  UNL     1      -0.310  -0.302   1.285  1.00  0.00     0.188 HD
HETATM    3  C3  UNL     1      -0.063  -0.045  -0.669  1.00  0.00     0.127 C 
ENDROOT
BRANCH   1   4
HETATM    4  N5  UNL     1      -2.086  -0.643   0.246  1.00  0.00     0.005 N 
HETATM    5  C1  UNL     1      -2.535  -1.822  -0.273  1.00  0.00     0.718 A 
HETATM    6  N2  UNL     1      -3.876  -1.748  -0.213  1.00  0.00    -0.136 N 
HETATM    7  C2  UNL     1      -4.259  -0.573   0.321  1.00  0.00     0.377 A 
ATOM      8  H2  UNL     1      -4.514  -2.479  -0.528  1.00  0.00     0.189 HD
HETATM    9  O1  UNL     1      -5.446  -0.161   0.529  1.00  0.00    -0.243 OA
HETATM   10  N3  UNL     1      -3.128   0.091   0.595  1.00  0.00    -0.111 N 
BRANCH   5  11
HETATM   11  N1  UNL     1      -1.813  -2.796  -0.723  1.00  0.00    -0.231 N 
ATOM     12  H12 UNL     1      -2.149  -3.678  -1.111  1.00  0.00     0.174 HD
ATOM     13  H11 UNL     1      -0.796  -2.852  -0.769  1.00  0.00     0.174 HD
ENDBRANCH   5  11
BRANCH  10  14
HETATM   14  N4  UNL     1      -3.119   1.378   1.172  1.00  0.00    -0.318 N 
ATOM     15  H42 UNL     1      -3.923   1.945   1.441  1.00  0.00     0.179 HD
ATOM     16  H41 UNL     1      -2.258   1.883   1.381  1.00  0.00     0.179 HD
ENDBRANCH  10  14
ENDBRANCH   1   4
BRANCH   3  17
HETATM   17  C4  UNL     1       1.369   0.306  -0.605  1.00  0.00     0.056 A 
HETATM   18  C5  UNL     1       2.088   0.600  -1.743  1.00  0.00     0.159 A 
HETATM   19  O2  UNL     1       3.358   0.912  -1.685  1.00  0.00    -0.314 OA
HETATM   20  C6  UNL     1       4.037   0.967  -0.546  1.00  0.00     0.173 A 
HETATM   21  C7  UNL     1       3.391   0.687   0.634  1.00  0.00     0.126 A 
HETATM   22  C9  UNL     1       5.304   1.218   0.115  1.00  0.00     0.282 A 
HETATM   23  C8  UNL     1       2.041   0.354   0.596  1.00  0.00     0.215 A 
HETATM   24  N7  UNL     1       4.616   0.925   1.319  1.00  0.00    -0.315 N 
HETATM   25  O3  UNL     1       1.437   0.097   1.648  1.00  0.00    -0.285 OA
ATOM     26  H7  UNL     1       4.893   0.896   2.300  1.00  0.00     0.169 HD
HETATM   27  O4  UNL     1       6.488   1.547  -0.221  1.00  0.00    -0.265 OA
ENDBRANCH   3  17
TORSDOF 4
