REMARK  5 active torsions:
REMARK  status: ('A' for Active; 'I' for Inactive)
REMARK    1  A    between atoms: O1_2  and  C2_3 
REMARK    2  A    between atoms: C2_3  and  C3_5 
REMARK    3  A    between atoms: C3_5  and  S1_6 
REMARK    4  A    between atoms: S1_6  and  O3_7 
REMARK    5  A    between atoms: C6_16  and  N4_17 
REMARK       I    between atoms: N4_17  and  C7_19 
ROOT
HETATM    1  C3  UNL     1       0.326   0.545  -0.774  1.00  0.00     0.211 C 
HETATM    2  C4  UNL     1       0.946   1.952  -0.782  1.00  0.00     0.105 C 
HETATM    3  N1  UNL     1       0.178   2.989  -0.260  1.00  0.00    -0.342 N 
ATOM      4  H1  UNL     1       0.430   3.947  -0.502  1.00  0.00     0.167 HD
HETATM    5  C5  UNL     1      -0.819   2.802   0.501  1.00  0.00     0.193 C 
HETATM    6  N2  UNL     1      -1.553   3.937   1.014  1.00  0.00    -0.063 NA
HETATM    7  N3  UNL     1      -1.268   1.508   0.700  1.00  0.00    -0.318 N 
ATOM      8  H3  UNL     1      -2.058   1.388   1.333  1.00  0.00     0.170 HD
HETATM    9  C6  UNL     1      -0.767   0.398   0.143  1.00  0.00     0.124 C 
ENDROOT
BRANCH   1  10
HETATM   10  C2  UNL     1       1.426  -0.403  -0.478  1.00  0.00     0.292 C 
HETATM   11  O2  UNL     1       1.995  -0.982  -1.445  1.00  0.00    -0.262 OA
BRANCH  10  12
HETATM   12  O1  UNL     1       1.848  -0.668   0.825  1.00  0.00    -0.325 OA
HETATM   13  C1  UNL     1       2.911  -1.588   0.981  1.00  0.00     0.213 C 
ENDBRANCH  10  12
ENDBRANCH   1  10
BRANCH   1  14
HETATM   14  S1  UNL     1      -0.147   0.333  -2.521  1.00  0.00     0.019 SA
BRANCH  14  15
HETATM   15  O3  UNL     1      -0.862  -1.076  -2.972  1.00  0.00    -0.328 OA
ATOM     16  H3  UNL     1      -1.109  -1.187  -3.883  1.00  0.00     0.227 HD
ENDBRANCH  14  15
ENDBRANCH   1  14
BRANCH   9  17
HETATM   17  N4  UNL     1      -1.424  -0.741   0.598  1.00  0.00    -0.298 N 
HETATM   18  C7  UNL     1      -1.268  -2.092   0.362  1.00  0.00     0.334 C 
HETATM   19  N5  UNL     1      -2.208  -2.985   1.057  1.00  0.00    -0.040 NA
HETATM   20  O4  UNL     1      -0.478  -2.750  -0.336  1.00  0.00    -0.251 OA
ATOM     21  H4  UNL     1      -2.184  -0.533   1.245  1.00  0.00     0.171 HD
ENDBRANCH   9  17
TORSDOF 5
