REMARK  10 active torsions:
REMARK  status: ('A' for Active; 'I' for Inactive)
REMARK    1  A    between atoms: C2_2  and  C4_4 
REMARK    2  A    between atoms: C5_6  and  O2_7 
REMARK    3  A    between atoms: O2_7  and  C6_8 
REMARK    4  A    between atoms: C6_8  and  C7_10 
REMARK    5  A    between atoms: C8_11  and  C9_12 
REMARK    6  A    between atoms: C9_12  and  N1_13 
REMARK    7  A    between atoms: C20_25  and  O5_26 
REMARK    8  A    between atoms: C23_30  and  C24_31 
REMARK    9  A    between atoms: C24_31  and  C25_32 
REMARK   10  A    between atoms: C24_31  and  C27_34 
ROOT
HETATM    1  C4  UNL     1      -1.626  -2.619   0.498  1.00  0.00     0.242 C 
HETATM    2  O1  UNL     1      -1.602  -1.722   1.534  1.00  0.00    -0.314 OA
HETATM    3  C5  UNL     1      -1.263  -0.374   1.140  1.00  0.00     0.288 C 
HETATM    4  C15 UNL     1      -2.388  -0.048   0.298  1.00  0.00     0.060 C 
HETATM    5  C16 UNL     1      -3.539  -0.223   1.222  1.00  0.00     0.026 C 
HETATM    6  C17 UNL     1      -2.118  -0.977  -0.847  1.00  0.00     0.151 C 
HETATM    7  O4  UNL     1      -1.175  -1.973  -0.619  1.00  0.00    -0.339 OA
HETATM    8  C18 UNL     1      -3.339  -1.445  -1.529  1.00  0.00     0.065 C 
HETATM    9  C19 UNL     1      -3.755  -2.633  -0.816  1.00  0.00     0.021 C 
HETATM   10  C20 UNL     1      -2.961  -3.160   0.109  1.00  0.00     0.109 C 
HETATM   11  C22 UNL     1      -4.171  -0.265  -1.701  1.00  0.00     0.179 C 
HETATM   12  O6  UNL     1      -4.021   0.852  -0.984  1.00  0.00    -0.384 OA
HETATM   13  C23 UNL     1      -2.761   1.171  -0.413  1.00  0.00     0.141 C 
ENDROOT
BRANCH   3  14
HETATM   14  O2  UNL     1       0.010  -0.502   0.766  1.00  0.00    -0.278 OA
BRANCH  14  15
HETATM   15  C6  UNL     1       1.181  -0.111   1.351  1.00  0.00     0.341 C 
HETATM   16  O3  UNL     1       0.964   0.458   2.411  1.00  0.00    -0.249 OA
BRANCH  15  17
HETATM   17  C7  UNL     1       2.498  -0.313   0.838  1.00  0.00     0.004 C 
HETATM   18  C8  UNL     1       3.603  -0.502   0.390  1.00  0.00    -0.066 C 
BRANCH  18  19
HETATM   19  C9  UNL     1       4.933  -0.752  -0.170  1.00  0.00     0.366 C 
BRANCH  19  20
HETATM   20  N1  UNL     1       5.306   0.401  -0.928  1.00  0.00     0.099 N 
HETATM   21  C10 UNL     1       5.528   1.506  -0.030  1.00  0.00     0.273 C 
HETATM   22  C11 UNL     1       6.375   2.591  -0.660  1.00  0.00     0.030 C 
HETATM   23  C12 UNL     1       7.783   2.088  -0.839  1.00  0.00     0.003 C 
HETATM   24  C13 UNL     1       7.748   0.576  -0.773  1.00  0.00     0.030 C 
HETATM   25  C14 UNL     1       6.565   0.110  -1.590  1.00  0.00     0.273 C 
ENDBRANCH  19  20
ENDBRANCH  18  19
ENDBRANCH  15  17
ENDBRANCH  14  15
ENDBRANCH   3  14
BRANCH   1  26
HETATM   26  C2  UNL     1      -0.705  -3.775   0.763  1.00  0.00    -0.025 C 
HETATM   27  C1  UNL     1       0.391  -3.912   0.030  1.00  0.00     0.020 C 
HETATM   28  C3  UNL     1      -0.987  -4.774   1.828  1.00  0.00     0.049 C 
ENDBRANCH   1  26
BRANCH  13  29
HETATM   29  C24 UNL     1      -2.953   2.474   0.214  1.00  0.00     0.015 C 
BRANCH  29  30
HETATM   30  C25 UNL     1      -3.344   3.432  -0.941  1.00  0.00     0.002 C 
HETATM   31  C26 UNL     1      -3.577   4.818  -0.379  1.00  0.00     0.005 C 
ENDBRANCH  29  30
BRANCH  29  32
HETATM   32  C27 UNL     1      -1.722   3.109   0.809  1.00  0.00     0.002 C 
HETATM   33  C28 UNL     1      -0.630   3.342  -0.195  1.00  0.00     0.005 C 
ENDBRANCH  29  32
ENDBRANCH  13  29
BRANCH  10  34
HETATM   34  O5  UNL     1      -3.395  -4.323   0.790  1.00  0.00    -0.355 OA
HETATM   35  C21 UNL     1      -4.703  -4.413   1.313  1.00  0.00     0.209 C 
ENDBRANCH  10  34
TORSDOF 10
