REMARK  8 active torsions:
REMARK  status: ('A' for Active; 'I' for Inactive)
REMARK    1  A    between atoms: C2_2  and  C3_3 
REMARK    2  A    between atoms: C3_3  and  C4_4 
REMARK    3  A    between atoms: C12_13  and  O1_14 
REMARK    4  A    between atoms: O1_14  and  C13_15 
REMARK    5  A    between atoms: C13_15  and  C14_16 
REMARK    6  A    between atoms: C14_16  and  C15_17 
REMARK    7  A    between atoms: C15_17  and  C16_18 
REMARK    8  A    between atoms: C16_18  and  N3_21 
ROOT
HETATM    1  C16 UNL     1       5.033   0.425  -0.630  1.00  0.00     0.187 C 
HETATM    2  C17 UNL     1       5.152   0.087   0.786  1.00  0.00     0.084 C 
HETATM    3  N2  UNL     1       5.266  -0.181   1.900  1.00  0.00    -0.195 NA
ENDROOT
BRANCH   1   4
HETATM    4  C15 UNL     1       3.678   1.053  -0.879  1.00  0.00     0.042 C 
BRANCH   4   5
HETATM    5  C14 UNL     1       2.670  -0.030  -0.459  1.00  0.00     0.030 C 
BRANCH   5   6
HETATM    6  C13 UNL     1       1.265   0.425  -0.650  1.00  0.00     0.176 C 
BRANCH   6   7
HETATM    7  O1  UNL     1       0.262  -0.441  -0.297  1.00  0.00    -0.350 OA
BRANCH   7   8
HETATM    8  C12 UNL     1      -0.045  -0.909   0.971  1.00  0.00     0.083 A 
HETATM    9  C11 UNL     1      -1.107  -1.829   1.110  1.00  0.00     0.011 A 
HETATM   10  C10 UNL     1      -2.158  -2.592   0.470  1.00  0.00     0.041 A 
HETATM   11  C24 UNL     1      -1.378  -2.264   2.348  1.00  0.00     0.071 A 
HETATM   12  C9  UNL     1      -3.266  -2.046  -0.307  1.00  0.00     0.033 C 
HETATM   13  C25 UNL     1      -2.473  -3.113   1.815  1.00  0.00     0.053 A 
HETATM   14  C8  UNL     1      -3.163  -0.877  -1.200  1.00  0.00    -0.000 C 
HETATM   15  C28 UNL     1      -4.592  -1.945   0.449  1.00  0.00     0.228 C 
HETATM   16  C4  UNL     1      -3.746   0.438  -0.783  1.00  0.00     0.018 C 
HETATM   17  C7  UNL     1      -4.169  -1.227  -2.368  1.00  0.00     0.036 C 
HETATM   18  C5  UNL     1      -5.090   0.320  -0.094  1.00  0.00     0.278 C 
HETATM   19  N1  UNL     1      -5.482  -1.054  -0.260  1.00  0.00     0.093 N 
HETATM   20  C6  UNL     1      -5.500  -1.369  -1.661  1.00  0.00     0.273 C 
HETATM   21  C27 UNL     1      -4.348  -1.564   1.887  1.00  0.00     0.037 C 
HETATM   22  C26 UNL     1      -3.744  -2.816   2.475  1.00  0.00     0.014 C 
HETATM   23  O4  UNL     1      -0.700  -1.865   3.413  1.00  0.00    -0.279 OA
HETATM   24  C23 UNL     1       0.278  -1.021   3.326  1.00  0.00     0.290 A 
HETATM   25  C22 UNL     1       0.621  -0.528   2.089  1.00  0.00     0.119 A 
HETATM   26  O3  UNL     1       0.951  -0.612   4.312  1.00  0.00    -0.260 OA
BRANCH  16  27
HETATM   27  C3  UNL     1      -2.845   1.422  -0.123  1.00  0.00     0.006 C 
BRANCH  27  28
HETATM   28  C2  UNL     1      -3.426   2.821  -0.100  1.00  0.00    -0.004 C 
HETATM   29  C1  UNL     1      -3.691   3.361  -1.476  1.00  0.00     0.005 C 
ENDBRANCH  27  28
ENDBRANCH  16  27
ENDBRANCH   7   8
ENDBRANCH   6   7
ENDBRANCH   5   6
ENDBRANCH   4   5
ENDBRANCH   1   4
BRANCH   1  30
HETATM   30  N3  UNL     1       6.145   1.172  -1.043  1.00  0.00    -0.392 N 
HETATM   31  C18 UNL     1       6.396   2.427  -0.447  1.00  0.00     0.144 C 
HETATM   32  C19 UNL     1       7.723   2.369   0.280  1.00  0.00     0.187 C 
HETATM   33  O2  UNL     1       8.735   1.808  -0.468  1.00  0.00    -0.388 OA
HETATM   34  C20 UNL     1       8.400   0.476  -0.756  1.00  0.00     0.187 C 
HETATM   35  C21 UNL     1       7.214   0.516  -1.697  1.00  0.00     0.144 C 
ENDBRANCH   1  30
TORSDOF 8
