REMARK  4 active torsions:
REMARK  status: ('A' for Active; 'I' for Inactive)
REMARK    1  A    between atoms: N1_2  and  N2_4 
REMARK    2  A    between atoms: C2_6  and  N3_7 
REMARK    3  A    between atoms: C2_6  and  C3_12 
REMARK    4  A    between atoms: N3_7  and  N4_9 
ROOT
HETATM    1  N2  UNL     1       1.373  -1.021   0.066  1.00  0.00    -0.286 N 
ATOM      2  H2  UNL     1       1.895  -1.846   0.361  1.00  0.00     0.188 HD
HETATM    3  C2  UNL     1       0.116  -0.975   0.329  1.00  0.00     0.180 C 
ENDROOT
BRANCH   3   4
HETATM    4  N3  UNL     1      -0.468  -2.067   1.009  1.00  0.00    -0.288 N 
ATOM      5  H3  UNL     1      -0.206  -2.227   1.982  1.00  0.00     0.188 HD
BRANCH   4   6
HETATM    6  N4  UNL     1      -1.383  -2.937   0.421  1.00  0.00    -0.343 N 
ATOM      7  H42 UNL     1      -1.634  -2.762  -0.552  1.00  0.00     0.176 HD
ATOM      8  H41 UNL     1      -1.805  -3.725   0.912  1.00  0.00     0.176 HD
ENDBRANCH   4   6
ENDBRANCH   3   4
BRANCH   3   9
HETATM    9  C3  UNL     1      -0.719   0.155  -0.048  1.00  0.00     0.168 A 
HETATM   10  N5  UNL     1      -2.039   0.155  -0.356  1.00  0.00    -0.333 N 
HETATM   11  C4  UNL     1      -2.441   1.411  -0.652  1.00  0.00     0.199 A 
ATOM     12  H5  UNL     1      -2.639  -0.670  -0.363  1.00  0.00     0.168 HD
HETATM   13  N6  UNL     1      -1.354   2.204  -0.526  1.00  0.00    -0.294 N 
HETATM   14  N7  UNL     1      -0.334   1.443  -0.165  1.00  0.00    -0.281 N 
ATOM     15  H6  UNL     1      -1.325   3.212  -0.682  1.00  0.00     0.187 HD
ATOM     16  H7  UNL     1       0.613   1.783   0.002  1.00  0.00     0.188 HD
ENDBRANCH   3   9
BRANCH   1  17
HETATM   17  N1  UNL     1       2.066  -0.010  -0.599  1.00  0.00    -0.339 N 
HETATM   18  C1  UNL     1       2.841   0.905   0.221  1.00  0.00     0.167 C 
ATOM     19  H1  UNL     1       2.030   0.083  -1.614  1.00  0.00     0.179 HD
ENDBRANCH   1  17
TORSDOF 4
