REMARK  7 active torsions:
REMARK  status: ('A' for Active; 'I' for Inactive)
REMARK    1  A    between atoms: O1_2  and  C2_3 
REMARK    2  A    between atoms: C3_4  and  C4_5 
REMARK    3  A    between atoms: N3_18  and  C11_20 
REMARK    4  A    between atoms: C11_20  and  C12_21 
REMARK    5  A    between atoms: C12_21  and  C13_22 
REMARK    6  A    between atoms: C13_22  and  O2_23 
REMARK    7  A    between atoms: O2_23  and  N4_24 
ROOT
HETATM    1  C2  UNL     1      -0.610  -0.898  -0.069  1.00  0.00     0.118 A 
HETATM    2  C3  UNL     1      -1.579  -0.321   0.664  1.00  0.00     0.001 A 
HETATM    3  C9  UNL     1      -1.127   0.697   1.528  1.00  0.00     0.100 A 
HETATM    4  N2  UNL     1       0.165   1.052   1.608  1.00  0.00    -0.349 N 
ATOM      5  H2  UNL     1       0.426   1.796   2.255  1.00  0.00     0.167 HD
HETATM    6  C10 UNL     1       1.145   0.462   0.863  1.00  0.00     0.143 A 
HETATM    7  N3  UNL     1       2.355   0.827   0.970  1.00  0.00    -0.374 N 
ATOM      8  H3  UNL     1       2.541   1.576   1.637  1.00  0.00     0.161 HD
HETATM    9  C14 UNL     1       0.754  -0.525   0.015  1.00  0.00     0.193 A 
HETATM   10  F2  UNL     1       1.627  -1.191  -0.780  1.00  0.00    -0.199 F 
ENDROOT
BRANCH   2  11
HETATM   11  C4  UNL     1      -2.952  -0.671   0.695  1.00  0.00     0.060 C 
HETATM   12  C5  UNL     1      -3.777   0.278   1.602  1.00  0.00     0.040 C 
HETATM   13  C6  UNL     1      -4.105   1.553   0.914  1.00  0.00     0.233 C 
HETATM   14  N1  UNL     1      -4.931   1.262  -0.243  1.00  0.00    -0.072 N 
HETATM   15  C7  UNL     1      -4.255   0.378  -1.173  1.00  0.00     0.270 C 
ATOM     16  H12 UNL     1      -5.840   0.889   0.032  1.00  0.00     0.277 HD
ATOM     17  H11 UNL     1      -5.243   2.117  -0.702  1.00  0.00     0.277 HD
HETATM   18  C8  UNL     1      -3.821  -0.885  -0.454  1.00  0.00     0.204 C 
HETATM   19  F1  UNL     1      -5.078  -1.280   0.126  1.00  0.00    -0.247 F 
ENDBRANCH   2  11
BRANCH   1  20
HETATM   20  O1  UNL     1      -0.888  -1.890  -0.960  1.00  0.00    -0.352 OA
HETATM   21  C1  UNL     1      -1.040  -1.466  -2.333  1.00  0.00     0.210 C 
ENDBRANCH   1  20
BRANCH   7  22
HETATM   22  C11 UNL     1       3.470   0.321   0.278  1.00  0.00     0.123 C 
BRANCH  22  23
HETATM   23  C12 UNL     1       4.714   1.120   0.700  1.00  0.00     0.048 C 
BRANCH  23  24
HETATM   24  C13 UNL     1       5.872   0.525  -0.079  1.00  0.00     0.202 C 
BRANCH  24  25
HETATM   25  O2  UNL     1       5.980  -0.834   0.269  1.00  0.00    -0.287 OA
BRANCH  25  26
HETATM   26  N4  UNL     1       7.019  -1.372  -0.427  1.00  0.00    -0.311 N 
ATOM     27  H42 UNL     1       7.609  -0.863  -1.085  1.00  0.00     0.184 HD
ATOM     28  H41 UNL     1       7.097  -2.357  -0.175  1.00  0.00     0.184 HD
ENDBRANCH  25  26
ENDBRANCH  24  25
ENDBRANCH  23  24
ENDBRANCH  22  23
ENDBRANCH   7  22
TORSDOF 7
