REMARK  7 active torsions:
REMARK  status: ('A' for Active; 'I' for Inactive)
REMARK    1  A    between atoms: N1_4  and  O1_6 
REMARK    2  A    between atoms: O1_6  and  C4_7 
REMARK    3  A    between atoms: C4_7  and  C5_8 
REMARK    4  A    between atoms: C12_16  and  O3_17 
REMARK    5  A    between atoms: C13_19  and  O4_20 
REMARK    6  A    between atoms: C17_25  and  C18_26 
REMARK    7  A    between atoms: C18_26  and  C19_27 
ROOT
HETATM    1  C1  UNL     1      -0.752   1.321   2.110  1.00  0.00     0.021 C 
HETATM    2  C2  UNL     1      -0.230   0.439   1.290  1.00  0.00    -0.034 C 
HETATM    3  C3  UNL     1      -1.054  -0.327   0.365  1.00  0.00     0.071 C 
HETATM    4  N1  UNL     1      -2.124   0.094  -0.140  1.00  0.00    -0.265 N 
ATOM      5  H1  UNL     1      -2.492  -0.640  -0.745  1.00  0.00     0.194 HD
HETATM    6  C10 UNL     1      -0.561  -1.662   0.010  1.00  0.00     0.002 A 
HETATM    7  C11 UNL     1      -1.297  -2.460  -0.881  1.00  0.00     0.053 A 
HETATM    8  C12 UNL     1      -0.880  -3.719  -1.255  1.00  0.00     0.099 A 
HETATM    9  C13 UNL     1       0.305  -4.153  -0.703  1.00  0.00     0.099 A 
HETATM   10  C14 UNL     1       1.050  -3.410   0.166  1.00  0.00     0.047 A 
HETATM   11  C15 UNL     1       0.599  -2.117   0.535  1.00  0.00    -0.042 A 
HETATM   12  C16 UNL     1       1.399  -1.329   1.470  1.00  0.00     0.049 C 
HETATM   13  C17 UNL     1       1.274   0.179   1.302  1.00  0.00     0.025 C 
ENDROOT
BRANCH   4  14
HETATM   14  O1  UNL     1      -2.901   1.046  -0.190  1.00  0.00    -0.275 OA
BRANCH  14  15
HETATM   15  C4  UNL     1      -3.769   2.045  -0.178  1.00  0.00     0.242 C 
BRANCH  15  16
HETATM   16  C5  UNL     1      -5.204   1.616  -0.216  1.00  0.00    -0.001 A 
HETATM   17  C6  UNL     1      -5.713   0.337  -0.261  1.00  0.00     0.036 A 
HETATM   18  C7  UNL     1      -7.075   0.449  -0.283  1.00  0.00     0.142 A 
HETATM   19  O2  UNL     1      -7.371   1.724  -0.252  1.00  0.00    -0.327 OA
HETATM   20  C8  UNL     1      -6.283   2.465  -0.212  1.00  0.00     0.057 A 
HETATM   21  C9  UNL     1      -6.242   3.949  -0.169  1.00  0.00     0.077 C 
ENDBRANCH  15  16
ENDBRANCH  14  15
ENDBRANCH   4  14
BRANCH  13  22
HETATM   22  C18 UNL     1       1.773   0.717   0.027  1.00  0.00     0.014 C 
BRANCH  22  23
HETATM   23  C19 UNL     1       3.190   0.670  -0.321  1.00  0.00    -0.008 C 
HETATM   24  C20 UNL     1       4.140   1.372   0.603  1.00  0.00     0.005 C 
HETATM   25  C21 UNL     1       5.572   1.033   0.154  1.00  0.00     0.006 C 
HETATM   26  C22 UNL     1       5.645   0.891  -1.347  1.00  0.00     0.079 C 
HETATM   27  C23 UNL     1       4.887  -0.378  -1.743  1.00  0.00     0.244 C 
HETATM   28  F1  UNL     1       5.754  -1.423  -1.847  1.00  0.00    -0.206 F 
HETATM   29  F2  UNL     1       4.298  -0.106  -2.965  1.00  0.00    -0.206 F 
HETATM   30  C24 UNL     1       3.786  -0.658  -0.695  1.00  0.00     0.083 C 
ENDBRANCH  22  23
ENDBRANCH  13  22
BRANCH   8  31
HETATM   31  O3  UNL     1      -1.618  -4.501  -2.139  1.00  0.00    -0.358 OA
ATOM     32  H3  UNL     1      -1.331  -5.369  -2.397  1.00  0.00     0.217 HD
ENDBRANCH   8  31
BRANCH   9  33
HETATM   33  O4  UNL     1       0.740  -5.418  -1.069  1.00  0.00    -0.358 OA
ATOM     34  H4  UNL     1       1.557  -5.717  -0.688  1.00  0.00     0.217 HD
ENDBRANCH   9  33
TORSDOF 7
