REMARK  7 active torsions:
REMARK  status: ('A' for Active; 'I' for Inactive)
REMARK    1  A    between atoms: C6_6  and  O1_7 
REMARK    2  A    between atoms: C8_9  and  C9_10 
REMARK    3  A    between atoms: C9_10  and  C10_11 
REMARK    4  A    between atoms: C14_15  and  O2_16 
REMARK    5  A    between atoms: C16_19  and  C17_20 
REMARK    6  A    between atoms: C20_23  and  O4_24 
REMARK    7  A    between atoms: C21_26  and  O5_27 
ROOT
HETATM    1  C1  UNL     1      -0.743  -1.782  -2.490  1.00  0.00     0.021 C 
HETATM    2  C2  UNL     1      -0.962  -0.862  -1.621  1.00  0.00    -0.030 C 
HETATM    3  C3  UNL     1      -0.110  -0.696  -0.456  1.00  0.00     0.038 A 
HETATM    4  C4  UNL     1      -0.773  -0.264   0.703  1.00  0.00     0.086 A 
HETATM    5  C5  UNL     1       0.006  -0.097   1.849  1.00  0.00     0.075 A 
HETATM    6  C6  UNL     1       1.353  -0.344   1.842  1.00  0.00     0.080 A 
HETATM    7  C8  UNL     1       1.967  -0.774   0.660  1.00  0.00     0.013 A 
HETATM    8  C14 UNL     1       1.241  -0.949  -0.490  1.00  0.00     0.091 A 
HETATM    9  O3  UNL     1      -2.131  -0.016   0.714  1.00  0.00    -0.338 OA
HETATM   10  C16 UNL     1      -2.916  -0.231  -0.419  1.00  0.00     0.188 C 
HETATM   11  C23 UNL     1      -2.146   0.075  -1.679  1.00  0.00     0.149 C 
HETATM   12 CL1  UNL     1      -1.543   1.730  -1.586  1.00  0.00    -0.117 Cl
ENDROOT
BRANCH  10  13
HETATM   13  C17 UNL     1      -4.225   0.465  -0.379  1.00  0.00     0.015 A 
HETATM   14  C18 UNL     1      -4.700   1.268  -1.390  1.00  0.00     0.016 A 
HETATM   15  C19 UNL     1      -5.925   1.904  -1.329  1.00  0.00     0.040 A 
HETATM   16  C20 UNL     1      -6.714   1.737  -0.218  1.00  0.00     0.102 A 
HETATM   17  C21 UNL     1      -6.246   0.928   0.813  1.00  0.00     0.138 A 
HETATM   18  C22 UNL     1      -5.025   0.308   0.726  1.00  0.00     0.161 A 
HETATM   19  F1  UNL     1      -4.615  -0.463   1.743  1.00  0.00    -0.202 F 
BRANCH  16  20
HETATM   20  O4  UNL     1      -7.949   2.352  -0.107  1.00  0.00    -0.358 OA
ATOM     21  H4  UNL     1      -8.495   2.236   0.662  1.00  0.00     0.217 HD
ENDBRANCH  16  20
BRANCH  17  22
HETATM   22  O5  UNL     1      -7.059   0.768   1.935  1.00  0.00    -0.355 OA
ATOM     23  H5  UNL     1      -6.740   0.216   2.639  1.00  0.00     0.218 HD
ENDBRANCH  17  22
ENDBRANCH  10  13
BRANCH   8  24
HETATM   24  O2  UNL     1       1.791  -1.363  -1.694  1.00  0.00    -0.354 OA
HETATM   25  C15 UNL     1       2.256  -0.393  -2.652  1.00  0.00     0.210 C 
ENDBRANCH   8  24
BRANCH   6  26
HETATM   26  O1  UNL     1       2.168  -0.196   2.948  1.00  0.00    -0.355 OA
HETATM   27  C7  UNL     1       1.555   0.237   4.151  1.00  0.00     0.210 C 
ENDBRANCH   6  26
BRANCH   7  28
HETATM   28  C9  UNL     1       3.401  -1.065   0.727  1.00  0.00     0.072 C 
BRANCH  28  29
HETATM   29  C10 UNL     1       4.287   0.092   0.793  1.00  0.00    -0.020 C 
HETATM   30  C11 UNL     1       5.350   0.277   0.048  1.00  0.00    -0.091 C 
HETATM   31  C12 UNL     1       6.189   1.540   0.218  1.00  0.00     0.042 C 
HETATM   32  C13 UNL     1       5.852  -0.677  -0.958  1.00  0.00     0.042 C 
ENDBRANCH  28  29
ENDBRANCH   7  28
TORSDOF 7
