REMARK  7 active torsions:
REMARK  status: ('A' for Active; 'I' for Inactive)
REMARK    1  A    between atoms: C6_6  and  C8_8 
REMARK    2  A    between atoms: C11_11  and  O1_12 
REMARK    3  A    between atoms: O1_12  and  C12_13 
REMARK    4  A    between atoms: C13_15  and  C14_16 
REMARK    5  A    between atoms: C14_16  and  N2_21 
REMARK    6  A    between atoms: N1_17  and  O2_19 
REMARK    7  A    between atoms: N2_21  and  C15_23 
ROOT
HETATM    1  C15 UNL     1       9.294   0.336  -0.158  1.00  0.00     0.245 C 
HETATM    2  C16 UNL     1       8.982   1.128   1.036  1.00  0.00     0.078 C 
HETATM    3  N3  UNL     1       8.741   1.778   1.969  1.00  0.00    -0.196 NA
ENDROOT
BRANCH   1   4
HETATM    4  N2  UNL     1       8.169  -0.531  -0.488  1.00  0.00    -0.361 N 
ATOM      5  H2  UNL     1       8.266  -1.541  -0.382  1.00  0.00     0.162 HD
BRANCH   4   6
HETATM    6  C14 UNL     1       6.945   0.005  -0.952  1.00  0.00     0.139 C 
HETATM    7  N1  UNL     1       6.907   0.909  -1.833  1.00  0.00    -0.252 N 
ATOM      8  H1  UNL     1       7.801   1.229  -2.205  1.00  0.00     0.196 HD
BRANCH   6   9
HETATM    9  C13 UNL     1       5.687  -0.516  -0.355  1.00  0.00     0.056 A 
HETATM   10  S1  UNL     1       4.260   0.292   0.034  1.00  0.00    -0.058 SA
HETATM   11  C12 UNL     1       3.336  -1.057   0.699  1.00  0.00     0.156 A 
HETATM   12  C18 UNL     1       4.236  -2.076   0.565  1.00  0.00     0.158 A 
HETATM   13  C17 UNL     1       5.436  -1.803   0.027  1.00  0.00     0.068 A 
HETATM   14  F1  UNL     1       3.892  -3.351   1.025  1.00  0.00    -0.203 F 
BRANCH  11  15
HETATM   15  O1  UNL     1       2.078  -0.957   1.188  1.00  0.00    -0.297 OA
BRANCH  15  16
HETATM   16  C11 UNL     1       0.818  -1.082   0.779  1.00  0.00     0.115 A 
HETATM   17  C10 UNL     1       0.037   0.109   0.882  1.00  0.00     0.041 A 
HETATM   18  C9  UNL     1      -1.257   0.130   0.517  1.00  0.00     0.011 A 
HETATM   19  C8  UNL     1      -1.927  -0.973   0.023  1.00  0.00    -0.047 A 
HETATM   20  C20 UNL     1      -1.169  -2.119  -0.078  1.00  0.00     0.053 A 
HETATM   21  C19 UNL     1       0.152  -2.172   0.287  1.00  0.00     0.150 A 
HETATM   22  F2  UNL     1       0.759  -3.357   0.131  1.00  0.00    -0.203 F 
BRANCH  19  23
HETATM   23  C6  UNL     1      -3.366  -0.867  -0.298  1.00  0.00    -0.017 C 
HETATM   24  C5  UNL     1      -3.706  -0.059  -1.489  1.00  0.00     0.015 C 
HETATM   25  C4  UNL     1      -4.116   1.343  -1.291  1.00  0.00     0.010 C 
HETATM   26  C2  UNL     1      -4.826   1.698  -0.040  1.00  0.00    -0.048 C 
HETATM   27  C1  UNL     1      -4.497   3.149   0.271  1.00  0.00     0.015 C 
HETATM   28  C3  UNL     1      -6.348   1.666  -0.275  1.00  0.00     0.015 C 
HETATM   29  C22 UNL     1      -4.470   0.888   1.174  1.00  0.00     0.010 C 
HETATM   30  C21 UNL     1      -4.178  -0.530   0.930  1.00  0.00     0.015 C 
HETATM   31  C7  UNL     1      -3.808  -2.316  -0.625  1.00  0.00     0.020 C 
ENDBRANCH  19  23
ENDBRANCH  15  16
ENDBRANCH  11  15
ENDBRANCH   6   9
BRANCH   7  32
HETATM   32  O2  UNL     1       5.778   1.500  -2.336  1.00  0.00    -0.288 OA
ATOM     33  H2  UNL     1       5.749   2.180  -2.999  1.00  0.00     0.244 HD
ENDBRANCH   7  32
ENDBRANCH   4   6
ENDBRANCH   1   4
TORSDOF 7
