REMARK  7 active torsions:
REMARK  status: ('A' for Active; 'I' for Inactive)
REMARK    1  A    between atoms: O1_2  and  C2_3 
REMARK    2  A    between atoms: C5_6  and  N1_7 
REMARK    3  A    between atoms: N1_7  and  C6_9 
REMARK    4  A    between atoms: C7_12  and  C8_13 
REMARK    5  A    between atoms: C10_15  and  C11_16 
REMARK    6  A    between atoms: C11_16  and  N3_17 
REMARK    7  A    between atoms: N3_17  and  C12_19 
ROOT
HETATM    1  C6  UNL     1       3.170   0.643  -0.056  1.00  0.00     0.152 A 
HETATM    2  N2  UNL     1       1.915   0.587  -0.434  1.00  0.00    -0.332 N 
ATOM      3  H2  UNL     1       1.692   0.313  -1.391  1.00  0.00     0.168 HD
HETATM    4  C7  UNL     1       0.924   0.882   0.411  1.00  0.00     0.098 A 
HETATM    5  C18 UNL     1       1.317   1.247   1.668  1.00  0.00     0.188 A 
HETATM    6  F1  UNL     1       0.561   1.596   2.763  1.00  0.00    -0.196 F 
HETATM    7  S2  UNL     1       3.018   1.137   1.573  1.00  0.00    -0.021 SA
ENDROOT
BRANCH   4   8
HETATM    8  C8  UNL     1      -0.454   0.461   0.053  1.00  0.00     0.036 A 
HETATM    9  C9  UNL     1      -1.718   0.805   0.303  1.00  0.00     0.035 A 
HETATM   10  C10 UNL     1      -2.733  -0.005  -0.173  1.00  0.00    -0.007 A 
HETATM   11  C16 UNL     1      -2.282  -1.153  -0.872  1.00  0.00    -0.009 A 
HETATM   12  C17 UNL     1      -3.167  -2.281  -1.372  1.00  0.00     0.057 C 
HETATM   13  S1  UNL     1      -0.631  -1.037  -0.849  1.00  0.00    -0.092 SA
BRANCH  10  14
HETATM   14  C11 UNL     1      -4.173   0.331  -0.295  1.00  0.00     0.096 C 
BRANCH  14  15
HETATM   15  N3  UNL     1      -5.022   0.221   0.817  1.00  0.00    -0.390 N 
ATOM     16  H3  UNL     1      -4.681   0.037   1.761  1.00  0.00     0.159 HD
BRANCH  15  17
HETATM   17  C12 UNL     1      -6.428   0.392   0.503  1.00  0.00     0.018 C 
HETATM   18  C13 UNL     1      -6.789  -0.663  -0.600  1.00  0.00     0.037 C 
HETATM   19  C14 UNL     1      -7.309  -0.069   1.644  1.00  0.00     0.037 C 
HETATM   20  C15 UNL     1      -6.907   1.686   0.019  1.00  0.00     0.037 C 
ENDBRANCH  15  17
ENDBRANCH  14  15
ENDBRANCH  10  14
ENDBRANCH   4   8
BRANCH   1  21
HETATM   21  N1  UNL     1       4.200   0.369  -0.728  1.00  0.00    -0.336 N 
ATOM     22  H1  UNL     1       4.007   0.098  -1.692  1.00  0.00     0.168 HD
BRANCH  21  23
HETATM   23  C5  UNL     1       5.554   0.367  -0.399  1.00  0.00     0.037 A 
HETATM   24  C4  UNL     1       6.098  -0.930  -0.146  1.00  0.00     0.032 A 
HETATM   25  C3  UNL     1       7.376  -1.079   0.232  1.00  0.00     0.042 A 
HETATM   26  C2  UNL     1       8.239  -0.007   0.395  1.00  0.00     0.106 A 
HETATM   27  C20 UNL     1       7.702   1.233   0.144  1.00  0.00     0.151 A 
HETATM   28  C19 UNL     1       6.373   1.425  -0.243  1.00  0.00     0.074 A 
HETATM   29  F2  UNL     1       8.550   2.323   0.301  1.00  0.00    -0.203 F 
BRANCH  26  30
HETATM   30  O1  UNL     1       9.481  -0.305   0.777  1.00  0.00    -0.353 OA
HETATM   31  C1  UNL     1      10.356  -1.232   1.105  1.00  0.00     0.210 C 
ENDBRANCH  26  30
ENDBRANCH  21  23
ENDBRANCH   1  21
TORSDOF 7
