REMARK  7 active torsions:
REMARK  status: ('A' for Active; 'I' for Inactive)
REMARK    1  A    between atoms: C2_2  and  C3_3 
REMARK    2  A    between atoms: C3_3  and  C4_4 
REMARK    3  A    between atoms: C4_4  and  N1_6 
REMARK    4  A    between atoms: N1_6  and  C6_8 
REMARK    5  A    between atoms: C7_12  and  C8_13 
REMARK    6  A    between atoms: C11_18  and  N5_19 
REMARK    7  A    between atoms: N5_19  and  C12_21 
ROOT
HETATM    1  C6  UNL     1      -3.664  -1.139   0.331  1.00  0.00     0.159 A 
HETATM    2  N2  UNL     1      -2.303  -1.231   0.552  1.00  0.00    -0.276 N 
ATOM      3  H2  UNL     1      -1.679  -0.679  -0.036  1.00  0.00     0.189 HD
HETATM    4  N3  UNL     1      -1.773  -1.990   1.477  1.00  0.00    -0.249 N 
HETATM    5  C7  UNL     1      -0.494  -2.189   1.815  1.00  0.00     0.091 A 
HETATM    6  C18 UNL     1      -0.429  -3.083   2.857  1.00  0.00     0.037 A 
HETATM    7  C19 UNL     1      -1.706  -3.461   3.189  1.00  0.00     0.037 A 
HETATM    8  C20 UNL     1      -2.522  -2.755   2.303  1.00  0.00     0.099 A 
HETATM    9  C21 UNL     1      -3.886  -2.714   2.140  1.00  0.00     0.187 A 
HETATM   10  F1  UNL     1      -4.651  -3.468   2.952  1.00  0.00    -0.200 F 
HETATM   11  C22 UNL     1      -4.447  -1.903   1.152  1.00  0.00     0.202 A 
HETATM   12  F2  UNL     1      -5.807  -1.915   1.052  1.00  0.00    -0.199 F 
ENDROOT
BRANCH   5  13
HETATM   13  C8  UNL     1       0.714  -1.575   1.202  1.00  0.00     0.105 A 
HETATM   14  N4  UNL     1       0.818  -0.723   0.228  1.00  0.00    -0.350 N 
HETATM   15  C9  UNL     1       1.976  -0.286  -0.183  1.00  0.00     0.040 A 
ATOM     16  H4  UNL     1      -0.030  -0.386  -0.229  1.00  0.00     0.166 HD
HETATM   17  C10 UNL     1       2.049   0.683  -1.355  1.00  0.00     0.071 C 
HETATM   18  C11 UNL     1       3.088  -0.751   0.446  1.00  0.00     0.094 A 
HETATM   19  S1  UNL     1       2.345  -1.824   1.624  1.00  0.00    -0.051 SA
BRANCH  18  20
HETATM   20  N5  UNL     1       4.480  -0.513   0.339  1.00  0.00    -0.378 N 
ATOM     21  H5  UNL     1       5.051  -1.120   0.927  1.00  0.00     0.160 HD
BRANCH  20  22
HETATM   22  C12 UNL     1       5.228   0.411  -0.433  1.00  0.00     0.082 C 
HETATM   23  C13 UNL     1       5.149   1.829   0.085  1.00  0.00     0.025 C 
HETATM   24  C14 UNL     1       6.132   2.113   1.201  1.00  0.00     0.002 C 
HETATM   25  C15 UNL     1       7.522   1.923   0.629  1.00  0.00     0.000 C 
HETATM   26  C16 UNL     1       7.634   0.429   0.358  1.00  0.00     0.002 C 
HETATM   27  C17 UNL     1       6.661  -0.038  -0.659  1.00  0.00     0.025 C 
ENDBRANCH  20  22
ENDBRANCH  18  20
ENDBRANCH   5  13
BRANCH   1  28
HETATM   28  N1  UNL     1      -4.088  -0.410  -0.552  1.00  0.00    -0.368 N 
ATOM     29  H1  UNL     1      -3.259   0.010  -0.973  1.00  0.00     0.161 HD
BRANCH  28  30
HETATM   30  C4  UNL     1      -5.139   0.108  -1.241  1.00  0.00     0.079 C 
HETATM   31  C5  UNL     1      -6.157  -0.845  -1.836  1.00  0.00     0.032 C 
BRANCH  30  32
HETATM   32  C3  UNL     1      -5.842   1.215  -0.465  1.00  0.00     0.024 C 
BRANCH  32  33
HETATM   33  C2  UNL     1      -6.760   2.008  -1.377  1.00  0.00    -0.003 C 
HETATM   34  C1  UNL     1      -6.033   2.660  -2.511  1.00  0.00     0.005 C 
ENDBRANCH  32  33
ENDBRANCH  30  32
ENDBRANCH  28  30
ENDBRANCH   1  28
TORSDOF 7
