REMARK  10 active torsions:
REMARK  status: ('A' for Active; 'I' for Inactive)
REMARK    1  A    between atoms: C3_5  and  N3_6 
REMARK    2  A    between atoms: N3_6  and  O1_8 
REMARK    3  A    between atoms: C5_12  and  C6_13 
REMARK       I    between atoms: C6_13  and  N5_15 
REMARK    4  A    between atoms: N5_15  and  C7_17 
REMARK    5  A    between atoms: C8_18  and  N6_19 
REMARK    6  A    between atoms: N8_28  and  C11_29 
REMARK    7  A    between atoms: C11_29  and  C12_30 
REMARK       I    between atoms: C12_30  and  N9_32 
REMARK    8  A    between atoms: N9_32  and  C13_34 
REMARK    9  A    between atoms: C13_34  and  C14_35 
REMARK   10  A    between atoms: C13_34  and  C15_38 
ROOT
HETATM    1  C7  UNL     1       0.267  -2.400  -0.899  1.00  0.00     0.154 A 
HETATM    2  C8  UNL     1       0.506  -3.375  -1.924  1.00  0.00     0.214 A 
HETATM    3  C9  UNL     1      -0.306  -4.460  -2.110  1.00  0.00     0.286 A 
HETATM    4  O5  UNL     1      -0.097  -5.320  -3.012  1.00  0.00    -0.265 OA
HETATM    5  N7  UNL     1      -1.357  -4.618  -1.313  1.00  0.00    -0.273 N 
ATOM      6  H7  UNL     1      -1.976  -5.419  -1.435  1.00  0.00     0.173 HD
HETATM    7  C10 UNL     1      -1.598  -3.730  -0.358  1.00  0.00     0.331 A 
HETATM    8  O6  UNL     1      -2.605  -3.923   0.371  1.00  0.00    -0.246 OA
HETATM    9  N8  UNL     1      -0.780  -2.626  -0.161  1.00  0.00    -0.274 N 
ENDROOT
BRANCH   1  10
HETATM   10  N5  UNL     1       1.244  -1.444  -0.757  1.00  0.00    -0.305 N 
HETATM   11  C6  UNL     1       1.459  -0.184  -0.267  1.00  0.00     0.276 C 
HETATM   12  O2  UNL     1       0.504   0.592   0.106  1.00  0.00    -0.266 OA
ATOM     13  H5  UNL     1       2.114  -1.797  -1.157  1.00  0.00     0.170 HD
BRANCH  11  14
HETATM   14  C5  UNL     1       2.773   0.472  -0.091  1.00  0.00     0.131 A 
HETATM   15  N1  UNL     1       4.008   0.036  -0.261  1.00  0.00    -0.332 N 
HETATM   16  C1  UNL     1       4.497  -1.250  -0.683  1.00  0.00     0.158 C 
HETATM   17  C2  UNL     1       4.906   1.035   0.062  1.00  0.00     0.149 A 
HETATM   18  N2  UNL     1       6.320   0.908  -0.012  1.00  0.00    -0.080 NA
HETATM   19  C3  UNL     1       4.173   2.123   0.445  1.00  0.00     0.122 A 
HETATM   20  C4  UNL     1       2.857   1.808   0.363  1.00  0.00     0.110 A 
HETATM   21  N4  UNL     1       1.805   2.670   0.674  1.00  0.00    -0.097 NA
BRANCH  19  22
HETATM   22  N3  UNL     1       4.760   3.354   0.854  1.00  0.00    -0.264 N 
ATOM     23  H3  UNL     1       4.938   4.101   0.183  1.00  0.00     0.194 HD
BRANCH  22  24
HETATM   24  O1  UNL     1       5.052   3.490   2.070  1.00  0.00    -0.289 OA
ATOM     25  H1  UNL     1       5.444   4.311   2.343  1.00  0.00     0.244 HD
ENDBRANCH  22  24
ENDBRANCH  19  22
ENDBRANCH  11  14
ENDBRANCH   1  10
BRANCH   2  26
HETATM   26  N6  UNL     1       1.613  -3.176  -2.768  1.00  0.00    -0.106 N 
HETATM   27  O3  UNL     1       1.581  -2.286  -3.621  1.00  0.00    -0.531 OA
HETATM   28  O4  UNL     1       2.714  -3.963  -2.643  1.00  0.00    -0.531 OA
ENDBRANCH   2  26
BRANCH   9  29
HETATM   29  C11 UNL     1      -1.229  -1.805   0.921  1.00  0.00     0.238 C 
BRANCH  29  30
HETATM   30  C12 UNL     1      -2.333  -0.928   0.386  1.00  0.00     0.237 C 
HETATM   31  O7  UNL     1      -2.709  -0.999  -0.812  1.00  0.00    -0.272 OA
HETATM   32  N9  UNL     1      -2.984   0.009   1.225  1.00  0.00    -0.341 N 
ATOM     33  H9  UNL     1      -2.699   0.086   2.201  1.00  0.00     0.163 HD
BRANCH  32  34
HETATM   34  C13 UNL     1      -4.046   0.861   0.728  1.00  0.00     0.220 C 
BRANCH  34  35
HETATM   35  C14 UNL     1      -5.279   0.636   1.498  1.00  0.00     0.201 C 
HETATM   36  O8  UNL     1      -5.306  -0.191   2.432  1.00  0.00    -0.646 OA
HETATM   37  O9  UNL     1      -6.415   1.348   1.182  1.00  0.00    -0.646 OA
ENDBRANCH  34  35
BRANCH  34  38
HETATM   38  C15 UNL     1      -3.607   2.283   0.788  1.00  0.00    -0.009 A 
HETATM   39  C16 UNL     1      -2.953   2.916   1.851  1.00  0.00     0.028 A 
HETATM   40  C17 UNL     1      -2.763   4.223   1.426  1.00  0.00     0.088 A 
HETATM   41  N10 UNL     1      -3.277   4.361   0.176  1.00  0.00    -0.375 N 
HETATM   42  C18 UNL     1      -3.798   3.185  -0.233  1.00  0.00     0.097 A 
ATOM     43  H10 UNL     1      -3.270   5.222  -0.370  1.00  0.00     0.164 HD
ENDBRANCH  34  38
ENDBRANCH  32  34
ENDBRANCH  29  30
ENDBRANCH   9  29
TORSDOF 10
