REMARK  0 active torsions:
REMARK  status: ('A' for Active; 'I' for Inactive)
ROOT
HETATM    1  C1  UNL     1       1.418  -0.858  -0.085  1.00  0.00     0.152 C 
HETATM    2  N1  UNL     1       1.714   0.575  -0.075  1.00  0.00    -0.163 NA
HETATM    3  N2  UNL     1       0.438   0.916   0.431  1.00  0.00    -0.224 NA
HETATM    4  C2  UNL     1      -0.549   1.237  -0.547  1.00  0.00     0.144 C 
HETATM    5  C3  UNL     1      -1.715   0.346  -0.317  1.00  0.00     0.167 A 
HETATM    6  O1  UNL     1      -2.097  -0.073   0.927  1.00  0.00    -0.372 OA
HETATM    7  C4  UNL     1      -1.093  -0.857   0.358  1.00  0.00     0.172 A 
HETATM    8  C5  UNL     1       0.280  -0.466   0.800  1.00  0.00     0.123 C 
ENDROOT
TORSDOF 0
