REMARK  2 active torsions:
REMARK  status: ('A' for Active; 'I' for Inactive)
REMARK    1  A    between atoms: C3_5  and  O2_6 
REMARK    2  A    between atoms: C4_8  and  O3_9 
ROOT
HETATM    1  C1  UNL     1       2.318  -0.281   0.657  1.00  0.00     0.357 C 
HETATM    2  N1  UNL     1       0.882  -0.086   0.681  1.00  0.00     0.029 N 
HETATM    3  O1  UNL     1       0.272   0.053   1.872  1.00  0.00    -0.064 OA
HETATM    4  C2  UNL     1       0.359   0.616  -0.464  1.00  0.00     0.328 A 
HETATM    5  C3  UNL     1      -1.115   0.848  -0.608  1.00  0.00     0.191 A 
HETATM    6  C4  UNL     1      -1.329  -0.638  -0.443  1.00  0.00     0.191 A 
HETATM    7  C5  UNL     1       0.161  -0.799  -0.340  1.00  0.00     0.328 A 
ENDROOT
BRANCH   5   8
HETATM    8  O2  UNL     1      -1.734   1.537   0.415  1.00  0.00    -0.390 OA
ATOM      9  H2  UNL     1      -2.668   1.684   0.324  1.00  0.00     0.210 HD
ENDBRANCH   5   8
BRANCH   6  10
HETATM   10  O3  UNL     1      -2.057  -1.007   0.680  1.00  0.00    -0.390 OA
ATOM     11  H3  UNL     1      -2.192  -1.942   0.784  1.00  0.00     0.210 HD
ENDBRANCH   6  10
TORSDOF 2
