REMARK  1 active torsions:
REMARK  status: ('A' for Active; 'I' for Inactive)
REMARK    1  A    between atoms: C3_3  and  O1_4 
ROOT
HETATM    1  C1  UNL     1       0.729   1.651   0.600  1.00  0.00     0.046 C 
HETATM    2  C2  UNL     1       0.483   0.593  -0.419  1.00  0.00     0.252 C 
HETATM    3  C3  UNL     1       1.428  -0.570  -0.439  1.00  0.00     0.271 C 
HETATM    4  N1  UNL     1       0.229  -1.343  -0.739  1.00  0.00    -0.013 NA
HETATM    5  N2  UNL     1      -0.573  -0.337  -0.169  1.00  0.00     0.013 N 
HETATM    6  C4  UNL     1      -1.755   0.002  -0.911  1.00  0.00     0.297 C 
HETATM    7  C5  UNL     1      -0.882  -0.639   1.193  1.00  0.00     0.297 C 
ENDROOT
BRANCH   3   8
HETATM    8  O1  UNL     1       2.041  -0.860   0.756  1.00  0.00    -0.376 OA
ATOM      9  H1  UNL     1       2.640  -1.597   0.743  1.00  0.00     0.211 HD
ENDBRANCH   3   8
TORSDOF 1
