REMARK  3 active torsions:
REMARK  status: ('A' for Active; 'I' for Inactive)
REMARK    1  A    between atoms: N1_1  and  C1_5 
REMARK    2  A    between atoms: C1_5  and  C2_6 
REMARK    3  A    between atoms: C3_7  and  C4_8 
ROOT
HETATM    1  C4  UNL     1      -1.054  -0.095   0.608  1.00  0.00     0.301 C 
HETATM    2  N2  UNL     1      -1.436   1.310   0.450  1.00  0.00    -0.027 N 
ATOM      3  H21 UNL     1      -0.890   1.951  -0.125  1.00  0.00     0.281 HD
ATOM      4  H22 UNL     1      -1.349   1.977   1.216  1.00  0.00     0.281 HD
HETATM    5  C5  UNL     1      -2.729   0.812   0.017  1.00  0.00     0.418 A 
HETATM    6  N3  UNL     1      -2.741   0.241  -1.287  1.00  0.00    -0.033 N 
ATOM      7  H31 UNL     1      -2.402   0.584  -2.186  1.00  0.00     0.280 HD
ATOM      8  H32 UNL     1      -3.498   0.061  -1.947  1.00  0.00     0.280 HD
HETATM    9  C6  UNL     1      -2.136  -0.570  -0.288  1.00  0.00     0.288 A 
ENDROOT
BRANCH   1  10
HETATM   10  C3  UNL     1       0.305  -0.379   0.234  1.00  0.00    -0.069 C 
HETATM   11  C2  UNL     1       1.443  -0.618  -0.057  1.00  0.00    -0.077 C 
BRANCH  11  12
HETATM   12  C1  UNL     1       2.837  -0.916  -0.390  1.00  0.00     0.323 C 
BRANCH  12  13
HETATM   13  N1  UNL     1       3.521   0.347  -0.604  1.00  0.00    -0.069 N 
ATOM     14  H13 UNL     1       3.063   0.932  -1.303  1.00  0.00     0.275 HD
ATOM     15  H12 UNL     1       3.430   0.985   0.186  1.00  0.00     0.275 HD
ATOM     16  H11 UNL     1       4.492   0.139  -0.836  1.00  0.00     0.275 HD
ENDBRANCH  12  13
ENDBRANCH  11  12
ENDBRANCH   1  10
TORSDOF 3
