REMARK  4 active torsions:
REMARK  status: ('A' for Active; 'I' for Inactive)
REMARK       I    between atoms: C2_2  and  N1_4 
REMARK    1  A    between atoms: N1_4  and  C3_6 
REMARK    2  A    between atoms: C3_6  and  O2_7 
REMARK    3  A    between atoms: C3_6  and  N2_9 
REMARK    4  A    between atoms: N2_9  and  N3_11 
ROOT
HETATM    1  C3  UNL     1       0.984  -0.577   0.420  1.00  0.00     0.239 C 
ENDROOT
BRANCH   1   2
HETATM    2  N1  UNL     1      -0.400  -0.763   0.286  1.00  0.00    -0.292 N 
HETATM    3  C2  UNL     1      -1.361   0.186  -0.069  1.00  0.00     0.220 C 
HETATM    4  C1  UNL     1      -2.802  -0.168  -0.170  1.00  0.00     0.117 C 
HETATM    5  O1  UNL     1      -1.063   1.365  -0.316  1.00  0.00    -0.274 OA
ATOM      6  H1  UNL     1      -0.746  -1.705   0.470  1.00  0.00     0.172 HD
ENDBRANCH   1   2
BRANCH   1   7
HETATM    7  O2  UNL     1       1.681  -1.621   0.764  1.00  0.00    -0.331 OA
ATOM      8  H2  UNL     1       2.618  -1.495   0.855  1.00  0.00     0.221 HD
ENDBRANCH   1   7
BRANCH   1   9
HETATM    9  N2  UNL     1       1.688   0.623   0.221  1.00  0.00    -0.251 N 
ATOM     10  H2  UNL     1       1.194   1.474  -0.049  1.00  0.00     0.192 HD
BRANCH   9  11
HETATM   11  N3  UNL     1       3.086   0.635   0.400  1.00  0.00    -0.246 N 
HETATM   12  N4  UNL     1       3.813   1.004  -0.557  1.00  0.00    -0.331 N 
ATOM     13  H42 UNL     1       3.384   1.286  -1.438  1.00  0.00     0.178 HD
ATOM     14  H41 UNL     1       4.825   1.013  -0.427  1.00  0.00     0.178 HD
ATOM     15  H3  UNL     1       3.499   0.350   1.288  1.00  0.00     0.208 HD
ENDBRANCH   9  11
ENDBRANCH   1   9
TORSDOF 4
