REMARK  3 active torsions:
REMARK  status: ('A' for Active; 'I' for Inactive)
REMARK    1  A    between atoms: C4_4  and  C5_5 
REMARK    2  A    between atoms: C5_5  and  N1_6 
REMARK    3  A    between atoms: C5_5  and  O1_10 
ROOT
HETATM    1  C1  UNL     1       4.076  -1.314  -0.324  1.00  0.00     0.027 C 
HETATM    2  C2  UNL     1       2.918  -0.987  -0.167  1.00  0.00    -0.026 C 
HETATM    3  C3  UNL     1       1.568  -0.593   0.004  1.00  0.00    -0.010 C 
HETATM    4  C4  UNL     1       0.412  -0.234   0.154  1.00  0.00    -0.011 C 
ENDROOT
BRANCH   4   5
HETATM    5  C5  UNL     1      -0.965   0.218   0.346  1.00  0.00     0.353 C 
HETATM    6  C6  UNL     1      -1.212   1.481  -0.383  1.00  0.00    -0.036 C 
HETATM    7  C7  UNL     1      -1.411   2.504  -0.996  1.00  0.00     0.018 C 
BRANCH   5   8
HETATM    8  N1  UNL     1      -1.921  -0.744  -0.108  1.00  0.00    -0.023 N 
ATOM      9  H13 UNL     1      -1.750  -1.002  -1.080  1.00  0.00     0.280 HD
ATOM     10  H12 UNL     1      -1.767  -1.652   0.331  1.00  0.00     0.280 HD
ATOM     11  H11 UNL     1      -2.882  -0.429   0.026  1.00  0.00     0.280 HD
ENDBRANCH   5   8
BRANCH   5  12
HETATM   12  O1  UNL     1      -1.152   0.498   1.696  1.00  0.00    -0.346 OA
ATOM     13  H1  UNL     1      -2.047   0.792   1.821  1.00  0.00     0.214 HD
ENDBRANCH   5  12
ENDBRANCH   4   5
TORSDOF 3
