REMARK  9 active torsions:
REMARK  status: ('A' for Active; 'I' for Inactive)
REMARK    1  A    between atoms: O1_1  and  C1_3 
REMARK    2  A    between atoms: C1_3  and  N1_4 
REMARK    3  A    between atoms: C1_3  and  N7_30 
REMARK    4  A    between atoms: N1_4  and  C2_5 
REMARK    5  A    between atoms: N4_13  and  C6_15 
REMARK    6  A    between atoms: C9_18  and  N5_19 
REMARK    7  A    between atoms: N7_30  and  C18_32 
REMARK    8  A    between atoms: C18_32  and  C19_33 
REMARK    9  A    between atoms: C19_33  and  C20_36 
ROOT
HETATM    1  C2  UNL     1       2.735   1.266  -0.453  1.00  0.00     0.185 A 
HETATM    2  C3  UNL     1       2.490   2.642  -0.442  1.00  0.00     0.096 A 
HETATM    3  C4  UNL     1       1.245   3.152  -0.250  1.00  0.00     0.068 A 
HETATM    4  N2  UNL     1       0.732   4.393  -0.202  1.00  0.00    -0.298 N 
ATOM      5  H2  UNL     1       1.279   5.246  -0.315  1.00  0.00     0.187 HD
HETATM    6  N3  UNL     1      -0.555   4.367   0.007  1.00  0.00    -0.284 N 
ATOM      7  H3  UNL     1      -1.159   5.185   0.082  1.00  0.00     0.188 HD
HETATM    8  C5  UNL     1      -0.968   3.056   0.111  1.00  0.00     0.130 A 
HETATM    9  N4  UNL     1      -2.126   2.760   0.344  1.00  0.00    -0.370 N 
ATOM     10  H4  UNL     1      -2.645   3.634   0.430  1.00  0.00     0.161 HD
HETATM   11  C16 UNL     1       0.156   2.307  -0.053  1.00  0.00     0.053 A 
HETATM   12  C17 UNL     1       0.433   0.950  -0.072  1.00  0.00     0.108 A 
HETATM   13  N6  UNL     1       1.657   0.461  -0.262  1.00  0.00    -0.340 N 
ATOM     14  H6  UNL     1       1.790  -0.550  -0.264  1.00  0.00     0.167 HD
ENDROOT
BRANCH   1  15
HETATM   15  N1  UNL     1       3.874   0.885  -0.585  1.00  0.00    -0.347 NA
BRANCH  15  16
HETATM   16  C1  UNL     1       5.083   0.429  -0.725  1.00  0.00     0.295 C 
BRANCH  16  17
HETATM   17  O1  UNL     1       5.903   1.009  -1.551  1.00  0.00    -0.321 OA
ATOM     18  H1  UNL     1       6.787   0.676  -1.653  1.00  0.00     0.222 HD
ENDBRANCH  16  17
BRANCH  16  19
HETATM   19  N7  UNL     1       5.641  -0.698  -0.026  1.00  0.00    -0.339 N 
ATOM     20  H7  UNL     1       5.081  -1.233   0.637  1.00  0.00     0.164 HD
BRANCH  19  21
HETATM   21  C18 UNL     1       7.004  -1.047  -0.287  1.00  0.00     0.203 C 
BRANCH  21  22
HETATM   22  C19 UNL     1       7.468  -2.229   0.513  1.00  0.00     0.263 C 
HETATM   23  F1  UNL     1       6.781  -3.367   0.273  1.00  0.00    -0.204 F 
HETATM   24  F2  UNL     1       7.278  -1.900   1.853  1.00  0.00    -0.204 F 
BRANCH  22  25
HETATM   25  C20 UNL     1       8.963  -2.355   0.293  1.00  0.00     0.060 A 
HETATM   26  C21 UNL     1       9.441  -2.562  -1.141  1.00  0.00     0.011 A 
HETATM   27  C22 UNL     1       9.570  -3.660  -0.049  1.00  0.00     0.011 A 
ENDBRANCH  22  25
ENDBRANCH  21  22
ENDBRANCH  19  21
ENDBRANCH  16  19
ENDBRANCH  15  16
ENDBRANCH   1  15
BRANCH   9  28
HETATM   28  C6  UNL     1      -3.031   1.732   0.541  1.00  0.00     0.083 C 
HETATM   29  C7  UNL     1      -3.416   0.909  -0.621  1.00  0.00     0.027 C 
HETATM   30  C8  UNL     1      -4.865   0.809  -0.971  1.00  0.00     0.038 C 
HETATM   31  C9  UNL     1      -5.794   0.641   0.167  1.00  0.00     0.223 C 
HETATM   32  C14 UNL     1      -5.215   1.194   1.471  1.00  0.00     0.038 C 
HETATM   33  C15 UNL     1      -4.311   2.358   1.156  1.00  0.00     0.027 C 
BRANCH  31  34
HETATM   34  N5  UNL     1      -6.340  -0.633   0.419  1.00  0.00     0.093 N 
HETATM   35  C10 UNL     1      -7.210  -1.122  -0.636  1.00  0.00     0.273 C 
HETATM   36  C11 UNL     1      -7.074  -2.613  -0.662  1.00  0.00     0.032 C 
HETATM   37  C12 UNL     1      -6.289  -2.903   0.599  1.00  0.00     0.032 C 
HETATM   38  C13 UNL     1      -5.402  -1.675   0.695  1.00  0.00     0.273 C 
ENDBRANCH  31  34
ENDBRANCH   9  28
TORSDOF 9
