REMARK  5 active torsions:
REMARK  status: ('A' for Active; 'I' for Inactive)
REMARK    1  A    between atoms: C2_2  and  N1_3 
REMARK       I    between atoms: N1_3  and  C4_5 
REMARK    2  A    between atoms: C4_5  and  C5_7 
REMARK    3  A    between atoms: C5_7  and  C6_8 
REMARK       I    between atoms: N4_14  and  C8_16 
REMARK       I    between atoms: C8_16  and  N5_18 
REMARK    4  A    between atoms: N5_18  and  C9_20 
REMARK    5  A    between atoms: C15_26  and  C16_27 
ROOT
HETATM    1  C16 UNL     1      -1.848  -1.230  -1.628  1.00  0.00     0.070 A 
HETATM    2  N6  UNL     1      -2.850  -0.686  -2.381  1.00  0.00    -0.362 N 
ATOM      3  H6  UNL     1      -3.131   0.294  -2.340  1.00  0.00     0.165 HD
HETATM    4  C17 UNL     1      -3.418  -1.601  -3.180  1.00  0.00     0.114 A 
HETATM    5  C18 UNL     1      -2.804  -2.805  -2.982  1.00  0.00     0.072 A 
HETATM    6 CL1  UNL     1      -3.146  -4.347  -3.761  1.00  0.00    -0.081 Cl
HETATM    7  C19 UNL     1      -1.823  -2.544  -2.002  1.00  0.00     0.095 A 
HETATM    8  C20 UNL     1      -1.004  -3.618  -1.484  1.00  0.00     0.103 C 
HETATM    9  N7  UNL     1      -0.377  -4.504  -1.064  1.00  0.00    -0.191 NA
ENDROOT
BRANCH   1  10
HETATM   10  C15 UNL     1      -1.078  -0.552  -0.584  1.00  0.00     0.062 A 
HETATM   11  C6  UNL     1      -1.537   0.434   0.282  1.00  0.00     0.051 A 
HETATM   12  N2  UNL     1      -0.498   0.862   1.000  1.00  0.00    -0.302 N 
HETATM   13  N3  UNL     1       0.561   0.225   0.652  1.00  0.00    -0.284 N 
ATOM     14  H2  UNL     1      -0.538   1.586   1.717  1.00  0.00     0.186 HD
HETATM   15  C7  UNL     1       0.280  -0.660  -0.318  1.00  0.00     0.138 A 
ATOM     16  H3  UNL     1       1.486   0.371   1.056  1.00  0.00     0.188 HD
HETATM   17  N4  UNL     1       1.164  -1.402  -0.891  1.00  0.00    -0.293 N 
HETATM   18  C8  UNL     1       2.520  -1.314  -0.508  1.00  0.00     0.322 C 
ATOM     19  H4  UNL     1       0.883  -2.055  -1.623  1.00  0.00     0.172 HD
HETATM   20  O2  UNL     1       3.064  -2.314   0.023  1.00  0.00    -0.247 OA
HETATM   21  N5  UNL     1       3.279  -0.140  -0.704  1.00  0.00    -0.338 N 
ATOM     22  H5  UNL     1       2.815   0.658  -1.137  1.00  0.00     0.164 HD
BRANCH  11  23
HETATM   23  C5  UNL     1      -2.907   0.956   0.474  1.00  0.00     0.162 C 
BRANCH  23  24
HETATM   24  C4  UNL     1      -3.664  -0.098   1.250  1.00  0.00     0.225 C 
HETATM   25  N1  UNL     1      -5.019   0.180   1.554  1.00  0.00    -0.357 N 
HETATM   26  C3  UNL     1      -5.620   1.419   1.132  1.00  0.00     0.152 C 
HETATM   27  O1  UNL     1      -3.110  -1.170   1.607  1.00  0.00    -0.273 OA
BRANCH  25  28
HETATM   28  C2  UNL     1      -5.758  -0.823   2.296  1.00  0.00     0.120 C 
HETATM   29  C1  UNL     1      -5.653  -0.601   3.796  1.00  0.00     0.026 C 
ENDBRANCH  25  28
ENDBRANCH  23  24
ENDBRANCH  11  23
BRANCH  21  30
HETATM   30  C9  UNL     1       4.655   0.009  -0.337  1.00  0.00     0.086 C 
HETATM   31  C10 UNL     1       5.548   0.493  -1.426  1.00  0.00     0.025 C 
HETATM   32  C11 UNL     1       6.014   1.920  -1.228  1.00  0.00     0.002 C 
HETATM   33  C12 UNL     1       6.625   2.182   0.106  1.00  0.00     0.000 C 
HETATM   34  C13 UNL     1       6.149   1.187   1.160  1.00  0.00     0.002 C 
HETATM   35  C14 UNL     1       4.677   0.959   0.872  1.00  0.00     0.025 C 
ENDBRANCH  21  30
ENDBRANCH   1  10
TORSDOF 5
