REMARK  5 active torsions:
REMARK  status: ('A' for Active; 'I' for Inactive)
REMARK    1  A    between atoms: C2_2  and  N1_3 
REMARK       I    between atoms: C3_5  and  N3_7 
REMARK    2  A    between atoms: N3_7  and  C4_9 
REMARK    3  A    between atoms: C4_9  and  C5_10 
REMARK    4  A    between atoms: C5_10  and  C6_11 
REMARK    5  A    between atoms: C6_11  and  N4_12 
ROOT
HETATM    1  N4  UNL     1      -0.870   1.022   0.420  1.00  0.00    -0.320 N 
HETATM    2  C7  UNL     1      -1.507   2.273   0.279  1.00  0.00     0.221 C 
HETATM    3  O1  UNL     1      -0.803   3.295   0.572  1.00  0.00    -0.273 OA
HETATM    4  C8  UNL     1      -2.888   2.558  -0.166  1.00  0.00     0.103 C 
HETATM    5  C9  UNL     1      -3.870   2.881   0.889  1.00  0.00     0.010 C 
HETATM    6  C10 UNL     1      -5.270   2.351   0.702  1.00  0.00     0.012 C 
HETATM    7  C11 UNL     1      -5.336   0.885   1.202  1.00  0.00     0.094 C 
HETATM    8  C12 UNL     1      -4.009   0.422   1.158  1.00  0.00    -0.103 C 
HETATM    9  C13 UNL     1      -2.960   0.134   1.098  1.00  0.00    -0.059 C 
HETATM   10  C14 UNL     1      -1.589  -0.145   0.994  1.00  0.00     0.212 A 
HETATM   11  C15 UNL     1      -1.089  -0.363   2.380  1.00  0.00     0.268 A 
HETATM   12  O2  UNL     1      -1.115   0.444   3.345  1.00  0.00    -0.269 OA
HETATM   13  N5  UNL     1      -0.547  -1.666   2.497  1.00  0.00    -0.323 N 
ATOM     14  H5  UNL     1      -0.164  -2.086   3.344  1.00  0.00     0.169 HD
HETATM   15  C16 UNL     1      -0.634  -2.279   1.223  1.00  0.00     0.048 A 
HETATM   16  C17 UNL     1      -0.231  -3.522   0.799  1.00  0.00     0.054 A 
HETATM   17  C18 UNL     1      -0.381  -3.939  -0.504  1.00  0.00     0.037 A 
HETATM   18 CL1  UNL     1       0.149  -5.540  -1.005  1.00  0.00    -0.084 Cl
HETATM   19  C19 UNL     1      -0.953  -3.087  -1.414  1.00  0.00     0.048 A 
HETATM   20  C20 UNL     1      -1.353  -1.845  -0.981  1.00  0.00     0.048 A 
HETATM   21 CL2  UNL     1      -2.076  -0.806  -2.207  1.00  0.00    -0.084 Cl
HETATM   22  C21 UNL     1      -1.209  -1.416   0.322  1.00  0.00     0.041 A 
ENDROOT
BRANCH   1  23
HETATM   23  C6  UNL     1       0.484   0.814   0.002  1.00  0.00     0.130 C 
BRANCH  23  24
HETATM   24  C5  UNL     1       1.522   1.127   1.041  1.00  0.00     0.039 C 
BRANCH  24  25
HETATM   25  C4  UNL     1       2.926   0.891   0.540  1.00  0.00     0.123 C 
BRANCH  25  26
HETATM   26  N3  UNL     1       3.110  -0.494   0.172  1.00  0.00    -0.365 N 
HETATM   27  C3  UNL     1       4.341  -0.981  -0.349  1.00  0.00     0.183 C 
HETATM   28  N1  UNL     1       4.764  -0.696  -1.516  1.00  0.00    -0.365 N 
HETATM   29  N2  UNL     1       5.122  -1.823   0.484  1.00  0.00    -0.064 NA
ATOM     30  H1  UNL     1       5.660  -1.102  -1.785  1.00  0.00     0.162 HD
ATOM     31  H3  UNL     1       2.332  -1.143   0.290  1.00  0.00     0.162 HD
BRANCH  28  32
HETATM   32  C2  UNL     1       4.123   0.129  -2.491  1.00  0.00     0.118 C 
HETATM   33  C1  UNL     1       4.498  -0.331  -3.904  1.00  0.00     0.026 C 
ENDBRANCH  28  32
ENDBRANCH  25  26
ENDBRANCH  24  25
ENDBRANCH  23  24
ENDBRANCH   1  23
TORSDOF 5
