REMARK  9 active torsions:
REMARK  status: ('A' for Active; 'I' for Inactive)
REMARK    1  A    between atoms: C3_3  and  C4_4 
REMARK    2  A    between atoms: C4_4  and  C5_5 
REMARK    3  A    between atoms: C6_6  and  C7_7 
REMARK    4  A    between atoms: C8_8  and  C9_9 
REMARK    5  A    between atoms: C9_9  and  C10_10 
REMARK    6  A    between atoms: C11_11  and  C12_12 
REMARK    7  A    between atoms: C18_20  and  O3_21 
REMARK    8  A    between atoms: N1_23  and  C19_24 
REMARK    9  A    between atoms: C21_26  and  O4_27 
ROOT
HETATM    1  C1  UNL     1       8.575  -1.480   1.360  1.00  0.00     0.112 C 
HETATM    2  C2  UNL     1       7.734  -1.303   0.171  1.00  0.00    -0.110 C 
HETATM    3  C3  UNL     1       7.048  -1.164  -0.829  1.00  0.00    -0.095 C 
ENDROOT
BRANCH   3   4
HETATM    4  C4  UNL     1       6.246  -1.003  -2.043  1.00  0.00     0.188 C 
BRANCH   4   5
HETATM    5  C5  UNL     1       4.887  -0.658  -1.624  1.00  0.00    -0.090 C 
HETATM    6  C6  UNL     1       3.762  -0.352  -1.270  1.00  0.00    -0.078 C 
BRANCH   6   7
HETATM    7  C7  UNL     1       2.446   0.027  -0.838  1.00  0.00     0.060 C 
HETATM    8  C8  UNL     1       2.100   0.004   0.408  1.00  0.00    -0.014 C 
BRANCH   8   9
HETATM    9  C9  UNL     1       0.828   0.348   1.037  1.00  0.00     0.063 C 
BRANCH   9  10
HETATM   10  C10 UNL     1      -0.257   0.790   0.164  1.00  0.00    -0.054 C 
HETATM   11  C11 UNL     1      -0.853   1.961   0.182  1.00  0.00     0.030 C 
HETATM   12  C13 UNL     1      -1.926   1.963  -0.874  1.00  0.00     0.065 C 
HETATM   13  C14 UNL     1      -1.208   1.119  -1.912  1.00  0.00     0.028 C 
HETATM   14  C17 UNL     1      -2.935   0.989  -0.402  1.00  0.00     0.013 A 
HETATM   15  C15 UNL     1      -0.920  -0.002  -0.918  1.00  0.00     0.054 C 
HETATM   16  C16 UNL     1      -2.314  -0.244  -0.426  1.00  0.00     0.013 A 
HETATM   17  C21 UNL     1      -3.240  -1.153   0.011  1.00  0.00     0.151 A 
HETATM   18  N1  UNL     1      -4.397  -0.530   0.298  1.00  0.00    -0.308 N 
HETATM   19  C18 UNL     1      -4.217   0.778   0.048  1.00  0.00     0.151 A 
BRANCH  11  20
HETATM   20  C12 UNL     1      -0.635   3.116   1.020  1.00  0.00     0.206 C 
HETATM   21  O1  UNL     1      -1.340   4.185   0.875  1.00  0.00    -0.644 OA
HETATM   22  O2  UNL     1       0.304   3.225   2.032  1.00  0.00    -0.644 OA
ENDBRANCH  11  20
BRANCH  17  23
HETATM   23  O4  UNL     1      -3.002  -2.535   0.135  1.00  0.00    -0.345 OA
ATOM     24  H4  UNL     1      -3.644  -3.166   0.438  1.00  0.00     0.219 HD
ENDBRANCH  17  23
BRANCH  18  25
HETATM   25  C19 UNL     1      -5.592  -1.183   0.785  1.00  0.00     0.129 C 
HETATM   26  C20 UNL     1      -6.503  -1.638  -0.328  1.00  0.00     0.027 C 
ENDBRANCH  18  25
BRANCH  19  27
HETATM   27  O3  UNL     1      -5.209   1.761   0.229  1.00  0.00    -0.345 OA
ATOM     28  H3  UNL     1      -6.095   1.615   0.540  1.00  0.00     0.219 HD
ENDBRANCH  19  27
ENDBRANCH   9  10
ENDBRANCH   8   9
ENDBRANCH   6   7
ENDBRANCH   4   5
ENDBRANCH   3   4
TORSDOF 9
