REMARK  6 active torsions:
REMARK  status: ('A' for Active; 'I' for Inactive)
REMARK    1  A    between atoms: C2_2  and  C4_4 
REMARK    2  A    between atoms: C4_4  and  C5_8 
REMARK    3  A    between atoms: C6_9  and  C7_10 
REMARK    4  A    between atoms: C7_10  and  C8_11 
REMARK    5  A    between atoms: C8_11  and  O1_12 
REMARK    6  A    between atoms: C9_14  and  O2_15 
ROOT
HETATM    1  C7  UNL     1       0.559  -0.461  -0.536  1.00  0.00     0.032 C 
HETATM    2  C9  UNL     1       0.762  -1.798   0.147  1.00  0.00     0.133 C 
HETATM    3  C10 UNL     1      -0.454  -2.626   0.421  1.00  0.00     0.034 C 
HETATM    4  C11 UNL     1      -1.590  -2.350  -0.502  1.00  0.00     0.012 C 
HETATM    5  C12 UNL     1      -1.918  -0.853  -0.528  1.00  0.00    -0.034 C 
HETATM    6  C13 UNL     1      -2.687  -0.654  -1.742  1.00  0.00     0.016 C 
HETATM    7  C14 UNL     1      -2.955  -0.727   0.632  1.00  0.00     0.046 C 
HETATM    8  C15 UNL     1      -3.323   0.731   0.630  1.00  0.00     0.055 C 
HETATM    9  C16 UNL     1      -4.780   0.786   0.117  1.00  0.00     0.045 C 
HETATM   10  C17 UNL     1      -3.470   1.122   2.089  1.00  0.00     0.045 C 
HETATM   11  O3  UNL     1      -2.624   1.524  -0.172  1.00  0.00    -0.370 OA
HETATM   12  C18 UNL     1      -1.198   1.436  -0.150  1.00  0.00     0.060 C 
HETATM   13  C19 UNL     1      -0.889   2.276   1.097  1.00  0.00     0.046 C 
HETATM   14  C20 UNL     1      -0.811   2.286  -1.305  1.00  0.00     0.046 C 
HETATM   15  C21 UNL     1      -0.798   0.027  -0.100  1.00  0.00     0.044 C 
ENDROOT
BRANCH   1  16
HETATM   16  C6  UNL     1       1.676   0.341  -0.036  1.00  0.00    -0.010 C 
HETATM   17  C5  UNL     1       2.921   0.335   0.196  1.00  0.00     0.026 C 
BRANCH  17  18
HETATM   18  C4  UNL     1       4.122  -0.419   0.145  1.00  0.00     0.030 C 
HETATM   19  N1  UNL     1       4.300  -1.583  -0.257  1.00  0.00    -0.399 N 
ATOM     20  H12 UNL     1       5.163  -2.125  -0.294  1.00  0.00     0.156 HD
ATOM     21  H11 UNL     1       3.440  -2.016  -0.592  1.00  0.00     0.156 HD
BRANCH  18  22
HETATM   22  C2  UNL     1       5.411   0.230   0.647  1.00  0.00    -0.045 C 
HETATM   23  C1  UNL     1       6.536  -0.433   0.624  1.00  0.00     0.021 C 
HETATM   24  C3  UNL     1       5.379   1.613   1.161  1.00  0.00     0.049 C 
ENDBRANCH  18  22
ENDBRANCH  17  18
ENDBRANCH   1  16
BRANCH   1  25
HETATM   25  C8  UNL     1       0.670  -0.533  -2.043  1.00  0.00     0.180 C 
BRANCH  25  26
HETATM   26  O1  UNL     1       1.848  -1.128  -2.460  1.00  0.00    -0.400 OA
ATOM     27  H1  UNL     1       1.918  -1.173  -3.406  1.00  0.00     0.209 HD
ENDBRANCH  25  26
ENDBRANCH   1  25
BRANCH   2  28
HETATM   28  O2  UNL     1       1.332  -1.630   1.421  1.00  0.00    -0.394 OA
ATOM     29  H2  UNL     1       1.459  -2.468   1.849  1.00  0.00     0.210 HD
ENDBRANCH   2  28
TORSDOF 6
