REMARK  7 active torsions:
REMARK  status: ('A' for Active; 'I' for Inactive)
REMARK    1  A    between atoms: C2_2  and  C3_3 
REMARK    2  A    between atoms: C3_3  and  C4_4 
REMARK    3  A    between atoms: C5_5  and  O1_6 
REMARK    4  A    between atoms: C9_11  and  O2_12 
REMARK    5  A    between atoms: C13_17  and  C14_18 
REMARK    6  A    between atoms: C18_22  and  C19_23 
REMARK    7  A    between atoms: C21_26  and  O4_27 
ROOT
HETATM    1  C4  UNL     1      -0.958   1.227   0.443  1.00  0.00     0.023 C 
HETATM    2  C5  UNL     1      -2.262   0.977   1.163  1.00  0.00     0.123 C 
HETATM    3  C6  UNL     1      -2.823  -0.433   0.958  1.00  0.00     0.037 C 
HETATM    4  C7  UNL     1      -1.750  -1.418   1.180  1.00  0.00    -0.005 C 
HETATM    5  C8  UNL     1      -2.238  -2.852   1.021  1.00  0.00     0.037 C 
HETATM    6  C9  UNL     1      -1.832  -3.517  -0.232  1.00  0.00     0.118 C 
HETATM    7  C10 UNL     1      -0.400  -3.358  -0.610  1.00  0.00     0.032 C 
HETATM    8  C11 UNL     1       0.278  -2.319   0.308  1.00  0.00     0.008 C 
HETATM    9  C12 UNL     1      -0.609  -1.128   0.231  1.00  0.00    -0.001 C 
HETATM   10  C13 UNL     1       0.054   0.185   0.732  1.00  0.00     0.032 C 
ENDROOT
BRANCH  10  11
HETATM   11  C14 UNL     1       1.390   0.271   0.185  1.00  0.00    -0.019 A 
HETATM   12  C15 UNL     1       1.806   0.494  -1.081  1.00  0.00     0.018 A 
HETATM   13  C16 UNL     1       3.131   0.438  -1.440  1.00  0.00    -0.048 A 
HETATM   14  C17 UNL     1       3.597   0.639  -2.870  1.00  0.00     0.049 C 
HETATM   15  C18 UNL     1       4.147   0.159  -0.556  1.00  0.00     0.010 A 
HETATM   16  C20 UNL     1       3.750  -0.084   0.759  1.00  0.00     0.052 A 
HETATM   17  C21 UNL     1       2.436  -0.025   1.094  1.00  0.00     0.073 A 
BRANCH  15  18
HETATM   18  C19 UNL     1       5.553   0.136  -0.918  1.00  0.00     0.270 C 
HETATM   19  O3  UNL     1       6.378  -0.171  -0.006  1.00  0.00    -0.301 OA
ENDBRANCH  15  18
BRANCH  17  20
HETATM   20  O4  UNL     1       2.090  -0.277   2.428  1.00  0.00    -0.360 OA
ATOM     21  H4  UNL     1       2.791  -0.475   3.037  1.00  0.00     0.217 HD
ENDBRANCH  17  20
ENDBRANCH  10  11
BRANCH   1  22
HETATM   22  C3  UNL     1      -1.059   2.073  -0.726  1.00  0.00     0.007 C 
BRANCH  22  23
HETATM   23  C2  UNL     1      -1.436   3.509  -0.591  1.00  0.00    -0.004 C 
HETATM   24  C1  UNL     1      -2.632   4.065  -0.016  1.00  0.00     0.005 C 
ENDBRANCH  22  23
ENDBRANCH   1  22
BRANCH   2  25
HETATM   25  O1  UNL     1      -2.144   1.267   2.495  1.00  0.00    -0.395 OA
ATOM     26  H1  UNL     1      -2.964   1.110   2.948  1.00  0.00     0.210 HD
ENDBRANCH   2  25
BRANCH   6  27
HETATM   27  O2  UNL     1      -2.726  -3.244  -1.275  1.00  0.00    -0.396 OA
ATOM     28  H2  UNL     1      -2.465  -3.672  -2.082  1.00  0.00     0.210 HD
ENDBRANCH   6  27
TORSDOF 7
