REMARK  7 active torsions:
REMARK  status: ('A' for Active; 'I' for Inactive)
REMARK    1  A    between atoms: C2_2  and  C4_4 
REMARK    2  A    between atoms: C4_4  and  C5_5 
REMARK    3  A    between atoms: C5_5  and  C6_6 
REMARK    4  A    between atoms: C6_6  and  N1_7 
REMARK    5  A    between atoms: C9_11  and  O1_12 
REMARK    6  A    between atoms: C10_14  and  O2_15 
REMARK    7  A    between atoms: C20_26  and  O3_27 
ROOT
HETATM    1  N1  UNL     1       1.143  -1.322   0.481  1.00  0.00    -0.394 N 
ATOM      2  H1  UNL     1       1.103  -1.455   1.492  1.00  0.00     0.159 HD
HETATM    3  C7  UNL     1       0.033  -1.271  -0.151  1.00  0.00     0.014 C 
HETATM    4  C8  UNL     1       0.053  -1.078  -1.627  1.00  0.00     0.089 C 
HETATM    5  C9  UNL     1      -1.122  -0.128  -1.929  1.00  0.00     0.152 C 
HETATM    6  C10 UNL     1      -1.136   0.972  -0.959  1.00  0.00     0.152 C 
HETATM    7  C11 UNL     1      -2.043   0.929   0.211  1.00  0.00     0.036 C 
HETATM    8  C12 UNL     1      -3.507   1.026  -0.070  1.00  0.00    -0.041 C 
HETATM    9  C13 UNL     1      -3.866   1.575  -1.406  1.00  0.00     0.015 C 
HETATM   10  C14 UNL     1      -4.206   1.943   0.953  1.00  0.00     0.015 C 
HETATM   11  C15 UNL     1      -4.232  -0.310   0.087  1.00  0.00     0.009 C 
HETATM   12  C16 UNL     1      -4.057  -0.871   1.473  1.00  0.00     0.002 C 
HETATM   13  C17 UNL     1      -2.825  -0.429   2.168  1.00  0.00     0.012 C 
HETATM   14  C18 UNL     1      -1.675  -0.109   1.225  1.00  0.00    -0.006 C 
HETATM   15  C19 UNL     1      -0.555   0.401   2.151  1.00  0.00     0.019 C 
HETATM   16  C20 UNL     1      -1.196  -1.414   0.678  1.00  0.00     0.172 C 
ENDROOT
BRANCH   1  17
HETATM   17  C6  UNL     1       2.420  -1.209  -0.111  1.00  0.00     0.119 C 
BRANCH  17  18
HETATM   18  C5  UNL     1       2.985   0.207   0.015  1.00  0.00     0.020 C 
BRANCH  18  19
HETATM   19  C4  UNL     1       4.350   0.291  -0.628  1.00  0.00     0.005 C 
BRANCH  19  20
HETATM   20  C2  UNL     1       5.345  -0.634  -0.010  1.00  0.00    -0.023 C 
HETATM   21  C1  UNL     1       5.486  -0.267   1.468  1.00  0.00     0.009 C 
HETATM   22  C3  UNL     1       6.687  -0.372  -0.692  1.00  0.00     0.009 C 
ENDBRANCH  19  20
ENDBRANCH  18  19
ENDBRANCH  17  18
ENDBRANCH   1  17
BRANCH  16  23
HETATM   23  O3  UNL     1      -0.872  -2.230   1.758  1.00  0.00    -0.389 OA
ATOM     24  H3  UNL     1      -1.656  -2.321   2.287  1.00  0.00     0.210 HD
ENDBRANCH  16  23
BRANCH   5  25
HETATM   25  O1  UNL     1      -0.831   0.360  -3.227  1.00  0.00    -0.393 OA
ATOM     26  H1  UNL     1      -1.555   0.946  -3.413  1.00  0.00     0.210 HD
ENDBRANCH   5  25
BRANCH   6  27
HETATM   27  O2  UNL     1      -1.288   2.186  -1.670  1.00  0.00    -0.393 OA
ATOM     28  H2  UNL     1      -1.297   2.899  -1.042  1.00  0.00     0.210 HD
ENDBRANCH   6  27
TORSDOF 7
