REMARK  5 active torsions:
REMARK  status: ('A' for Active; 'I' for Inactive)
REMARK    1  A    between atoms: C2_2  and  N1_3 
REMARK    2  A    between atoms: C3_4  and  O1_5 
REMARK    3  A    between atoms: C6_9  and  N2_10 
REMARK    4  A    between atoms: C13_17  and  N3_18 
REMARK    5  A    between atoms: N3_18  and  C14_20 
ROOT
HETATM    1  N1  UNL     1      -0.965   2.232   0.077  1.00  0.00    -0.313 N 
HETATM    2  C3  UNL     1       0.102   2.874  -0.497  1.00  0.00     0.152 A 
HETATM    3  C4  UNL     1       0.996   1.912  -0.971  1.00  0.00     0.023 A 
HETATM    4  C5  UNL     1       0.408   0.721  -0.642  1.00  0.00     0.025 A 
HETATM    5  C6  UNL     1      -0.785   0.897  -0.010  1.00  0.00     0.117 A 
HETATM    6  C13 UNL     1       1.214  -0.546  -0.964  1.00  0.00     0.153 C 
HETATM    7  C18 UNL     1       1.798  -0.203  -2.322  1.00  0.00     0.085 C 
HETATM    8  N4  UNL     1       2.725   0.857  -2.300  1.00  0.00    -0.396 N 
ATOM      9  H4  UNL     1       3.663   0.761  -2.688  1.00  0.00     0.159 HD
HETATM   10  C19 UNL     1       2.280   2.059  -1.710  1.00  0.00     0.162 C 
ENDROOT
BRANCH   5  11
HETATM   11  N2  UNL     1      -1.632  -0.167   0.414  1.00  0.00    -0.367 N 
HETATM   12  C7  UNL     1      -2.542  -0.604  -0.642  1.00  0.00     0.124 C 
HETATM   13  C8  UNL     1      -3.944  -0.787  -0.140  1.00  0.00     0.020 C 
HETATM   14  C9  UNL     1      -4.126  -2.195   0.378  1.00  0.00     0.002 C 
HETATM   15  C10 UNL     1      -2.909  -2.573   1.176  1.00  0.00     0.002 C 
HETATM   16  C11 UNL     1      -2.569  -1.530   2.190  1.00  0.00     0.020 C 
HETATM   17  C12 UNL     1      -1.439  -0.617   1.756  1.00  0.00     0.124 C 
ENDBRANCH   5  11
BRANCH   1  18
HETATM   18  C2  UNL     1      -2.058   2.901   0.712  1.00  0.00     0.128 C 
HETATM   19  C1  UNL     1      -3.174   3.254  -0.225  1.00  0.00     0.027 C 
ENDBRANCH   1  18
BRANCH   2  20
HETATM   20  O1  UNL     1       0.291   4.251  -0.607  1.00  0.00    -0.345 OA
ATOM     21  H1  UNL     1       1.030   4.696  -1.005  1.00  0.00     0.219 HD
ENDBRANCH   2  20
BRANCH   6  22
HETATM   22  N3  UNL     1       2.160  -0.574   0.095  1.00  0.00    -0.403 N 
ATOM     23  H3  UNL     1       2.036   0.059   0.885  1.00  0.00     0.154 HD
BRANCH  22  24
HETATM   24  C14 UNL     1       3.250  -1.437   0.089  1.00  0.00     0.103 C 
HETATM   25  C15 UNL     1       4.460  -0.606   0.579  1.00  0.00     0.053 C 
HETATM   26  C16 UNL     1       5.005  -1.361   1.747  1.00  0.00     0.169 C 
HETATM   27  O2  UNL     1       4.603  -2.668   1.464  1.00  0.00    -0.389 OA
HETATM   28  C17 UNL     1       3.268  -2.563   1.068  1.00  0.00     0.192 C 
ENDBRANCH  22  24
ENDBRANCH   6  22
TORSDOF 5
