REMARK  7 active torsions:
REMARK  status: ('A' for Active; 'I' for Inactive)
REMARK    1  A    between atoms: C2_2  and  C3_3 
REMARK    2  A    between atoms: C3_3  and  N1_4 
REMARK    3  A    between atoms: C4_5  and  O1_6 
REMARK    4  A    between atoms: C7_10  and  O2_11 
REMARK    5  A    between atoms: N3_16  and  C10_17 
REMARK    6  A    between atoms: C10_17  and  C11_18 
REMARK    7  A    between atoms: C12_21  and  N5_22 
ROOT
HETATM    1  N1  UNL     1       3.766  -0.163  -0.329  1.00  0.00    -0.303 N 
HETATM    2  C4  UNL     1       2.879  -0.681  -1.206  1.00  0.00     0.155 A 
HETATM    3  C5  UNL     1       1.709  -0.959  -0.546  1.00  0.00     0.048 A 
HETATM    4  C6  UNL     1       1.901  -0.570   0.722  1.00  0.00     0.095 A 
HETATM    5  C7  UNL     1       3.182  -0.075   0.945  1.00  0.00     0.172 A 
HETATM    6  N2  UNL     1       0.521  -0.616   0.964  1.00  0.00    -0.364 N 
HETATM    7  C8  UNL     1      -0.661  -0.085   1.600  1.00  0.00     0.143 C 
HETATM    8  C9  UNL     1      -1.264   0.809   0.411  1.00  0.00     0.142 C 
HETATM    9  N3  UNL     1      -1.488   0.090  -0.751  1.00  0.00    -0.384 N 
HETATM   10  C15 UNL     1      -0.836  -1.215  -0.904  1.00  0.00     0.152 C 
HETATM   11  C16 UNL     1       0.364  -1.466  -0.185  1.00  0.00     0.142 C 
ENDROOT
BRANCH   9  12
HETATM   12  C10 UNL     1      -2.733   0.043  -1.405  1.00  0.00     0.116 C 
BRANCH  12  13
HETATM   13  C11 UNL     1      -3.888   0.557  -0.632  1.00  0.00     0.062 A 
HETATM   14  N4  UNL     1      -4.031   1.823  -0.292  1.00  0.00    -0.335 N 
HETATM   15  C12 UNL     1      -5.182   2.234   0.201  1.00  0.00     0.143 A 
ATOM     16  H4  UNL     1      -3.258   2.478  -0.409  1.00  0.00     0.168 HD
HETATM   17  S1  UNL     1      -6.139   0.803   0.201  1.00  0.00    -0.057 SA
HETATM   18  C13 UNL     1      -4.974  -0.254  -0.435  1.00  0.00     0.010 A 
HETATM   19  C14 UNL     1      -5.054  -1.749  -0.685  1.00  0.00     0.059 C 
BRANCH  15  20
HETATM   20  N5  UNL     1      -5.505   3.451   0.585  1.00  0.00    -0.380 N 
ATOM     21  H52 UNL     1      -4.938   4.299   0.585  1.00  0.00     0.158 HD
ATOM     22  H51 UNL     1      -6.396   3.769   0.967  1.00  0.00     0.158 HD
ENDBRANCH  15  20
ENDBRANCH  12  13
ENDBRANCH   9  12
BRANCH   2  23
HETATM   23  O1  UNL     1       3.145  -0.859  -2.607  1.00  0.00    -0.345 OA
ATOM     24  H1  UNL     1       2.521  -1.223  -3.224  1.00  0.00     0.219 HD
ENDBRANCH   2  23
BRANCH   5  25
HETATM   25  O2  UNL     1       3.727   0.347   2.107  1.00  0.00    -0.344 OA
ATOM     26  H2  UNL     1       3.332   0.407   2.969  1.00  0.00     0.219 HD
ENDBRANCH   5  25
BRANCH   1  27
HETATM   27  C3  UNL     1       5.130   0.154  -0.549  1.00  0.00     0.160 C 
BRANCH  27  28
HETATM   28  C2  UNL     1       6.031  -0.494   0.464  1.00  0.00    -0.017 C 
HETATM   29  C1  UNL     1       6.797   0.406   1.143  1.00  0.00     0.008 C 
ENDBRANCH  27  28
ENDBRANCH   1  27
TORSDOF 7
