REMARK  4 active torsions:
REMARK  status: ('A' for Active; 'I' for Inactive)
REMARK    1  A    between atoms: C2_5  and  C3_6 
REMARK    2  A    between atoms: C9_14  and  N3_15 
REMARK    3  A    between atoms: N3_15  and  C10_17 
REMARK    4  A    between atoms: C15_25  and  N5_26 
ROOT
HETATM    1  O1  UNL     1       1.946   1.078   3.627  1.00  0.00    -0.265 OA
HETATM    2  C1  UNL     1       1.292   0.743   2.595  1.00  0.00     0.283 A 
HETATM    3  N1  UNL     1       1.911   0.314   1.481  1.00  0.00    -0.310 N 
ATOM      4  H1  UNL     1       2.929   0.260   1.471  1.00  0.00     0.170 HD
HETATM    5  C2  UNL     1       1.229  -0.045   0.381  1.00  0.00     0.089 A 
HETATM    6  N2  UNL     1      -0.117   0.047   0.452  1.00  0.00    -0.330 N 
ATOM      7  H2  UNL     1      -0.655  -0.221  -0.372  1.00  0.00     0.168 HD
HETATM    8  C9  UNL     1      -0.798   0.468   1.535  1.00  0.00     0.142 A 
HETATM    9  C15 UNL     1      -0.075   0.839   2.677  1.00  0.00     0.214 A 
ENDROOT
BRANCH   8  10
HETATM   10  N3  UNL     1      -2.198   0.549   1.599  1.00  0.00    -0.363 N 
ATOM     11  H3  UNL     1      -2.574   0.865   2.493  1.00  0.00     0.162 HD
BRANCH  10  12
HETATM   12  C10 UNL     1      -3.171   0.257   0.604  1.00  0.00     0.144 C 
HETATM   13  C11 UNL     1      -3.143   1.192  -0.595  1.00  0.00     0.034 C 
HETATM   14  C12 UNL     1      -4.519   0.987  -1.262  1.00  0.00     0.022 C 
HETATM   15  C13 UNL     1      -4.451  -0.357  -1.951  1.00  0.00     0.120 C 
HETATM   16  N4  UNL     1      -3.503  -1.258  -1.321  1.00  0.00    -0.383 N 
HETATM   17  C14 UNL     1      -3.098  -1.111   0.031  1.00  0.00     0.096 C 
ATOM     18  H4  UNL     1      -3.114  -2.025  -1.870  1.00  0.00     0.160 HD
HETATM   19  S1  UNL     1      -2.590  -2.362   0.911  1.00  0.00    -0.063 SA
ENDBRANCH  10  12
ENDBRANCH   8  10
BRANCH   9  20
HETATM   20  N5  UNL     1      -0.745   1.290   3.849  1.00  0.00    -0.106 N 
HETATM   21  O2  UNL     1      -0.770   2.476   4.227  1.00  0.00    -0.531 OA
HETATM   22  O3  UNL     1      -1.408   0.362   4.611  1.00  0.00    -0.531 OA
ENDBRANCH   9  20
BRANCH   5  23
HETATM   23  C3  UNL     1       1.923  -0.517  -0.848  1.00  0.00     0.053 C 
HETATM   24  C4  UNL     1       2.762  -1.732  -0.590  1.00  0.00     0.012 C 
HETATM   25  C5  UNL     1       4.001  -1.701  -1.418  1.00  0.00     0.001 C 
HETATM   26  C6  UNL     1       4.923  -0.556  -1.066  1.00  0.00     0.000 C 
HETATM   27  C7  UNL     1       4.131   0.694  -0.874  1.00  0.00     0.001 C 
HETATM   28  C8  UNL     1       2.745   0.599  -1.466  1.00  0.00     0.012 C 
ENDBRANCH   5  23
TORSDOF 4
