REMARK  7 active torsions:
REMARK  status: ('A' for Active; 'I' for Inactive)
REMARK    1  A    between atoms: C4_6  and  O3_7 
REMARK    2  A    between atoms: C7_11  and  C8_12 
REMARK    3  A    between atoms: C8_12  and  O4_13 
REMARK    4  A    between atoms: C15_22  and  C16_23 
REMARK    5  A    between atoms: C16_23  and  C17_24 
REMARK    6  A    between atoms: C17_24  and  C18_25 
REMARK    7  A    between atoms: C18_25  and  O6_26 
ROOT
HETATM    1  O1  UNL     1      -4.443  -2.877   0.292  1.00  0.00    -0.259 OA
HETATM    2  C1  UNL     1      -3.269  -2.684   0.650  1.00  0.00     0.295 A 
HETATM    3  O2  UNL     1      -2.481  -3.584   1.393  1.00  0.00    -0.313 OA
HETATM    4  C2  UNL     1      -1.232  -3.060   1.645  1.00  0.00     0.221 A 
HETATM    5  C3  UNL     1      -1.231  -1.725   0.966  1.00  0.00     0.017 A 
HETATM    6  C4  UNL     1      -0.171  -0.806   0.900  1.00  0.00     0.089 A 
HETATM    7  C5  UNL     1      -0.408   0.351   0.199  1.00  0.00     0.043 A 
HETATM    8  C6  UNL     1      -1.658   0.566  -0.370  1.00  0.00     0.092 A 
HETATM    9  C7  UNL     1      -2.670  -0.328  -0.291  1.00  0.00     0.017 A 
HETATM   10  C9  UNL     1      -2.464  -1.509   0.386  1.00  0.00     0.061 A 
HETATM   11  O5  UNL     1      -1.797   1.810  -1.043  1.00  0.00    -0.345 OA
HETATM   12  C10 UNL     1      -1.316   2.989  -0.352  1.00  0.00     0.215 C 
HETATM   13  C11 UNL     1       0.135   2.750   0.007  1.00  0.00    -0.022 A 
HETATM   14  C12 UNL     1       1.010   3.758  -0.038  1.00  0.00     0.010 A 
HETATM   15  C13 UNL     1       2.322   3.551   0.246  1.00  0.00     0.001 A 
HETATM   16  C14 UNL     1       2.734   2.287   0.565  1.00  0.00     0.008 A 
HETATM   17  C15 UNL     1       1.850   1.177   0.616  1.00  0.00    -0.046 A 
HETATM   18  C19 UNL     1       0.526   1.434   0.348  1.00  0.00    -0.006 A 
ENDROOT
BRANCH  17  19
HETATM   19  C16 UNL     1       2.445  -0.142   0.355  1.00  0.00     0.041 C 
BRANCH  19  20
HETATM   20  C17 UNL     1       2.609  -0.358  -1.188  1.00  0.00     0.030 C 
BRANCH  20  21
HETATM   21  C18 UNL     1       3.250  -1.696  -1.451  1.00  0.00     0.164 C 
BRANCH  21  22
HETATM   22  O6  UNL     1       2.505  -2.762  -0.957  1.00  0.00    -0.401 OA
ATOM     23  H6  UNL     1       2.909  -3.606  -1.123  1.00  0.00     0.209 HD
ENDBRANCH  21  22
ENDBRANCH  20  21
ENDBRANCH  19  20
ENDBRANCH  17  19
BRANCH   6  24
HETATM   24  O3  UNL     1       0.903  -1.186   1.582  1.00  0.00    -0.359 OA
ATOM     25  H3  UNL     1       1.620  -0.564   1.537  1.00  0.00     0.217 HD
ENDBRANCH   6  24
BRANCH   9  26
HETATM   26  C8  UNL     1      -3.920   0.058  -0.965  1.00  0.00     0.206 C 
BRANCH  26  27
HETATM   27  O4  UNL     1      -4.952  -0.794  -0.908  1.00  0.00    -0.396 OA
ATOM     28  H4  UNL     1      -5.759  -0.545  -1.343  1.00  0.00     0.209 HD
ENDBRANCH  26  27
ENDBRANCH   9  26
TORSDOF 7
