REMARK  6 active torsions:
REMARK  status: ('A' for Active; 'I' for Inactive)
REMARK    1  A    between atoms: C4_4  and  N1_5 
REMARK    2  A    between atoms: C5_7  and  C6_8 
REMARK    3  A    between atoms: C10_13  and  O2_14 
REMARK    4  A    between atoms: C11_16  and  S1_17 
REMARK    5  A    between atoms: S1_17  and  C12_18 
REMARK    6  A    between atoms: C16_22  and  O3_23 
ROOT
HETATM    1  C1  UNL     1       2.218   0.436  -1.516  1.00  0.00     0.037 C 
HETATM    2  C2  UNL     1       1.174  -0.177  -0.699  1.00  0.00    -0.016 C 
HETATM    3  C3  UNL     1       1.340  -0.671   0.492  1.00  0.00     0.006 A 
HETATM    4  C4  UNL     1       2.654  -0.644   1.116  1.00  0.00     0.047 A 
HETATM    5  C8  UNL     1       2.913  -1.157   2.315  1.00  0.00     0.088 A 
HETATM    6  C9  UNL     1       1.811  -1.772   3.021  1.00  0.00     0.208 A 
HETATM    7  O1  UNL     1       1.985  -2.291   4.185  1.00  0.00    -0.285 OA
HETATM    8  C10 UNL     1       0.486  -1.843   2.485  1.00  0.00     0.134 A 
HETATM    9  C11 UNL     1       0.236  -1.306   1.245  1.00  0.00     0.050 A 
ENDROOT
BRANCH   9  10
HETATM   10  S1  UNL     1      -1.395  -1.360   0.739  1.00  0.00    -0.119 SA
BRANCH  10  11
HETATM   11  C12 UNL     1      -2.202  -0.426  -0.449  1.00  0.00     0.085 C 
HETATM   12  C13 UNL     1      -2.346   1.059  -0.163  1.00  0.00     0.050 C 
HETATM   13  C14 UNL     1      -3.753   1.328   0.242  1.00  0.00     0.190 C 
HETATM   14  C15 UNL     1      -4.628   1.741  -0.925  1.00  0.00     0.064 C 
HETATM   15  N2  UNL     1      -4.228   0.033   0.672  1.00  0.00    -0.065 N 
HETATM   16  C16 UNL     1      -4.386   0.828  -2.111  1.00  0.00     0.122 C 
HETATM   17  C17 UNL     1      -4.359  -0.608  -1.715  1.00  0.00     0.066 C 
HETATM   18  C18 UNL     1      -3.726  -0.811  -0.382  1.00  0.00     0.203 C 
ATOM     19  H22 UNL     1      -3.959  -0.240   1.617  1.00  0.00     0.278 HD
ATOM     20  H21 UNL     1      -5.232  -0.030   0.843  1.00  0.00     0.278 HD
BRANCH  16  21
HETATM   21  O3  UNL     1      -5.345   1.024  -3.081  1.00  0.00    -0.395 OA
ATOM     22  H3  UNL     1      -5.193   0.452  -3.824  1.00  0.00     0.210 HD
ENDBRANCH  16  21
ENDBRANCH  10  11
ENDBRANCH   9  10
BRANCH   8  23
HETATM   23  O2  UNL     1      -0.575  -2.449   3.194  1.00  0.00    -0.356 OA
ATOM     24  H2  UNL     1      -1.455  -2.496   2.838  1.00  0.00     0.218 HD
ENDBRANCH   8  23
BRANCH   4  25
HETATM   25  N1  UNL     1       3.793  -0.049   0.472  1.00  0.00    -0.369 N 
HETATM   26  C5  UNL     1       4.981  -0.553   0.577  1.00  0.00     0.061 C 
ATOM     27  H1  UNL     1       3.661   0.796  -0.084  1.00  0.00     0.165 HD
BRANCH  26  28
HETATM   28  C6  UNL     1       6.156   0.063  -0.088  1.00  0.00     0.040 C 
HETATM   29  C7  UNL     1       6.177   1.538   0.316  1.00  0.00     0.010 C 
ENDBRANCH  26  28
ENDBRANCH   4  25
TORSDOF 6
