REMARK  6 active torsions:
REMARK  status: ('A' for Active; 'I' for Inactive)
REMARK    1  A    between atoms: C3_6  and  C4_7 
REMARK    2  A    between atoms: N2_21  and  C15_22 
REMARK    3  A    between atoms: C15_22  and  C16_23 
REMARK    4  A    between atoms: C16_23  and  O1_24 
REMARK    5  A    between atoms: C16_23  and  C17_26 
REMARK    6  A    between atoms: C17_26  and  O2_27 
ROOT
HETATM    1  N1  UNL     1       0.174  -1.671   1.091  1.00  0.00    -0.385 N 
ATOM      2  H11 UNL     1      -0.367  -2.058   1.864  1.00  0.00     0.157 HD
ATOM      3  H12 UNL     1       0.923  -2.335   0.893  1.00  0.00     0.157 HD
HETATM    4  C1  UNL     1      -0.051  -0.535   0.495  1.00  0.00     0.104 C 
HETATM    5  C2  UNL     1       0.724   0.019  -0.613  1.00  0.00    -0.008 C 
HETATM    6  C3  UNL     1       1.978  -0.069  -0.912  1.00  0.00     0.024 C 
HETATM    7  C10 UNL     1      -0.331   0.780  -1.319  1.00  0.00     0.045 C 
HETATM    8  C11 UNL     1       0.074   1.929  -2.115  1.00  0.00     0.011 C 
HETATM    9  C12 UNL     1      -0.943   3.008  -1.746  1.00  0.00     0.003 C 
HETATM   10  C13 UNL     1      -1.883   2.295  -0.732  1.00  0.00     0.026 C 
HETATM   11  C14 UNL     1      -0.857   1.502  -0.049  1.00  0.00     0.094 C 
HETATM   12  N2  UNL     1      -1.122   0.414   0.778  1.00  0.00    -0.359 N 
ENDROOT
BRANCH   6  13
HETATM   13  C4  UNL     1       3.045  -0.753  -0.229  1.00  0.00    -0.011 A 
HETATM   14  C5  UNL     1       3.767  -1.771  -0.862  1.00  0.00     0.037 A 
HETATM   15  C6  UNL     1       4.818  -2.403  -0.237  1.00  0.00     0.036 A 
HETATM   16 CL1  UNL     1       5.668  -3.664  -1.096  1.00  0.00    -0.084 Cl
HETATM   17  C7  UNL     1       5.204  -2.058   1.045  1.00  0.00     0.049 A 
HETATM   18  C8  UNL     1       4.520  -1.071   1.683  1.00  0.00     0.058 A 
HETATM   19 CL2  UNL     1       5.013  -0.633   3.310  1.00  0.00    -0.082 Cl
HETATM   20  C9  UNL     1       3.456  -0.432   1.047  1.00  0.00     0.066 A 
HETATM   21 CL3  UNL     1       2.707   0.860   1.960  1.00  0.00    -0.082 Cl
ENDBRANCH   6  13
BRANCH  12  22
HETATM   22  C15 UNL     1      -2.115   0.067   1.768  1.00  0.00     0.158 C 
BRANCH  22  23
HETATM   23  C16 UNL     1      -3.494  -0.169   1.302  1.00  0.00     0.159 C 
BRANCH  23  24
HETATM   24  O1  UNL     1      -4.165   0.852   0.707  1.00  0.00    -0.392 OA
ATOM     25  H1  UNL     1      -5.053   0.700   0.407  1.00  0.00     0.210 HD
ENDBRANCH  23  24
BRANCH  23  26
HETATM   26  C17 UNL     1      -3.483  -1.325   0.312  1.00  0.00     0.197 C 
BRANCH  26  27
HETATM   27  O2  UNL     1      -4.789  -1.683   0.033  1.00  0.00    -0.398 OA
ATOM     28  H2  UNL     1      -4.782  -2.405  -0.585  1.00  0.00     0.209 HD
ENDBRANCH  26  27
ENDBRANCH  23  26
ENDBRANCH  22  23
ENDBRANCH  12  22
TORSDOF 6
