REMARK  8 active torsions:
REMARK  status: ('A' for Active; 'I' for Inactive)
REMARK    1  A    between atoms: C2_2  and  C3_3 
REMARK    2  A    between atoms: C3_3  and  C4_4 
REMARK    3  A    between atoms: C5_5  and  C6_6 
REMARK    4  A    between atoms: C6_6  and  O1_7 
REMARK    5  A    between atoms: C6_6  and  C7_9 
REMARK    6  A    between atoms: C10_16  and  C11_17 
REMARK    7  A    between atoms: C19_25  and  O3_26 
REMARK    8  A    between atoms: C20_28  and  O4_29 
ROOT
HETATM    1  C1  UNL     1       2.581  -1.952  -2.066  1.00  0.00     0.027 C 
HETATM    2  C2  UNL     1       2.090  -0.957  -1.040  1.00  0.00     0.053 C 
HETATM    3  C8  UNL     1       0.639  -0.764  -1.311  1.00  0.00     0.167 C 
HETATM    4  O2  UNL     1       0.276  -0.447  -2.497  1.00  0.00    -0.292 OA
HETATM    5  C9  UNL     1      -0.389  -0.914  -0.309  1.00  0.00    -0.009 C 
HETATM    6  C10 UNL     1      -1.506  -0.185  -0.334  1.00  0.00     0.011 C 
HETATM    7  C18 UNL     1      -0.195  -1.907   0.777  1.00  0.00     0.076 C 
HETATM    8  C19 UNL     1       1.183  -2.520   0.666  1.00  0.00     0.152 C 
HETATM    9  C20 UNL     1       2.230  -1.476   0.355  1.00  0.00     0.163 C 
ENDROOT
BRANCH   2  10
HETATM   10  C3  UNL     1       2.719   0.405  -1.220  1.00  0.00     0.047 C 
BRANCH  10  11
HETATM   11  C4  UNL     1       4.173   0.410  -1.107  1.00  0.00    -0.027 C 
HETATM   12  C5  UNL     1       4.760   1.142  -0.175  1.00  0.00     0.009 C 
BRANCH  12  13
HETATM   13  C6  UNL     1       4.035   1.991   0.799  1.00  0.00     0.248 C 
BRANCH  13  14
HETATM   14  O1  UNL     1       3.648   3.193   0.200  1.00  0.00    -0.383 OA
ATOM     15  H1  UNL     1       3.183   3.737   0.825  1.00  0.00     0.210 HD
ENDBRANCH  13  14
BRANCH  13  16
HETATM   16  C7  UNL     1       4.964   2.339   1.967  1.00  0.00     0.416 C 
HETATM   17  F1  UNL     1       4.306   3.129   2.884  1.00  0.00    -0.168 F 
HETATM   18  F2  UNL     1       6.066   2.999   1.503  1.00  0.00    -0.168 F 
HETATM   19  F3  UNL     1       5.307   1.164   2.634  1.00  0.00    -0.168 F 
ENDBRANCH  13  16
ENDBRANCH  12  13
ENDBRANCH  10  11
ENDBRANCH   2  10
BRANCH   9  20
HETATM   20  O4  UNL     1       3.476  -1.943   0.676  1.00  0.00    -0.392 OA
ATOM     21  H4  UNL     1       3.565  -2.273   1.562  1.00  0.00     0.210 HD
ENDBRANCH   9  20
BRANCH   8  22
HETATM   22  O3  UNL     1       1.482  -3.075   1.921  1.00  0.00    -0.393 OA
ATOM     23  H3  UNL     1       2.348  -3.460   1.851  1.00  0.00     0.210 HD
ENDBRANCH   8  22
BRANCH   6  24
HETATM   24  C11 UNL     1      -2.543  -0.328   0.666  1.00  0.00     0.003 C 
HETATM   25  C12 UNL     1      -3.620   0.415   0.591  1.00  0.00    -0.080 C 
HETATM   26  C13 UNL     1      -3.846   1.419  -0.483  1.00  0.00     0.034 C 
HETATM   27  C17 UNL     1      -4.685   0.269   1.617  1.00  0.00     0.034 C 
HETATM   28  C14 UNL     1      -5.241   1.986  -0.269  1.00  0.00     0.004 C 
HETATM   29  C15 UNL     1      -6.234   0.847  -0.255  1.00  0.00     0.001 C 
HETATM   30  C16 UNL     1      -5.966  -0.062   0.897  1.00  0.00     0.004 C 
ENDBRANCH   6  24
TORSDOF 8
