REMARK  6 active torsions:
REMARK  status: ('A' for Active; 'I' for Inactive)
REMARK    1  A    between atoms: C2_2  and  C4_4 
REMARK    2  A    between atoms: C4_4  and  C5_5 
REMARK    3  A    between atoms: C13_21  and  C14_22 
REMARK    4  A    between atoms: C14_22  and  C15_23 
REMARK    5  A    between atoms: C14_22  and  N4_25 
REMARK    6  A    between atoms: N4_25  and  C16_27 
ROOT
HETATM    1  C5  UNL     1      -1.988  -1.010   0.575  1.00  0.00     0.214 C 
HETATM    2  O1  UNL     1      -2.514   0.273   0.599  1.00  0.00    -0.369 OA
HETATM    3  C6  UNL     1      -3.113   0.596   1.804  1.00  0.00     0.244 C 
HETATM    4  C7  UNL     1      -4.158   1.618   1.582  1.00  0.00     0.094 C 
HETATM    5  N1  UNL     1      -5.339   1.407   2.026  1.00  0.00    -0.387 N 
ATOM      6  H11 UNL     1      -6.060   2.112   1.873  1.00  0.00     0.157 HD
ATOM      7  H12 UNL     1      -5.527   0.535   2.521  1.00  0.00     0.157 HD
HETATM    8  N2  UNL     1      -3.898   2.826   0.896  1.00  0.00    -0.378 N 
ATOM      9  H2  UNL     1      -4.594   3.571   0.856  1.00  0.00     0.160 HD
HETATM   10  C8  UNL     1      -2.618   2.968   0.257  1.00  0.00     0.121 C 
HETATM   11  C9  UNL     1      -2.197   4.340  -0.112  1.00  0.00     0.020 C 
HETATM   12  C10 UNL     1      -0.662   4.311  -0.207  1.00  0.00     0.003 C 
HETATM   13  C11 UNL     1      -0.162   3.179  -1.050  1.00  0.00     0.020 C 
HETATM   14  C12 UNL     1       0.651   2.147  -0.299  1.00  0.00     0.121 C 
HETATM   15  N3  UNL     1       0.510   0.926  -0.992  1.00  0.00    -0.378 N 
ATOM     16  H3  UNL     1      -0.117   0.890  -1.796  1.00  0.00     0.160 HD
HETATM   17  C13 UNL     1       1.184  -0.220  -0.628  1.00  0.00     0.103 C 
HETATM   18  N5  UNL     1       0.609  -1.105   0.363  1.00  0.00    -0.313 N 
ATOM     19  H5  UNL     1       1.199  -1.904   0.597  1.00  0.00     0.170 HD
HETATM   20  C19 UNL     1      -0.590  -1.072   1.053  1.00  0.00     0.252 C 
HETATM   21  O2  UNL     1      -0.504  -1.098   2.339  1.00  0.00    -0.270 OA
ENDROOT
BRANCH  17  22
HETATM   22  C14 UNL     1       2.688  -0.041  -0.368  1.00  0.00     0.155 C 
BRANCH  22  23
HETATM   23  C15 UNL     1       3.411   0.459  -1.578  1.00  0.00     0.118 C 
HETATM   24  S1  UNL     1       3.269  -0.655  -2.993  1.00  0.00    -0.095 SA
ENDBRANCH  22  23
BRANCH  22  25
HETATM   25  N4  UNL     1       3.193  -1.250   0.168  1.00  0.00    -0.406 N 
ATOM     26  H4  UNL     1       2.613  -2.088   0.216  1.00  0.00     0.154 HD
BRANCH  25  27
HETATM   27  C16 UNL     1       4.526  -1.259   0.634  1.00  0.00     0.069 C 
HETATM   28  C17 UNL     1       4.633  -0.267   1.801  1.00  0.00     0.031 C 
HETATM   29  C18 UNL     1       4.810  -2.659   1.194  1.00  0.00     0.031 C 
ENDBRANCH  25  27
ENDBRANCH  22  25
ENDBRANCH  17  22
BRANCH   1  30
HETATM   30  C4  UNL     1      -2.230  -1.588  -0.776  1.00  0.00     0.045 C 
BRANCH  30  31
HETATM   31  C2  UNL     1      -1.699  -2.997  -0.890  1.00  0.00    -0.020 C 
HETATM   32  C1  UNL     1      -2.353  -3.920   0.116  1.00  0.00     0.009 C 
HETATM   33  C3  UNL     1      -1.983  -3.581  -2.259  1.00  0.00     0.009 C 
ENDBRANCH  30  31
ENDBRANCH   1  30
TORSDOF 6
