REMARK  8 active torsions:
REMARK  status: ('A' for Active; 'I' for Inactive)
REMARK    1  A    between atoms: C2_2  and  C3_3 
REMARK    2  A    between atoms: C6_6  and  N1_7 
REMARK    3  A    between atoms: N1_7  and  C7_9 
REMARK    4  A    between atoms: C8_12  and  N3_13 
REMARK    5  A    between atoms: N3_13  and  C9_15 
REMARK    6  A    between atoms: C11_17  and  C12_18 
REMARK    7  A    between atoms: C15_27  and  N7_28 
REMARK       I    between atoms: N7_28  and  C16_30 
REMARK    8  A    between atoms: N10_35  and  O1_36 
ROOT
HETATM    1  C7  UNL     1       0.710   1.036  -0.052  1.00  0.00     0.734 A 
HETATM    2  N2  UNL     1      -0.043  -0.052  -0.325  1.00  0.00    -0.019 N 
ATOM      3  H2  UNL     1       0.420  -0.941  -0.514  1.00  0.00     0.203 HD
HETATM    4  C8  UNL     1      -1.387   0.005  -0.354  1.00  0.00     0.713 A 
HETATM    5  N6  UNL     1      -1.977   1.175  -0.104  1.00  0.00    -0.019 N 
ATOM      6  H6  UNL     1      -2.995   1.234  -0.121  1.00  0.00     0.203 HD
HETATM    7  C15 UNL     1      -1.242   2.304   0.177  1.00  0.00     0.741 A 
HETATM    8  N10 UNL     1       0.093   2.228   0.201  1.00  0.00     0.128 N 
ENDROOT
BRANCH   4   9
HETATM    9  N3  UNL     1      -2.031  -1.069  -0.620  1.00  0.00    -0.174 N 
ATOM     10  H3  UNL     1      -1.486  -1.913  -0.796  1.00  0.00     0.186 HD
BRANCH   9  11
HETATM   11  C9  UNL     1      -3.434  -1.175  -0.688  1.00  0.00     0.137 A 
HETATM   12  C10 UNL     1      -4.388  -1.121   0.304  1.00  0.00     0.077 A 
HETATM   13  C11 UNL     1      -5.636  -1.277  -0.264  1.00  0.00     0.033 A 
HETATM   14  N4  UNL     1      -5.423  -1.422  -1.584  1.00  0.00    -0.303 N 
HETATM   15  N5  UNL     1      -4.113  -1.362  -1.835  1.00  0.00    -0.285 N 
ATOM     16  H4  UNL     1      -6.151  -1.557  -2.286  1.00  0.00     0.186 HD
ATOM     17  H5  UNL     1      -3.689  -1.446  -2.759  1.00  0.00     0.188 HD
BRANCH  13  18
HETATM   18  C12 UNL     1      -6.951  -1.284   0.432  1.00  0.00     0.037 A 
HETATM   19  C13 UNL     1      -8.195  -0.933  -0.280  1.00  0.00     0.011 A 
HETATM   20  C14 UNL     1      -7.914  -2.393  -0.092  1.00  0.00     0.011 A 
ENDBRANCH  13  18
ENDBRANCH   9  11
ENDBRANCH   4   9
BRANCH   1  21
HETATM   21  N1  UNL     1       1.987   1.028  -0.014  1.00  0.00    -0.218 N 
ATOM     22  H1  UNL     1       2.458   1.906   0.202  1.00  0.00     0.178 HD
BRANCH  21  23
HETATM   23  C6  UNL     1       2.806  -0.123  -0.252  1.00  0.00     0.099 C 
HETATM   24  C5  UNL     1       4.214   0.248  -0.671  1.00  0.00     0.026 C 
HETATM   25  C4  UNL     1       4.866  -1.015  -1.212  1.00  0.00     0.006 C 
HETATM   26  C3  UNL     1       4.960  -2.005  -0.096  1.00  0.00    -0.015 C 
HETATM   27  C18 UNL     1       4.324  -1.500   1.187  1.00  0.00     0.006 C 
HETATM   28  C17 UNL     1       2.900  -1.041   0.936  1.00  0.00     0.026 C 
BRANCH  26  29
HETATM   29  C2  UNL     1       6.391  -2.349   0.154  1.00  0.00     0.000 C 
HETATM   30  C1  UNL     1       7.234  -1.175   0.535  1.00  0.00     0.005 C 
ENDBRANCH  26  29
ENDBRANCH  21  23
ENDBRANCH   1  21
BRANCH   7  31
HETATM   31  N7  UNL     1      -1.943   3.496   0.428  1.00  0.00    -0.161 N 
HETATM   32  C16 UNL     1      -1.291   4.705   0.725  1.00  0.00     0.200 C 
HETATM   33  N8  UNL     1      -1.076   5.018   1.971  1.00  0.00    -0.373 N 
HETATM   34  N9  UNL     1      -0.861   5.631  -0.289  1.00  0.00    -0.063 NA
ATOM     35  H82 UNL     1      -1.381   4.362   2.690  1.00  0.00     0.158 HD
ATOM     36  H81 UNL     1      -0.603   5.895   2.187  1.00  0.00     0.158 HD
ATOM     37  H7  UNL     1      -2.962   3.483   0.393  1.00  0.00     0.187 HD
ENDBRANCH   7  31
BRANCH   8  38
HETATM   38  O1  UNL     1       0.843   3.330   0.477  1.00  0.00    -0.256 OA
ATOM     39  H1  UNL     1       0.414   4.159   0.653  1.00  0.00     0.246 HD
ENDBRANCH   8  38
TORSDOF 8
