REMARK  7 active torsions:
REMARK  status: ('A' for Active; 'I' for Inactive)
REMARK    1  A    between atoms: C2_2  and  N1_3 
REMARK    2  A    between atoms: N1_3  and  C3_5 
REMARK    3  A    between atoms: C3_5  and  C5_7 
REMARK    4  A    between atoms: C5_7  and  N2_8 
REMARK    5  A    between atoms: N2_8  and  C6_10 
REMARK    6  A    between atoms: C9_15  and  N4_16 
REMARK    7  A    between atoms: N4_16  and  C10_18 
ROOT
HETATM    1  C6  UNL     1      -4.060  -1.300   0.023  1.00  0.00     0.102 A 
HETATM    2  C7  UNL     1      -2.924  -0.581  -0.217  1.00  0.00     0.079 A 
HETATM    3  C8  UNL     1      -1.691  -1.156   0.027  1.00  0.00     0.068 A 
HETATM    4  N3  UNL     1      -0.545  -0.496  -0.187  1.00  0.00    -0.191 N 
ATOM      5  H3  UNL     1      -0.569   0.459  -0.543  1.00  0.00     0.184 HD
HETATM    6  C9  UNL     1       0.654  -1.094   0.069  1.00  0.00     0.680 A 
HETATM    7  N6  UNL     1       0.662  -2.328   0.530  1.00  0.00    -0.176 N 
ATOM      8  H6  UNL     1       1.565  -2.764   0.719  1.00  0.00     0.186 HD
HETATM    9  C20 UNL     1      -0.461  -3.055   0.769  1.00  0.00     0.128 A 
HETATM   10  N7  UNL     1      -0.332  -4.255   1.220  1.00  0.00    -0.384 N 
ATOM     11  H71 UNL     1      -1.175  -4.801   1.399  1.00  0.00     0.157 HD
ATOM     12  H72 UNL     1       0.567  -4.697   1.410  1.00  0.00     0.157 HD
HETATM   13  C21 UNL     1      -1.683  -2.454   0.511  1.00  0.00     0.051 A 
HETATM   14  C22 UNL     1      -2.840  -3.152   0.742  1.00  0.00     0.107 A 
HETATM   15  N8  UNL     1      -4.038  -2.552   0.489  1.00  0.00    -0.351 N 
ATOM     16  H8  UNL     1      -4.910  -3.055   0.654  1.00  0.00     0.166 HD
ENDROOT
BRANCH   6  17
HETATM   17  N4  UNL     1       1.717  -0.413  -0.152  1.00  0.00    -0.221 N 
ATOM     18  H4  UNL     1       1.566   0.531  -0.506  1.00  0.00     0.178 HD
BRANCH  17  19
HETATM   19  C10 UNL     1       3.079  -0.788   0.027  1.00  0.00     0.099 C 
HETATM   20  C11 UNL     1       3.699   0.146   1.051  1.00  0.00     0.026 C 
HETATM   21  C12 UNL     1       5.197  -0.041   1.134  1.00  0.00     0.011 C 
HETATM   22  C13 UNL     1       5.887   0.161  -0.190  1.00  0.00    -0.037 C 
HETATM   23  C14 UNL     1       5.701   1.572  -0.683  1.00  0.00     0.037 C 
HETATM   24  C17 UNL     1       7.341  -0.213  -0.034  1.00  0.00     0.037 C 
HETATM   25  C18 UNL     1       5.278  -0.819  -1.168  1.00  0.00     0.011 C 
HETATM   26  C15 UNL     1       7.065   2.239  -0.875  1.00  0.00     0.233 C 
HETATM   27  N5  UNL     1       7.745   2.170   0.399  1.00  0.00    -0.075 N 
HETATM   28  C16 UNL     1       8.137   0.826   0.714  1.00  0.00     0.233 C 
ATOM     29  H52 UNL     1       8.540   2.808   0.433  1.00  0.00     0.277 HD
ATOM     30  H51 UNL     1       7.182   2.579   1.145  1.00  0.00     0.277 HD
HETATM   31  C19 UNL     1       3.783  -0.653  -1.312  1.00  0.00     0.026 C 
ENDBRANCH  17  19
ENDBRANCH   6  17
BRANCH   1  32
HETATM   32  N2  UNL     1      -5.211  -0.750  -0.199  1.00  0.00    -0.374 N 
ATOM     33  H2  UNL     1      -6.056  -1.292  -0.019  1.00  0.00     0.161 HD
BRANCH  32  34
HETATM   34  C5  UNL     1      -5.343   0.594  -0.689  1.00  0.00     0.145 C 
BRANCH  34  35
HETATM   35  C3  UNL     1      -6.773   1.099  -0.666  1.00  0.00     0.090 C 
HETATM   36  C4  UNL     1      -7.658   0.289  -1.594  1.00  0.00     0.033 C 
BRANCH  35  37
HETATM   37  N1  UNL     1      -7.319   1.090   0.651  1.00  0.00    -0.416 N 
ATOM     38  H1  UNL     1      -6.828   0.674   1.443  1.00  0.00     0.153 HD
BRANCH  37  39
HETATM   39  C2  UNL     1      -8.593   1.700   0.782  1.00  0.00     0.110 C 
HETATM   40  C1  UNL     1      -8.536   3.178   0.605  1.00  0.00     0.026 C 
ENDBRANCH  37  39
ENDBRANCH  35  37
ENDBRANCH  34  35
ENDBRANCH  32  34
ENDBRANCH   1  32
TORSDOF 7
