REMARK  8 active torsions:
REMARK  status: ('A' for Active; 'I' for Inactive)
REMARK    1  A    between atoms: N1_1  and  C1_4 
REMARK    2  A    between atoms: C6_14  and  N4_15 
REMARK    3  A    between atoms: N4_15  and  C7_17 
REMARK    4  A    between atoms: C11_25  and  O1_26 
REMARK    5  A    between atoms: O1_26  and  C12_27 
REMARK    6  A    between atoms: C12_27  and  C13_28 
REMARK    7  A    between atoms: C13_28  and  C14_29 
REMARK    8  A    between atoms: C14_29  and  N7_30 
ROOT
HETATM    1  C1  UNL     1      -5.859   2.350   1.170  1.00  0.00     0.679 A 
HETATM    2  N2  UNL     1      -5.513   3.275   0.278  1.00  0.00    -0.176 N 
ATOM      3  H2  UNL     1      -6.081   4.114   0.156  1.00  0.00     0.186 HD
HETATM    4  C2  UNL     1      -4.376   3.084  -0.479  1.00  0.00     0.129 A 
HETATM    5  N3  UNL     1      -4.059   3.935  -1.285  1.00  0.00    -0.384 N 
ATOM      6  H31 UNL     1      -3.218   3.794  -1.845  1.00  0.00     0.157 HD
ATOM      7  H32 UNL     1      -4.614   4.780  -1.422  1.00  0.00     0.157 HD
HETATM    8  C3  UNL     1      -3.613   1.922  -0.290  1.00  0.00     0.060 A 
HETATM    9  C4  UNL     1      -2.452   1.718  -1.050  1.00  0.00    -0.028 A 
HETATM   10  C5  UNL     1      -1.752   0.569  -0.812  1.00  0.00     0.022 A 
HETATM   11  C6  UNL     1      -2.187  -0.360   0.152  1.00  0.00     0.112 A 
HETATM   12  N5  UNL     1      -3.292  -0.137   0.855  1.00  0.00    -0.327 N 
ATOM     13  H5  UNL     1      -3.599  -0.816   1.551  1.00  0.00     0.169 HD
HETATM   14  C10 UNL     1      -4.020   1.007   0.644  1.00  0.00     0.137 A 
HETATM   15  N6  UNL     1      -5.132   1.234   1.356  1.00  0.00    -0.176 N 
ATOM     16  H6  UNL     1      -5.432   0.549   2.050  1.00  0.00     0.186 HD
HETATM   17  C11 UNL     1      -0.557   0.488  -1.653  1.00  0.00     0.159 C 
HETATM   18  C20 UNL     1      -0.860   1.469  -2.771  1.00  0.00     0.042 C 
HETATM   19  C21 UNL     1      -1.798   2.493  -2.110  1.00  0.00     0.043 C 
ENDROOT
BRANCH  17  20
HETATM   20  O1  UNL     1       0.548   1.034  -0.974  1.00  0.00    -0.381 OA
BRANCH  20  21
HETATM   21  C12 UNL     1       1.582   0.119  -1.051  1.00  0.00     0.171 C 
BRANCH  21  22
HETATM   22  C13 UNL     1       2.825   0.656  -0.329  1.00  0.00     0.065 C 
BRANCH  22  23
HETATM   23  C14 UNL     1       3.918  -0.405  -0.457  1.00  0.00     0.125 C 
HETATM   24  C15 UNL     1       5.199   0.112   0.155  1.00  0.00     0.038 C 
HETATM   25  C16 UNL     1       5.247  -0.170   1.641  1.00  0.00     0.002 C 
HETATM   26  C17 UNL     1       5.258  -1.656   1.925  1.00  0.00     0.000 C 
HETATM   27  C18 UNL     1       4.623  -2.450   0.816  1.00  0.00     0.002 C 
HETATM   28  C19 UNL     1       3.495  -1.700   0.148  1.00  0.00     0.038 C 
BRANCH  23  29
HETATM   29  N7  UNL     1       4.172  -0.605  -1.869  1.00  0.00    -0.070 N 
ATOM     30  H73 UNL     1       3.329  -0.838  -2.395  1.00  0.00     0.275 HD
ATOM     31  H72 UNL     1       4.400   0.261  -2.358  1.00  0.00     0.275 HD
ATOM     32  H71 UNL     1       4.901  -1.313  -1.954  1.00  0.00     0.275 HD
ENDBRANCH  23  29
ENDBRANCH  22  23
ENDBRANCH  21  22
ENDBRANCH  20  21
ENDBRANCH  17  20
BRANCH  11  33
HETATM   33  N4  UNL     1      -1.514  -1.450   0.365  1.00  0.00    -0.371 N 
ATOM     34  H4  UNL     1      -0.666  -1.631  -0.172  1.00  0.00     0.161 HD
BRANCH  33  35
HETATM   35  C7  UNL     1      -1.951  -2.408   1.351  1.00  0.00     0.083 A 
HETATM   36  C8  UNL     1      -2.944  -3.461   0.950  1.00  0.00     0.027 A 
HETATM   37  C9  UNL     1      -1.504  -3.805   1.324  1.00  0.00     0.027 A 
ENDBRANCH  33  35
ENDBRANCH  11  33
BRANCH   1  38
HETATM   38  N1  UNL     1      -6.931   2.515   1.892  1.00  0.00    -0.234 N 
ATOM     39  H12 UNL     1      -7.482   3.361   1.751  1.00  0.00     0.174 HD
ATOM     40  H11 UNL     1      -7.196   1.806   2.576  1.00  0.00     0.174 HD
ENDBRANCH   1  38
TORSDOF 8
