REMARK  18 active torsions:
REMARK  status: ('A' for Active; 'I' for Inactive)
REMARK    1  A    between atoms: N1_2  and  C2_3 
REMARK    2  A    between atoms: N1_2  and  C23_43 
REMARK    3  A    between atoms: C2_3  and  C3_4 
REMARK    4  A    between atoms: C3_4  and  O1_5 
REMARK    5  A    between atoms: O1_5  and  C4_6 
REMARK    6  A    between atoms: C4_6  and  C5_7 
REMARK    7  A    between atoms: C5_7  and  N2_8 
REMARK    8  A    between atoms: N2_8  and  C6_9 
REMARK    9  A    between atoms: N2_8  and  C19_35 
REMARK   10  A    between atoms: C6_9  and  C7_10 
REMARK   11  A    between atoms: C7_10  and  N3_11 
REMARK   12  A    between atoms: C13_21  and  N6_22 
REMARK   13  A    between atoms: C23_43  and  O3_44 
REMARK   14  A    between atoms: C23_43  and  C24_46 
REMARK   15  A    between atoms: C24_46  and  O4_47 
REMARK   16  A    between atoms: O4_47  and  C25_48 
REMARK   17  A    between atoms: C25_48  and  C26_49 
REMARK   18  A    between atoms: C26_49  and  O5_50 
ROOT
HETATM    1  N3  UNL     1      -1.576   1.049  -0.236  1.00  0.00    -0.375 N 
ATOM      2  H3  UNL     1      -1.185   1.979  -0.388  1.00  0.00     0.161 HD
HETATM    3  C8  UNL     1      -2.792   0.946   0.147  1.00  0.00     0.104 A 
HETATM    4  C9  UNL     1      -3.453   2.170   0.316  1.00  0.00     0.073 A 
HETATM    5  C10 UNL     1      -4.759   2.126   0.733  1.00  0.00     0.079 A 
HETATM    6  C11 UNL     1      -5.534   3.319   0.938  1.00  0.00     0.102 C 
HETATM    7  N4  UNL     1      -6.157   4.285   1.083  1.00  0.00    -0.191 NA
HETATM    8  C12 UNL     1      -5.377   0.903   0.970  1.00  0.00     0.115 A 
HETATM    9  N5  UNL     1      -6.658   0.830   1.383  1.00  0.00    -0.185 N 
ATOM     10  H5  UNL     1      -7.171   1.701   1.516  1.00  0.00     0.184 HD
HETATM   11  C13 UNL     1      -7.297  -0.326   1.629  1.00  0.00     0.695 A 
HETATM   12  N7  UNL     1      -6.615  -1.448   1.449  1.00  0.00    -0.130 N 
ATOM     13  H7  UNL     1      -7.078  -2.339   1.629  1.00  0.00     0.205 HD
HETATM   14  N8  UNL     1      -5.338  -1.454   1.039  1.00  0.00    -0.269 N 
ATOM     15  H8  UNL     1      -4.848  -2.340   0.912  1.00  0.00     0.189 HD
HETATM   16  C18 UNL     1      -4.699  -0.288   0.794  1.00  0.00     0.151 A 
HETATM   17  N9  UNL     1      -3.413  -0.221   0.383  1.00  0.00    -0.326 N 
ATOM     18  H9  UNL     1      -2.895  -1.089   0.247  1.00  0.00     0.169 HD
ENDROOT
BRANCH   1  19
HETATM   19  C7  UNL     1      -0.746  -0.091  -0.458  1.00  0.00     0.141 C 
BRANCH  19  20
HETATM   20  C6  UNL     1       0.730   0.332  -0.397  1.00  0.00     0.143 C 
BRANCH  20  21
HETATM   21  N2  UNL     1       1.603  -0.789  -0.608  1.00  0.00    -0.375 N 
BRANCH  21  22
HETATM   22  C5  UNL     1       3.054  -0.578  -0.557  1.00  0.00     0.149 C 
BRANCH  22  23
HETATM   23  C4  UNL     1       3.785  -1.866  -0.767  1.00  0.00     0.187 C 
BRANCH  23  24
HETATM   24  O1  UNL     1       5.140  -1.700  -0.725  1.00  0.00    -0.388 OA
BRANCH  24  25
HETATM   25  C3  UNL     1       5.672  -0.846  -1.680  1.00  0.00     0.187 C 
BRANCH  25  26
HETATM   26  C2  UNL     1       7.176  -0.834  -1.500  1.00  0.00     0.150 C 
BRANCH  26  27
HETATM   27  N1  UNL     1       7.846   0.004  -2.431  1.00  0.00    -0.366 N 
HETATM   28  C1  UNL     1       8.294  -0.599  -3.729  1.00  0.00     0.151 C 
BRANCH  27  29
HETATM   29  C23 UNL     1       8.129   1.339  -2.251  1.00  0.00     0.137 C 
BRANCH  29  30
HETATM   30  O3  UNL     1       8.750   1.948  -3.220  1.00  0.00    -0.348 OA
ATOM     31  H3  UNL     1       8.945   2.869  -3.096  1.00  0.00     0.219 HD
ENDBRANCH  29  30
BRANCH  29  32
HETATM   32  C24 UNL     1       7.817   2.164  -1.098  1.00  0.00     0.251 C 
BRANCH  32  33
HETATM   33  O4  UNL     1       7.165   1.614  -0.038  1.00  0.00    -0.381 OA
BRANCH  33  34
HETATM   34  C25 UNL     1       6.992   2.583   0.968  1.00  0.00     0.194 C 
BRANCH  34  35
HETATM   35  C26 UNL     1       6.299   2.030   2.164  1.00  0.00     0.190 C 
BRANCH  35  36
HETATM   36  O5  UNL     1       5.047   1.547   1.886  1.00  0.00    -0.399 OA
ATOM     37  H5  UNL     1       4.605   1.194   2.649  1.00  0.00     0.209 HD
ENDBRANCH  35  36
ENDBRANCH  34  35
ENDBRANCH  33  34
ENDBRANCH  32  33
ENDBRANCH  29  32
ENDBRANCH  27  29
ENDBRANCH  26  27
ENDBRANCH  25  26
ENDBRANCH  24  25
ENDBRANCH  23  24
ENDBRANCH  22  23
ENDBRANCH  21  22
BRANCH  21  38
HETATM   38  C19 UNL     1       1.084  -2.072  -0.862  1.00  0.00     0.061 A 
HETATM   39  C20 UNL     1       0.826  -2.887   0.247  1.00  0.00     0.119 A 
HETATM   40  N10 UNL     1       0.337  -4.098   0.027  1.00  0.00    -0.360 N 
HETATM   41  C21 UNL     1       0.089  -4.548  -1.230  1.00  0.00     0.180 A 
ATOM     42  H10 UNL     1       0.142  -4.708   0.821  1.00  0.00     0.166 HD
HETATM   43  N11 UNL     1       0.343  -3.746  -2.305  1.00  0.00    -0.360 N 
HETATM   44  C22 UNL     1       0.837  -2.515  -2.139  1.00  0.00     0.119 A 
ATOM     45  H11 UNL     1       0.154  -4.090  -3.246  1.00  0.00     0.166 HD
ENDBRANCH  21  38
ENDBRANCH  20  21
ENDBRANCH  19  20
ENDBRANCH   1  19
BRANCH  11  46
HETATM   46  N6  UNL     1      -8.657  -0.267   2.071  1.00  0.00    -0.212 N 
HETATM   47  C14 UNL     1      -9.323   1.010   2.249  1.00  0.00     0.167 C 
HETATM   48  C15 UNL     1     -10.645   0.957   1.544  1.00  0.00     0.188 C 
HETATM   49  O2  UNL     1     -11.380  -0.146   1.977  1.00  0.00    -0.388 OA
HETATM   50  C16 UNL     1     -10.761  -1.341   1.679  1.00  0.00     0.188 C 
HETATM   51  C17 UNL     1      -9.425  -1.462   2.362  1.00  0.00     0.167 C 
ENDBRANCH  11  46
TORSDOF 18
