REMARK  17 active torsions:
REMARK  status: ('A' for Active; 'I' for Inactive)
REMARK    1  A    between atoms: C3_6  and  S1_7 
REMARK    2  A    between atoms: S1_7  and  N3_10 
REMARK    3  A    between atoms: N3_10  and  C4_11 
REMARK    4  A    between atoms: N3_10  and  C18_33 
REMARK    5  A    between atoms: C4_11  and  C5_12 
REMARK    6  A    between atoms: C5_12  and  N4_13 
REMARK    7  A    between atoms: C11_19  and  O3_20 
REMARK    8  A    between atoms: O3_20  and  C12_21 
REMARK    9  A    between atoms: C12_21  and  C13_22 
REMARK   10  A    between atoms: C13_22  and  O4_23 
REMARK   11  A    between atoms: C13_22  and  C14_25 
REMARK   12  A    between atoms: C14_25  and  O5_26 
REMARK   13  A    between atoms: O5_26  and  N5_27 
REMARK   14  A    between atoms: C18_33  and  C19_34 
REMARK   15  A    between atoms: N6_36  and  C21_37 
REMARK   16  A    between atoms: C21_37  and  C22_38 
REMARK   17  A    between atoms: C22_38  and  O8_39 
ROOT
HETATM    1  N3  UNL     1      -2.772  -0.914  -1.478  1.00  0.00    -0.178 NA
ENDROOT
BRANCH   1   2
HETATM    2  S1  UNL     1      -3.187   0.695  -1.924  1.00  0.00     0.264 S 
HETATM    3  O1  UNL     1      -4.509   0.628  -2.638  1.00  0.00    -0.204 OA
HETATM    4  O2  UNL     1      -2.208   1.255  -2.928  1.00  0.00    -0.204 OA
BRANCH   2   5
HETATM    5  C3  UNL     1      -3.289   1.770  -0.576  1.00  0.00     0.161 A 
HETATM    6  N2  UNL     1      -2.363   2.123   0.319  1.00  0.00    -0.341 N 
HETATM    7  C2  UNL     1      -2.872   2.982   1.206  1.00  0.00     0.183 A 
ATOM      8  H2  UNL     1      -1.401   1.784   0.324  1.00  0.00     0.167 HD
HETATM    9  N1  UNL     1      -4.151   3.192   0.885  1.00  0.00    -0.354 N 
HETATM   10  C1  UNL     1      -5.088   4.074   1.614  1.00  0.00     0.156 C 
HETATM   11  C23 UNL     1      -4.417   2.461  -0.197  1.00  0.00     0.134 A 
ENDBRANCH   2   5
ENDBRANCH   1   2
BRANCH   1  12
HETATM   12  C4  UNL     1      -1.483  -1.181  -2.041  1.00  0.00     0.143 C 
BRANCH  12  13
HETATM   13  C5  UNL     1      -0.289  -0.767  -1.281  1.00  0.00     0.288 C 
BRANCH  13  14
HETATM   14  N4  UNL     1       0.003  -1.366  -0.036  1.00  0.00     0.094 N 
HETATM   15  C6  UNL     1       0.467  -2.733  -0.130  1.00  0.00     0.277 C 
HETATM   16  C7  UNL     1       1.570  -3.049   0.836  1.00  0.00     0.069 C 
HETATM   17  C8  UNL     1       2.659  -2.073   0.600  1.00  0.00    -0.048 A 
HETATM   18  C9  UNL     1       3.970  -2.439   0.440  1.00  0.00     0.010 A 
HETATM   19  C16 UNL     1       2.280  -0.750   0.547  1.00  0.00    -0.021 A 
HETATM   20  C10 UNL     1       4.932  -1.465   0.221  1.00  0.00     0.037 A 
HETATM   21  C11 UNL     1       4.595  -0.126   0.162  1.00  0.00     0.069 A 
HETATM   22  C15 UNL     1       3.220   0.187   0.336  1.00  0.00     0.046 A 
HETATM   23  C17 UNL     1       0.831  -0.492   0.734  1.00  0.00     0.311 C 
BRANCH  21  24
HETATM   24  O3  UNL     1       5.483   0.840  -0.040  1.00  0.00    -0.349 OA
BRANCH  24  25
HETATM   25  C12 UNL     1       6.748   1.176  -0.227  1.00  0.00     0.209 C 
BRANCH  25  26
HETATM   26  C13 UNL     1       7.777   0.939   0.837  1.00  0.00     0.168 C 
BRANCH  26  27
HETATM   27  O4  UNL     1       7.974  -0.359   1.229  1.00  0.00    -0.391 OA
ATOM     28  H4  UNL     1       8.626  -0.509   1.903  1.00  0.00     0.210 HD
ENDBRANCH  26  27
BRANCH  26  29
HETATM   29  C14 UNL     1       9.154   1.450   0.379  1.00  0.00     0.241 C 
BRANCH  29  30
HETATM   30  O5  UNL     1       9.078   2.782  -0.053  1.00  0.00    -0.219 OA
BRANCH  30  31
HETATM   31  N5  UNL     1      10.237   3.377  -0.494  1.00  0.00     0.005 N 
HETATM   32  O6  UNL     1      10.879   2.925  -1.475  1.00  0.00    -0.511 OA
HETATM   33  O7  UNL     1      10.710   4.494   0.149  1.00  0.00    -0.511 OA
ENDBRANCH  30  31
ENDBRANCH  29  30
ENDBRANCH  26  29
ENDBRANCH  25  26
ENDBRANCH  24  25
ENDBRANCH  21  24
ENDBRANCH  13  14
ENDBRANCH  12  13
ENDBRANCH   1  12
BRANCH   1  34
HETATM   34  C18 UNL     1      -2.874  -1.176  -0.098  1.00  0.00     0.109 C 
BRANCH  34  35
HETATM   35  C19 UNL     1      -4.325  -1.395   0.316  1.00  0.00     0.078 A 
HETATM   36  C20 UNL     1      -5.368  -1.740  -0.510  1.00  0.00     0.143 A 
HETATM   37  N6  UNL     1      -6.462  -1.817   0.271  1.00  0.00    -0.285 N 
HETATM   38  N7  UNL     1      -6.112  -1.531   1.527  1.00  0.00    -0.240 N 
HETATM   39  N8  UNL     1      -4.822  -1.275   1.561  1.00  0.00    -0.284 N 
ATOM     40  H7  UNL     1      -6.742  -1.514   2.329  1.00  0.00     0.208 HD
ATOM     41  H8  UNL     1      -4.287  -1.027   2.393  1.00  0.00     0.188 HD
BRANCH  37  42
HETATM   42  C21 UNL     1      -7.807  -2.153  -0.154  1.00  0.00     0.175 C 
BRANCH  42  43
HETATM   43  C22 UNL     1      -8.581  -0.912  -0.564  1.00  0.00     0.185 C 
BRANCH  43  44
HETATM   44  O8  UNL     1      -8.641  -0.074   0.535  1.00  0.00    -0.399 OA
ATOM     45  H8  UNL     1      -9.125   0.702   0.279  1.00  0.00     0.209 HD
ENDBRANCH  43  44
ENDBRANCH  42  43
ENDBRANCH  37  42
ENDBRANCH  34  35
ENDBRANCH   1  34
TORSDOF 17
