REMARK  16 active torsions:
REMARK  status: ('A' for Active; 'I' for Inactive)
REMARK    1  A    between atoms: C2_2  and  C3_3 
REMARK    2  A    between atoms: C3_3  and  C4_4 
REMARK    3  A    between atoms: N1_5  and  O1_6 
REMARK    4  A    between atoms: C5_8  and  C6_9 
REMARK    5  A    between atoms: C6_9  and  C7_10 
REMARK    6  A    between atoms: N3_14  and  C9_16 
REMARK    7  A    between atoms: C9_16  and  C10_17 
REMARK    8  A    between atoms: N4_18  and  C11_19 
REMARK    9  A    between atoms: N4_18  and  C13_21 
REMARK   10  A    between atoms: C13_21  and  C14_22 
REMARK   11  A    between atoms: C14_22  and  C15_23 
REMARK   12  A    between atoms: N9_39  and  C23_40 
REMARK   13  A    between atoms: C23_40  and  C24_41 
REMARK   14  A    between atoms: C24_41  and  N10_42 
REMARK   15  A    between atoms: N10_42  and  C25_43 
REMARK   16  A    between atoms: N10_42  and  C27_45 
ROOT
HETATM    1  C7  UNL     1       0.082  -0.374   0.103  1.00  0.00     0.139 A 
HETATM    2  N2  UNL     1       1.257   0.028   0.613  1.00  0.00    -0.175 N 
ATOM      3  H2  UNL     1       1.451  -0.144   1.599  1.00  0.00     0.186 HD
HETATM    4  C8  UNL     1       2.185   0.649  -0.131  1.00  0.00     0.705 A 
HETATM    5  N3  UNL     1       3.317   1.031   0.274  1.00  0.00    -0.220 N 
ATOM      6  H3  UNL     1       3.901   1.489  -0.425  1.00  0.00     0.178 HD
HETATM    7  N5  UNL     1       1.938   0.895  -1.463  1.00  0.00     0.077 N 
HETATM    8  C17 UNL     1       2.867   1.515  -2.206  1.00  0.00     0.368 A 
HETATM    9  O2  UNL     1       3.957   1.882  -1.705  1.00  0.00    -0.245 OA
HETATM   10  N6  UNL     1       2.573   1.725  -3.513  1.00  0.00    -0.254 N 
HETATM   11  C18 UNL     1       3.547   2.384  -4.365  1.00  0.00     0.166 C 
HETATM   12  C19 UNL     1       1.408   1.334  -4.051  1.00  0.00     0.346 A 
HETATM   13  O3  UNL     1       1.151   1.540  -5.279  1.00  0.00    -0.246 OA
HETATM   14  N7  UNL     1       0.501   0.721  -3.294  1.00  0.00    -0.135 N 
HETATM   15  C20 UNL     1      -0.794   0.259  -3.792  1.00  0.00     0.180 C 
HETATM   16  C21 UNL     1       0.760   0.491  -1.968  1.00  0.00     0.715 A 
HETATM   17  N8  UNL     1      -0.155  -0.129  -1.219  1.00  0.00    -0.174 N 
ATOM     18  H8  UNL     1      -1.038  -0.422  -1.638  1.00  0.00     0.186 HD
ENDROOT
BRANCH   1  19
HETATM   19  C6  UNL     1      -0.939  -1.088   0.869  1.00  0.00     0.087 C 
BRANCH  19  20
HETATM   20  C5  UNL     1      -2.113  -0.623   1.189  1.00  0.00     0.136 A 
HETATM   21  N1  UNL     1      -2.663   0.564   0.921  1.00  0.00    -0.202 N 
HETATM   22  C4  UNL     1      -3.926   0.588   1.415  1.00  0.00     0.139 A 
HETATM   23  N9  UNL     1      -4.189  -0.614   2.011  1.00  0.00    -0.292 N 
HETATM   24  C22 UNL     1      -3.076  -1.354   1.874  1.00  0.00     0.279 A 
HETATM   25  O4  UNL     1      -2.969  -2.546   2.322  1.00  0.00    -0.265 OA
BRANCH  21  26
HETATM   26  O1  UNL     1      -2.013   1.600   0.244  1.00  0.00    -0.281 OA
ATOM     27  H1  UNL     1      -1.128   1.583  -0.102  1.00  0.00     0.245 HD
ENDBRANCH  21  26
BRANCH  22  28
HETATM   28  C3  UNL     1      -4.753   1.597   1.351  1.00  0.00     0.050 C 
BRANCH  28  29
HETATM   29  C2  UNL     1      -4.564   2.900   0.763  1.00  0.00    -0.006 C 
HETATM   30  C1  UNL     1      -5.550   3.818   0.789  1.00  0.00     0.011 C 
ENDBRANCH  28  29
ENDBRANCH  22  28
BRANCH  23  31
HETATM   31  C23 UNL     1      -5.419  -1.083   2.616  1.00  0.00     0.178 C 
BRANCH  31  32
HETATM   32  C24 UNL     1      -6.270  -1.925   1.738  1.00  0.00     0.078 C 
BRANCH  32  33
HETATM   33  N10 UNL     1      -6.810  -1.424   0.554  1.00  0.00    -0.392 N 
BRANCH  33  34
HETATM   34  C25 UNL     1      -7.881  -0.505   0.586  1.00  0.00     0.117 C 
HETATM   35  C26 UNL     1      -9.190  -1.119   1.064  1.00  0.00     0.026 C 
ENDBRANCH  33  34
BRANCH  33  36
HETATM   36  C27 UNL     1      -6.827  -2.311  -0.582  1.00  0.00     0.117 C 
HETATM   37  C28 UNL     1      -7.777  -3.465  -0.421  1.00  0.00     0.026 C 
ENDBRANCH  33  36
ENDBRANCH  32  33
ENDBRANCH  31  32
ENDBRANCH  23  31
ENDBRANCH  19  20
ENDBRANCH   1  19
BRANCH   5  38
HETATM   38  C9  UNL     1       3.901   0.911   1.586  1.00  0.00     0.182 C 
BRANCH  38  39
HETATM   39  C10 UNL     1       5.333   1.373   1.603  1.00  0.00     0.083 C 
HETATM   40  N4  UNL     1       6.282   0.760   0.838  1.00  0.00    -0.373 N 
BRANCH  40  41
HETATM   41  C11 UNL     1       7.494   1.501   0.722  1.00  0.00     0.122 C 
HETATM   42  C12 UNL     1       8.285   1.659   1.967  1.00  0.00     0.027 C 
ENDBRANCH  40  41
BRANCH  40  43
HETATM   43  C13 UNL     1       6.178  -0.384   0.086  1.00  0.00     0.063 C 
BRANCH  43  44
HETATM   44  C14 UNL     1       6.049  -1.660   0.875  1.00  0.00     0.044 C 
BRANCH  44  45
HETATM   45  C15 UNL     1       7.221  -1.966   1.768  1.00  0.00     0.001 C 
HETATM   46  C16 UNL     1       8.523  -2.113   1.006  1.00  0.00     0.005 C 
ENDBRANCH  44  45
ENDBRANCH  43  44
ENDBRANCH  40  43
ENDBRANCH  38  39
ENDBRANCH   5  38
TORSDOF 16
