REMARK  16 active torsions:
REMARK  status: ('A' for Active; 'I' for Inactive)
REMARK    1  A    between atoms: O1_1  and  C1_3 
REMARK    2  A    between atoms: C1_3  and  C2_4 
REMARK    3  A    between atoms: C2_4  and  O2_5 
REMARK    4  A    between atoms: O2_5  and  C3_6 
REMARK    5  A    between atoms: C3_6  and  C4_7 
REMARK    6  A    between atoms: C4_7  and  O3_8 
REMARK    7  A    between atoms: O3_8  and  C5_9 
REMARK    8  A    between atoms: C5_9  and  C6_10 
REMARK    9  A    between atoms: C6_10  and  O4_11 
REMARK   10  A    between atoms: O4_11  and  C7_12 
REMARK   11  A    between atoms: C7_12  and  C8_13 
REMARK   12  A    between atoms: C8_13  and  N1_14 
REMARK   13  A    between atoms: N2_17  and  C11_18 
REMARK   14  A    between atoms: C12_21  and  N4_22 
REMARK   15  A    between atoms: C17_30  and  N6_31 
REMARK   16  A    between atoms: C22_37  and  N7_38 
ROOT
HETATM    1  C11 UNL     1      -2.175   0.087   0.799  1.00  0.00     0.150 A 
HETATM    2  N3  UNL     1      -2.856  -0.652   1.750  1.00  0.00    -0.174 N 
ATOM      3  H3  UNL     1      -2.329  -1.280   2.357  1.00  0.00     0.186 HD
HETATM    4  C12 UNL     1      -4.171  -0.572   1.899  1.00  0.00     0.683 A 
HETATM    5  N5  UNL     1      -4.832   0.259   1.090  1.00  0.00    -0.174 N 
ATOM      6  H5  UNL     1      -5.844   0.329   1.197  1.00  0.00     0.186 HD
HETATM    7  C17 UNL     1      -4.232   1.022   0.126  1.00  0.00     0.150 A 
HETATM    8  C22 UNL     1      -2.856   0.944  -0.037  1.00  0.00     0.121 A 
ENDROOT
BRANCH   1   9
HETATM    9  N2  UNL     1      -0.781  -0.058   0.726  1.00  0.00    -0.359 N 
HETATM   10  C10 UNL     1       0.130   0.885   1.288  1.00  0.00     0.168 C 
HETATM   11  C9  UNL     1       1.458   0.978   0.604  1.00  0.00     0.078 C 
HETATM   12  N1  UNL     1       1.970  -0.282   0.241  1.00  0.00    -0.388 N 
HETATM   13  C27 UNL     1       1.214  -1.435   0.544  1.00  0.00     0.141 C 
HETATM   14  C26 UNL     1      -0.219  -1.219   0.070  1.00  0.00     0.144 C 
BRANCH  12  15
HETATM   15  C8  UNL     1       2.613  -0.314  -1.056  1.00  0.00     0.148 C 
BRANCH  15  16
HETATM   16  C7  UNL     1       3.881   0.510  -0.955  1.00  0.00     0.187 C 
BRANCH  16  17
HETATM   17  O4  UNL     1       4.568   0.541  -2.158  1.00  0.00    -0.387 OA
BRANCH  17  18
HETATM   18  C6  UNL     1       4.962  -0.664  -2.658  1.00  0.00     0.193 C 
BRANCH  18  19
HETATM   19  C5  UNL     1       5.905  -1.329  -1.645  1.00  0.00     0.193 C 
BRANCH  19  20
HETATM   20  O3  UNL     1       6.263  -2.523  -2.204  1.00  0.00    -0.387 OA
BRANCH  20  21
HETATM   21  C4  UNL     1       7.040  -3.389  -1.534  1.00  0.00     0.193 C 
BRANCH  21  22
HETATM   22  C3  UNL     1       8.388  -2.885  -1.160  1.00  0.00     0.193 C 
BRANCH  22  23
HETATM   23  O2  UNL     1       8.282  -1.786  -0.331  1.00  0.00    -0.387 OA
BRANCH  23  24
HETATM   24  C2  UNL     1       9.537  -1.294   0.035  1.00  0.00     0.193 C 
BRANCH  24  25
HETATM   25  C1  UNL     1       9.308  -0.098   0.936  1.00  0.00     0.190 C 
BRANCH  25  26
HETATM   26  O1  UNL     1      10.555   0.411   1.316  1.00  0.00    -0.399 OA
ATOM     27  H1  UNL     1      10.411   1.161   1.881  1.00  0.00     0.209 HD
ENDBRANCH  25  26
ENDBRANCH  24  25
ENDBRANCH  23  24
ENDBRANCH  22  23
ENDBRANCH  21  22
ENDBRANCH  20  21
ENDBRANCH  19  20
ENDBRANCH  18  19
ENDBRANCH  17  18
ENDBRANCH  16  17
ENDBRANCH  15  16
ENDBRANCH  12  15
ENDBRANCH   1   9
BRANCH   8  28
HETATM   28  N7  UNL     1      -2.196   1.681  -1.051  1.00  0.00    -0.350 N 
HETATM   29  C23 UNL     1      -1.583   2.975  -1.115  1.00  0.00     0.152 C 
HETATM   30  C24 UNL     1      -1.760   3.402  -2.567  1.00  0.00     0.254 C 
HETATM   31  N8  UNL     1      -2.123   2.226  -3.305  1.00  0.00    -0.058 N 
HETATM   32  C25 UNL     1      -2.021   1.111  -2.405  1.00  0.00     0.357 C 
ATOM     33  H82 UNL     1      -3.039   2.299  -3.748  1.00  0.00     0.279 HD
ATOM     34  H81 UNL     1      -1.575   2.104  -4.156  1.00  0.00     0.279 HD
ENDBRANCH   8  28
BRANCH   4  35
HETATM   35  N4  UNL     1      -4.864  -1.350   2.897  1.00  0.00    -0.213 N 
HETATM   36  C13 UNL     1      -6.299  -1.204   3.100  1.00  0.00     0.167 C 
HETATM   37  C14 UNL     1      -6.627  -1.962   4.395  1.00  0.00     0.188 C 
HETATM   38  O5  UNL     1      -6.230  -3.271   4.162  1.00  0.00    -0.388 OA
HETATM   39  C15 UNL     1      -4.862  -3.369   4.317  1.00  0.00     0.188 C 
HETATM   40  C16 UNL     1      -4.076  -2.274   3.682  1.00  0.00     0.167 C 
ENDBRANCH   4  35
BRANCH   7  41
HETATM   41  N6  UNL     1      -5.002   1.880  -0.679  1.00  0.00    -0.361 N 
HETATM   42  C18 UNL     1      -5.053   3.322  -0.590  1.00  0.00     0.150 C 
HETATM   43  C19 UNL     1      -6.537   3.723  -0.547  1.00  0.00     0.187 C 
HETATM   44  O6  UNL     1      -7.054   3.383  -1.815  1.00  0.00    -0.388 OA
HETATM   45  C20 UNL     1      -7.156   2.006  -1.849  1.00  0.00     0.187 C 
HETATM   46  C21 UNL     1      -5.835   1.288  -1.708  1.00  0.00     0.150 C 
ENDBRANCH   7  41
TORSDOF 16
