REMARK  10 active torsions:
REMARK  status: ('A' for Active; 'I' for Inactive)
REMARK    1  A    between atoms: C4_7  and  C5_8 
REMARK    2  A    between atoms: C5_8  and  C6_9 
REMARK       I    between atoms: C6_9  and  N3_11 
REMARK    3  A    between atoms: N3_11  and  C7_13 
REMARK    4  A    between atoms: C8_16  and  N5_17 
REMARK    5  A    between atoms: N5_17  and  N6_19 
REMARK    6  A    between atoms: N8_28  and  C12_29 
REMARK    7  A    between atoms: C12_29  and  C13_30 
REMARK    8  A    between atoms: C13_30  and  O3_31 
REMARK    9  A    between atoms: C13_30  and  C14_33 
REMARK   10  A    between atoms: C14_33  and  O4_34 
ROOT
HETATM    1  C7  UNL     1       0.201   0.134  -0.028  1.00  0.00     0.143 A 
HETATM    2  N4  UNL     1       0.909  -0.741  -0.759  1.00  0.00    -0.174 N 
ATOM      3  H4  UNL     1       1.917  -0.611  -0.840  1.00  0.00     0.186 HD
HETATM    4  C8  UNL     1       0.330  -1.798  -1.397  1.00  0.00     0.699 A 
HETATM    5  N7  UNL     1      -0.992  -2.024  -1.328  1.00  0.00    -0.174 N 
ATOM      6  H7  UNL     1      -1.424  -2.815  -1.805  1.00  0.00     0.186 HD
HETATM    7  C9  UNL     1      -1.723  -1.153  -0.597  1.00  0.00     0.146 A 
HETATM    8  C10 UNL     1      -1.159  -0.075   0.058  1.00  0.00     0.122 A 
HETATM    9  C11 UNL     1      -1.940   0.804   0.809  1.00  0.00     0.269 A 
HETATM   10  O2  UNL     1      -1.354   1.741   1.364  1.00  0.00    -0.267 OA
HETATM   11  N8  UNL     1      -3.257   0.563   0.869  1.00  0.00    -0.263 N 
HETATM   12  C15 UNL     1      -3.844  -0.487   0.238  1.00  0.00     0.333 A 
HETATM   13  O5  UNL     1      -5.090  -0.703   0.305  1.00  0.00    -0.246 OA
HETATM   14  N9  UNL     1      -3.058  -1.306  -0.471  1.00  0.00    -0.288 N 
HETATM   15  C16 UNL     1      -3.643  -2.452  -1.173  1.00  0.00     0.163 C 
ENDROOT
BRANCH   1  16
HETATM   16  N3  UNL     1       0.702   1.117   0.576  1.00  0.00    -0.311 N 
HETATM   17  C6  UNL     1       2.053   1.530   0.643  1.00  0.00     0.227 C 
HETATM   18  O1  UNL     1       2.430   2.322  -0.285  1.00  0.00    -0.273 OA
ATOM     19  H3  UNL     1       0.040   1.699   1.090  1.00  0.00     0.170 HD
BRANCH  17  20
HETATM   20  C5  UNL     1       3.009   1.128   1.661  1.00  0.00     0.147 C 
BRANCH  20  21
HETATM   21  C4  UNL     1       4.031   0.147   1.305  1.00  0.00     0.021 A 
HETATM   22  C3  UNL     1       4.111  -1.050   1.927  1.00  0.00     0.032 A 
HETATM   23  C2  UNL     1       5.122  -2.034   1.586  1.00  0.00     0.108 A 
HETATM   24  N2  UNL     1       5.989  -1.787   0.663  1.00  0.00    -0.307 N 
HETATM   25  N1  UNL     1       6.004  -0.583  -0.046  1.00  0.00    -0.262 N 
ATOM     26  H2  UNL     1       6.689  -2.496   0.443  1.00  0.00     0.186 HD
HETATM   27  C1  UNL     1       6.971  -0.293  -1.080  1.00  0.00     0.181 C 
HETATM   28  C17 UNL     1       5.015   0.417   0.266  1.00  0.00     0.268 A 
HETATM   29  O6  UNL     1       5.066   1.475  -0.389  1.00  0.00    -0.266 OA
ENDBRANCH  20  21
ENDBRANCH  17  20
ENDBRANCH   1  16
BRANCH   4  30
HETATM   30  N5  UNL     1       1.066  -2.584  -2.072  1.00  0.00    -0.138 N 
ATOM     31  H5  UNL     1       2.064  -2.377  -2.100  1.00  0.00     0.205 HD
BRANCH  30  32
HETATM   32  N6  UNL     1       0.633  -3.691  -2.769  1.00  0.00    -0.331 N 
ATOM     33  H62 UNL     1      -0.368  -3.882  -2.729  1.00  0.00     0.177 HD
ATOM     34  H61 UNL     1       1.224  -4.322  -3.311  1.00  0.00     0.177 HD
ENDBRANCH  30  32
ENDBRANCH   4  30
BRANCH  11  35
HETATM   35  C12 UNL     1      -4.100   1.441   1.618  1.00  0.00     0.171 C 
BRANCH  35  36
HETATM   36  C13 UNL     1      -4.700   2.546   0.813  1.00  0.00     0.160 C 
BRANCH  36  37
HETATM   37  O3  UNL     1      -5.501   2.085  -0.248  1.00  0.00    -0.392 OA
ATOM     38  H3  UNL     1      -5.883   2.788  -0.760  1.00  0.00     0.210 HD
ENDBRANCH  36  37
BRANCH  36  39
HETATM   39  C14 UNL     1      -3.726   3.538   0.263  1.00  0.00     0.197 C 
BRANCH  39  40
HETATM   40  O4  UNL     1      -4.443   4.614  -0.311  1.00  0.00    -0.398 OA
ATOM     41  H4  UNL     1      -3.824   5.244  -0.660  1.00  0.00     0.209 HD
ENDBRANCH  39  40
ENDBRANCH  36  39
ENDBRANCH  35  36
ENDBRANCH  11  35
TORSDOF 10
