REMARK  9 active torsions:
REMARK  status: ('A' for Active; 'I' for Inactive)
REMARK    1  A    between atoms: N1_1  and  C1_4 
REMARK    2  A    between atoms: N3_9  and  C3_10 
REMARK    3  A    between atoms: C3_10  and  C4_11 
REMARK    4  A    between atoms: C4_11  and  O2_12 
REMARK    5  A    between atoms: C4_11  and  C5_14 
REMARK    6  A    between atoms: C5_14  and  N4_15 
REMARK    7  A    between atoms: N6_28  and  S1_30 
REMARK    8  A    between atoms: S1_30  and  C13_33 
REMARK    9  A    between atoms: C13_33  and  N7_34 
ROOT
HETATM    1  C1  UNL     1       1.291  -2.839  -1.545  1.00  0.00     0.113 A 
HETATM    2  N2  UNL     1       0.083  -3.311  -1.874  1.00  0.00    -0.294 N 
ATOM      3  H2  UNL     1       0.026  -3.988  -2.635  1.00  0.00     0.172 HD
HETATM    4  C2  UNL     1      -1.056  -2.952  -1.269  1.00  0.00     0.329 A 
HETATM    5  O1  UNL     1      -2.183  -3.405  -1.590  1.00  0.00    -0.246 OA
HETATM    6  N3  UNL     1      -1.010  -2.067  -0.269  1.00  0.00    -0.282 N 
HETATM    7  C9  UNL     1       0.172  -1.535   0.131  1.00  0.00     0.123 A 
HETATM    8  C10 UNL     1       1.340  -1.909  -0.495  1.00  0.00     0.037 A 
HETATM    9  C11 UNL     1       2.511  -1.215   0.093  1.00  0.00     0.123 A 
HETATM   10  C12 UNL     1       1.926  -0.373   1.152  1.00  0.00     0.096 A 
HETATM   11  N6  UNL     1       2.540   0.441   1.972  1.00  0.00    -0.272 N 
ATOM     12  H6  UNL     1       1.995   0.962   2.659  1.00  0.00     0.180 HD
HETATM   13  N10 UNL     1       0.528  -0.593   1.142  1.00  0.00    -0.331 N 
ATOM     14  H10 UNL     1      -0.135  -0.140   1.771  1.00  0.00     0.168 HD
ENDROOT
BRANCH   6  15
HETATM   15  C3  UNL     1      -2.195  -1.623   0.439  1.00  0.00     0.168 C 
BRANCH  15  16
HETATM   16  C4  UNL     1      -2.817  -0.403  -0.205  1.00  0.00     0.155 C 
BRANCH  16  17
HETATM   17  O2  UNL     1      -3.199  -0.648  -1.519  1.00  0.00    -0.392 OA
ATOM     18  H2  UNL     1      -3.589   0.118  -1.923  1.00  0.00     0.210 HD
ENDBRANCH  16  17
BRANCH  16  19
HETATM   19  C5  UNL     1      -4.037  -0.040   0.629  1.00  0.00     0.170 C 
BRANCH  19  20
HETATM   20  N4  UNL     1      -4.668   1.159   0.081  1.00  0.00    -0.259 N 
HETATM   21  C6  UNL     1      -4.402   2.516   0.414  1.00  0.00     0.332 A 
HETATM   22  O3  UNL     1      -3.553   2.881   1.260  1.00  0.00    -0.246 OA
HETATM   23  N5  UNL     1      -5.236   3.375  -0.352  1.00  0.00    -0.271 N 
HETATM   24  C7  UNL     1      -6.050   2.584  -1.188  1.00  0.00     0.318 A 
ATOM     25  H5  UNL     1      -5.244   4.394  -0.305  1.00  0.00     0.174 HD
HETATM   26  O4  UNL     1      -6.923   2.964  -2.018  1.00  0.00    -0.262 OA
HETATM   27  C8  UNL     1      -5.689   1.198  -0.912  1.00  0.00     0.320 A 
HETATM   28  O5  UNL     1      -6.220   0.210  -1.483  1.00  0.00    -0.262 OA
ENDBRANCH  19  20
ENDBRANCH  16  19
ENDBRANCH  15  16
ENDBRANCH   6  15
BRANCH   1  29
HETATM   29  N1  UNL     1       2.386  -3.203  -2.147  1.00  0.00    -0.385 N 
ATOM     30  H12 UNL     1       2.350  -3.879  -2.910  1.00  0.00     0.157 HD
ATOM     31  H11 UNL     1       3.307  -2.843  -1.896  1.00  0.00     0.157 HD
ENDBRANCH   1  29
BRANCH  11  32
HETATM   32  S1  UNL     1       4.228   0.649   1.918  1.00  0.00     0.252 S 
HETATM   33  O6  UNL     1       4.688   1.252   3.228  1.00  0.00    -0.204 OA
HETATM   34  O7  UNL     1       4.992  -0.604   1.690  1.00  0.00    -0.204 OA
BRANCH  32  35
HETATM   35  C13 UNL     1       4.601   1.864   0.646  1.00  0.00     0.336 C 
BRANCH  35  36
HETATM   36  N7  UNL     1       6.047   2.008   0.635  1.00  0.00    -0.175 N 
HETATM   37  N8  UNL     1       7.005   1.406  -0.014  1.00  0.00    -0.162 N 
HETATM   38  O8  UNL     1       7.863   2.183   0.615  1.00  0.00    -0.123 OA
ATOM     39  H8  UNL     1       7.064   0.659  -0.706  1.00  0.00     0.220 HD
HETATM   40  N9  UNL     1       6.905   2.784   1.262  1.00  0.00    -0.162 N 
ATOM     41  H9  UNL     1       6.846   3.531   1.954  1.00  0.00     0.220 HD
ENDBRANCH  35  36
ENDBRANCH  32  35
ENDBRANCH  11  32
TORSDOF 9
