REMARK  8 active torsions:
REMARK  status: ('A' for Active; 'I' for Inactive)
REMARK    1  A    between atoms: C3_7  and  C4_8 
REMARK    2  A    between atoms: C4_8  and  N3_9 
REMARK       I    between atoms: N4_12  and  C7_13 
REMARK    3  A    between atoms: C7_13  and  C8_15 
REMARK    4  A    between atoms: C8_15  and  N5_16 
REMARK    5  A    between atoms: C10_21  and  N7_22 
REMARK    6  A    between atoms: N7_22  and  N8_24 
REMARK       I    between atoms: N8_24  and  C11_26 
REMARK    7  A    between atoms: N11_33  and  C13_34 
REMARK    8  A    between atoms: C13_34  and  C14_35 
ROOT
HETATM    1  N5  UNL     1      -2.025  -0.074   0.647  1.00  0.00    -0.228 N 
HETATM    2  C9  UNL     1      -2.148   1.221   0.978  1.00  0.00     0.343 A 
HETATM    3  O2  UNL     1      -1.108   1.860   1.348  1.00  0.00    -0.245 OA
HETATM    4  N6  UNL     1      -3.293   1.912   0.952  1.00  0.00    -0.287 N 
ATOM      5  H6  UNL     1      -3.318   2.897   1.217  1.00  0.00     0.172 HD
HETATM    6  C10 UNL     1      -4.410   1.271   0.567  1.00  0.00     0.195 A 
HETATM    7  C12 UNL     1      -4.275  -0.058   0.229  1.00  0.00     0.308 A 
HETATM    8  O3  UNL     1      -5.296  -0.692  -0.136  1.00  0.00    -0.262 OA
HETATM    9  N11 UNL     1      -3.107  -0.727   0.265  1.00  0.00    -0.238 N 
ENDROOT
BRANCH   1  10
HETATM   10  C8  UNL     1      -0.749  -0.711   0.712  1.00  0.00     0.257 C 
BRANCH  10  11
HETATM   11  C7  UNL     1       0.025  -0.624  -0.549  1.00  0.00     0.239 C 
HETATM   12  N4  UNL     1       1.298  -1.175  -0.711  1.00  0.00    -0.347 N 
HETATM   13  C6  UNL     1       2.030  -1.077  -1.948  1.00  0.00     0.156 C 
HETATM   14  C15 UNL     1       1.929  -1.872   0.380  1.00  0.00     0.156 C 
HETATM   15  C5  UNL     1       3.395  -1.764  -1.797  1.00  0.00     0.292 C 
HETATM   16  N3  UNL     1       4.083  -1.325  -0.605  1.00  0.00     0.098 N 
HETATM   17  C16 UNL     1       3.300  -1.312   0.583  1.00  0.00     0.292 C 
HETATM   18  O1  UNL     1      -0.492  -0.024  -1.522  1.00  0.00    -0.271 OA
BRANCH  16  19
HETATM   19  C4  UNL     1       4.796  -0.081  -0.833  1.00  0.00     0.350 C 
BRANCH  19  20
HETATM   20  C3  UNL     1       5.516   0.346   0.389  1.00  0.00     0.126 A 
HETATM   21  N2  UNL     1       5.683  -0.231   1.573  1.00  0.00    -0.286 N 
HETATM   22  N1  UNL     1       6.411   0.537   2.361  1.00  0.00    -0.288 N 
ATOM     23  H2  UNL     1       5.302  -1.140   1.836  1.00  0.00     0.188 HD
HETATM   24  C2  UNL     1       6.740   1.655   1.690  1.00  0.00     0.093 A 
ATOM     25  H1  UNL     1       6.680   0.319   3.320  1.00  0.00     0.188 HD
HETATM   26  C1  UNL     1       7.563   2.798   2.213  1.00  0.00     0.090 C 
HETATM   27  N12 UNL     1       6.187   1.532   0.477  1.00  0.00    -0.332 N 
ATOM     28  H12 UNL     1       6.257   2.222  -0.271  1.00  0.00     0.168 HD
ENDBRANCH  19  20
ENDBRANCH  16  19
ENDBRANCH  10  11
ENDBRANCH   1  10
BRANCH   9  29
HETATM   29  C13 UNL     1      -3.063  -2.126  -0.109  1.00  0.00     0.266 C 
BRANCH  29  30
HETATM   30  C14 UNL     1      -3.291  -3.021   1.054  1.00  0.00     0.193 C 
HETATM   31  O4  UNL     1      -3.273  -4.259   0.834  1.00  0.00    -0.647 OA
HETATM   32  O5  UNL     1      -3.510  -2.510   2.303  1.00  0.00    -0.647 OA
ENDBRANCH  29  30
ENDBRANCH   9  29
BRANCH   6  33
HETATM   33  N7  UNL     1      -5.509   1.930   0.541  1.00  0.00    -0.278 N 
ATOM     34  H7  UNL     1      -5.467   2.911   0.817  1.00  0.00     0.189 HD
BRANCH  33  35
HETATM   35  N8  UNL     1      -6.742   1.436   0.175  1.00  0.00    -0.272 N 
HETATM   36  C11 UNL     1      -7.433   2.031  -0.910  1.00  0.00     0.200 C 
HETATM   37  N9  UNL     1      -8.713   1.958  -1.007  1.00  0.00    -0.372 N 
HETATM   38  N10 UNL     1      -6.685   2.715  -1.900  1.00  0.00    -0.062 NA
ATOM     39  H92 UNL     1      -9.251   1.466  -0.294  1.00  0.00     0.158 HD
ATOM     40  H91 UNL     1      -9.210   2.386  -1.788  1.00  0.00     0.158 HD
ATOM     41  H8  UNL     1      -7.153   0.651   0.679  1.00  0.00     0.189 HD
ENDBRANCH  33  35
ENDBRANCH   6  33
TORSDOF 8
