REMARK  12 active torsions:
REMARK  status: ('A' for Active; 'I' for Inactive)
REMARK    1  A    between atoms: C2_2  and  O2_4 
REMARK    2  A    between atoms: O2_4  and  C3_5 
REMARK    3  A    between atoms: C3_5  and  N1_6 
REMARK    4  A    between atoms: C6_10  and  N2_11 
REMARK    5  A    between atoms: N2_11  and  C7_13 
REMARK    6  A    between atoms: C8_16  and  C9_17 
REMARK    7  A    between atoms: C9_17  and  N4_18 
REMARK    8  A    between atoms: N4_18  and  C10_20 
REMARK    9  A    between atoms: C10_20  and  O4_21 
REMARK   10  A    between atoms: C10_20  and  C11_23 
REMARK   11  A    between atoms: C14_29  and  C15_30 
REMARK   12  A    between atoms: C15_30  and  O6_31 
ROOT
HETATM    1  C7  UNL     1       0.594  -0.800  -1.036  1.00  0.00     0.696 A 
HETATM    2  N3  UNL     1      -0.782  -0.726  -1.232  1.00  0.00    -0.176 N 
ATOM      3  H3  UNL     1      -1.284   0.069  -1.627  1.00  0.00     0.185 HD
HETATM    4  C8  UNL     1      -1.334  -1.864  -0.819  1.00  0.00     0.130 A 
HETATM    5  N7  UNL     1      -0.341  -2.626  -0.379  1.00  0.00    -0.271 N 
ATOM      6  H7  UNL     1      -0.459  -3.565   0.002  1.00  0.00     0.189 HD
HETATM    7  N8  UNL     1       0.839  -1.999  -0.501  1.00  0.00    -0.127 N 
HETATM    8  C16 UNL     1       2.131  -2.574  -0.103  1.00  0.00     0.197 C 
ENDROOT
BRANCH   4   9
HETATM    9  C9  UNL     1      -2.809  -2.192  -0.858  1.00  0.00     0.200 C 
BRANCH   9  10
HETATM   10  N4  UNL     1      -3.425  -1.774   0.370  1.00  0.00    -0.362 N 
ATOM     11  H4  UNL     1      -2.868  -1.331   1.101  1.00  0.00     0.162 HD
BRANCH  10  12
HETATM   12  C10 UNL     1      -4.816  -1.984   0.557  1.00  0.00     0.165 C 
BRANCH  12  13
HETATM   13  O4  UNL     1      -5.378  -3.250   0.582  1.00  0.00    -0.345 OA
ATOM     14  H4  UNL     1      -6.309  -3.391   0.707  1.00  0.00     0.219 HD
ENDBRANCH  12  13
BRANCH  12  15
HETATM   15  C11 UNL     1      -5.619  -0.947   0.716  1.00  0.00     0.099 A 
HETATM   16  C12 UNL     1      -6.975  -1.112   0.901  1.00  0.00     0.125 A 
HETATM   17  N5  UNL     1      -7.770  -0.044   1.059  1.00  0.00    -0.329 N 
HETATM   18  C13 UNL     1      -7.248   1.213   1.039  1.00  0.00     0.274 A 
ATOM     19  H5  UNL     1      -8.772  -0.174   1.195  1.00  0.00     0.168 HD
HETATM   20  O5  UNL     1      -8.039   2.169   1.192  1.00  0.00    -0.266 OA
HETATM   21  C14 UNL     1      -5.893   1.378   0.855  1.00  0.00     0.123 A 
HETATM   22  N6  UNL     1      -5.119   0.294   0.698  1.00  0.00    -0.346 N 
ATOM     23  H6  UNL     1      -4.116   0.420   0.560  1.00  0.00     0.166 HD
BRANCH  21  24
HETATM   24  C15 UNL     1      -5.366   2.598   0.833  1.00  0.00     0.166 C 
BRANCH  24  25
HETATM   25  O6  UNL     1      -4.012   2.782   0.649  1.00  0.00    -0.370 OA
ATOM     26  H6  UNL     1      -3.635   3.654   0.633  1.00  0.00     0.216 HD
ENDBRANCH  24  25
ENDBRANCH  21  24
ENDBRANCH  12  15
ENDBRANCH  10  12
ENDBRANCH   9  10
ENDBRANCH   4   9
BRANCH   1  27
HETATM   27  N2  UNL     1       1.359   0.159  -1.347  1.00  0.00    -0.211 N 
ATOM     28  H2  UNL     1       0.860   0.956  -1.742  1.00  0.00     0.178 HD
BRANCH  27  29
HETATM   29  C6  UNL     1       2.726   0.361  -1.268  1.00  0.00     0.201 C 
HETATM   30  C5  UNL     1       3.425   0.065  -2.590  1.00  0.00     0.139 C 
HETATM   31  C4  UNL     1       4.398   1.155  -2.770  1.00  0.00     0.230 C 
HETATM   32  N1  UNL     1       4.340   2.008  -1.633  1.00  0.00    -0.264 N 
HETATM   33  O3  UNL     1       5.132   1.253  -3.792  1.00  0.00    -0.273 OA
HETATM   34  C17 UNL     1       3.062   1.825  -1.056  1.00  0.00     0.252 C 
HETATM   35  O7  UNL     1       2.310   2.624  -0.485  1.00  0.00    -0.271 OA
BRANCH  32  36
HETATM   36  C3  UNL     1       5.399   2.912  -1.196  1.00  0.00     0.315 C 
BRANCH  36  37
HETATM   37  O2  UNL     1       6.300   2.318  -0.340  1.00  0.00    -0.301 OA
BRANCH  37  38
HETATM   38  C2  UNL     1       6.105   1.759   0.881  1.00  0.00     0.256 C 
HETATM   39  C1  UNL     1       7.206   1.145   1.690  1.00  0.00     0.126 C 
HETATM   40  O1  UNL     1       4.949   1.753   1.361  1.00  0.00    -0.266 OA
ENDBRANCH  37  38
ENDBRANCH  36  37
ENDBRANCH  32  36
ENDBRANCH  27  29
ENDBRANCH   1  27
TORSDOF 12
