REMARK  10 active torsions:
REMARK  status: ('A' for Active; 'I' for Inactive)
REMARK    1  A    between atoms: C3_3  and  N1_4 
REMARK    2  A    between atoms: C5_7  and  N2_8 
REMARK    3  A    between atoms: N2_8  and  C7_11 
REMARK    4  A    between atoms: C8_14  and  N5_15 
REMARK    5  A    between atoms: N5_15  and  C9_16 
REMARK    6  A    between atoms: C13_23  and  C14_24 
REMARK    7  A    between atoms: C14_24  and  C15_25 
REMARK    8  A    between atoms: C17_32  and  O3_33 
REMARK    9  A    between atoms: C20_40  and  C21_41 
REMARK   10  A    between atoms: C21_41  and  O5_42 
ROOT
HETATM    1  C1  UNL     1       6.617   1.154   1.219  1.00  0.00     0.014 C 
HETATM    2  C2  UNL     1       6.072   0.546   0.333  1.00  0.00    -0.098 C 
HETATM    3  C3  UNL     1       5.420  -0.190  -0.767  1.00  0.00     0.222 C 
ENDROOT
BRANCH   3   4
HETATM    4  N1  UNL     1       4.118  -0.674  -0.404  1.00  0.00    -0.311 N 
HETATM    5  C4  UNL     1       2.923   0.080  -0.598  1.00  0.00     0.249 C 
HETATM    6  O1  UNL     1       3.070   1.332  -0.772  1.00  0.00    -0.271 OA
HETATM    7  C5  UNL     1       1.570  -0.531  -0.604  1.00  0.00     0.235 C 
HETATM    8  C19 UNL     1       1.752  -2.038  -0.450  1.00  0.00     0.207 C 
HETATM    9  O4  UNL     1       2.697  -2.320   0.500  1.00  0.00    -0.362 OA
HETATM   10  C20 UNL     1       3.989  -1.979   0.190  1.00  0.00     0.250 C 
BRANCH   7  11
HETATM   11  N2  UNL     1       0.789  -0.085   0.533  1.00  0.00    -0.101 N 
HETATM   12  C6  UNL     1       1.294  -0.367   1.807  1.00  0.00     0.200 C 
HETATM   13  N3  UNL     1       1.702  -0.596   2.888  1.00  0.00    -0.171 NA
BRANCH  11  14
HETATM   14  C7  UNL     1      -0.460   0.621   0.367  1.00  0.00     0.699 A 
HETATM   15  N4  UNL     1      -0.484   1.948   0.286  1.00  0.00    -0.146 N 
HETATM   16  C8  UNL     1      -1.628   2.693   0.129  1.00  0.00     0.292 A 
ATOM     17  H4  UNL     1       0.405   2.445   0.344  1.00  0.00     0.188 HD
HETATM   18  N6  UNL     1      -2.784   1.960   0.058  1.00  0.00    -0.195 N 
HETATM   19  N7  UNL     1      -4.042   2.332  -0.089  1.00  0.00    -0.299 N 
HETATM   20  C18 UNL     1      -2.772   0.619   0.138  1.00  0.00     0.158 A 
HETATM   21  C12 UNL     1      -4.851   1.257  -0.105  1.00  0.00     0.123 A 
ATOM     22  H7  UNL     1      -4.356   3.298  -0.178  1.00  0.00     0.186 HD
HETATM   23  C13 UNL     1      -4.076   0.129   0.038  1.00  0.00     0.030 A 
HETATM   24  N10 UNL     1      -1.626  -0.033   0.291  1.00  0.00    -0.173 N 
ATOM     25  H10 UNL     1      -1.634  -1.051   0.352  1.00  0.00     0.186 HD
BRANCH  16  26
HETATM   26  N5  UNL     1      -1.665   3.883   0.055  1.00  0.00    -0.408 NA
BRANCH  26  27
HETATM   27  C9  UNL     1      -1.966   5.188  -0.052  1.00  0.00     0.167 A 
HETATM   28  C10 UNL     1      -3.306   5.809   0.263  1.00  0.00     0.042 A 
HETATM   29  C11 UNL     1      -2.986   5.593  -1.149  1.00  0.00     0.042 A 
ENDBRANCH  26  27
ENDBRANCH  16  26
BRANCH  23  30
HETATM   30  C14 UNL     1      -4.450  -1.134   0.076  1.00  0.00     0.051 C 
BRANCH  30  31
HETATM   31  C15 UNL     1      -3.555  -2.245   0.230  1.00  0.00     0.088 A 
HETATM   32  N8  UNL     1      -2.800  -2.787  -0.738  1.00  0.00    -0.305 N 
HETATM   33  C16 UNL     1      -2.082  -3.814  -0.239  1.00  0.00     0.326 A 
ATOM     34  H8  UNL     1      -2.773  -2.470  -1.707  1.00  0.00     0.171 HD
HETATM   35  O2  UNL     1      -1.270  -4.548  -0.857  1.00  0.00    -0.247 OA
HETATM   36  N9  UNL     1      -2.374  -3.942   1.068  1.00  0.00    -0.287 N 
HETATM   37  C17 UNL     1      -3.288  -2.972   1.371  1.00  0.00     0.171 A 
ATOM     38  H9  UNL     1      -1.987  -4.632   1.711  1.00  0.00     0.172 HD
BRANCH  37  39
HETATM   39  O3  UNL     1      -3.823  -2.802   2.643  1.00  0.00    -0.344 OA
ATOM     40  H3  UNL     1      -3.639  -3.303   3.429  1.00  0.00     0.219 HD
ENDBRANCH  37  39
ENDBRANCH  30  31
ENDBRANCH  23  30
ENDBRANCH  11  14
ENDBRANCH   7  11
BRANCH  10  41
HETATM   41  C21 UNL     1       4.667  -3.070  -0.610  1.00  0.00     0.217 C 
BRANCH  41  42
HETATM   42  O5  UNL     1       4.185  -3.206  -1.884  1.00  0.00    -0.397 OA
ATOM     43  H5  UNL     1       4.611  -3.891  -2.386  1.00  0.00     0.209 HD
ENDBRANCH  41  42
ENDBRANCH  10  41
ENDBRANCH   3   4
TORSDOF 10
