REMARK  9 active torsions:
REMARK  status: ('A' for Active; 'I' for Inactive)
REMARK    1  A    between atoms: C2_2  and  N1_3 
REMARK    2  A    between atoms: C6_10  and  N4_11 
REMARK    3  A    between atoms: N5_14  and  C9_15 
REMARK    4  A    between atoms: C9_15  and  C10_16 
REMARK    5  A    between atoms: C10_16  and  C11_17 
REMARK    6  A    between atoms: C11_17  and  N6_18 
REMARK    7  A    between atoms: C13_20  and  N7_21 
REMARK    8  A    between atoms: C13_20  and  O2_25 
REMARK    9  A    between atoms: C14_27  and  N8_28 
ROOT
HETATM    1  N4  UNL     1      -1.806  -0.861  -0.499  1.00  0.00    -0.300 N 
HETATM    2  C7  UNL     1      -0.563  -0.320   0.012  1.00  0.00     0.178 C 
HETATM    3  C8  UNL     1       0.529  -0.368  -1.017  1.00  0.00     0.098 C 
HETATM    4  N5  UNL     1       1.337  -1.522  -1.019  1.00  0.00    -0.272 N 
HETATM    5  S1  UNL     1       0.574  -2.991  -0.669  1.00  0.00     0.326 S 
HETATM    6  O4  UNL     1       0.483  -3.263   0.813  1.00  0.00    -0.182 OA
HETATM    7  O5  UNL     1       1.366  -4.130  -1.259  1.00  0.00    -0.182 OA
HETATM    8  N9  UNL     1      -1.017  -3.020  -1.379  1.00  0.00    -0.240 N 
ATOM      9  H9  UNL     1      -1.268  -3.829  -1.947  1.00  0.00     0.183 HD
HETATM   10  C16 UNL     1      -1.906  -2.084  -1.236  1.00  0.00     0.207 C 
HETATM   11  N10 UNL     1      -3.144  -2.299  -1.898  1.00  0.00    -0.062 NA
ENDROOT
BRANCH   4  12
HETATM   12  C9  UNL     1       2.618  -1.384  -0.377  1.00  0.00     0.143 C 
BRANCH  12  13
HETATM   13  C10 UNL     1       2.554  -0.767   0.974  1.00  0.00     0.041 C 
BRANCH  13  14
HETATM   14  C11 UNL     1       3.942  -0.677   1.556  1.00  0.00     0.127 C 
BRANCH  14  15
HETATM   15  N6  UNL     1       4.865   0.108   0.800  1.00  0.00    -0.345 N 
HETATM   16  C12 UNL     1       5.772  -0.356  -0.257  1.00  0.00     0.197 C 
HETATM   17  C13 UNL     1       7.039   0.387   0.143  1.00  0.00     0.275 C 
HETATM   18  C14 UNL     1       6.503   1.782   0.394  1.00  0.00     0.338 C 
HETATM   19  C15 UNL     1       5.133   1.514   0.900  1.00  0.00     0.255 C 
HETATM   20  O3  UNL     1       4.309   2.341   1.350  1.00  0.00    -0.271 OA
BRANCH  17  21
HETATM   21  N7  UNL     1       7.499  -0.187   1.394  1.00  0.00    -0.043 N 
ATOM     22  H73 UNL     1       6.785  -0.179   2.123  1.00  0.00     0.278 HD
ATOM     23  H72 UNL     1       7.628  -1.198   1.346  1.00  0.00     0.278 HD
ATOM     24  H71 UNL     1       8.348   0.311   1.662  1.00  0.00     0.278 HD
ENDBRANCH  17  21
BRANCH  17  25
HETATM   25  O2  UNL     1       7.999   0.374  -0.850  1.00  0.00    -0.362 OA
ATOM     26  H2  UNL     1       8.790   0.838  -0.600  1.00  0.00     0.212 HD
ENDBRANCH  17  25
BRANCH  18  27
HETATM   27  N8  UNL     1       6.494   2.557  -0.830  1.00  0.00    -0.062 N 
ATOM     28  H83 UNL     1       7.414   2.579  -1.269  1.00  0.00     0.275 HD
ATOM     29  H82 UNL     1       5.980   2.083  -1.573  1.00  0.00     0.275 HD
ATOM     30  H81 UNL     1       6.133   3.496  -0.661  1.00  0.00     0.275 HD
ENDBRANCH  18  27
ENDBRANCH  14  15
ENDBRANCH  13  14
ENDBRANCH  12  13
ENDBRANCH   4  12
BRANCH   1  31
HETATM   31  C6  UNL     1      -3.009  -0.142  -0.259  1.00  0.00     0.144 A 
HETATM   32  C5  UNL     1      -3.221   1.032   0.418  1.00  0.00     0.184 A 
HETATM   33  N3  UNL     1      -4.554   1.329   0.380  1.00  0.00    -0.088 N 
HETATM   34  N2  UNL     1      -5.448   2.220   0.773  1.00  0.00    -0.226 N 
HETATM   35  C17 UNL     1      -5.164   0.343  -0.318  1.00  0.00     0.711 A 
HETATM   36  C3  UNL     1      -6.641   1.800   0.323  1.00  0.00     0.358 A 
HETATM   37  C4  UNL     1      -5.178   3.417   1.543  1.00  0.00     0.184 C 
HETATM   38  N1  UNL     1      -6.469   0.652  -0.344  1.00  0.00    -0.130 N 
HETATM   39  O1  UNL     1      -7.732   2.432   0.528  1.00  0.00    -0.244 OA
HETATM   40  N11 UNL     1      -4.218  -0.535  -0.695  1.00  0.00    -0.173 N 
ATOM     41  H11 UNL     1      -4.393  -1.381  -1.236  1.00  0.00     0.186 HD
BRANCH  38  42
HETATM   42  C2  UNL     1      -7.504  -0.113  -0.977  1.00  0.00     0.148 C 
HETATM   43  C1  UNL     1      -8.116  -1.140  -0.049  1.00  0.00     0.027 C 
ENDBRANCH  38  42
ENDBRANCH   1  31
TORSDOF 9
