REMARK  8 active torsions:
REMARK  status: ('A' for Active; 'I' for Inactive)
REMARK    1  A    between atoms: C2_2  and  N1_3 
REMARK    2  A    between atoms: C6_11  and  N3_12 
REMARK    3  A    between atoms: N4_14  and  N5_15 
REMARK       I    between atoms: N5_15  and  C8_17 
REMARK    4  A    between atoms: C8_17  and  C9_19 
REMARK    5  A    between atoms: N6_20  and  O4_22 
REMARK    6  A    between atoms: C10_24  and  N7_25 
REMARK    7  A    between atoms: N8_28  and  C13_29 
REMARK    8  A    between atoms: C13_29  and  N9_30 
ROOT
HETATM    1  N1  UNL     1      -3.991  -2.840  -0.505  1.00  0.00    -0.284 N 
HETATM    2  C3  UNL     1      -5.325  -2.964  -0.534  1.00  0.00     0.331 A 
HETATM    3  O1  UNL     1      -5.786  -4.131  -0.553  1.00  0.00    -0.246 OA
HETATM    4  N2  UNL     1      -6.166  -1.932  -0.542  1.00  0.00    -0.274 N 
ATOM      5  H2  UNL     1      -7.175  -2.079  -0.564  1.00  0.00     0.173 HD
HETATM    6  C4  UNL     1      -5.641  -0.668  -0.520  1.00  0.00     0.268 A 
HETATM    7  O2  UNL     1      -6.388   0.330  -0.527  1.00  0.00    -0.267 OA
HETATM    8  C5  UNL     1      -4.275  -0.503  -0.491  1.00  0.00     0.137 A 
HETATM    9  C6  UNL     1      -3.731   0.803  -0.469  1.00  0.00     0.235 A 
HETATM   10  N4  UNL     1      -2.390   0.905  -0.431  1.00  0.00    -0.053 N 
HETATM   11  C10 UNL     1      -1.560  -0.191  -0.429  1.00  0.00     0.706 A 
HETATM   12  N11 UNL     1      -2.132  -1.405  -0.455  1.00  0.00    -0.173 N 
ATOM     13  H11 UNL     1      -1.522  -2.223  -0.453  1.00  0.00     0.186 HD
HETATM   14  C20 UNL     1      -3.449  -1.605  -0.483  1.00  0.00     0.148 A 
ENDROOT
BRANCH  11  15
HETATM   15  N7  UNL     1      -0.133  -0.068  -0.405  1.00  0.00    -0.212 N 
HETATM   16  C11 UNL     1       0.522  -0.479   0.795  1.00  0.00     0.171 C 
HETATM   17  C12 UNL     1       1.701   0.362   1.116  1.00  0.00     0.295 C 
HETATM   18  N8  UNL     1       2.520   0.625  -0.006  1.00  0.00     0.119 N 
HETATM   19  C18 UNL     1       1.767   1.233  -1.090  1.00  0.00     0.295 C 
HETATM   20  C19 UNL     1       0.626   0.387  -1.529  1.00  0.00     0.171 C 
BRANCH  18  21
HETATM   21  C13 UNL     1       3.417  -0.376  -0.445  1.00  0.00     0.542 C 
BRANCH  21  22
HETATM   22  N9  UNL     1       4.355  -0.679   0.649  1.00  0.00     0.119 N 
HETATM   23  C14 UNL     1       5.029   0.540   1.050  1.00  0.00     0.302 C 
HETATM   24  C15 UNL     1       6.284   0.820   0.252  1.00  0.00     0.262 C 
HETATM   25  N10 UNL     1       7.261  -0.251   0.427  1.00  0.00    -0.072 N 
HETATM   26  C16 UNL     1       6.601  -1.447   0.959  1.00  0.00     0.262 C 
ATOM     27 2H10 UNL     1       7.773  -0.447  -0.433  1.00  0.00     0.277 HD
ATOM     28 1H10 UNL     1       8.049   0.040   1.005  1.00  0.00     0.277 HD
HETATM   29  C17 UNL     1       5.324  -1.667   0.189  1.00  0.00     0.302 C 
ENDBRANCH  21  22
ENDBRANCH  18  21
ENDBRANCH  11  15
BRANCH  10  30
HETATM   30  N5  UNL     1      -1.806   2.139  -0.158  1.00  0.00    -0.241 N 
HETATM   31  C8  UNL     1      -2.180   2.994   0.889  1.00  0.00     0.278 C 
HETATM   32  O3  UNL     1      -3.082   2.639   1.745  1.00  0.00    -0.265 OA
ATOM     33  H5  UNL     1      -1.047   2.445  -0.767  1.00  0.00     0.191 HD
BRANCH  31  34
HETATM   34  C9  UNL     1      -1.611   4.327   1.104  1.00  0.00     0.189 C 
HETATM   35  N6  UNL     1      -0.755   4.895   0.404  1.00  0.00    -0.275 N 
ATOM     36  H6  UNL     1      -0.519   5.821   0.761  1.00  0.00     0.193 HD
BRANCH  35  37
HETATM   37  O4  UNL     1      -0.080   4.596  -0.681  1.00  0.00    -0.290 OA
ATOM     38  H4  UNL     1       0.574   5.030  -1.216  1.00  0.00     0.244 HD
ENDBRANCH  35  37
ENDBRANCH  31  34
ENDBRANCH  10  30
BRANCH   9  39
HETATM   39  N3  UNL     1      -4.515   1.720  -0.654  1.00  0.00    -0.407 NA
HETATM   40  C7  UNL     1      -4.989   2.974  -0.807  1.00  0.00     0.231 C 
ENDBRANCH   9  39
BRANCH   1  41
HETATM   41  C2  UNL     1      -3.101  -3.972  -0.479  1.00  0.00     0.131 C 
HETATM   42  C1  UNL     1      -2.846  -4.331   0.974  1.00  0.00     0.027 C 
ENDBRANCH   1  41
TORSDOF 8
