REMARK  8 active torsions:
REMARK  status: ('A' for Active; 'I' for Inactive)
REMARK    1  A    between atoms: N1_4  and  C4_5 
REMARK    2  A    between atoms: N5_12  and  C5_13 
REMARK    3  A    between atoms: C7_15  and  N6_16 
REMARK    4  A    between atoms: N7_19  and  C10_20 
REMARK    5  A    between atoms: C10_20  and  C11_21 
REMARK    6  A    between atoms: C11_21  and  O1_22 
REMARK    7  A    between atoms: C14_28  and  N9_29 
REMARK    8  A    between atoms: N12_38  and  S1_39 
ROOT
HETATM    1  C4  UNL     1      -2.513   1.430   0.131  1.00  0.00     0.727 A 
HETATM    2  N2  UNL     1      -2.860   2.782   0.151  1.00  0.00    -0.114 N 
ATOM      3  H2  UNL     1      -3.801   3.170   0.220  1.00  0.00     0.207 HD
HETATM    4  N3  UNL     1      -1.735   3.455   0.063  1.00  0.00    -0.213 N 
ATOM      5  H3  UNL     1      -1.644   4.471   0.052  1.00  0.00     0.210 HD
HETATM    6  N4  UNL     1      -0.751   2.595  -0.008  1.00  0.00    -0.205 N 
ATOM      7  H4  UNL     1       0.234   2.850  -0.084  1.00  0.00     0.211 HD
HETATM    8  N5  UNL     1      -1.201   1.349   0.032  1.00  0.00    -0.052 N 
ENDROOT
BRANCH   8   9
HETATM    9  C5  UNL     1      -0.344   0.218  -0.031  1.00  0.00     0.166 A 
HETATM   10  C6  UNL     1       1.047   0.415  -0.025  1.00  0.00     0.100 A 
HETATM   11  C7  UNL     1       1.947  -0.616  -0.092  1.00  0.00     0.122 A 
HETATM   12  N8  UNL     1       1.479  -1.871  -0.165  1.00  0.00    -0.177 N 
HETATM   13  C14 UNL     1       0.131  -2.076  -0.172  1.00  0.00     0.679 A 
ATOM     14  H8  UNL     1       2.122  -2.661  -0.215  1.00  0.00     0.185 HD
HETATM   15  N10 UNL     1      -0.729  -1.051  -0.107  1.00  0.00    -0.174 N 
ATOM     16  H10 UNL     1      -1.728  -1.255  -0.116  1.00  0.00     0.186 HD
BRANCH  11  17
HETATM   17  N6  UNL     1       3.345  -0.317  -0.104  1.00  0.00    -0.363 N 
HETATM   18  C8  UNL     1       4.187  -0.416   1.040  1.00  0.00     0.154 C 
HETATM   19  C9  UNL     1       5.528  -1.030   0.631  1.00  0.00     0.292 C 
HETATM   20  N7  UNL     1       6.039  -0.504  -0.574  1.00  0.00     0.093 N 
HETATM   21  C12 UNL     1       5.139  -0.700  -1.669  1.00  0.00     0.292 C 
HETATM   22  C13 UNL     1       3.879   0.119  -1.403  1.00  0.00     0.154 C 
BRANCH  20  23
HETATM   23  C10 UNL     1       6.585   0.795  -0.583  1.00  0.00     0.298 C 
BRANCH  23  24
HETATM   24  C11 UNL     1       7.907   0.965   0.106  1.00  0.00     0.194 C 
BRANCH  24  25
HETATM   25  O1  UNL     1       7.894   0.658   1.449  1.00  0.00    -0.399 OA
ATOM     26  H1  UNL     1       8.731   0.766   1.885  1.00  0.00     0.209 HD
ENDBRANCH  24  25
ENDBRANCH  23  24
ENDBRANCH  20  23
ENDBRANCH  11  17
BRANCH  13  27
HETATM   27  N9  UNL     1      -0.273  -3.279  -0.240  1.00  0.00    -0.234 N 
ATOM     28  H92 UNL     1       0.382  -4.059  -0.289  1.00  0.00     0.174 HD
ATOM     29  H91 UNL     1      -1.281  -3.432  -0.245  1.00  0.00     0.174 HD
ENDBRANCH  13  27
ENDBRANCH   8   9
BRANCH   1  30
HETATM   30  N1  UNL     1      -3.483   0.420   0.199  1.00  0.00    -0.145 N 
HETATM   31  C3  UNL     1      -4.273   0.273  -1.036  1.00  0.00     0.172 C 
HETATM   32  C2  UNL     1      -5.704   0.769  -0.675  1.00  0.00     0.111 C 
HETATM   33  C1  UNL     1      -6.689   0.036  -1.539  1.00  0.00     0.031 C 
HETATM   34  N12 UNL     1      -5.902   0.432   0.693  1.00  0.00    -0.099 NA
HETATM   35  N11 UNL     1      -6.059  -0.929   0.917  1.00  0.00    -0.139 NA
HETATM   36  C16 UNL     1      -4.819  -1.384   1.582  1.00  0.00     0.233 C 
HETATM   37  C15 UNL     1      -3.740  -0.342   1.355  1.00  0.00     0.254 C 
HETATM   38  O2  UNL     1      -2.997  -0.151   2.340  1.00  0.00    -0.271 OA
BRANCH  34  39
HETATM   39  S1  UNL     1      -7.014   1.370   1.555  1.00  0.00     0.201 S 
HETATM   40  O3  UNL     1      -8.370   1.271   0.925  1.00  0.00    -0.581 OA
HETATM   41  O4  UNL     1      -7.155   0.867   2.991  1.00  0.00    -0.581 OA
HETATM   42  O5  UNL     1      -6.562   2.988   1.625  1.00  0.00    -0.581 OA
ENDBRANCH  34  39
ENDBRANCH   1  30
TORSDOF 8
