REMARK  9 active torsions:
REMARK  status: ('A' for Active; 'I' for Inactive)
REMARK    1  A    between atoms: C2_2  and  C3_3 
REMARK    2  A    between atoms: C3_3  and  N1_5 
REMARK    3  A    between atoms: C6_7  and  C7_8 
REMARK    4  A    between atoms: C7_8  and  C8_9 
REMARK    5  A    between atoms: C9_10  and  C10_11 
REMARK    6  A    between atoms: C11_14  and  C12_15 
REMARK    7  A    between atoms: N5_26  and  O4_27 
REMARK    8  A    between atoms: N6_31  and  N7_32 
REMARK    9  A    between atoms: C18_41  and  O6_42 
ROOT
HETATM    1  C8  UNL     1       1.277  -0.039   0.179  1.00  0.00     0.078 A 
HETATM    2  C9  UNL     1       2.635   0.556   0.278  1.00  0.00     0.087 A 
HETATM    3  C11 UNL     1       3.441  -0.060  -0.585  1.00  0.00     0.082 A 
HETATM    4  C16 UNL     1       2.683  -1.066  -1.288  1.00  0.00     0.280 A 
HETATM    5  O5  UNL     1       3.108  -1.854  -2.186  1.00  0.00    -0.265 OA
HETATM    6  N6  UNL     1       1.322  -1.059  -0.815  1.00  0.00    -0.225 N 
ENDROOT
BRANCH   1   7
HETATM    7  C7  UNL     1       0.191   0.297   0.851  1.00  0.00     0.049 C 
BRANCH   7   8
HETATM    8  C6  UNL     1      -1.123  -0.320   0.732  1.00  0.00     0.025 A 
HETATM    9  C5  UNL     1      -2.084   0.354   0.022  1.00  0.00     0.110 A 
HETATM   10  N1  UNL     1      -3.321  -0.163  -0.071  1.00  0.00    -0.318 N 
HETATM   11  C18 UNL     1      -3.616  -1.349   0.533  1.00  0.00     0.225 A 
HETATM   12  N9  UNL     1      -2.689  -2.023   1.233  1.00  0.00    -0.308 N 
HETATM   13  C17 UNL     1      -1.460  -1.505   1.326  1.00  0.00     0.113 A 
ATOM     14  H9  UNL     1      -2.917  -2.909   1.683  1.00  0.00     0.171 HD
HETATM   15  N8  UNL     1      -0.572  -2.125   2.055  1.00  0.00    -0.385 N 
ATOM     16  H82 UNL     1       0.366  -1.730   2.126  1.00  0.00     0.157 HD
ATOM     17  H81 UNL     1      -0.823  -3.009   2.498  1.00  0.00     0.157 HD
BRANCH  10  18
HETATM   18  C3  UNL     1      -4.415   0.479  -0.762  1.00  0.00     0.088 C 
HETATM   19  C4  UNL     1      -3.947   1.610  -1.656  1.00  0.00     0.033 C 
BRANCH  18  20
HETATM   20  C2  UNL     1      -5.374   1.015   0.298  1.00  0.00     0.021 C 
HETATM   21  C1  UNL     1      -6.578   1.646  -0.377  1.00  0.00     0.007 C 
ENDBRANCH  18  20
ENDBRANCH  10  18
BRANCH  11  22
HETATM   22  O6  UNL     1      -4.874  -1.928   0.462  1.00  0.00    -0.332 OA
ATOM     23  H6  UNL     1      -5.080  -2.754   0.883  1.00  0.00     0.221 HD
ENDBRANCH  11  22
ENDBRANCH   7   8
ENDBRANCH   1   7
BRANCH   2  24
HETATM   24  C10 UNL     1       2.973   1.664   1.150  1.00  0.00     0.212 C 
HETATM   25  O1  UNL     1       2.112   2.166   1.906  1.00  0.00    -0.644 OA
HETATM   26  O2  UNL     1       4.257   2.240   1.199  1.00  0.00    -0.644 OA
ENDBRANCH   2  24
BRANCH   6  27
HETATM   27  N7  UNL     1       0.294  -1.868  -1.295  1.00  0.00    -0.335 N 
ATOM     28  H72 UNL     1      -0.669  -1.863  -0.960  1.00  0.00     0.177 HD
ATOM     29  H71 UNL     1       0.326  -2.598  -2.007  1.00  0.00     0.177 HD
ENDBRANCH   6  27
BRANCH   3  30
HETATM   30  C12 UNL     1       4.849   0.210  -0.797  1.00  0.00     0.083 A 
HETATM   31  N2  UNL     1       5.335   0.812  -1.913  1.00  0.00    -0.349 N 
HETATM   32  C13 UNL     1       6.647   1.002  -2.123  1.00  0.00     0.182 A 
ATOM     33  H2  UNL     1       4.675   1.133  -2.621  1.00  0.00     0.166 HD
HETATM   34  N3  UNL     1       7.502   0.573  -1.178  1.00  0.00    -0.333 N 
HETATM   35  C14 UNL     1       7.074  -0.039  -0.036  1.00  0.00     0.193 A 
ATOM     36  H3  UNL     1       8.503   0.709  -1.319  1.00  0.00     0.168 HD
HETATM   37  C15 UNL     1       5.730  -0.236   0.182  1.00  0.00     0.133 A 
HETATM   38  N5  UNL     1       7.704  -0.560   1.026  1.00  0.00    -0.082 N 
HETATM   39  N4  UNL     1       5.609  -0.861   1.350  1.00  0.00    -0.233 N 
HETATM   40  O3  UNL     1       6.800  -1.039   1.826  1.00  0.00    -0.126 OA
ATOM     41  H4  UNL     1       4.735  -1.148   1.791  1.00  0.00     0.197 HD
BRANCH  38  42
HETATM   42  O4  UNL     1       9.082  -0.554   1.191  1.00  0.00    -0.260 OA
ATOM     43  H4  UNL     1       9.529  -0.923   1.944  1.00  0.00     0.247 HD
ENDBRANCH  38  42
ENDBRANCH   3  30
TORSDOF 9
