REMARK  11 active torsions:
REMARK  status: ('A' for Active; 'I' for Inactive)
REMARK    1  A    between atoms: N1_4  and  C4_5 
REMARK    2  A    between atoms: C4_5  and  N2_6 
REMARK    3  A    between atoms: N2_6  and  N3_8 
REMARK    4  A    between atoms: C5_10  and  C6_11 
REMARK    5  A    between atoms: C5_10  and  N6_18 
REMARK    6  A    between atoms: N4_12  and  N5_13 
REMARK    7  A    between atoms: N4_12  and  O1_16 
REMARK    8  A    between atoms: N6_18  and  N7_20 
REMARK       I    between atoms: N7_20  and  C7_21 
REMARK    9  A    between atoms: C7_21  and  C8_23 
REMARK   10  A    between atoms: C8_23  and  C9_24 
REMARK   11  A    between atoms: N10_29  and  C10_30 
ROOT
HETATM    1  N3  UNL     1       2.292  -1.918   0.546  1.00  0.00    -0.285 N 
ATOM      2  H3  UNL     1       3.165  -2.369   0.273  1.00  0.00     0.188 HD
HETATM    3  C5  UNL     1       1.192  -2.342   0.081  1.00  0.00     0.165 C 
ENDROOT
BRANCH   3   4
HETATM    4  C6  UNL     1       1.124  -3.482  -0.846  1.00  0.00     0.194 C 
HETATM    5  N4  UNL     1       2.178  -4.086  -1.243  1.00  0.00    -0.178 N 
BRANCH   5   6
HETATM    6  N5  UNL     1       2.094  -5.158  -2.117  1.00  0.00    -0.319 N 
ATOM      7  H52 UNL     1       1.181  -5.474  -2.444  1.00  0.00     0.179 HD
ATOM      8  H51 UNL     1       2.935  -5.640  -2.434  1.00  0.00     0.179 HD
ENDBRANCH   5   6
BRANCH   5   9
HETATM    9  O1  UNL     1       3.402  -3.662  -0.805  1.00  0.00    -0.269 OA
ATOM     10  H1  UNL     1       4.185  -4.111  -1.100  1.00  0.00     0.247 HD
ENDBRANCH   5   9
ENDBRANCH   3   4
BRANCH   3  11
HETATM   11  N6  UNL     1      -0.012  -1.636   0.436  1.00  0.00    -0.213 N 
ATOM     12  H6  UNL     1      -0.437  -1.797   1.349  1.00  0.00     0.204 HD
BRANCH  11  13
HETATM   13  N7  UNL     1      -0.581  -0.776  -0.407  1.00  0.00    -0.285 NA
HETATM   14  C7  UNL     1      -1.147   0.075  -1.243  1.00  0.00     0.319 C 
HETATM   15  O2  UNL     1      -1.702  -0.122  -2.380  1.00  0.00    -0.255 OA
BRANCH  14  16
HETATM   16  C8  UNL     1      -1.187   1.552  -0.867  1.00  0.00     0.200 C 
BRANCH  16  17
HETATM   17  C9  UNL     1      -2.561   1.854  -0.432  1.00  0.00     0.123 A 
HETATM   18  N8  UNL     1      -2.889   2.976   0.307  1.00  0.00    -0.271 N 
HETATM   19  N9  UNL     1      -4.173   2.890   0.559  1.00  0.00    -0.220 N 
ATOM     20  H8  UNL     1      -2.258   3.722   0.598  1.00  0.00     0.190 HD
HETATM   21  N10 UNL     1      -4.722   1.798   0.044  1.00  0.00    -0.181 N 
ATOM     22  H9  UNL     1      -4.693   3.587   1.093  1.00  0.00     0.210 HD
HETATM   23  N11 UNL     1      -3.719   1.193  -0.552  1.00  0.00    -0.265 N 
ATOM     24  H11 UNL     1      -3.813   0.310  -1.054  1.00  0.00     0.190 HD
BRANCH  21  25
HETATM   25  C10 UNL     1      -6.079   1.396   0.184  1.00  0.00     0.076 A 
HETATM   26  C11 UNL     1      -6.819   0.922  -0.854  1.00  0.00     0.033 A 
HETATM   27  C12 UNL     1      -8.138   0.525  -0.644  1.00  0.00     0.002 A 
HETATM   28  C13 UNL     1      -8.693   0.612   0.627  1.00  0.00     0.000 A 
HETATM   29  C14 UNL     1      -7.951   1.090   1.675  1.00  0.00     0.002 A 
HETATM   30  C15 UNL     1      -6.666   1.480   1.478  1.00  0.00     0.033 A 
ENDBRANCH  21  25
ENDBRANCH  16  17
ENDBRANCH  14  16
ENDBRANCH  11  13
ENDBRANCH   3  11
BRANCH   1  31
HETATM   31  N2  UNL     1       2.316  -0.838   1.429  1.00  0.00    -0.316 N 
ATOM     32  H2  UNL     1       1.484  -0.275   1.607  1.00  0.00     0.182 HD
BRANCH  31  33
HETATM   33  C4  UNL     1       3.570  -0.555   2.077  1.00  0.00     0.273 C 
BRANCH  33  34
HETATM   34  N1  UNL     1       4.316   0.420   1.322  1.00  0.00    -0.291 N 
HETATM   35  C3  UNL     1       5.167   0.102   0.326  1.00  0.00     0.109 A 
HETATM   36  C2  UNL     1       5.843   1.144  -0.298  1.00  0.00     0.022 A 
HETATM   37  C1  UNL     1       6.791   0.851  -1.411  1.00  0.00     0.056 C 
HETATM   38  C17 UNL     1       5.639   2.447   0.099  1.00  0.00     0.256 A 
HETATM   39  N12 UNL     1       4.783   2.754   1.098  1.00  0.00    -0.275 N 
HETATM   40  O4  UNL     1       6.267   3.397  -0.483  1.00  0.00    -0.267 OA
HETATM   41  C16 UNL     1       4.161   1.708   1.663  1.00  0.00     0.330 A 
ATOM     42  H12 UNL     1       4.621   3.714   1.402  1.00  0.00     0.173 HD
HETATM   43  O3  UNL     1       3.357   2.013   2.608  1.00  0.00    -0.246 OA
ENDBRANCH  33  34
ENDBRANCH  31  33
ENDBRANCH   1  31
TORSDOF 11
