REMARK  8 active torsions:
REMARK  status: ('A' for Active; 'I' for Inactive)
REMARK    1  A    between atoms: C3_5  and  C4_6 
REMARK       I    between atoms: C4_6  and  N2_8 
REMARK    2  A    between atoms: N2_8  and  C5_10 
REMARK    3  A    between atoms: C5_10  and  C6_11 
REMARK    4  A    between atoms: C5_10  and  C9_22 
REMARK       I    between atoms: C6_11  and  N3_13 
REMARK    5  A    between atoms: N3_13  and  N4_15 
REMARK       I    between atoms: N4_15  and  C7_17 
REMARK    6  A    between atoms: C7_17  and  C8_19 
REMARK    7  A    between atoms: C8_19  and  O5_20 
REMARK    8  A    between atoms: C15_28  and  N5_29 
ROOT
HETATM    1  C4  UNL     1      -0.972   1.165  -0.627  1.00  0.00     0.260 C 
HETATM    2  O2  UNL     1      -0.536   2.056  -1.383  1.00  0.00    -0.267 OA
HETATM    3  N2  UNL     1      -0.013   0.187  -0.236  1.00  0.00    -0.339 N 
ATOM      4  H2  UNL     1      -0.329  -0.564   0.378  1.00  0.00     0.164 HD
ENDROOT
BRANCH   3   5
HETATM    5  C5  UNL     1       1.371   0.178  -0.642  1.00  0.00     0.212 C 
BRANCH   5   6
HETATM    6  C6  UNL     1       2.272   0.369   0.529  1.00  0.00     0.263 C 
HETATM    7  O3  UNL     1       1.745   0.537   1.649  1.00  0.00    -0.269 OA
HETATM    8  N3  UNL     1       3.670   0.365   0.408  1.00  0.00    -0.265 N 
ATOM      9  H3  UNL     1       4.108   0.228  -0.503  1.00  0.00     0.190 HD
BRANCH   8  10
HETATM   10  N4  UNL     1       4.462   0.552   1.555  1.00  0.00    -0.266 N 
HETATM   11  C7  UNL     1       5.675   1.272   1.529  1.00  0.00     0.259 C 
HETATM   12  O4  UNL     1       6.136   1.795   0.481  1.00  0.00    -0.269 OA
ATOM     13  H4  UNL     1       4.148   0.152   2.439  1.00  0.00     0.190 HD
BRANCH  11  14
HETATM   14  C8  UNL     1       6.464   1.433   2.782  1.00  0.00     0.268 C 
BRANCH  14  15
HETATM   15  O5  UNL     1       7.615   2.157   2.566  1.00  0.00    -0.392 OA
ATOM     16  H5  UNL     1       8.118   2.260   3.365  1.00  0.00     0.210 HD
ENDBRANCH  14  15
ENDBRANCH  11  14
ENDBRANCH   8  10
ENDBRANCH   5   6
BRANCH   5  17
HETATM   17  C9  UNL     1       1.688  -1.133  -1.237  1.00  0.00    -0.026 A 
HETATM   18  C10 UNL     1       2.427  -1.215  -2.394  1.00  0.00     0.010 A 
HETATM   19  C11 UNL     1       2.744  -2.439  -2.965  1.00  0.00     0.001 A 
HETATM   20  C12 UNL     1       2.310  -3.625  -2.363  1.00  0.00     0.000 A 
HETATM   21  C13 UNL     1       1.575  -3.543  -1.212  1.00  0.00     0.001 A 
HETATM   22  C14 UNL     1       1.274  -2.308  -0.667  1.00  0.00     0.010 A 
ENDBRANCH   5  17
ENDBRANCH   3   5
BRANCH   1  23
HETATM   23  C3  UNL     1      -2.333   1.139  -0.197  1.00  0.00     0.138 C 
HETATM   24  C2  UNL     1      -2.634   0.383   0.958  1.00  0.00     0.269 C 
HETATM   25  N1  UNL     1      -3.731  -0.357   1.194  1.00  0.00    -0.270 N 
HETATM   26  O1  UNL     1      -1.771   0.411   1.867  1.00  0.00    -0.267 OA
HETATM   27  C1  UNL     1      -3.642  -1.325   2.271  1.00  0.00     0.164 C 
HETATM   28  C18 UNL     1      -4.922  -0.292   0.544  1.00  0.00     0.333 C 
HETATM   29  N6  UNL     1      -5.394   0.602  -0.373  1.00  0.00    -0.268 N 
HETATM   30  O9  UNL     1      -5.773  -1.179   0.786  1.00  0.00    -0.246 OA
HETATM   31  C16 UNL     1      -4.703   1.668  -0.814  1.00  0.00     0.285 C 
HETATM   32  C17 UNL     1      -6.719   0.393  -0.910  1.00  0.00     0.164 C 
HETATM   33  C15 UNL     1      -3.289   1.807  -0.905  1.00  0.00     0.192 C 
HETATM   34  O8  UNL     1      -5.380   2.633  -1.180  1.00  0.00    -0.265 OA
BRANCH  33  35
HETATM   35  N5  UNL     1      -2.865   2.775  -1.823  1.00  0.00    -0.109 N 
HETATM   36  O6  UNL     1      -2.571   2.559  -2.999  1.00  0.00    -0.532 OA
HETATM   37  O7  UNL     1      -2.841   4.087  -1.343  1.00  0.00    -0.532 OA
ENDBRANCH  33  35
ENDBRANCH   1  23
TORSDOF 8
