REMARK  7 active torsions:
REMARK  status: ('A' for Active; 'I' for Inactive)
REMARK    1  A    between atoms: C4_7  and  C5_8 
REMARK    2  A    between atoms: C5_8  and  N3_9 
REMARK    3  A    between atoms: C8_12  and  N4_13 
REMARK       I    between atoms: N4_13  and  C9_15 
REMARK    4  A    between atoms: C9_15  and  C10_17 
REMARK    5  A    between atoms: C10_17  and  N5_18 
REMARK    6  A    between atoms: C11_21  and  C12_22 
REMARK    7  A    between atoms: C12_22  and  N7_23 
ROOT
HETATM    1  N5  UNL     1      -3.021   0.699   0.780  1.00  0.00    -0.247 N 
HETATM    2  N6  UNL     1      -4.087   1.362   0.401  1.00  0.00    -0.297 N 
ATOM      3  H6  UNL     1      -4.008   2.375   0.309  1.00  0.00     0.187 HD
HETATM    4  C11 UNL     1      -5.290   0.794   0.122  1.00  0.00     0.069 A 
HETATM    5  C13 UNL     1      -5.336  -0.587   0.265  1.00  0.00     0.090 A 
HETATM    6  C14 UNL     1      -6.487  -1.301   0.017  1.00  0.00     0.264 A 
HETATM    7  O2  UNL     1      -7.503  -0.656  -0.345  1.00  0.00    -0.267 OA
HETATM    8  N8  UNL     1      -6.537  -2.649   0.155  1.00  0.00    -0.275 N 
ATOM      9  H8  UNL     1      -7.409  -3.143  -0.037  1.00  0.00     0.173 HD
HETATM   10  C15 UNL     1      -5.458  -3.340   0.540  1.00  0.00     0.327 A 
HETATM   11  O3  UNL     1      -5.508  -4.606   0.669  1.00  0.00    -0.247 OA
HETATM   12  N9  UNL     1      -4.335  -2.649   0.783  1.00  0.00    -0.303 N 
ATOM     13  H9  UNL     1      -3.509  -3.170   1.078  1.00  0.00     0.171 HD
HETATM   14  C16 UNL     1      -4.227  -1.319   0.664  1.00  0.00     0.124 A 
HETATM   15  C17 UNL     1      -3.065  -0.632   0.917  1.00  0.00     0.290 A 
HETATM   16  O4  UNL     1      -2.068  -1.308   1.278  1.00  0.00    -0.264 OA
ENDROOT
BRANCH   1  17
HETATM   17  C10 UNL     1      -1.761   1.383   1.062  1.00  0.00     0.255 C 
BRANCH  17  18
HETATM   18  C9  UNL     1      -0.925   1.487  -0.145  1.00  0.00     0.243 C 
HETATM   19  N4  UNL     1       0.351   2.105  -0.154  1.00  0.00    -0.311 N 
ATOM     20  H4  UNL     1       0.400   3.099   0.069  1.00  0.00     0.170 HD
HETATM   21  O1  UNL     1      -1.350   1.008  -1.226  1.00  0.00    -0.271 OA
BRANCH  19  22
HETATM   22  C8  UNL     1       1.436   1.504  -0.421  1.00  0.00     0.112 A 
HETATM   23  C7  UNL     1       1.526   0.151  -0.742  1.00  0.00     0.066 A 
HETATM   24  C6  UNL     1       2.756  -0.399  -1.014  1.00  0.00     0.100 A 
HETATM   25  N3  UNL     1       3.918   0.316  -0.987  1.00  0.00    -0.303 N 
HETATM   26  C18 UNL     1       3.802   1.604  -0.678  1.00  0.00     0.328 A 
HETATM   27  N10 UNL     1       2.593   2.177  -0.403  1.00  0.00    -0.294 N 
HETATM   28  O5  UNL     1       4.808   2.343  -0.630  1.00  0.00    -0.246 OA
ATOM     29  H10 UNL     1       2.571   3.170  -0.172  1.00  0.00     0.172 HD
BRANCH  25  30
HETATM   30  C5  UNL     1       5.178  -0.337  -1.272  1.00  0.00     0.209 C 
BRANCH  30  31
HETATM   31  C4  UNL     1       5.734  -0.925  -0.051  1.00  0.00     0.101 A 
HETATM   32  N1  UNL     1       6.751  -0.553   0.696  1.00  0.00    -0.348 N 
HETATM   33  C1  UNL     1       7.661   0.552   0.514  1.00  0.00     0.157 C 
HETATM   34  C2  UNL     1       6.892  -1.401   1.755  1.00  0.00     0.108 A 
HETATM   35  C3  UNL     1       5.908  -2.345   1.653  1.00  0.00     0.106 A 
HETATM   36  N2  UNL     1       5.218  -2.031   0.544  1.00  0.00    -0.353 N 
ATOM     37  H2  UNL     1       4.414  -2.553   0.196  1.00  0.00     0.166 HD
ENDBRANCH  30  31
ENDBRANCH  25  30
ENDBRANCH  19  22
ENDBRANCH  17  18
ENDBRANCH   1  17
BRANCH   4  38
HETATM   38  C12 UNL     1      -6.457   1.583  -0.299  1.00  0.00     0.289 C 
BRANCH  38  39
HETATM   39  N7  UNL     1      -6.004   2.993  -0.329  1.00  0.00    -0.074 N 
ATOM     40  H73 UNL     1      -5.595   3.308   0.550  1.00  0.00     0.274 HD
ATOM     41  H72 UNL     1      -5.179   3.144  -0.910  1.00  0.00     0.274 HD
ATOM     42  H71 UNL     1      -6.814   3.540  -0.621  1.00  0.00     0.274 HD
ENDBRANCH  38  39
ENDBRANCH   4  38
TORSDOF 7
