REMARK  8 active torsions:
REMARK  status: ('A' for Active; 'I' for Inactive)
REMARK       I    between atoms: C2_4  and  N3_6 
REMARK    1  A    between atoms: N3_6  and  C3_8 
REMARK    2  A    between atoms: N5_13  and  C5_14 
REMARK    3  A    between atoms: C5_14  and  C6_15 
REMARK    4  A    between atoms: C6_15  and  C7_16 
REMARK    5  A    between atoms: C7_16  and  C8_17 
REMARK       I    between atoms: C8_17  and  N6_19 
REMARK    6  A    between atoms: C12_26  and  N8_27 
REMARK    7  A    between atoms: N8_27  and  N9_29 
REMARK    8  A    between atoms: N9_29  and  C13_31 
ROOT
HETATM    1  C3  UNL     1      -3.522  -1.503   0.886  1.00  0.00     0.703 A 
HETATM    2  N4  UNL     1      -2.748  -2.360   0.193  1.00  0.00    -0.140 N 
ATOM      3  H4  UNL     1      -3.093  -3.292  -0.037  1.00  0.00     0.189 HD
HETATM    4  C4  UNL     1      -1.523  -1.981  -0.192  1.00  0.00     0.355 A 
HETATM    5  O1  UNL     1      -0.809  -2.783  -0.836  1.00  0.00    -0.245 OA
HETATM    6  N5  UNL     1      -1.047  -0.722   0.115  1.00  0.00    -0.130 N 
HETATM    7  C12 UNL     1      -1.791   0.144   0.798  1.00  0.00     0.717 A 
HETATM    8  N13 UNL     1      -3.054  -0.293   1.176  1.00  0.00    -0.020 N 
ATOM      9  H13 UNL     1      -3.651   0.345   1.702  1.00  0.00     0.203 HD
ENDROOT
BRANCH   7  10
HETATM   10  N8  UNL     1      -1.437   1.297   1.104  1.00  0.00    -0.130 N 
ATOM     11  H8  UNL     1      -2.199   1.734   1.622  1.00  0.00     0.205 HD
BRANCH  10  12
HETATM   12  N9  UNL     1      -0.459   2.163   1.014  1.00  0.00    -0.270 N 
ATOM     13  H9  UNL     1       0.415   1.952   1.495  1.00  0.00     0.189 HD
BRANCH  12  14
HETATM   14  C13 UNL     1      -0.546   3.402   0.272  1.00  0.00     0.137 A 
HETATM   15  C14 UNL     1      -1.679   3.763  -0.423  1.00  0.00     0.070 A 
HETATM   16  C15 UNL     1      -1.700   4.963  -1.109  1.00  0.00     0.112 A 
HETATM   17  N10 UNL     1      -0.634   5.777  -1.106  1.00  0.00    -0.297 N 
HETATM   18  N11 UNL     1       0.436   5.404  -0.431  1.00  0.00    -0.242 N 
ATOM     19  H10 UNL     1      -0.650   6.662  -1.613  1.00  0.00     0.187 HD
HETATM   20  N12 UNL     1       0.479   4.263   0.231  1.00  0.00    -0.270 N 
ATOM     21  H11 UNL     1       1.253   6.014  -0.420  1.00  0.00     0.208 HD
ATOM     22  H12 UNL     1       1.333   4.026   0.735  1.00  0.00     0.190 HD
ENDBRANCH  12  14
ENDBRANCH  10  12
ENDBRANCH   7  10
BRANCH   6  23
HETATM   23  C5  UNL     1       0.308  -0.476  -0.379  1.00  0.00     0.153 C 
BRANCH  23  24
HETATM   24  C6  UNL     1       1.343  -0.890   0.605  1.00  0.00     0.030 C 
BRANCH  24  25
HETATM   25  C7  UNL     1       2.757  -0.799   0.194  1.00  0.00     0.105 C 
BRANCH  25  26
HETATM   26  C8  UNL     1       3.301   0.486  -0.207  1.00  0.00     0.236 C 
HETATM   27  O2  UNL     1       2.658   1.546  -0.334  1.00  0.00    -0.272 OA
HETATM   28  N6  UNL     1       4.721   0.523  -0.482  1.00  0.00    -0.183 N 
HETATM   29  C9  UNL     1       5.814  -0.389  -0.473  1.00  0.00     0.343 A 
HETATM   30  C11 UNL     1       5.634   1.535  -0.890  1.00  0.00     0.343 A 
HETATM   31  O3  UNL     1       5.924  -1.631  -0.203  1.00  0.00    -0.246 OA
HETATM   32  N7  UNL     1       6.721   0.619  -0.879  1.00  0.00    -0.255 N 
HETATM   33  C10 UNL     1       8.149   0.634  -1.150  1.00  0.00     0.166 C 
HETATM   34  O4  UNL     1       5.562   2.767  -1.165  1.00  0.00    -0.246 OA
ENDBRANCH  25  26
ENDBRANCH  24  25
ENDBRANCH  23  24
ENDBRANCH   6  23
BRANCH   1  35
HETATM   35  N3  UNL     1      -4.707  -1.825   1.278  1.00  0.00    -0.163 N 
HETATM   36  C2  UNL     1      -5.297  -3.082   1.022  1.00  0.00     0.202 C 
HETATM   37  N1  UNL     1      -6.042  -3.261  -0.004  1.00  0.00    -0.368 N 
HETATM   38  N2  UNL     1      -5.068  -4.163   1.907  1.00  0.00    -0.063 NA
HETATM   39  C1  UNL     1      -6.287  -2.171  -0.917  1.00  0.00     0.148 C 
ATOM     40  H1  UNL     1      -6.462  -4.174  -0.176  1.00  0.00     0.161 HD
ATOM     41  H3  UNL     1      -5.247  -1.135   1.801  1.00  0.00     0.187 HD
ENDBRANCH   1  35
TORSDOF 8
