REMARK  9 active torsions:
REMARK  status: ('A' for Active; 'I' for Inactive)
REMARK    1  A    between atoms: N1_2  and  C2_4 
REMARK    2  A    between atoms: C3_8  and  N4_9 
REMARK    3  A    between atoms: N6_14  and  C4_15 
REMARK    4  A    between atoms: C6_18  and  C7_19 
REMARK    5  A    between atoms: C10_26  and  S2_27 
REMARK    6  A    between atoms: S2_27  and  N10_30 
REMARK    7  A    between atoms: N10_30  and  C11_32 
REMARK    8  A    between atoms: C11_32  and  C12_33 
REMARK    9  A    between atoms: C12_33  and  O3_34 
ROOT
HETATM    1  C7  UNL     1       0.386  -2.564   4.307  1.00  0.00     0.158 C 
HETATM    2  C8  UNL     1      -0.767  -3.396   4.496  1.00  0.00     0.113 C 
HETATM    3  N7  UNL     1      -1.706  -4.080   4.655  1.00  0.00    -0.191 NA
HETATM    4  C9  UNL     1       1.225  -2.138   5.364  1.00  0.00     0.113 C 
HETATM    5  N8  UNL     1       1.913  -1.808   6.238  1.00  0.00    -0.191 NA
ENDROOT
BRANCH   1   6
HETATM    6  C6  UNL     1       0.666  -2.181   3.041  1.00  0.00     0.107 A 
HETATM    7  S1  UNL     1      -0.180  -2.555   1.604  1.00  0.00    -0.066 SA
HETATM    8  C5  UNL     1       0.810  -1.697   0.491  1.00  0.00     0.065 A 
HETATM    9  C4  UNL     1       0.642  -1.610  -0.825  1.00  0.00     0.157 C 
HETATM   10  C10 UNL     1       1.753  -1.166   1.324  1.00  0.00     0.168 A 
HETATM   11  N9  UNL     1       1.642  -1.433   2.595  1.00  0.00    -0.337 N 
ATOM     12  H9  UNL     1       2.325  -1.054   3.250  1.00  0.00     0.167 HD
BRANCH   9  13
HETATM   13  N6  UNL     1      -0.428  -2.249  -1.489  1.00  0.00    -0.079 N 
HETATM   14  N5  UNL     1      -0.636  -3.551  -1.689  1.00  0.00    -0.109 N 
HETATM   15  C3  UNL     1      -1.768  -3.733  -2.364  1.00  0.00     0.728 A 
ATOM     16  H5  UNL     1      -0.018  -4.298  -1.371  1.00  0.00     0.207 HD
HETATM   17  N3  UNL     1      -2.305  -2.520  -2.608  1.00  0.00     0.108 N 
HETATM   18  N2  UNL     1      -3.311  -1.890  -3.162  1.00  0.00    -0.095 N 
HETATM   19  C14 UNL     1      -1.464  -1.616  -2.060  1.00  0.00     0.757 A 
HETATM   20  C2  UNL     1      -3.110  -0.548  -2.965  1.00  0.00     0.710 A 
ATOM     21  H2  UNL     1      -4.098  -2.318  -3.650  1.00  0.00     0.207 HD
HETATM   22  N11 UNL     1      -1.970  -0.367  -2.283  1.00  0.00    -0.013 N 
HETATM   23  C15 UNL     1      -1.352   0.869  -1.844  1.00  0.00     0.195 C 
BRANCH  15  24
HETATM   24  N4  UNL     1      -2.294  -4.834  -2.739  1.00  0.00    -0.231 N 
ATOM     25  H42 UNL     1      -3.162  -4.974  -3.256  1.00  0.00     0.174 HD
ATOM     26  H41 UNL     1      -1.888  -5.751  -2.554  1.00  0.00     0.174 HD
ENDBRANCH  15  24
BRANCH  20  27
HETATM   27  N1  UNL     1      -3.916   0.335  -3.390  1.00  0.00    -0.228 N 
HETATM   28  C1  UNL     1      -3.895   1.746  -3.296  1.00  0.00     0.165 C 
ATOM     29  H1  UNL     1      -4.723  -0.040  -3.888  1.00  0.00     0.177 HD
ENDBRANCH  20  27
ENDBRANCH   9  13
BRANCH  10  30
HETATM   30  S2  UNL     1       3.103  -0.156   0.735  1.00  0.00     0.276 S 
HETATM   31  O1  UNL     1       4.276  -0.248   1.709  1.00  0.00    -0.199 OA
HETATM   32  O2  UNL     1       3.613  -0.733  -0.544  1.00  0.00    -0.199 OA
BRANCH  30  33
HETATM   33  N10 UNL     1       2.620   1.464   0.649  1.00  0.00    -0.312 N 
ATOM     34  H10 UNL     1       2.604   1.988  -0.226  1.00  0.00     0.172 HD
BRANCH  33  35
HETATM   35  C11 UNL     1       2.237   2.039   1.895  1.00  0.00     0.158 C 
BRANCH  35  36
HETATM   36  C12 UNL     1       1.817   3.498   1.725  1.00  0.00     0.187 C 
BRANCH  36  37
HETATM   37  O3  UNL     1       2.885   4.219   1.208  1.00  0.00    -0.394 OA
HETATM   38  C13 UNL     1       2.443   5.544   1.074  1.00  0.00     0.201 C 
ENDBRANCH  36  37
ENDBRANCH  35  36
ENDBRANCH  33  35
ENDBRANCH  30  33
ENDBRANCH  10  30
ENDBRANCH   1   6
TORSDOF 9
