REMARK  6 active torsions:
REMARK  status: ('A' for Active; 'I' for Inactive)
REMARK    1  A    between atoms: C2_2  and  C3_3 
REMARK    2  A    between atoms: C3_3  and  N1_4 
REMARK    3  A    between atoms: N1_4  and  C4_6 
REMARK    4  A    between atoms: C5_9  and  N3_10 
REMARK    5  A    between atoms: N3_10  and  C6_12 
REMARK    6  A    between atoms: C11_17  and  N4_18 
ROOT
HETATM    1  C4  UNL     1       2.517   0.285   0.545  1.00  0.00     0.129 A 
HETATM    2  N2  UNL     1       1.454  -0.525   0.609  1.00  0.00    -0.176 N 
ATOM      3  H2  UNL     1       1.533  -1.473   0.978  1.00  0.00     0.186 HD
HETATM    4  C5  UNL     1       0.258  -0.037   0.162  1.00  0.00     0.680 A 
HETATM    5  N5  UNL     1       0.167   1.199  -0.316  1.00  0.00    -0.191 N 
ATOM      6  H5  UNL     1      -0.743   1.528  -0.639  1.00  0.00     0.184 HD
HETATM    7  C12 UNL     1       1.222   2.042  -0.395  1.00  0.00     0.063 A 
HETATM    8  C13 UNL     1       1.129   3.320  -0.889  1.00  0.00     0.032 A 
HETATM    9  C14 UNL     1       2.205   4.181  -0.970  1.00  0.00     0.026 A 
HETATM   10  C15 UNL     1       3.424   3.703  -0.522  1.00  0.00     0.035 A 
HETATM   11 CL1  UNL     1       4.816   4.743  -0.598  1.00  0.00    -0.084 Cl
HETATM   12  C16 UNL     1       3.553   2.409  -0.013  1.00  0.00     0.041 A 
HETATM   13  C17 UNL     1       2.445   1.589   0.045  1.00  0.00     0.037 A 
ENDROOT
BRANCH   4  14
HETATM   14  N3  UNL     1      -0.755  -0.795   0.219  1.00  0.00    -0.219 N 
ATOM     15  H3  UNL     1      -0.593  -1.727   0.602  1.00  0.00     0.178 HD
BRANCH  14  16
HETATM   16  C6  UNL     1      -2.100  -0.510  -0.186  1.00  0.00     0.129 C 
HETATM   17  C7  UNL     1      -2.788   0.218   0.939  1.00  0.00     0.027 C 
HETATM   18  C8  UNL     1      -4.200   0.513   0.472  1.00  0.00     0.002 C 
HETATM   19  C9  UNL     1      -4.880  -0.828   0.406  1.00  0.00     0.002 C 
HETATM   20  C10 UNL     1      -4.253  -1.787  -0.529  1.00  0.00     0.035 C 
HETATM   21  C11 UNL     1      -2.765  -1.795  -0.568  1.00  0.00     0.206 C 
BRANCH  21  22
HETATM   22  N4  UNL     1      -2.296  -2.140  -1.901  1.00  0.00    -0.073 N 
ATOM     23  H43 UNL     1      -2.444  -1.395  -2.582  1.00  0.00     0.274 HD
ATOM     24  H42 UNL     1      -1.279  -2.180  -1.969  1.00  0.00     0.274 HD
ATOM     25  H41 UNL     1      -2.749  -3.016  -2.161  1.00  0.00     0.274 HD
ENDBRANCH  21  22
ENDBRANCH  14  16
ENDBRANCH   4  14
BRANCH   1  26
HETATM   26  N1  UNL     1       3.653  -0.136   0.957  1.00  0.00    -0.372 N 
ATOM     27  H1  UNL     1       4.458   0.488   0.903  1.00  0.00     0.161 HD
BRANCH  26  28
HETATM   28  C3  UNL     1       3.835  -1.454   1.492  1.00  0.00     0.147 C 
BRANCH  28  29
HETATM   29  C2  UNL     1       4.054  -2.504   0.469  1.00  0.00    -0.018 C 
HETATM   30  C1  UNL     1       4.080  -2.191  -0.799  1.00  0.00     0.008 C 
ENDBRANCH  28  29
ENDBRANCH  26  28
ENDBRANCH   1  26
TORSDOF 6
