REMARK  4 active torsions:
REMARK  status: ('A' for Active; 'I' for Inactive)
REMARK    1  A    between atoms: C2_2  and  N1_3 
REMARK    2  A    between atoms: C4_5  and  C5_6 
REMARK    3  A    between atoms: C15_17  and  O1_18 
REMARK    4  A    between atoms: C17_21  and  N2_22 
ROOT
HETATM    1  N1  UNL     1       0.265   1.545  -0.384  1.00  0.00     0.126 N 
HETATM    2  C3  UNL     1       1.443   0.770  -0.599  1.00  0.00     0.288 C 
HETATM    3  C4  UNL     1       1.386  -0.620   0.066  1.00  0.00     0.012 C 
HETATM    4  C7  UNL     1       1.340  -1.564  -1.140  1.00  0.00     0.015 C 
HETATM    5  C8  UNL     1      -0.058  -1.309  -1.635  1.00  0.00     0.019 C 
HETATM    6  C9  UNL     1      -0.780  -0.529  -0.528  1.00  0.00     0.055 C 
HETATM    7  C10 UNL     1      -1.821  -1.343   0.071  1.00  0.00    -0.027 C 
HETATM    8  C11 UNL     1      -2.513  -2.306  -0.912  1.00  0.00     0.016 C 
HETATM    9  C12 UNL     1      -2.824  -0.653   0.896  1.00  0.00     0.012 C 
HETATM   10  C13 UNL     1      -3.255   0.611   0.190  1.00  0.00     0.026 C 
HETATM   11  C14 UNL     1      -2.191   1.525  -0.265  1.00  0.00     0.149 C 
HETATM   12 CL1  UNL     1      -2.946   2.590  -1.520  1.00  0.00    -0.120 Cl
HETATM   13  C15 UNL     1      -0.959   0.889  -0.809  1.00  0.00     0.286 C 
HETATM   14  C16 UNL     1      -0.651  -2.050   0.762  1.00  0.00     0.042 C 
HETATM   15  C17 UNL     1       0.073  -0.721   0.701  1.00  0.00     0.048 C 
ENDROOT
BRANCH  15  16
HETATM   16  N2  UNL     1      -0.115  -0.025   1.857  1.00  0.00    -0.415 N 
HETATM   17  C18 UNL     1       0.610  -0.388   3.020  1.00  0.00     0.140 C 
ATOM     18  H2  UNL     1      -0.774   0.753   1.886  1.00  0.00     0.153 HD
ENDBRANCH  15  16
BRANCH   3  19
HETATM   19  C5  UNL     1       2.613  -0.918   0.828  1.00  0.00     0.009 C 
HETATM   20  C6  UNL     1       3.785  -0.872  -0.179  1.00  0.00     0.006 C 
ENDBRANCH   3  19
BRANCH  13  21
HETATM   21  O1  UNL     1      -1.006   1.029  -2.217  1.00  0.00    -0.361 OA
ATOM     22  H1  UNL     1      -1.807   0.600  -2.495  1.00  0.00     0.212 HD
ENDBRANCH  13  21
BRANCH   1  23
HETATM   23  C2  UNL     1       0.406   2.883  -0.826  1.00  0.00     0.272 C 
HETATM   24  C1  UNL     1       1.418   3.554   0.117  1.00  0.00     0.037 C 
ENDBRANCH   1  23
TORSDOF 4
