REMARK  4 active torsions:
REMARK  status: ('A' for Active; 'I' for Inactive)
REMARK    1  A    between atoms: N2_6  and  C4_8 
REMARK    2  A    between atoms: C4_8  and  C6_10 
REMARK    3  A    between atoms: C11_17  and  N3_18 
REMARK    4  A    between atoms: C15_22  and  N4_23 
ROOT
HETATM    1  C1  UNL     1       1.983  -4.164   0.133  1.00  0.00     0.070 C 
HETATM    2  C2  UNL     1       1.487  -2.761   0.164  1.00  0.00     0.029 A 
HETATM    3  N1  UNL     1       2.328  -1.737  -0.006  1.00  0.00    -0.344 N 
ATOM      4  H1  UNL     1       3.321  -1.915  -0.158  1.00  0.00     0.167 HD
HETATM    5  C3  UNL     1       1.872  -0.474   0.022  1.00  0.00     0.108 A 
HETATM    6  N2  UNL     1       2.724   0.459  -0.146  1.00  0.00    -0.371 N 
ATOM      7  H2  UNL     1       2.357   1.410  -0.119  1.00  0.00     0.161 HD
HETATM    8  C7  UNL     1       0.550  -0.184   0.224  1.00  0.00    -0.004 A 
HETATM    9  C8  UNL     1      -0.343  -1.198   0.402  1.00  0.00    -0.022 A 
HETATM   10  C9  UNL     1       0.147  -2.506   0.369  1.00  0.00     0.063 A 
HETATM   11 CL1  UNL     1      -1.023  -3.787   0.600  1.00  0.00    -0.082 Cl
HETATM   12  C10 UNL     1      -1.786  -0.919   0.623  1.00  0.00     0.076 C 
HETATM   13  C11 UNL     1      -2.097   0.361  -0.149  1.00  0.00     0.224 C 
HETATM   14  C15 UNL     1      -1.305   1.461   0.480  1.00  0.00     0.219 C 
HETATM   15  C16 UNL     1       0.164   1.255   0.235  1.00  0.00     0.077 C 
ENDROOT
BRANCH   6  16
HETATM   16  C4  UNL     1       4.123   0.335  -0.366  1.00  0.00     0.089 C 
HETATM   17  C5  UNL     1       4.929  -0.046   0.826  1.00  0.00     0.033 C 
BRANCH  16  18
HETATM   18  C6  UNL     1       4.726   1.596  -0.980  1.00  0.00     0.111 C 
HETATM   19  S1  UNL     1       3.950   1.958  -2.585  1.00  0.00    -0.096 SA
ENDBRANCH  16  18
ENDBRANCH   6  16
BRANCH  14  20
HETATM   20  N4  UNL     1      -1.673   2.764   0.091  1.00  0.00    -0.073 N 
ATOM     21  H43 UNL     1      -1.644   2.848  -0.925  1.00  0.00     0.274 HD
ATOM     22  H42 UNL     1      -2.669   2.911   0.255  1.00  0.00     0.274 HD
ATOM     23  H41 UNL     1      -1.132   3.515   0.520  1.00  0.00     0.274 HD
ENDBRANCH  14  20
BRANCH  13  24
HETATM   24  N3  UNL     1      -3.485   0.612  -0.286  1.00  0.00    -0.072 N 
HETATM   25  C12 UNL     1      -4.201  -0.665  -0.152  1.00  0.00     0.272 C 
HETATM   26  C13 UNL     1      -3.794   1.072  -1.650  1.00  0.00     0.272 C 
HETATM   27  C14 UNL     1      -4.051   1.519   0.657  1.00  0.00     0.272 C 
ENDBRANCH  13  24
TORSDOF 4
