REMARK  6 active torsions:
REMARK  status: ('A' for Active; 'I' for Inactive)
REMARK    1  A    between atoms: C2_3  and  C3_4 
REMARK    2  A    between atoms: C2_3  and  N4_20 
REMARK    3  A    between atoms: C3_4  and  N2_5 
REMARK    4  A    between atoms: N2_5  and  C4_7 
REMARK    5  A    between atoms: C4_7  and  N3_9 
REMARK    6  A    between atoms: N3_9  and  C5_11 
ROOT
HETATM    1  N1  UNL     1      -2.160   1.864   1.635  1.00  0.00    -0.195 NA
HETATM    2  C1  UNL     1      -2.144   1.184   0.684  1.00  0.00     0.097 C 
HETATM    3  C2  UNL     1      -2.131   0.329  -0.508  1.00  0.00     0.346 C 
ENDROOT
BRANCH   3   4
HETATM    4  C3  UNL     1      -0.977  -0.616  -0.417  1.00  0.00     0.173 C 
BRANCH   4   5
HETATM    5  N2  UNL     1       0.246   0.178  -0.344  1.00  0.00    -0.364 N 
ATOM      6  H2  UNL     1       0.179   1.196  -0.364  1.00  0.00     0.162 HD
BRANCH   5   7
HETATM    7  C4  UNL     1       1.551  -0.439  -0.244  1.00  0.00     0.172 C 
HETATM    8  S1  UNL     1       1.548  -2.050  -0.219  1.00  0.00    -0.041 SA
BRANCH   7   9
HETATM    9  N3  UNL     1       2.668   0.398  -0.179  1.00  0.00    -0.332 N 
ATOM     10  H3  UNL     1       2.451   1.394  -0.209  1.00  0.00     0.168 HD
BRANCH   9  11
HETATM   11  C5  UNL     1       4.032   0.106  -0.080  1.00  0.00     0.059 A 
HETATM   12  C6  UNL     1       4.593  -1.142  -0.019  1.00  0.00     0.055 A 
HETATM   13  C7  UNL     1       5.978  -1.348   0.081  1.00  0.00     0.037 A 
HETATM   14 CL1  UNL     1       6.580  -2.983   0.151  1.00  0.00    -0.084 Cl
HETATM   15  C8  UNL     1       6.833  -0.277   0.122  1.00  0.00     0.049 A 
HETATM   16  C9  UNL     1       6.292   0.990   0.062  1.00  0.00     0.059 A 
HETATM   17 CL2  UNL     1       7.341   2.405   0.111  1.00  0.00    -0.082 Cl
HETATM   18  C10 UNL     1       4.943   1.178  -0.035  1.00  0.00     0.082 A 
HETATM   19 CL3  UNL     1       4.340   2.828  -0.106  1.00  0.00    -0.080 Cl
ENDBRANCH   9  11
ENDBRANCH   7   9
ENDBRANCH   5   7
ENDBRANCH   4   5
ENDBRANCH   3   4
BRANCH   3  20
HETATM   20  N4  UNL     1      -3.404  -0.302  -0.664  1.00  0.00     0.108 N 
HETATM   21  C11 UNL     1      -3.790  -1.178   0.391  1.00  0.00     0.274 C 
HETATM   22  C12 UNL     1      -4.956  -0.536   1.109  1.00  0.00     0.032 C 
HETATM   23  C13 UNL     1      -5.352   0.664   0.301  1.00  0.00     0.032 C 
HETATM   24  C14 UNL     1      -4.422   0.673  -0.874  1.00  0.00     0.274 C 
ENDBRANCH   3  20
TORSDOF 6
