REMARK  5 active torsions:
REMARK  status: ('A' for Active; 'I' for Inactive)
REMARK    1  A    between atoms: C3_4  and  N2_5 
REMARK       I    between atoms: N2_5  and  C4_7 
REMARK    2  A    between atoms: C4_7  and  C5_9 
REMARK    3  A    between atoms: C5_9  and  C6_10 
REMARK    4  A    between atoms: C6_10  and  N3_11 
REMARK    5  A    between atoms: C6_10  and  C7_15 
ROOT
HETATM    1  C1  UNL     1      -4.443  -0.075   2.033  1.00  0.00     0.150 C 
HETATM    2  N1  UNL     1      -3.342   0.370   1.250  1.00  0.00    -0.381 N 
HETATM    3  C2  UNL     1      -1.974   0.734   1.630  1.00  0.00     0.152 C 
HETATM    4  C3  UNL     1      -1.213   0.168   0.474  1.00  0.00     0.139 C 
HETATM    5  C10 UNL     1      -2.103   0.446  -0.680  1.00  0.00     0.018 A 
HETATM    6  C11 UNL     1      -1.841   0.587  -2.038  1.00  0.00     0.068 A 
HETATM    7 CL1  UNL     1      -0.174   0.430  -2.554  1.00  0.00    -0.082 Cl
HETATM    8  C12 UNL     1      -2.870   0.836  -2.889  1.00  0.00     0.080 A 
HETATM    9 CL2  UNL     1      -2.508   1.009  -4.594  1.00  0.00    -0.081 Cl
HETATM   10  C13 UNL     1      -4.154   0.946  -2.413  1.00  0.00     0.084 A 
HETATM   11 CL3  UNL     1      -5.453   1.264  -3.515  1.00  0.00    -0.080 Cl
HETATM   12  C14 UNL     1      -4.416   0.807  -1.066  1.00  0.00     0.097 A 
HETATM   13  N4  UNL     1      -5.734   0.917  -0.560  1.00  0.00    -0.098 NA
HETATM   14  C15 UNL     1      -3.383   0.552  -0.175  1.00  0.00     0.066 A 
ENDROOT
BRANCH   4  15
HETATM   15  N2  UNL     1       0.118   0.661   0.335  1.00  0.00    -0.351 N 
HETATM   16  C4  UNL     1       1.203  -0.253   0.394  1.00  0.00     0.220 C 
HETATM   17  O1  UNL     1       1.011  -1.486   0.567  1.00  0.00    -0.274 OA
ATOM     18  H2  UNL     1       0.288   1.657   0.195  1.00  0.00     0.163 HD
BRANCH  16  19
HETATM   19  C5  UNL     1       2.622   0.181   0.256  1.00  0.00     0.135 C 
BRANCH  19  20
HETATM   20  C6  UNL     1       3.578  -0.959   0.352  1.00  0.00     0.196 C 
BRANCH  20  21
HETATM   21  N3  UNL     1       3.436  -1.601   1.633  1.00  0.00    -0.074 N 
ATOM     22  H33 UNL     1       3.541  -0.944   2.406  1.00  0.00     0.274 HD
ATOM     23  H32 UNL     1       2.474  -1.889   1.815  1.00  0.00     0.274 HD
ATOM     24  H31 UNL     1       4.090  -2.381   1.699  1.00  0.00     0.274 HD
ENDBRANCH  20  21
BRANCH  20  25
HETATM   25  C7  UNL     1       4.985  -0.422   0.248  1.00  0.00     0.016 A 
HETATM   26  C8  UNL     1       6.142  -1.345   0.312  1.00  0.00     0.007 A 
HETATM   27  C9  UNL     1       5.740  -0.719  -1.042  1.00  0.00     0.007 A 
ENDBRANCH  20  25
ENDBRANCH  19  20
ENDBRANCH  16  19
ENDBRANCH   4  15
TORSDOF 5
