REMARK  5 active torsions:
REMARK  status: ('A' for Active; 'I' for Inactive)
REMARK    1  A    between atoms: O1_1  and  C1_3 
REMARK    2  A    between atoms: C1_3  and  C2_4 
REMARK    3  A    between atoms: C2_4  and  C3_7 
REMARK    4  A    between atoms: C9_13  and  C10_14 
REMARK    5  A    between atoms: C14_18  and  C15_19 
ROOT
HETATM    1  C3  UNL     1      -3.169   0.503   0.598  1.00  0.00     0.099 C 
HETATM    2  C4  UNL     1      -3.345  -0.575   1.684  1.00  0.00     0.046 C 
HETATM    3  C5  UNL     1      -2.062  -1.335   1.901  1.00  0.00     0.188 C 
HETATM    4  C6  UNL     1      -2.121  -2.761   1.462  1.00  0.00     0.033 C 
HETATM    5  C7  UNL     1      -1.810  -2.980   0.018  1.00  0.00     0.005 C 
HETATM    6  C8  UNL     1      -0.819  -1.993  -0.571  1.00  0.00     0.047 C 
HETATM    7  C9  UNL     1      -1.068  -0.570  -0.107  1.00  0.00     0.184 C 
HETATM    8  N2  UNL     1      -0.977  -0.576   1.346  1.00  0.00    -0.055 N 
ATOM      9  H21 UNL     1      -0.070  -0.911   1.671  1.00  0.00     0.279 HD
ATOM     10  H22 UNL     1      -0.934   0.368   1.731  1.00  0.00     0.279 HD
HETATM   11  C21 UNL     1      -2.450  -0.215  -0.535  1.00  0.00     0.221 C 
HETATM   12  F3  UNL     1      -2.603   0.348  -1.765  1.00  0.00    -0.246 F 
ENDROOT
BRANCH   7  13
HETATM   13  C10 UNL     1       0.009   0.295  -0.585  1.00  0.00    -0.019 A 
HETATM   14  C11 UNL     1      -0.192   1.544  -1.128  1.00  0.00     0.010 A 
HETATM   15  C12 UNL     1       0.895   2.281  -1.578  1.00  0.00     0.001 A 
HETATM   16  C13 UNL     1       2.163   1.768  -1.474  1.00  0.00     0.007 A 
HETATM   17  C14 UNL     1       2.391   0.526  -0.933  1.00  0.00    -0.053 A 
HETATM   18  C20 UNL     1       1.304  -0.196  -0.494  1.00  0.00     0.017 A 
BRANCH  17  19
HETATM   19  C15 UNL     1       3.773  -0.018  -0.711  1.00  0.00     0.022 C 
HETATM   20  C16 UNL     1       4.754   0.651  -1.582  1.00  0.00     0.037 C 
HETATM   21  C17 UNL     1       5.460   1.760  -0.790  1.00  0.00     0.233 C 
HETATM   22  N1  UNL     1       6.232   1.029   0.220  1.00  0.00    -0.075 N 
HETATM   23  C18 UNL     1       5.315   0.605   1.215  1.00  0.00     0.233 C 
ATOM     24  H12 UNL     1       6.781   0.264  -0.171  1.00  0.00     0.277 HD
ATOM     25  H11 UNL     1       7.011   1.568   0.597  1.00  0.00     0.277 HD
HETATM   26  C19 UNL     1       4.000   0.153   0.780  1.00  0.00     0.037 C 
ENDBRANCH  17  19
ENDBRANCH   7  13
BRANCH   1  27
HETATM   27  C2  UNL     1      -4.576   0.813   0.134  1.00  0.00     0.270 C 
HETATM   28  F1  UNL     1      -4.579   1.786  -0.852  1.00  0.00    -0.203 F 
HETATM   29  F2  UNL     1      -5.132  -0.363  -0.320  1.00  0.00    -0.203 F 
BRANCH  27  30
HETATM   30  C1  UNL     1      -5.422   1.326   1.277  1.00  0.00     0.243 C 
BRANCH  30  31
HETATM   31  O1  UNL     1      -6.703   1.530   0.760  1.00  0.00    -0.395 OA
ATOM     32  H1  UNL     1      -7.235   1.852   1.478  1.00  0.00     0.209 HD
ENDBRANCH  30  31
ENDBRANCH  27  30
ENDBRANCH   1  27
TORSDOF 5
