REMARK  7 active torsions:
REMARK  status: ('A' for Active; 'I' for Inactive)
REMARK    1  A    between atoms: C5_5  and  O1_6 
REMARK    2  A    between atoms: C9_11  and  O2_12 
REMARK    3  A    between atoms: C9_11  and  C10_14 
REMARK    4  A    between atoms: C10_14  and  O3_15 
REMARK    5  A    between atoms: O3_15  and  C11_16 
REMARK    6  A    between atoms: C11_16  and  C13_18 
REMARK    7  A    between atoms: C13_18  and  O4_19 
ROOT
HETATM    1  C1  UNL     1      -3.138   2.870   0.944  1.00  0.00     0.010 C 
HETATM    2  C2  UNL     1      -2.300   1.567   0.996  1.00  0.00    -0.018 C 
HETATM    3  C3  UNL     1      -3.280   0.494   1.284  1.00  0.00     0.007 C 
HETATM    4  C4  UNL     1      -2.730  -0.846   1.631  1.00  0.00     0.041 C 
HETATM    5  C5  UNL     1      -2.066  -1.585   0.514  1.00  0.00     0.085 C 
HETATM    6  C6  UNL     1      -0.759  -2.153   0.980  1.00  0.00     0.048 C 
HETATM    7  C7  UNL     1       0.453  -1.588   0.324  1.00  0.00     0.022 C 
HETATM    8  C8  UNL     1       0.933  -2.462  -0.784  1.00  0.00     0.013 C 
HETATM    9  C9  UNL     1       0.336  -0.128  -0.031  1.00  0.00     0.093 C 
HETATM   10  C14 UNL     1      -0.913   0.270  -0.725  1.00  0.00     0.024 C 
HETATM   11  C15 UNL     1      -0.712   0.440  -2.218  1.00  0.00     0.041 C 
HETATM   12  C16 UNL     1      -1.780  -0.480  -2.830  1.00  0.00     0.169 C 
HETATM   13  O5  UNL     1      -1.814  -1.541  -1.892  1.00  0.00    -0.382 OA
HETATM   14  C17 UNL     1      -1.987  -0.783  -0.721  1.00  0.00     0.167 C 
HETATM   15  C18 UNL     1      -1.514   1.547  -0.221  1.00  0.00     0.019 C 
ENDROOT
BRANCH   9  16
HETATM   16  O2  UNL     1       0.277   0.531   1.233  1.00  0.00    -0.386 OA
ATOM     17  H2  UNL     1       0.203   1.451   1.009  1.00  0.00     0.210 HD
ENDBRANCH   9  16
BRANCH   9  18
HETATM   18  C10 UNL     1       1.614   0.383  -0.612  1.00  0.00     0.207 C 
BRANCH  18  19
HETATM   19  O3  UNL     1       2.666   0.030   0.274  1.00  0.00    -0.381 OA
BRANCH  19  20
HETATM   20  C11 UNL     1       3.860   0.507  -0.268  1.00  0.00     0.141 C 
HETATM   21  C12 UNL     1       4.852  -0.581  -0.531  1.00  0.00     0.042 C 
BRANCH  20  22
HETATM   22  C13 UNL     1       4.500   1.500   0.688  1.00  0.00     0.195 C 
BRANCH  22  23
HETATM   23  O4  UNL     1       5.689   1.957   0.115  1.00  0.00    -0.398 OA
ATOM     24  H4  UNL     1       6.089   2.578   0.713  1.00  0.00     0.209 HD
ENDBRANCH  22  23
ENDBRANCH  20  22
ENDBRANCH  19  20
ENDBRANCH  18  19
ENDBRANCH   9  18
BRANCH   5  25
HETATM   25  O1  UNL     1      -2.900  -2.696   0.225  1.00  0.00    -0.387 OA
ATOM     26  H1  UNL     1      -2.478  -3.166  -0.485  1.00  0.00     0.210 HD
ENDBRANCH   5  25
TORSDOF 7
