REMARK  5 active torsions:
REMARK  status: ('A' for Active; 'I' for Inactive)
REMARK    1  A    between atoms: C1_2  and  C2_3 
REMARK       I    between atoms: C1_2  and  N2_16 
REMARK    2  A    between atoms: C2_3  and  N1_4 
REMARK    3  A    between atoms: N1_4  and  C3_6 
REMARK    4  A    between atoms: N2_16  and  N3_18 
REMARK    5  A    between atoms: N3_18  and  C12_20 
ROOT
HETATM    1  C2  UNL     1       0.854   0.728   0.387  1.00  0.00     0.219 C 
ENDROOT
BRANCH   1   2
HETATM    2  C1  UNL     1       2.238   0.231   0.689  1.00  0.00     0.253 C 
HETATM    3  O1  UNL     1       2.445  -1.003   0.617  1.00  0.00    -0.270 OA
HETATM    4  N2  UNL     1       3.304   1.086   1.049  1.00  0.00    -0.267 N 
ATOM      5  H2  UNL     1       3.116   2.087   1.096  1.00  0.00     0.190 HD
BRANCH   4   6
HETATM    6  N3  UNL     1       4.578   0.658   1.340  1.00  0.00    -0.277 N 
ATOM      7  H3  UNL     1       4.927   0.781   2.290  1.00  0.00     0.189 HD
BRANCH   6   8
HETATM    8  C12 UNL     1       5.347   0.111   0.472  1.00  0.00     0.163 A 
HETATM    9  N4  UNL     1       5.156  -0.161  -0.815  1.00  0.00    -0.345 N 
HETATM   10  C13 UNL     1       6.103  -0.755  -1.487  1.00  0.00     0.097 A 
ATOM     11  H4  UNL     1       4.280   0.092  -1.272  1.00  0.00     0.167 HD
HETATM   12  C14 UNL     1       7.261  -1.070  -0.826  1.00  0.00     0.070 A 
HETATM   13  S2  UNL     1       6.938  -0.498   0.743  1.00  0.00    -0.063 SA
ENDBRANCH   6   8
ENDBRANCH   4   6
ENDBRANCH   1   2
BRANCH   1  14
HETATM   14  N1  UNL     1      -0.014  -0.351   0.054  1.00  0.00    -0.404 N 
ATOM     15  H1  UNL     1       0.345  -1.291  -0.115  1.00  0.00     0.154 HD
BRANCH  14  16
HETATM   16  C3  UNL     1      -1.409  -0.058  -0.032  1.00  0.00     0.028 C 
HETATM   17  C4  UNL     1      -2.117  -1.278  -0.594  1.00  0.00     0.035 C 
HETATM   18  C5  UNL     1      -3.598  -1.004  -0.571  1.00  0.00    -0.010 C 
HETATM   19  C6  UNL     1      -4.136  -0.817   0.826  1.00  0.00     0.020 C 
HETATM   20  C10 UNL     1      -3.961   0.140  -1.471  1.00  0.00     0.020 C 
HETATM   21  C7  UNL     1      -3.372   0.291   1.523  1.00  0.00     0.050 C 
HETATM   22  C8  UNL     1      -1.886   0.129   1.390  1.00  0.00     0.045 C 
HETATM   23  S1  UNL     1      -3.759   1.821   0.578  1.00  0.00    -0.159 SA
HETATM   24  C9  UNL     1      -3.164   1.387  -1.105  1.00  0.00     0.050 C 
HETATM   25  C11 UNL     1      -1.674   1.074  -0.938  1.00  0.00     0.045 C 
ENDBRANCH  14  16
ENDBRANCH   1  14
TORSDOF 5
