REMARK  7 active torsions:
REMARK  status: ('A' for Active; 'I' for Inactive)
REMARK    1  A    between atoms: C2_2  and  C3_3 
REMARK    2  A    between atoms: C5_5  and  N1_6 
REMARK    3  A    between atoms: N1_6  and  C6_8 
REMARK    4  A    between atoms: C6_8  and  C14_18 
REMARK    5  A    between atoms: N2_9  and  C7_11 
REMARK    6  A    between atoms: C7_11  and  C8_12 
REMARK    7  A    between atoms: C16_24  and  O3_25 
ROOT
HETATM    1  C6  UNL     1       0.150  -1.605   0.274  1.00  0.00     0.142 C 
HETATM    2  N2  UNL     1      -0.663  -0.712   0.710  1.00  0.00    -0.373 N 
ATOM      3  H2  UNL     1      -1.186  -0.874   1.570  1.00  0.00     0.161 HD
ENDROOT
BRANCH   1   4
HETATM    4  N1  UNL     1       0.862  -1.375  -0.905  1.00  0.00    -0.319 N 
ATOM      5  H1  UNL     1       0.489  -1.734  -1.784  1.00  0.00     0.169 HD
BRANCH   4   6
HETATM    6  C5  UNL     1       2.003  -0.707  -0.920  1.00  0.00     0.173 A 
HETATM    7  C4  UNL     1       2.633  -0.162   0.174  1.00  0.00     0.085 A 
HETATM    8  C3  UNL     1       3.777   0.434  -0.300  1.00  0.00     0.036 A 
HETATM    9  N4  UNL     1       3.775   0.222  -1.626  1.00  0.00    -0.263 N 
HETATM   10  O4  UNL     1       2.730  -0.445  -1.962  1.00  0.00    -0.220 OA
ATOM     11  H4  UNL     1       4.497   0.543  -2.271  1.00  0.00     0.194 HD
BRANCH   8  12
HETATM   12  C2  UNL     1       4.804   1.165   0.498  1.00  0.00     0.055 C 
HETATM   13  C1  UNL     1       4.414   2.623   0.559  1.00  0.00     0.011 C 
ENDBRANCH   8  12
ENDBRANCH   4   6
ENDBRANCH   1   4
BRANCH   1  14
HETATM   14  C14 UNL     1       0.298  -2.841   1.040  1.00  0.00     0.175 A 
HETATM   15  O1  UNL     1      -0.292  -3.198   2.148  1.00  0.00    -0.253 OA
HETATM   16  C15 UNL     1       0.081  -4.371   2.550  1.00  0.00     0.372 A 
HETATM   17  O2  UNL     1      -0.320  -4.965   3.581  1.00  0.00    -0.238 OA
HETATM   18  N3  UNL     1       0.978  -4.838   1.659  1.00  0.00    -0.280 N 
HETATM   19  C16 UNL     1       1.128  -3.894   0.705  1.00  0.00     0.183 A 
ATOM     20  H3  UNL     1       1.456  -5.738   1.698  1.00  0.00     0.173 HD
BRANCH  19  21
HETATM   21  O3  UNL     1       1.959  -3.996  -0.379  1.00  0.00    -0.344 OA
ATOM     22  H3  UNL     1       2.530  -4.720  -0.609  1.00  0.00     0.219 HD
ENDBRANCH  19  21
ENDBRANCH   1  14
BRANCH   2  23
HETATM   23  C7  UNL     1      -0.835   0.519  -0.018  1.00  0.00     0.126 C 
BRANCH  23  24
HETATM   24  C8  UNL     1      -2.272   0.997   0.004  1.00  0.00     0.003 C 
HETATM   25  C9  UNL     1      -3.172  -0.023  -0.615  1.00  0.00     0.006 C 
HETATM   26  C10 UNL     1      -4.304   0.643  -1.385  1.00  0.00     0.000 C 
HETATM   27  C11 UNL     1      -4.764   1.842  -0.591  1.00  0.00     0.000 C 
HETATM   28  C12 UNL     1      -3.713   2.928  -0.681  1.00  0.00     0.000 C 
HETATM   29  C13 UNL     1      -2.321   2.340  -0.706  1.00  0.00     0.006 C 
ENDBRANCH  23  24
ENDBRANCH   2  23
TORSDOF 7
