REMARK  6 active torsions:
REMARK  status: ('A' for Active; 'I' for Inactive)
REMARK    1  A    between atoms: C3_4  and  C4_5 
REMARK    2  A    between atoms: C4_5  and  N2_6 
REMARK    3  A    between atoms: N2_6  and  C5_8 
REMARK    4  A    between atoms: N3_11  and  C8_12 
REMARK    5  A    between atoms: C8_12  and  C9_13 
REMARK    6  A    between atoms: C17_27  and  N7_28 
ROOT
HETATM    1  N1  UNL     1      -2.149   0.959  -3.769  1.00  0.00    -0.191 NA
HETATM    2  C1  UNL     1      -2.843   0.670  -2.863  1.00  0.00     0.104 C 
HETATM    3  C2  UNL     1      -3.719   0.324  -1.770  1.00  0.00     0.102 A 
HETATM    4  C3  UNL     1      -3.204  -0.100  -0.581  1.00  0.00     0.034 A 
HETATM    5  C14 UNL     1      -4.082  -0.427   0.458  1.00  0.00     0.091 A 
HETATM    6  N4  UNL     1      -3.895  -0.870   1.732  1.00  0.00    -0.349 N 
ATOM      7  H4  UNL     1      -2.991  -1.049   2.169  1.00  0.00     0.167 HD
HETATM    8  C15 UNL     1      -5.086  -1.034   2.320  1.00  0.00     0.182 A 
HETATM    9  N5  UNL     1      -6.011  -0.692   1.408  1.00  0.00    -0.337 N 
ATOM     10  H5  UNL     1      -7.018  -0.717   1.571  1.00  0.00     0.168 HD
HETATM   11  C16 UNL     1      -5.435  -0.311   0.248  1.00  0.00     0.136 A 
HETATM   12  N6  UNL     1      -5.927   0.109  -0.934  1.00  0.00    -0.326 N 
ATOM     13  H6  UNL     1      -6.936   0.186  -1.065  1.00  0.00     0.169 HD
HETATM   14  C17 UNL     1      -5.095   0.427  -1.941  1.00  0.00     0.122 A 
ENDROOT
BRANCH   4  15
HETATM   15  C4  UNL     1      -1.777  -0.234  -0.339  1.00  0.00     0.098 C 
BRANCH  15  16
HETATM   16  N2  UNL     1      -0.862   0.006  -1.157  1.00  0.00    -0.393 N 
ATOM     17  H2  UNL     1      -1.187   0.324  -2.070  1.00  0.00     0.159 HD
BRANCH  16  18
HETATM   18  C5  UNL     1       0.553  -0.086  -1.038  1.00  0.00     0.084 C 
HETATM   19  C6  UNL     1       1.046   1.071  -0.224  1.00  0.00     0.044 C 
HETATM   20  C7  UNL     1       1.504   0.599   1.124  1.00  0.00     0.119 C 
HETATM   21  N3  UNL     1       2.496  -0.425   1.124  1.00  0.00    -0.412 N 
HETATM   22  C12 UNL     1       2.491  -1.258  -0.028  1.00  0.00     0.119 C 
HETATM   23  C13 UNL     1       1.034  -1.390  -0.487  1.00  0.00     0.044 C 
BRANCH  21  24
HETATM   24  C8  UNL     1       3.804  -0.091   1.533  1.00  0.00     0.121 C 
BRANCH  24  25
HETATM   25  C9  UNL     1       4.565   0.825   0.618  1.00  0.00     0.003 A 
HETATM   26  C10 UNL     1       5.951   1.181   1.043  1.00  0.00     0.007 A 
HETATM   27  C11 UNL     1       5.746   0.230  -0.083  1.00  0.00     0.007 A 
ENDBRANCH  24  25
ENDBRANCH  21  24
ENDBRANCH  16  18
ENDBRANCH  15  16
ENDBRANCH   4  15
BRANCH  14  28
HETATM   28  N7  UNL     1      -5.512   0.832  -3.091  1.00  0.00    -0.384 N 
ATOM     29  H72 UNL     1      -4.881   1.073  -3.855  1.00  0.00     0.157 HD
ATOM     30  H71 UNL     1      -6.521   0.908  -3.216  1.00  0.00     0.157 HD
ENDBRANCH  14  28
TORSDOF 6
