REMARK  9 active torsions:
REMARK  status: ('A' for Active; 'I' for Inactive)
REMARK       I    between atoms: C2_2  and  N1_4 
REMARK       I    between atoms: N2_7  and  C5_8 
REMARK    1  A    between atoms: C5_8  and  C6_10 
REMARK    2  A    between atoms: C6_10  and  N3_11 
REMARK    3  A    between atoms: N4_22  and  C17_23 
REMARK    4  A    between atoms: C17_23  and  C18_24 
REMARK    5  A    between atoms: C24_31  and  C25_32 
REMARK    6  A    between atoms: C25_32  and  C26_33 
REMARK       I    between atoms: C26_33  and  N5_35 
REMARK    7  A    between atoms: N5_35  and  C27_37 
REMARK    8  A    between atoms: C27_37  and  C28_38 
REMARK    9  A    between atoms: C28_38  and  C29_39 
ROOT
HETATM    1  N3  UNL     1       2.482  -0.150  -0.229  1.00  0.00    -0.341 N 
HETATM    2  C7  UNL     1       2.459   0.935   0.738  1.00  0.00     0.142 C 
HETATM    3  C8  UNL     1       1.562   2.078   0.305  1.00  0.00     0.019 C 
HETATM    4  C9  UNL     1       1.578   3.032   1.552  1.00  0.00     0.096 C 
HETATM    5  C10 UNL     1       1.583   4.320   0.993  1.00  0.00    -0.182 C 
HETATM    6  C11 UNL     1       1.561   5.726   0.899  1.00  0.00     0.083 C 
HETATM    7  C12 UNL     1       1.743   5.980  -0.639  1.00  0.00     0.038 C 
HETATM    8  C13 UNL     1       1.194   4.959  -1.525  1.00  0.00    -0.026 C 
HETATM    9  C14 UNL     1       1.695   3.633  -1.817  1.00  0.00    -0.007 C 
HETATM   10  C15 UNL     1       2.237   2.656  -0.900  1.00  0.00    -0.013 C 
HETATM   11  C16 UNL     1       0.186   1.676  -0.064  1.00  0.00     0.139 C 
HETATM   12  N4  UNL     1      -0.334   0.437   0.380  1.00  0.00    -0.374 N 
HETATM   13  C24 UNL     1      -0.095  -0.687  -0.417  1.00  0.00     0.184 C 
HETATM   14  C35 UNL     1       1.347  -0.682  -0.863  1.00  0.00     0.243 C 
HETATM   15  O4  UNL     1       1.586  -1.237  -1.973  1.00  0.00    -0.271 OA
ENDROOT
BRANCH  13  16
HETATM   16  C25 UNL     1      -0.927  -1.007  -1.585  1.00  0.00     0.137 C 
BRANCH  16  17
HETATM   17  C26 UNL     1      -2.355  -1.295  -1.368  1.00  0.00     0.220 C 
HETATM   18  O3  UNL     1      -2.791  -1.458  -0.209  1.00  0.00    -0.274 OA
HETATM   19  N5  UNL     1      -3.282  -1.396  -2.449  1.00  0.00    -0.361 N 
ATOM     20  H5  UNL     1      -2.906  -1.264  -3.388  1.00  0.00     0.162 HD
BRANCH  19  21
HETATM   21  C27 UNL     1      -4.670  -1.661  -2.353  1.00  0.00     0.123 C 
BRANCH  21  22
HETATM   22  C28 UNL     1      -5.374  -0.585  -1.576  1.00  0.00     0.024 C 
BRANCH  22  23
HETATM   23  C29 UNL     1      -6.865  -0.871  -1.473  1.00  0.00    -0.013 C 
HETATM   24  C30 UNL     1      -7.551   0.204  -0.697  1.00  0.00     0.005 C 
HETATM   25  C31 UNL     1      -7.761  -0.121   0.761  1.00  0.00     0.000 C 
HETATM   26  C32 UNL     1      -8.473  -1.421   0.983  1.00  0.00     0.000 C 
HETATM   27  C33 UNL     1      -8.434  -2.345  -0.196  1.00  0.00     0.000 C 
HETATM   28  C34 UNL     1      -7.130  -2.249  -0.950  1.00  0.00     0.005 C 
ENDBRANCH  22  23
ENDBRANCH  21  22
ENDBRANCH  19  21
ENDBRANCH  16  17
ENDBRANCH  13  16
BRANCH  12  29
HETATM   29  C17 UNL     1      -0.800   0.336   1.684  1.00  0.00     0.098 C 
BRANCH  29  30
HETATM   30  C18 UNL     1      -1.947   1.192   2.097  1.00  0.00    -0.019 A 
HETATM   31  C19 UNL     1      -2.825   1.786   1.231  1.00  0.00     0.013 A 
HETATM   32  C20 UNL     1      -3.874   2.578   1.627  1.00  0.00     0.003 A 
HETATM   33  C21 UNL     1      -4.051   2.785   2.978  1.00  0.00     0.024 A 
HETATM   34  C22 UNL     1      -3.189   2.205   3.903  1.00  0.00     0.034 A 
HETATM   35 CL1  UNL     1      -3.506   2.532   5.586  1.00  0.00    -0.084 Cl
HETATM   36  C23 UNL     1      -2.156   1.422   3.453  1.00  0.00     0.036 A 
ENDBRANCH  29  30
ENDBRANCH  12  29
BRANCH   1  37
HETATM   37  C6  UNL     1       3.777  -0.721  -0.559  1.00  0.00     0.228 C 
BRANCH  37  38
HETATM   38  C5  UNL     1       4.108  -1.851   0.361  1.00  0.00     0.237 C 
HETATM   39  N2  UNL     1       5.314  -2.575   0.253  1.00  0.00    -0.348 N 
HETATM   40  C4  UNL     1       6.247  -2.188  -0.797  1.00  0.00     0.145 C 
HETATM   41  C36 UNL     1       5.583  -3.645   1.161  1.00  0.00     0.145 C 
HETATM   42  C3  UNL     1       7.639  -2.675  -0.446  1.00  0.00     0.145 C 
HETATM   43  N1  UNL     1       7.616  -4.084  -0.088  1.00  0.00    -0.349 N 
HETATM   44  C2  UNL     1       8.782  -4.848  -0.288  1.00  0.00     0.215 C 
HETATM   45  C37 UNL     1       6.425  -4.695   0.462  1.00  0.00     0.145 C 
HETATM   46  C1  UNL     1       8.851  -6.291   0.047  1.00  0.00     0.117 C 
HETATM   47  O1  UNL     1       9.837  -4.322  -0.771  1.00  0.00    -0.274 OA
HETATM   48  O2  UNL     1       3.287  -2.163   1.257  1.00  0.00    -0.272 OA
ENDBRANCH  37  38
ENDBRANCH   1  37
TORSDOF 9
