REMARK  11 active torsions:
REMARK  status: ('A' for Active; 'I' for Inactive)
REMARK    1  A    between atoms: C6_6  and  N1_7 
REMARK    2  A    between atoms: C9_10  and  C10_11 
REMARK       I    between atoms: C10_11  and  N2_13 
REMARK    3  A    between atoms: N2_13  and  C11_15 
REMARK    4  A    between atoms: C11_15  and  C12_16 
REMARK    5  A    between atoms: C11_15  and  C19_23 
REMARK    6  A    between atoms: C12_16  and  C13_17 
REMARK    7  A    between atoms: C19_23  and  O2_24 
REMARK    8  A    between atoms: C19_23  and  N3_26 
REMARK    9  A    between atoms: N4_31  and  S1_32 
REMARK   10  A    between atoms: S1_32  and  C24_35 
REMARK   11  A    between atoms: C24_35  and  C25_36 
ROOT
HETATM    1  C11 UNL     1       0.660   1.466  -0.014  1.00  0.00     0.159 C 
ENDROOT
BRANCH   1   2
HETATM    2  N2  UNL     1      -0.474   0.520   0.271  1.00  0.00    -0.349 N 
HETATM    3  C10 UNL     1      -1.374   0.177  -0.751  1.00  0.00     0.222 C 
HETATM    4  O1  UNL     1      -1.206   0.670  -1.896  1.00  0.00    -0.273 OA
ATOM      5  H2  UNL     1      -0.589   0.128   1.206  1.00  0.00     0.163 HD
BRANCH   3   6
HETATM    6  C9  UNL     1      -2.519  -0.756  -0.504  1.00  0.00     0.081 C 
HETATM    7  C8  UNL     1      -3.451  -0.184   0.548  1.00  0.00     0.044 C 
HETATM    8  C7  UNL     1      -4.652  -1.097   0.593  1.00  0.00     0.273 C 
HETATM    9  N1  UNL     1      -5.393  -0.911  -0.644  1.00  0.00     0.096 N 
HETATM   10  C34 UNL     1      -4.633  -1.443  -1.730  1.00  0.00     0.273 C 
HETATM   11  C33 UNL     1      -3.196  -1.063  -1.785  1.00  0.00     0.044 C 
BRANCH   9  12
HETATM   12  C6  UNL     1      -6.728  -1.515  -0.522  1.00  0.00     0.256 C 
HETATM   13  C5  UNL     1      -7.438  -0.776   0.564  1.00  0.00     0.039 C 
HETATM   14  C4  UNL     1      -8.913  -0.623   0.382  1.00  0.00     0.011 C 
HETATM   15  C2  UNL     1      -9.523  -1.750  -0.414  1.00  0.00    -0.045 C 
HETATM   16  C1  UNL     1      -9.453  -3.073   0.327  1.00  0.00     0.015 C 
HETATM   17  C3  UNL     1     -10.998  -1.435  -0.616  1.00  0.00     0.015 C 
HETATM   18  C36 UNL     1      -8.874  -1.869  -1.750  1.00  0.00     0.048 C 
HETATM   19  C35 UNL     1      -7.455  -1.370  -1.814  1.00  0.00     0.204 C 
HETATM   20  F1  UNL     1      -7.379  -0.053  -2.225  1.00  0.00    -0.247 F 
ENDBRANCH   9  12
ENDBRANCH   3   6
ENDBRANCH   1   2
BRANCH   1  21
HETATM   21  C12 UNL     1       0.443   2.703   0.702  1.00  0.00     0.038 C 
BRANCH  21  22
HETATM   22  C13 UNL     1       1.325   3.875   0.520  1.00  0.00    -0.012 C 
HETATM   23  C14 UNL     1       0.753   4.984   1.443  1.00  0.00     0.005 C 
HETATM   24  C15 UNL     1       1.494   6.255   1.041  1.00  0.00     0.000 C 
HETATM   25  C16 UNL     1       0.736   6.780  -0.178  1.00  0.00     0.000 C 
HETATM   26  C17 UNL     1       0.270   5.587  -1.003  1.00  0.00     0.000 C 
HETATM   27  C18 UNL     1       1.212   4.434  -0.892  1.00  0.00     0.005 C 
ENDBRANCH  21  22
ENDBRANCH   1  21
BRANCH   1  28
HETATM   28  C19 UNL     1       1.816   0.623  -0.006  1.00  0.00     0.137 C 
BRANCH  28  29
HETATM   29  O2  UNL     1       1.623  -0.422  -0.842  1.00  0.00    -0.348 OA
ATOM     30  H2  UNL     1       2.391  -0.982  -0.837  1.00  0.00     0.219 HD
ENDBRANCH  28  29
BRANCH  28  31
HETATM   31  N3  UNL     1       3.063   0.535   0.588  1.00  0.00    -0.362 N 
HETATM   32  C20 UNL     1       3.539   1.322   1.664  1.00  0.00     0.125 C 
HETATM   33  C21 UNL     1       4.315   0.548   2.653  1.00  0.00     0.027 C 
HETATM   34  C22 UNL     1       4.471  -0.899   2.435  1.00  0.00     0.022 C 
HETATM   35  C23 UNL     1       5.898  -1.433   2.545  1.00  0.00     0.114 C 
HETATM   36  C31 UNL     1       4.656  -1.323   1.008  1.00  0.00     0.097 C 
HETATM   37  N4  UNL     1       6.060  -0.952   1.191  1.00  0.00    -0.203 NA
HETATM   38  C32 UNL     1       4.026  -0.424   0.022  1.00  0.00     0.146 C 
BRANCH  37  39
HETATM   39  S1  UNL     1       7.069  -1.810   0.142  1.00  0.00     0.216 S 
HETATM   40  O3  UNL     1       6.618  -3.249  -0.073  1.00  0.00    -0.211 OA
HETATM   41  O4  UNL     1       7.017  -1.160  -1.211  1.00  0.00    -0.211 OA
BRANCH  39  42
HETATM   42  C24 UNL     1       8.756  -1.880   0.675  1.00  0.00     0.196 C 
BRANCH  42  43
HETATM   43  C25 UNL     1       9.573  -2.638  -0.306  1.00  0.00    -0.043 A 
HETATM   44  C26 UNL     1      10.179  -1.945  -1.354  1.00  0.00     0.008 A 
HETATM   45  C27 UNL     1      10.951  -2.547  -2.313  1.00  0.00     0.001 A 
HETATM   46  C28 UNL     1      11.134  -3.911  -2.231  1.00  0.00     0.000 A 
HETATM   47  C29 UNL     1      10.541  -4.616  -1.200  1.00  0.00     0.001 A 
HETATM   48  C30 UNL     1       9.771  -3.988  -0.250  1.00  0.00     0.008 A 
ENDBRANCH  42  43
ENDBRANCH  39  42
ENDBRANCH  37  39
ENDBRANCH  28  31
ENDBRANCH   1  28
TORSDOF 11
