REMARK  9 active torsions:
REMARK  status: ('A' for Active; 'I' for Inactive)
REMARK    1  A    between atoms: C1_2  and  C2_3 
REMARK       I    between atoms: C1_2  and  N4_42 
REMARK       I    between atoms: N1_6  and  C5_7 
REMARK    2  A    between atoms: C5_7  and  C6_9 
REMARK    3  A    between atoms: C14_22  and  C15_23 
REMARK    4  A    between atoms: C15_23  and  C16_24 
REMARK    5  A    between atoms: C16_24  and  C17_25 
REMARK    6  A    between atoms: C17_25  and  C18_26 
REMARK    7  A    between atoms: C18_26  and  C19_27 
REMARK    8  A    between atoms: C19_27  and  N3_28 
REMARK       I    between atoms: N3_28  and  C20_30 
REMARK    9  A    between atoms: C20_30  and  C21_32 
ROOT
HETATM    1  C2  UNL     1      -3.151  -2.709  -0.428  1.00  0.00     0.126 C 
HETATM    2  C3  UNL     1      -4.419  -2.187  -1.068  1.00  0.00     0.042 C 
HETATM    3  C4  UNL     1      -4.407  -0.723  -1.334  1.00  0.00     0.153 C 
HETATM    4  N1  UNL     1      -3.206  -0.070  -0.839  1.00  0.00    -0.259 N 
HETATM    5  C5  UNL     1      -3.300   1.147  -0.167  1.00  0.00     0.270 C 
HETATM    6  O2  UNL     1      -4.446   1.657   0.031  1.00  0.00    -0.269 OA
HETATM    7  N2  UNL     1      -1.985  -0.722  -1.040  1.00  0.00    -0.303 N 
ATOM      8  H2  UNL     1      -1.158  -0.201  -1.331  1.00  0.00     0.186 HD
HETATM    9  C14 UNL     1      -1.927  -2.035  -0.843  1.00  0.00     0.017 C 
ENDROOT
BRANCH   9  10
HETATM   10  C15 UNL     1      -0.593  -2.636  -1.052  1.00  0.00     0.055 C 
BRANCH  10  11
HETATM   11  C16 UNL     1      -0.046  -3.268   0.206  1.00  0.00     0.006 C 
BRANCH  11  12
HETATM   12  C17 UNL     1       0.135  -2.264   1.318  1.00  0.00     0.002 C 
BRANCH  12  13
HETATM   13  C18 UNL     1       1.120  -1.174   0.945  1.00  0.00     0.020 C 
BRANCH  13  14
HETATM   14  C19 UNL     1       2.487  -1.746   0.653  1.00  0.00     0.122 C 
BRANCH  14  15
HETATM   15  N3  UNL     1       3.422  -0.742   0.281  1.00  0.00    -0.360 N 
HETATM   16  C20 UNL     1       3.834   0.364   1.055  1.00  0.00     0.226 C 
HETATM   17  O5  UNL     1       3.353   0.518   2.200  1.00  0.00    -0.273 OA
ATOM     18  H3  UNL     1       3.840  -0.830  -0.645  1.00  0.00     0.162 HD
BRANCH  16  19
HETATM   19  C21 UNL     1       4.816   1.369   0.584  1.00  0.00     0.042 C 
HETATM   20  C22 UNL     1       6.169   0.753   0.318  1.00  0.00     0.024 C 
HETATM   21  C23 UNL     1       7.060   1.803  -0.263  1.00  0.00    -0.013 C 
HETATM   22  C24 UNL     1       6.533   2.344  -1.560  1.00  0.00     0.009 C 
HETATM   23  C28 UNL     1       7.269   2.957   0.694  1.00  0.00     0.009 C 
HETATM   24  C25 UNL     1       5.193   2.998  -1.265  1.00  0.00    -0.013 C 
HETATM   25  C26 UNL     1       5.339   4.121  -0.261  1.00  0.00     0.009 C 
HETATM   26  C30 UNL     1       4.278   1.938  -0.731  1.00  0.00     0.024 C 
HETATM   27  C27 UNL     1       5.893   3.544   1.004  1.00  0.00    -0.013 C 
HETATM   28  C29 UNL     1       4.979   2.489   1.575  1.00  0.00     0.024 C 
ENDBRANCH  16  19
ENDBRANCH  14  15
ENDBRANCH  13  14
ENDBRANCH  12  13
ENDBRANCH  11  12
ENDBRANCH  10  11
ENDBRANCH   9  10
BRANCH   1  29
HETATM   29  C1  UNL     1      -3.182  -4.175  -0.564  1.00  0.00     0.229 C 
HETATM   30  O1  UNL     1      -2.607  -4.736  -1.547  1.00  0.00    -0.273 OA
HETATM   31  N4  UNL     1      -3.836  -5.021   0.357  1.00  0.00    -0.351 N 
HETATM   32  C31 UNL     1      -3.929  -6.454   0.274  1.00  0.00     0.126 C 
HETATM   33  C34 UNL     1      -4.517  -4.616   1.557  1.00  0.00     0.126 C 
HETATM   34  C32 UNL     1      -5.406  -6.664   0.613  1.00  0.00     0.021 C 
HETATM   35  C33 UNL     1      -5.768  -5.510   1.517  1.00  0.00     0.021 C 
ENDBRANCH   1  29
BRANCH   5  36
HETATM   36  C6  UNL     1      -2.072   1.838   0.317  1.00  0.00     0.246 C 
HETATM   37  C7  UNL     1      -1.358   2.387  -0.908  1.00  0.00     0.218 C 
HETATM   38  O3  UNL     1      -1.955   3.572  -1.349  1.00  0.00    -0.345 OA
HETATM   39  C8  UNL     1      -2.828   4.363  -0.641  1.00  0.00     0.103 A 
HETATM   40  C9  UNL     1      -3.451   5.456  -1.198  1.00  0.00     0.058 A 
HETATM   41  C13 UNL     1      -3.065   4.013   0.691  1.00  0.00     0.103 A 
HETATM   42  C10 UNL     1      -4.324   6.226  -0.447  1.00  0.00     0.013 A 
HETATM   43 BR1  UNL     1      -5.176   7.731  -1.236  1.00  0.00    -0.051 Br
HETATM   44  C11 UNL     1      -4.545   5.867   0.861  1.00  0.00     0.022 A 
HETATM   45  C12 UNL     1      -3.927   4.785   1.410  1.00  0.00     0.041 A 
HETATM   46  O4  UNL     1      -2.411   2.913   1.185  1.00  0.00    -0.331 OA
ENDBRANCH   5  36
TORSDOF 9
