REMARK  8 active torsions:
REMARK  status: ('A' for Active; 'I' for Inactive)
REMARK    1  A    between atoms: C2_2  and  C4_4 
REMARK    2  A    between atoms: C4_4  and  C5_5 
REMARK    3  A    between atoms: C10_12  and  N1_13 
REMARK       I    between atoms: N1_13  and  C11_15 
REMARK    4  A    between atoms: C11_15  and  C12_17 
REMARK    5  A    between atoms: C12_17  and  N2_20 
REMARK    6  A    between atoms: C28_35  and  C29_36 
REMARK    7  A    between atoms: C29_36  and  C30_37 
REMARK    8  A    between atoms: C30_37  and  N4_38 
ROOT
HETATM    1  C5  UNL     1      -0.362   2.515   0.088  1.00  0.00     0.064 C 
HETATM    2  C6  UNL     1      -0.374   3.838   0.746  1.00  0.00     0.028 C 
HETATM    3  C7  UNL     1      -1.233   3.847   1.780  1.00  0.00     0.056 C 
HETATM    4 BR1  UNL     1      -1.500   5.398   2.863  1.00  0.00    -0.047 Br
HETATM    5  C8  UNL     1      -1.884   2.546   1.866  1.00  0.00     0.175 C 
HETATM    6  O1  UNL     1      -2.954   2.335   2.422  1.00  0.00    -0.291 OA
HETATM    7  C9  UNL     1      -0.987   1.652   1.171  1.00  0.00     0.116 C 
HETATM    8  C10 UNL     1      -1.373   0.317   0.741  1.00  0.00     0.099 C 
HETATM    9  C19 UNL     1      -0.343  -0.683   1.220  1.00  0.00     0.031 C 
HETATM   10  C20 UNL     1       0.819  -0.963   0.367  1.00  0.00    -0.010 C 
HETATM   11  C21 UNL     1       2.075  -1.044   1.188  1.00  0.00     0.010 C 
HETATM   12  C22 UNL     1       3.031   0.095   1.112  1.00  0.00    -0.005 C 
HETATM   13  C23 UNL     1       2.573   1.335   1.830  1.00  0.00     0.049 C 
HETATM   14  C24 UNL     1       1.857   2.362   1.055  1.00  0.00     0.060 C 
HETATM   15  N3  UNL     1       1.003   1.995   0.026  1.00  0.00    -0.375 N 
HETATM   16  C25 UNL     1       1.383   1.130  -0.961  1.00  0.00     0.085 C 
HETATM   17  C26 UNL     1       0.973  -0.280  -0.935  1.00  0.00     0.030 C 
HETATM   18  C27 UNL     1       2.909   1.236  -1.138  1.00  0.00     0.030 C 
HETATM   19  C28 UNL     1       3.667   0.329  -0.204  1.00  0.00    -0.007 C 
ENDROOT
BRANCH   8  20
HETATM   20  N1  UNL     1      -2.650  -0.073   1.297  1.00  0.00    -0.353 N 
HETATM   21  C11 UNL     1      -3.712  -0.539   0.444  1.00  0.00     0.256 C 
HETATM   22  O2  UNL     1      -3.520  -0.601  -0.812  1.00  0.00    -0.271 OA
ATOM     23  H1  UNL     1      -2.800  -0.017   2.304  1.00  0.00     0.163 HD
BRANCH  21  24
HETATM   24  C12 UNL     1      -5.014  -0.953   0.956  1.00  0.00     0.232 C 
HETATM   25  C13 UNL     1      -5.728   0.252   1.528  1.00  0.00     0.059 C 
HETATM   26  C14 UNL     1      -4.920  -1.956   2.082  1.00  0.00     0.059 C 
BRANCH  24  27
HETATM   27  N2  UNL     1      -5.853  -1.444  -0.122  1.00  0.00     0.106 N 
HETATM   28  C15 UNL     1      -5.314  -2.587  -0.774  1.00  0.00     0.274 C 
HETATM   29  C16 UNL     1      -6.441  -3.580  -0.899  1.00  0.00     0.032 C 
HETATM   30  C17 UNL     1      -7.710  -2.785  -0.668  1.00  0.00     0.032 C 
HETATM   31  C18 UNL     1      -7.219  -1.629   0.214  1.00  0.00     0.274 C 
ENDBRANCH  24  27
ENDBRANCH  21  24
ENDBRANCH   8  20
BRANCH   1  32
HETATM   32  C4  UNL     1      -1.016   2.573  -1.206  1.00  0.00     0.040 C 
BRANCH  32  33
HETATM   33  C2  UNL     1      -2.408   2.983  -1.428  1.00  0.00    -0.020 C 
HETATM   34  C1  UNL     1      -2.768   4.385  -1.052  1.00  0.00     0.009 C 
HETATM   35  C3  UNL     1      -2.623   2.906  -2.966  1.00  0.00     0.009 C 
ENDBRANCH  32  33
ENDBRANCH   1  32
BRANCH  19  36
HETATM   36  C29 UNL     1       5.062   0.782  -0.242  1.00  0.00     0.025 C 
BRANCH  36  37
HETATM   37  C30 UNL     1       6.170   0.004   0.296  1.00  0.00     0.126 C 
BRANCH  37  38
HETATM   38  N4  UNL     1       6.457  -1.275  -0.272  1.00  0.00    -0.352 N 
HETATM   39  C31 UNL     1       7.309  -1.460  -1.431  1.00  0.00     0.125 C 
HETATM   40  C32 UNL     1       7.988  -2.768  -1.536  1.00  0.00     0.020 C 
HETATM   41  C33 UNL     1       7.340  -3.947  -0.916  1.00  0.00     0.011 C 
HETATM   42  C34 UNL     1       5.851  -3.709  -0.617  1.00  0.00     0.103 C 
HETATM   43  C35 UNL     1       5.909  -2.468   0.261  1.00  0.00     0.219 C 
HETATM   44  O3  UNL     1       5.466  -2.578   1.414  1.00  0.00    -0.273 OA
ENDBRANCH  37  38
ENDBRANCH  36  37
ENDBRANCH  19  36
TORSDOF 8
