REMARK  9 active torsions:
REMARK  status: ('A' for Active; 'I' for Inactive)
REMARK    1  A    between atoms: N1_2  and  C2_5 
REMARK    2  A    between atoms: C4_7  and  O1_8 
REMARK    3  A    between atoms: O1_8  and  C5_9 
REMARK    4  A    between atoms: C8_13  and  O3_14 
REMARK    5  A    between atoms: C9_16  and  O4_17 
REMARK    6  A    between atoms: C10_19  and  O5_20 
REMARK    7  A    between atoms: C15_26  and  O6_27 
REMARK    8  A    between atoms: C15_26  and  C16_29 
REMARK    9  A    between atoms: C16_29  and  O8_31 
ROOT
HETATM    1  C2  UNL     1       1.233   1.693   0.420  1.00  0.00     0.202 C 
HETATM    2  C3  UNL     1      -0.311   1.672   0.403  1.00  0.00     0.068 C 
HETATM    3  C4  UNL     1      -0.691   0.294  -0.087  1.00  0.00     0.156 C 
HETATM    4  C10 UNL     1       0.638  -0.467  -0.243  1.00  0.00     0.161 C 
HETATM    5  C11 UNL     1       1.543   0.671  -0.591  1.00  0.00     0.057 C 
HETATM    6  C12 UNL     1       1.046   1.251  -1.943  1.00  0.00     0.018 C 
HETATM    7  C13 UNL     1       2.174   2.181  -2.295  1.00  0.00     0.004 C 
HETATM    8  C14 UNL     1       3.392   1.739  -1.467  1.00  0.00     0.049 C 
HETATM    9  C15 UNL     1       2.927   0.365  -0.954  1.00  0.00     0.157 C 
ENDROOT
BRANCH   3  10
HETATM   10  O1  UNL     1      -1.430  -0.436   0.833  1.00  0.00    -0.351 OA
BRANCH  10  11
HETATM   11  C5  UNL     1      -2.638  -0.867   0.363  1.00  0.00     0.292 C 
HETATM   12  O2  UNL     1      -2.786  -2.249   0.326  1.00  0.00    -0.351 OA
HETATM   13  C6  UNL     1      -4.083  -2.377  -0.190  1.00  0.00     0.152 C 
HETATM   14  C7  UNL     1      -4.133  -2.121  -1.672  1.00  0.00     0.042 C 
HETATM   15  C8  UNL     1      -4.916  -1.347   0.567  1.00  0.00     0.180 C 
HETATM   16  C9  UNL     1      -3.839  -0.435   1.145  1.00  0.00     0.204 C 
BRANCH  15  17
HETATM   17  O3  UNL     1      -5.733  -0.672  -0.341  1.00  0.00    -0.390 OA
ATOM     18  H3  UNL     1      -6.252  -0.031   0.130  1.00  0.00     0.210 HD
ENDBRANCH  15  17
BRANCH  16  19
HETATM   19  O4  UNL     1      -3.729  -0.739   2.503  1.00  0.00    -0.388 OA
ATOM     20  H4  UNL     1      -4.491  -0.465   2.999  1.00  0.00     0.210 HD
ENDBRANCH  16  19
ENDBRANCH  10  11
ENDBRANCH   3  10
BRANCH   4  21
HETATM   21  O5  UNL     1       0.434  -1.367  -1.274  1.00  0.00    -0.392 OA
ATOM     22  H5  UNL     1       1.254  -1.837  -1.370  1.00  0.00     0.210 HD
ENDBRANCH   4  21
BRANCH   1  23
HETATM   23  N1  UNL     1       1.573   1.399   1.783  1.00  0.00    -0.074 N 
HETATM   24  C1  UNL     1       1.033   2.487   2.598  1.00  0.00     0.267 C 
ATOM     25  H12 UNL     1       2.572   1.248   1.925  1.00  0.00     0.277 HD
ATOM     26  H11 UNL     1       1.260   0.477   2.085  1.00  0.00     0.277 HD
ENDBRANCH   1  23
BRANCH   9  27
HETATM   27  O6  UNL     1       2.835  -0.397  -2.171  1.00  0.00    -0.379 OA
ATOM     28  H6  UNL     1       3.734  -0.596  -2.407  1.00  0.00     0.211 HD
ENDBRANCH   9  27
BRANCH   9  29
HETATM   29  C16 UNL     1       3.821  -0.263  -0.020  1.00  0.00     0.294 C 
HETATM   30  O7  UNL     1       4.145   0.243   1.067  1.00  0.00    -0.262 OA
BRANCH  29  31
HETATM   31  O8  UNL     1       4.390  -1.523  -0.300  1.00  0.00    -0.324 OA
HETATM   32  C17 UNL     1       5.274  -2.175   0.592  1.00  0.00     0.213 C 
ENDBRANCH  29  31
ENDBRANCH   9  29
TORSDOF 9
