REMARK  10 active torsions:
REMARK  status: ('A' for Active; 'I' for Inactive)
REMARK    1  A    between atoms: N1_1  and  C1_5 
REMARK    2  A    between atoms: C4_8  and  O1_9 
REMARK    3  A    between atoms: O1_9  and  C5_10 
REMARK    4  A    between atoms: C6_12  and  C7_13 
REMARK    5  A    between atoms: C8_15  and  O4_16 
REMARK    6  A    between atoms: C9_18  and  O5_19 
REMARK    7  A    between atoms: C10_21  and  O6_22 
REMARK    8  A    between atoms: C11_24  and  O7_25 
REMARK    9  A    between atoms: O7_25  and  C12_26 
REMARK   10  A    between atoms: C17_31  and  O8_32 
ROOT
HETATM    1  C1  UNL     1      -0.452   3.127   0.200  1.00  0.00     0.214 C 
HETATM    2  C2  UNL     1       0.265   2.978  -1.090  1.00  0.00     0.038 C 
HETATM    3  C3  UNL     1      -0.288   1.939  -2.007  1.00  0.00     0.037 C 
HETATM    4  C4  UNL     1      -0.274   0.628  -1.209  1.00  0.00     0.156 C 
HETATM    5  C11 UNL     1      -1.408   0.820  -0.204  1.00  0.00     0.181 C 
HETATM    6  C17 UNL     1      -1.192   1.968   0.708  1.00  0.00     0.180 C 
ENDROOT
BRANCH   4   7
HETATM    7  O1  UNL     1       0.956   0.564  -0.586  1.00  0.00    -0.351 OA
BRANCH   7   8
HETATM    8  C5  UNL     1       1.669  -0.580  -0.844  1.00  0.00     0.292 C 
HETATM    9  O2  UNL     1       1.929  -1.218   0.351  1.00  0.00    -0.344 OA
HETATM   10  C6  UNL     1       3.108  -1.927   0.370  1.00  0.00     0.217 C 
HETATM   11  C8  UNL     1       4.338  -1.037   0.324  1.00  0.00     0.185 C 
HETATM   12  C9  UNL     1       3.996   0.137  -0.566  1.00  0.00     0.183 C 
HETATM   13  C10 UNL     1       2.975  -0.336  -1.557  1.00  0.00     0.204 C 
BRANCH  10  14
HETATM   14  C7  UNL     1       3.166  -2.642   1.694  1.00  0.00     0.265 C 
HETATM   15  O3  UNL     1       2.294  -2.553   2.526  1.00  0.00    -0.304 OA
ENDBRANCH  10  14
BRANCH  11  16
HETATM   16  O4  UNL     1       4.738  -0.637   1.595  1.00  0.00    -0.390 OA
ATOM     17  H4  UNL     1       5.507  -0.080   1.566  1.00  0.00     0.210 HD
ENDBRANCH  11  16
BRANCH  12  18
HETATM   18  O5  UNL     1       3.517   1.168   0.244  1.00  0.00    -0.390 OA
ATOM     19  H5  UNL     1       3.302   1.905  -0.315  1.00  0.00     0.210 HD
ENDBRANCH  12  18
BRANCH  13  20
HETATM   20  O6  UNL     1       2.867   0.574  -2.589  1.00  0.00    -0.388 OA
ATOM     21  H6  UNL     1       3.690   0.728  -3.038  1.00  0.00     0.210 HD
ENDBRANCH  13  20
ENDBRANCH   7   8
ENDBRANCH   4   7
BRANCH   5  22
HETATM   22  O7  UNL     1      -1.644  -0.360   0.509  1.00  0.00    -0.375 OA
BRANCH  22  23
HETATM   23  C12 UNL     1      -2.866  -0.923   0.243  1.00  0.00     0.122 C 
HETATM   24  C13 UNL     1      -2.791  -2.306  -0.340  1.00  0.00     0.032 C 
HETATM   25  C14 UNL     1      -4.142  -2.949  -0.009  1.00  0.00     0.002 C 
HETATM   26  C15 UNL     1      -4.831  -2.031   0.944  1.00  0.00     0.002 C 
HETATM   27  C16 UNL     1      -3.710  -1.137   1.475  1.00  0.00     0.032 C 
ENDBRANCH  22  23
ENDBRANCH   5  22
BRANCH   6  28
HETATM   28  O8  UNL     1      -0.606   1.453   1.891  1.00  0.00    -0.391 OA
ATOM     29  H8  UNL     1      -1.086   0.702   2.220  1.00  0.00     0.210 HD
ENDBRANCH   6  28
BRANCH   1  30
HETATM   30  N1  UNL     1      -1.320   4.313   0.083  1.00  0.00    -0.072 N 
ATOM     31  H13 UNL     1      -0.812   5.154  -0.191  1.00  0.00     0.274 HD
ATOM     32  H12 UNL     1      -1.948   4.271  -0.720  1.00  0.00     0.274 HD
ATOM     33  H11 UNL     1      -1.813   4.415   0.970  1.00  0.00     0.274 HD
ENDBRANCH   1  30
TORSDOF 10
