REMARK  10 active torsions:
REMARK  status: ('A' for Active; 'I' for Inactive)
REMARK    1  A    between atoms: C3_4  and  O2_5 
REMARK    2  A    between atoms: O2_5  and  C4_6 
REMARK    3  A    between atoms: C7_9  and  O3_10 
REMARK    4  A    between atoms: C8_12  and  O4_13 
REMARK    5  A    between atoms: O4_13  and  C9_14 
REMARK    6  A    between atoms: C12_17  and  O5_18 
REMARK    7  A    between atoms: C13_20  and  C14_21 
REMARK    8  A    between atoms: C14_21  and  N1_22 
REMARK    9  A    between atoms: C15_27  and  N2_28 
REMARK   10  A    between atoms: C17_33  and  O7_34 
ROOT
HETATM    1  C4  UNL     1       0.772  -0.773   1.984  1.00  0.00     0.156 C 
HETATM    2  C5  UNL     1       0.924  -2.089   2.750  1.00  0.00     0.037 C 
HETATM    3  C6  UNL     1      -0.365  -2.176   3.564  1.00  0.00     0.037 C 
HETATM    4  C7  UNL     1      -1.263  -1.054   3.063  1.00  0.00     0.149 C 
HETATM    5  C8  UNL     1      -0.686  -0.840   1.663  1.00  0.00     0.182 C 
ENDROOT
BRANCH   1   6
HETATM    6  O2  UNL     1       1.511  -0.741   0.846  1.00  0.00    -0.351 OA
BRANCH   6   7
HETATM    7  C3  UNL     1       2.386   0.337   0.741  1.00  0.00     0.291 C 
HETATM    8  O1  UNL     1       2.138   1.209  -0.262  1.00  0.00    -0.352 OA
HETATM    9  C2  UNL     1       2.776   0.844  -1.428  1.00  0.00     0.149 C 
HETATM   10  C1  UNL     1       2.334   1.633  -2.641  1.00  0.00     0.042 C 
HETATM   11  C17 UNL     1       4.283   1.023  -1.304  1.00  0.00     0.149 C 
HETATM   12  C16 UNL     1       4.662   1.017   0.174  1.00  0.00     0.072 C 
HETATM   13  C15 UNL     1       3.816  -0.050   0.837  1.00  0.00     0.240 C 
BRANCH  11  14
HETATM   14  O7  UNL     1       4.927   0.072  -2.041  1.00  0.00    -0.393 OA
ATOM     15  H7  UNL     1       5.867   0.184  -1.964  1.00  0.00     0.210 HD
ENDBRANCH  11  14
BRANCH  13  16
HETATM   16  N2  UNL     1       4.117  -1.290   0.126  1.00  0.00    -0.070 N 
ATOM     17  H23 UNL     1       3.512  -2.048   0.442  1.00  0.00     0.274 HD
ATOM     18  H22 UNL     1       3.819  -1.234  -0.848  1.00  0.00     0.274 HD
ATOM     19  H21 UNL     1       5.100  -1.556   0.192  1.00  0.00     0.274 HD
ENDBRANCH  13  16
ENDBRANCH   6   7
ENDBRANCH   1   6
BRANCH   5  20
HETATM   20  O4  UNL     1      -1.203   0.267   1.055  1.00  0.00    -0.351 OA
BRANCH  20  21
HETATM   21  C9  UNL     1      -1.916  -0.062  -0.094  1.00  0.00     0.261 C 
HETATM   22  C10 UNL     1      -1.427   0.581  -1.345  1.00  0.00     0.063 C 
HETATM   23  C11 UNL     1      -2.113  -0.110  -2.505  1.00  0.00     0.039 C 
HETATM   24  C12 UNL     1      -3.540  -0.358  -2.196  1.00  0.00     0.149 C 
HETATM   25  C13 UNL     1      -4.069   0.246  -0.954  1.00  0.00     0.178 C 
HETATM   26  O6  UNL     1      -3.238   0.287   0.117  1.00  0.00    -0.352 OA
BRANCH  24  27
HETATM   27  O5  UNL     1      -3.861  -1.736  -2.221  1.00  0.00    -0.393 OA
ATOM     28  H5  UNL     1      -4.776  -1.895  -2.023  1.00  0.00     0.210 HD
ENDBRANCH  24  27
BRANCH  25  29
HETATM   29  C14 UNL     1      -4.670   1.620  -1.282  1.00  0.00     0.264 C 
BRANCH  29  30
HETATM   30  N1  UNL     1      -5.550   1.526  -2.430  1.00  0.00    -0.077 N 
ATOM     31  H13 UNL     1      -5.080   1.115  -3.236  1.00  0.00     0.274 HD
ATOM     32  H12 UNL     1      -6.272   0.817  -2.298  1.00  0.00     0.274 HD
ATOM     33  H11 UNL     1      -5.949   2.439  -2.648  1.00  0.00     0.274 HD
ENDBRANCH  29  30
ENDBRANCH  25  29
ENDBRANCH  20  21
ENDBRANCH   5  20
BRANCH   4  34
HETATM   34  O3  UNL     1      -1.051   0.043   3.870  1.00  0.00    -0.393 OA
ATOM     35  H3  UNL     1      -1.612   0.743   3.557  1.00  0.00     0.210 HD
ENDBRANCH   4  34
TORSDOF 10
