REMARK  7 active torsions:
REMARK  status: ('A' for Active; 'I' for Inactive)
REMARK    1  A    between atoms: C2_2  and  C3_3 
REMARK    2  A    between atoms: C4_4  and  O1_5 
REMARK    3  A    between atoms: C5_7  and  N1_8 
REMARK       I    between atoms: N1_8  and  C6_10 
REMARK       I    between atoms: C6_10  and  N4_15 
REMARK    4  A    between atoms: C9_19  and  C10_20 
REMARK    5  A    between atoms: C10_20  and  O2_21 
REMARK    6  A    between atoms: O2_21  and  N6_22 
REMARK    7  A    between atoms: C16_32  and  N9_33 
ROOT
HETATM    1  N1  UNL     1      -3.849   0.990  -0.337  1.00  0.00    -0.217 N 
ATOM      2  H1  UNL     1      -4.587   0.652  -0.955  1.00  0.00     0.178 HD
HETATM    3  C6  UNL     1      -4.212   1.748   0.811  1.00  0.00     0.696 C 
HETATM    4  N2  UNL     1      -4.804   2.874   0.781  1.00  0.00    -0.125 N 
ATOM      5  H2  UNL     1      -5.013   3.324   1.672  1.00  0.00     0.197 HD
HETATM    6  C7  UNL     1      -5.184   3.532  -0.378  1.00  0.00     0.196 C 
HETATM    7  N3  UNL     1      -5.505   4.065  -1.352  1.00  0.00    -0.171 NA
HETATM    8  N4  UNL     1      -3.875   1.179   2.077  1.00  0.00    -0.125 N 
ATOM      9  H4  UNL     1      -2.948   1.370   2.457  1.00  0.00     0.197 HD
HETATM   10  C8  UNL     1      -4.729   0.385   2.818  1.00  0.00     0.196 C 
HETATM   11  N5  UNL     1      -5.454  -0.265   3.443  1.00  0.00    -0.171 NA
ENDROOT
BRANCH   1  12
HETATM   12  C5  UNL     1      -2.470   0.680  -0.663  1.00  0.00     0.135 C 
HETATM   13  C4  UNL     1      -2.404  -0.136  -1.933  1.00  0.00     0.146 C 
HETATM   14  C3  UNL     1      -1.752  -1.267  -1.167  1.00  0.00     0.024 C 
HETATM   15  C9  UNL     1      -1.974  -0.484   0.109  1.00  0.00     0.044 C 
BRANCH  13  16
HETATM   16  O1  UNL     1      -1.645   0.432  -2.930  1.00  0.00    -0.393 OA
ATOM     17  H1  UNL     1      -2.054   1.142  -3.411  1.00  0.00     0.210 HD
ENDBRANCH  13  16
BRANCH  14  18
HETATM   18  C2  UNL     1      -2.520  -2.570  -1.191  1.00  0.00     0.003 C 
HETATM   19  C1  UNL     1      -1.761  -3.589  -0.398  1.00  0.00     0.005 C 
ENDBRANCH  14  18
BRANCH  15  20
HETATM   20  C10 UNL     1      -0.720  -0.347   0.883  1.00  0.00     0.208 C 
BRANCH  20  21
HETATM   21  O2  UNL     1       0.330   0.312   0.222  1.00  0.00    -0.280 OA
BRANCH  21  22
HETATM   22  N6  UNL     1       1.491   0.441   0.942  1.00  0.00    -0.266 N 
HETATM   23  C11 UNL     1       2.656   0.605   0.500  1.00  0.00     0.103 C 
HETATM   24  C12 UNL     1       2.844   0.671  -0.943  1.00  0.00     0.139 C 
HETATM   25  C16 UNL     1       3.764   0.717   1.482  1.00  0.00     0.238 C 
HETATM   26  N7  UNL     1       1.708   0.473  -1.770  1.00  0.00    -0.081 NA
HETATM   27  N8  UNL     1       3.942   0.895  -1.627  1.00  0.00    -0.377 N 
HETATM   28  C13 UNL     1       5.231   1.128  -0.997  1.00  0.00     0.121 C 
ATOM     29  H8  UNL     1       3.888   0.906  -2.646  1.00  0.00     0.160 HD
HETATM   30  C14 UNL     1       5.667   0.057  -0.067  1.00  0.00     0.022 C 
HETATM   31  C15 UNL     1       4.845  -0.233   1.114  1.00  0.00     0.041 C 
ATOM     32  H6  UNL     1       1.397   0.399   1.957  1.00  0.00     0.194 HD
BRANCH  25  33
HETATM   33  N9  UNL     1       3.279   0.376   2.811  1.00  0.00    -0.070 N 
ATOM     34  H93 UNL     1       2.470   0.936   3.080  1.00  0.00     0.275 HD
ATOM     35  H92 UNL     1       2.837  -0.543   2.834  1.00  0.00     0.275 HD
ATOM     36  H91 UNL     1       4.040   0.453   3.486  1.00  0.00     0.275 HD
ENDBRANCH  25  33
ENDBRANCH  21  22
ENDBRANCH  20  21
ENDBRANCH  15  20
ENDBRANCH   1  12
TORSDOF 7
