REMARK  5 active torsions:
REMARK  status: ('A' for Active; 'I' for Inactive)
REMARK    1  A    between atoms: N1_2  and  C2_3 
REMARK    2  A    between atoms: N1_2  and  C6_7 
REMARK    3  A    between atoms: C2_3  and  C3_4 
REMARK    4  A    between atoms: C10_11  and  N2_12 
REMARK    5  A    between atoms: N2_12  and  S1_14 
ROOT
HETATM    1  C6  UNL     1       0.014  -0.820  -0.653  1.00  0.00     0.245 C 
HETATM    2  C7  UNL     1       0.718  -0.901  -1.978  1.00  0.00     0.038 C 
HETATM    3  C8  UNL     1      -0.370  -1.529  -2.839  1.00  0.00     0.004 C 
HETATM    4  C9  UNL     1      -1.649  -0.935  -2.308  1.00  0.00     0.028 C 
HETATM    5  C10 UNL     1      -1.297  -0.232  -0.982  1.00  0.00     0.126 C 
ENDROOT
BRANCH   1   6
HETATM    6  N1  UNL     1       0.799  -0.130   0.356  1.00  0.00     0.091 N 
HETATM    7  C1  UNL     1       0.584  -0.902   1.599  1.00  0.00     0.310 C 
BRANCH   6   8
HETATM    8  C2  UNL     1       2.177  -0.236  -0.024  1.00  0.00     0.277 C 
BRANCH   8   9
HETATM    9  C3  UNL     1       3.183   0.420   0.838  1.00  0.00     0.014 A 
HETATM   10  C4  UNL     1       2.964   1.951   0.939  1.00  0.00     0.007 A 
HETATM   11  C5  UNL     1       2.983   1.050   2.132  1.00  0.00     0.007 A 
ENDBRANCH   8   9
ENDBRANCH   6   8
ENDBRANCH   1   6
BRANCH   5  12
HETATM   12  N2  UNL     1      -2.365  -0.534  -0.036  1.00  0.00    -0.313 N 
ATOM     13  H2  UNL     1      -2.559  -1.459   0.347  1.00  0.00     0.172 HD
BRANCH  12  14
HETATM   14  S1  UNL     1      -3.250   0.889   0.343  1.00  0.00     0.223 S 
HETATM   15  C11 UNL     1      -3.078   1.412   2.008  1.00  0.00     0.185 C 
HETATM   16  O1  UNL     1      -4.733   0.612   0.098  1.00  0.00    -0.206 OA
HETATM   17  O2  UNL     1      -2.859   1.991  -0.607  1.00  0.00    -0.206 OA
ENDBRANCH  12  14
ENDBRANCH   5  12
TORSDOF 5
