REMARK  6 active torsions:
REMARK  status: ('A' for Active; 'I' for Inactive)
REMARK    1  A    between atoms: N1_2  and  C3_4 
REMARK    2  A    between atoms: N2_7  and  C6_8 
REMARK    3  A    between atoms: C6_8  and  C7_9 
REMARK    4  A    between atoms: C7_9  and  O1_10 
REMARK    5  A    between atoms: C7_9  and  C8_12 
REMARK    6  A    between atoms: C8_12  and  N3_13 
ROOT
HETATM    1  C7  UNL     1       0.881  -0.466  -0.086  1.00  0.00     0.164 C 
ENDROOT
BRANCH   1   2
HETATM    2  C6  UNL     1      -0.482  -0.972   0.324  1.00  0.00     0.305 C 
BRANCH   2   3
HETATM    3  N2  UNL     1      -1.500  -0.431  -0.568  1.00  0.00     0.093 N 
HETATM    4  C5  UNL     1      -1.616   0.993  -0.355  1.00  0.00     0.275 C 
HETATM    5  C4  UNL     1      -3.084   1.315  -0.172  1.00  0.00     0.068 C 
HETATM    6  C3  UNL     1      -3.730   0.075  -0.738  1.00  0.00     0.252 C 
HETATM    7  C14 UNL     1      -2.802  -1.000  -0.266  1.00  0.00     0.308 C 
BRANCH   6   8
HETATM    8  N1  UNL     1      -5.090  -0.100  -0.380  1.00  0.00     0.086 N 
HETATM    9  C1  UNL     1      -5.873   0.999  -0.905  1.00  0.00     0.310 C 
HETATM   10  C2  UNL     1      -5.350  -0.377   0.995  1.00  0.00     0.310 C 
ENDBRANCH   6   8
ENDBRANCH   2   3
ENDBRANCH   1   2
BRANCH   1  11
HETATM   11  O1  UNL     1       1.134  -0.880  -1.390  1.00  0.00    -0.392 OA
ATOM     12  H1  UNL     1       1.991  -0.562  -1.648  1.00  0.00     0.210 HD
ENDBRANCH   1  11
BRANCH   1  13
HETATM   13  C8  UNL     1       1.961  -0.915   0.854  1.00  0.00     0.150 C 
BRANCH  13  14
HETATM   14  N3  UNL     1       3.255  -0.421   0.533  1.00  0.00    -0.410 N 
HETATM   15  C9  UNL     1       3.436   0.983   0.697  1.00  0.00     0.117 C 
HETATM   16  C10 UNL     1       4.749   1.402   0.055  1.00  0.00     0.019 C 
HETATM   17  C11 UNL     1       5.753   0.302   0.396  1.00  0.00     0.003 C 
HETATM   18  C12 UNL     1       5.391  -0.889  -0.435  1.00  0.00     0.019 C 
HETATM   19  C13 UNL     1       3.887  -0.993  -0.609  1.00  0.00     0.117 C 
ENDBRANCH  13  14
ENDBRANCH   1  13
TORSDOF 6
