REMARK  4 active torsions:
REMARK  status: ('A' for Active; 'I' for Inactive)
REMARK    1  A    between atoms: S1_2  and  N1_4 
REMARK    2  A    between atoms: S1_2  and  N2_12 
REMARK    3  A    between atoms: N1_4  and  C1_6 
REMARK    4  A    between atoms: C1_6  and  C2_7 
ROOT
HETATM    1  O1  UNL     1      -0.008   0.143  -2.027  1.00  0.00    -0.188 OA
HETATM    2  S1  UNL     1      -0.419  -0.511  -0.640  1.00  0.00     0.298 S 
HETATM    3  O2  UNL     1      -0.030  -1.932  -0.724  1.00  0.00    -0.188 OA
ENDROOT
BRANCH   2   4
HETATM    4  N1  UNL     1       0.622   0.330   0.496  1.00  0.00    -0.304 N 
ATOM      5  H1  UNL     1       0.590   0.201   1.507  1.00  0.00     0.173 HD
BRANCH   4   6
HETATM    6  C1  UNL     1       1.507   1.205  -0.164  1.00  0.00     0.165 C 
BRANCH   6   7
HETATM    7  C2  UNL     1       2.790   0.384  -0.292  1.00  0.00     0.140 C 
HETATM    8  C3  UNL     1       4.022   1.057   0.166  1.00  0.00     0.035 C 
HETATM    9  C4  UNL     1       5.002  -0.115   0.139  1.00  0.00     0.029 C 
HETATM   10  C5  UNL     1       4.077  -1.284   0.341  1.00  0.00     0.168 C 
HETATM   11  O3  UNL     1       2.786  -0.795   0.404  1.00  0.00    -0.384 OA
ENDBRANCH   6   7
ENDBRANCH   4   6
ENDBRANCH   2   4
BRANCH   2  12
HETATM   12  N2  UNL     1      -2.006  -0.063  -0.460  1.00  0.00    -0.194 NA
HETATM   13  C6  UNL     1      -2.299   0.258   0.940  1.00  0.00     0.109 C 
HETATM   14  C7  UNL     1      -3.463   1.275   0.791  1.00  0.00     0.015 C 
HETATM   15  C8  UNL     1      -4.487   0.540  -0.058  1.00  0.00     0.002 C 
HETATM   16  C9  UNL     1      -4.234  -0.962  -0.052  1.00  0.00     0.015 C 
HETATM   17  C10 UNL     1      -2.876  -1.297  -0.645  1.00  0.00     0.109 C 
ENDBRANCH   2  12
TORSDOF 4
