REMARK  4 active torsions:
REMARK  status: ('A' for Active; 'I' for Inactive)
REMARK    1  A    between atoms: O1_2  and  C2_3 
REMARK    2  A    between atoms: C4_10  and  C5_11 
REMARK       I    between atoms: C5_11  and  N3_13 
REMARK    3  A    between atoms: N3_13  and  C6_15 
REMARK    4  A    between atoms: C6_15  and  C7_16 
ROOT
HETATM    1  C2  UNL     1      -2.158  -0.599   0.572  1.00  0.00     0.137 A 
HETATM    2  C3  UNL     1      -2.835  -0.280   1.737  1.00  0.00     0.130 A 
HETATM    3 BR1  UNL     1      -4.711  -0.565   1.963  1.00  0.00    -0.027 Br
HETATM    4  N1  UNL     1      -1.949   0.236   2.609  1.00  0.00    -0.291 N 
ATOM      5  H1  UNL     1      -2.159   0.562   3.552  1.00  0.00     0.187 HD
HETATM    6  N2  UNL     1      -0.754   0.247   2.029  1.00  0.00    -0.292 N 
ATOM      7  H2  UNL     1       0.103   0.586   2.465  1.00  0.00     0.187 HD
HETATM    8  C4  UNL     1      -0.838  -0.254   0.783  1.00  0.00     0.152 A 
ENDROOT
BRANCH   8   9
HETATM    9  C5  UNL     1       0.235  -0.420  -0.192  1.00  0.00     0.272 C 
HETATM   10  O2  UNL     1       0.020  -0.905  -1.327  1.00  0.00    -0.266 OA
HETATM   11  N3  UNL     1       1.564  -0.033   0.124  1.00  0.00    -0.354 N 
ATOM     12  H3  UNL     1       1.765   0.364   1.042  1.00  0.00     0.162 HD
BRANCH  11  13
HETATM   13  C6  UNL     1       2.637  -0.191  -0.829  1.00  0.00     0.150 C 
BRANCH  13  14
HETATM   14  C7  UNL     1       3.928   0.296  -0.240  1.00  0.00     0.147 C 
HETATM   15 BR2  UNL     1       5.364   0.086  -1.513  1.00  0.00    -0.077 Br
HETATM   16 BR3  UNL     1       4.291  -0.825   1.318  1.00  0.00    -0.077 Br
ENDBRANCH  13  14
ENDBRANCH  11  13
ENDBRANCH   8   9
BRANCH   1  17
HETATM   17  O1  UNL     1      -2.679  -1.154  -0.588  1.00  0.00    -0.351 OA
HETATM   18  C1  UNL     1      -3.160  -0.292  -1.598  1.00  0.00     0.210 C 
ENDBRANCH   1  17
TORSDOF 4
