REMARK  5 active torsions:
REMARK  status: ('A' for Active; 'I' for Inactive)
REMARK    1  A    between atoms: N1_2  and  O1_3 
REMARK    2  A    between atoms: C4_9  and  C5_10 
REMARK    3  A    between atoms: C4_9  and  C6_12 
REMARK    4  A    between atoms: C6_12  and  C7_13 
REMARK    5  A    between atoms: C10_16  and  N2_17 
ROOT
HETATM    1  C1  UNL     1       3.940   0.063   1.501  1.00  0.00     0.184 C 
HETATM    2  N1  UNL     1       3.705   0.179   0.089  1.00  0.00    -0.270 N 
HETATM    3  C2  UNL     1       2.555   0.065  -0.462  1.00  0.00     0.056 A 
HETATM    4  C3  UNL     1       1.755   0.082  -1.745  1.00  0.00     0.131 A 
HETATM    5 BR1  UNL     1       2.063  -1.397  -2.973  1.00  0.00    -0.065 Br
HETATM    6 BR2  UNL     1       1.523   1.777  -2.596  1.00  0.00    -0.065 Br
HETATM    7  C4  UNL     1       1.071  -0.159  -0.463  1.00  0.00     0.052 A 
ENDROOT
BRANCH   7   8
HETATM    8  C5  UNL     1       0.675  -1.574  -0.077  1.00  0.00     0.133 C 
HETATM    9 CL1  UNL     1       1.208  -2.039   1.533  1.00  0.00    -0.129 Cl
ENDBRANCH   7   8
BRANCH   7  10
HETATM   10  C6  UNL     1       0.188   0.933   0.036  1.00  0.00     0.059 C 
BRANCH  10  11
HETATM   11  C7  UNL     1      -1.256   0.634   0.011  1.00  0.00    -0.041 A 
HETATM   12  C8  UNL     1      -1.838   0.079   1.157  1.00  0.00     0.012 A 
HETATM   13  C9  UNL     1      -3.189  -0.197   1.119  1.00  0.00     0.048 A 
HETATM   14  C10 UNL     1      -3.959   0.059  -0.002  1.00  0.00     0.098 A 
HETATM   15  N3  UNL     1      -3.391   0.591  -1.093  1.00  0.00    -0.352 N 
HETATM   16  C11 UNL     1      -2.067   0.862  -1.059  1.00  0.00     0.096 A 
ATOM     17  H3  UNL     1      -3.944   0.786  -1.928  1.00  0.00     0.166 HD
BRANCH  14  18
HETATM   18  N2  UNL     1      -5.217  -0.210  -0.006  1.00  0.00    -0.385 N 
ATOM     19  H22 UNL     1      -5.649  -0.615   0.824  1.00  0.00     0.157 HD
ATOM     20  H21 UNL     1      -5.785  -0.021  -0.832  1.00  0.00     0.157 HD
ENDBRANCH  14  18
ENDBRANCH  10  11
ENDBRANCH   7  10
BRANCH   2  21
HETATM   21  O1  UNL     1       4.794   0.428  -0.708  1.00  0.00    -0.288 OA
ATOM     22  H1  UNL     1       4.639   0.505  -1.642  1.00  0.00     0.244 HD
ENDBRANCH   2  21
TORSDOF 5
