REMARK  4 active torsions:
REMARK  status: ('A' for Active; 'I' for Inactive)
REMARK    1  A    between atoms: S1_2  and  N1_4 
REMARK    2  A    between atoms: S1_2  and  N2_13 
REMARK    3  A    between atoms: N1_4  and  C1_6 
REMARK    4  A    between atoms: C1_6  and  C2_7 
ROOT
HETATM    1  N1  UNL     1       0.265   0.080   0.239  1.00  0.00    -0.304 N 
ATOM      2  H1  UNL     1       0.645  -0.526   0.966  1.00  0.00     0.173 HD
ENDROOT
BRANCH   1   3
HETATM    3  S1  UNL     1      -1.199  -0.215  -0.710  1.00  0.00     0.298 S 
HETATM    4  O1  UNL     1      -0.549   0.477  -2.185  1.00  0.00    -0.188 OA
HETATM    5  O2  UNL     1      -1.091  -1.624  -1.070  1.00  0.00    -0.188 OA
BRANCH   3   6
HETATM    6  N2  UNL     1      -2.594   0.535  -0.706  1.00  0.00    -0.194 NA
HETATM    7  C7  UNL     1      -2.914   0.833   0.690  1.00  0.00     0.109 C 
HETATM    8  C8  UNL     1      -4.391   0.847   0.742  1.00  0.00     0.017 C 
HETATM    9  C9  UNL     1      -4.650  -0.530   0.155  1.00  0.00     0.017 C 
HETATM   10  C10 UNL     1      -3.645  -0.569  -0.957  1.00  0.00     0.109 C 
ENDBRANCH   3   6
ENDBRANCH   1   3
BRANCH   1  11
HETATM   11  C1  UNL     1       0.826   1.341  -0.205  1.00  0.00     0.165 C 
BRANCH  11  12
HETATM   12  C2  UNL     1       2.416   0.885  -0.083  1.00  0.00     0.140 C 
HETATM   13  C3  UNL     1       2.432  -0.514  -0.766  1.00  0.00     0.034 C 
HETATM   14  C4  UNL     1       3.885  -0.919  -0.733  1.00  0.00     0.005 C 
HETATM   15  C5  UNL     1       4.257  -1.098   0.717  1.00  0.00     0.026 C 
HETATM   16  C6  UNL     1       3.525  -0.079   1.551  1.00  0.00     0.168 C 
HETATM   17  O3  UNL     1       3.214   1.054   0.853  1.00  0.00    -0.384 OA
ENDBRANCH  11  12
ENDBRANCH   1  11
TORSDOF 4
