REMARK  6 active torsions:
REMARK  status: ('A' for Active; 'I' for Inactive)
REMARK    1  A    between atoms: N1_1  and  C1_5 
REMARK    2  A    between atoms: N2_6  and  C2_7 
REMARK    3  A    between atoms: C2_7  and  C3_8 
REMARK    4  A    between atoms: C12_17  and  C13_18 
REMARK    5  A    between atoms: C13_18  and  O1_19 
REMARK    6  A    between atoms: C14_21  and  O2_22 
ROOT
HETATM    1  C1  UNL     1       0.358   1.271  -0.981  1.00  0.00     0.454 C 
HETATM    2  N2  UNL     1       0.871   0.693   0.221  1.00  0.00     0.128 N 
HETATM    3  C6  UNL     1      -0.013  -0.318   0.800  1.00  0.00     0.233 C 
HETATM    4  C7  UNL     1      -0.015  -1.409  -0.235  1.00  0.00     0.041 C 
HETATM    5  C8  UNL     1      -1.344  -1.339  -0.908  1.00  0.00    -0.005 C 
HETATM    6  C9  UNL     1      -2.287  -1.893   0.187  1.00  0.00     0.010 C 
HETATM    7  C10 UNL     1      -2.577  -0.514   0.811  1.00  0.00    -0.005 C 
HETATM    8  C11 UNL     1      -3.168   0.021  -0.511  1.00  0.00     0.013 C 
HETATM    9  C12 UNL     1      -1.831   0.000  -1.283  1.00  0.00     0.031 C 
HETATM   10  C13 UNL     1      -1.136   1.222  -0.914  1.00  0.00     0.144 C 
HETATM   11  C14 UNL     1      -1.454   1.602   0.546  1.00  0.00     0.163 C 
HETATM   12  C15 UNL     1      -1.333   0.212   1.200  1.00  0.00     0.055 C 
ENDROOT
BRANCH   1  13
HETATM   13  N1  UNL     1       0.928   0.811  -2.200  1.00  0.00    -0.044 N 
ATOM     14  H13 UNL     1       1.941   0.925  -2.170  1.00  0.00     0.277 HD
ATOM     15  H12 UNL     1       0.857  -0.205  -2.250  1.00  0.00     0.277 HD
ATOM     16  H11 UNL     1       0.562   1.224  -3.058  1.00  0.00     0.277 HD
ENDBRANCH   1  13
BRANCH   2  17
HETATM   17  C2  UNL     1       2.220   0.348   0.135  1.00  0.00     0.280 C 
BRANCH  17  18
HETATM   18  C3  UNL     1       2.811  -0.270   1.375  1.00  0.00     0.014 A 
HETATM   19  C4  UNL     1       4.293  -0.631   1.230  1.00  0.00     0.007 A 
HETATM   20  C5  UNL     1       3.289  -1.718   1.288  1.00  0.00     0.007 A 
ENDBRANCH  17  18
ENDBRANCH   2  17
BRANCH  10  21
HETATM   21  O1  UNL     1      -1.624   2.280  -1.687  1.00  0.00    -0.383 OA
ATOM     22  H1  UNL     1      -2.573   2.249  -1.644  1.00  0.00     0.210 HD
ENDBRANCH  10  21
BRANCH  11  23
HETATM   23  O2  UNL     1      -0.544   2.512   1.062  1.00  0.00    -0.392 OA
ATOM     24  H2  UNL     1      -0.740   2.746   1.962  1.00  0.00     0.210 HD
ENDBRANCH  11  23
TORSDOF 6
