REMARK  4 active torsions:
REMARK  status: ('A' for Active; 'I' for Inactive)
REMARK    1  A    between atoms: C2_2  and  N2_5 
REMARK    2  A    between atoms: N2_5  and  C4_7 
REMARK    3  A    between atoms: C4_7  and  N3_9 
REMARK    4  A    between atoms: N3_9  and  C5_11 
ROOT
HETATM    1  C1  UNL     1       4.045  -0.194  -0.064  1.00  0.00     0.048 C 
HETATM    2  C2  UNL     1       3.342   1.026  -0.558  1.00  0.00     0.187 C 
HETATM    3  C3  UNL     1       4.206   2.182  -0.316  1.00  0.00     0.084 C 
HETATM    4  N1  UNL     1       4.893   3.094  -0.105  1.00  0.00    -0.195 NA
ENDROOT
BRANCH   2   5
HETATM    5  N2  UNL     1       2.079   1.232   0.074  1.00  0.00    -0.351 N 
ATOM      6  H2  UNL     1       1.918   2.089   0.604  1.00  0.00     0.163 HD
BRANCH   5   7
HETATM    7  C4  UNL     1       1.046   0.270  -0.021  1.00  0.00     0.169 C 
HETATM    8  S1  UNL     1       1.308  -1.090  -0.860  1.00  0.00    -0.041 SA
BRANCH   7   9
HETATM    9  N3  UNL     1      -0.201   0.480   0.607  1.00  0.00    -0.357 N 
ATOM     10  H3  UNL     1      -0.337   1.343   1.133  1.00  0.00     0.162 HD
BRANCH   9  11
HETATM   11  C5  UNL     1      -1.312  -0.477   0.544  1.00  0.00     0.042 C 
HETATM   12  C6  UNL     1      -0.767  -1.766   1.119  1.00  0.00     0.039 C 
HETATM   13  C7  UNL     1      -1.728  -0.639  -0.848  1.00  0.00     0.046 C 
HETATM   14  C8  UNL     1      -3.203  -0.608  -1.030  1.00  0.00     0.143 C 
HETATM   15  S2  UNL     1      -3.665   0.586   0.210  1.00  0.00     0.146 S 
HETATM   16  O1  UNL     1      -5.037   0.359   0.735  1.00  0.00    -0.228 OA
HETATM   17  O2  UNL     1      -3.432   1.962  -0.301  1.00  0.00    -0.228 OA
HETATM   18  C9  UNL     1      -2.410   0.099   1.401  1.00  0.00     0.170 C 
ENDBRANCH   9  11
ENDBRANCH   7   9
ENDBRANCH   5   7
ENDBRANCH   2   5
TORSDOF 4
