REMARK  3 active torsions:
REMARK  status: ('A' for Active; 'I' for Inactive)
REMARK    1  A    between atoms: C1_2  and  C2_4 
REMARK    2  A    between atoms: C3_5  and  C4_6 
REMARK       I    between atoms: C4_6  and  N1_8 
REMARK    3  A    between atoms: N1_8  and  N2_10 
REMARK       I    between atoms: N2_10  and  C5_12 
REMARK       I    between atoms: C5_12  and  N3_14 
ROOT
HETATM    1  N2  UNL     1       0.564  -0.861   0.196  1.00  0.00    -0.249 N 
ATOM      2  H2  UNL     1       0.052  -1.131   1.036  1.00  0.00     0.192 HD
HETATM    3  C5  UNL     1      -0.001   0.087  -0.651  1.00  0.00     0.337 C 
HETATM    4  O4  UNL     1       0.645   0.418  -1.705  1.00  0.00    -0.245 OA
HETATM    5  N3  UNL     1      -1.218   0.689  -0.421  1.00  0.00    -0.323 N 
HETATM    6  C6  UNL     1      -1.978   0.294   0.815  1.00  0.00     0.207 C 
HETATM    7  C7  UNL     1      -3.149   1.091   0.868  1.00  0.00    -0.163 C 
HETATM    8  C8  UNL     1      -4.230   1.971   0.660  1.00  0.00     0.081 C 
HETATM    9  C9  UNL     1      -4.028   2.671  -0.726  1.00  0.00     0.013 C 
HETATM   10  C10 UNL     1      -3.132   1.833  -1.635  1.00  0.00     0.021 C 
HETATM   11  C11 UNL     1      -1.716   1.692  -1.358  1.00  0.00     0.128 C 
ENDROOT
BRANCH   1  12
HETATM   12  N1  UNL     1       1.817  -1.466  -0.057  1.00  0.00    -0.263 N 
HETATM   13  C4  UNL     1       2.815  -1.634   0.922  1.00  0.00     0.260 C 
HETATM   14  O3  UNL     1       2.619  -1.243   2.097  1.00  0.00    -0.267 OA
ATOM     15  H1  UNL     1       2.009  -1.799  -1.002  1.00  0.00     0.190 HD
BRANCH  13  16
HETATM   16  C3  UNL     1       4.094  -2.262   0.597  1.00  0.00     0.082 C 
HETATM   17  C2  UNL     1       5.060  -2.460   1.453  1.00  0.00     0.090 C 
BRANCH  17  18
HETATM   18  C1  UNL     1       6.287  -3.108   0.964  1.00  0.00     0.198 C 
HETATM   19  O1  UNL     1       7.242  -3.330   1.790  1.00  0.00    -0.645 OA
HETATM   20  O2  UNL     1       6.425  -3.472  -0.353  1.00  0.00    -0.645 OA
ENDBRANCH  17  18
ENDBRANCH  13  16
ENDBRANCH   1  12
TORSDOF 3
