REMARK  3 active torsions:
REMARK  status: ('A' for Active; 'I' for Inactive)
REMARK    1  A    between atoms: C4_4  and  O1_5 
REMARK    2  A    between atoms: C8_10  and  C9_11 
REMARK    3  A    between atoms: C10_14  and  C11_15 
ROOT
HETATM    1  C1  UNL     1       2.470  -1.482  -0.739  1.00  0.00     0.011 C 
HETATM    2  C2  UNL     1       1.095  -0.969  -0.745  1.00  0.00    -0.005 C 
HETATM    3  C3  UNL     1       1.001   0.567  -0.802  1.00  0.00     0.039 C 
HETATM    4  C4  UNL     1       1.725   0.844   0.491  1.00  0.00     0.128 C 
HETATM    5  C5  UNL     1       0.773   0.097   1.433  1.00  0.00     0.024 C 
HETATM    6  C6  UNL     1      -0.486   0.943   1.656  1.00  0.00    -0.005 C 
HETATM    7  C7  UNL     1      -0.814   1.751   0.451  1.00  0.00     0.027 C 
HETATM    8  C8  UNL     1      -0.519   0.715  -0.621  1.00  0.00     0.073 C 
HETATM    9  C10 UNL     1      -0.994  -0.544   0.050  1.00  0.00     0.071 C 
HETATM   10  C12 UNL     1      -1.558  -0.146   1.419  1.00  0.00     0.027 C 
HETATM   11  C13 UNL     1       0.361  -1.073   0.572  1.00  0.00     0.017 C 
ENDROOT
BRANCH   8  12
HETATM   12  C9  UNL     1      -1.166   1.032  -1.894  1.00  0.00     0.183 C 
HETATM   13  O2  UNL     1      -0.467   1.012  -2.940  1.00  0.00    -0.647 OA
HETATM   14  O3  UNL     1      -2.513   1.342  -1.932  1.00  0.00    -0.647 OA
ENDBRANCH   8  12
BRANCH   9  15
HETATM   15  C11 UNL     1      -1.730  -1.500  -0.689  1.00  0.00     0.183 C 
HETATM   16  O4  UNL     1      -1.979  -1.441  -1.894  1.00  0.00    -0.647 OA
HETATM   17  O5  UNL     1      -2.233  -2.630  -0.011  1.00  0.00    -0.647 OA
ENDBRANCH   9  15
BRANCH   4  18
HETATM   18  O1  UNL     1       1.945   2.138   0.811  1.00  0.00    -0.395 OA
ATOM     19  H1  UNL     1       2.401   2.313   1.626  1.00  0.00     0.210 HD
ENDBRANCH   4  18
TORSDOF 3
