REMARK  7 active torsions:
REMARK  status: ('A' for Active; 'I' for Inactive)
REMARK    1  A    between atoms: C2_2  and  N1_3 
REMARK    2  A    between atoms: N1_3  and  C3_5 
REMARK    3  A    between atoms: C4_8  and  C5_9 
REMARK    4  A    between atoms: C5_9  and  C6_10 
REMARK    5  A    between atoms: C6_10  and  N3_11 
REMARK    6  A    between atoms: N3_11  and  C7_13 
REMARK    7  A    between atoms: C8_16  and  N5_17 
ROOT
HETATM    1  N3  UNL     1       1.217   0.664   0.129  1.00  0.00    -0.226 N 
ATOM      2  H3  UNL     1       1.051   1.643   0.364  1.00  0.00     0.177 HD
ENDROOT
BRANCH   1   3
HETATM    3  C6  UNL     1       0.117  -0.250  -0.008  1.00  0.00     0.145 C 
BRANCH   3   4
HETATM    4  C5  UNL     1      -1.161   0.545   0.162  1.00  0.00     0.097 C 
BRANCH   4   5
HETATM    5  C4  UNL     1      -2.317  -0.382   0.024  1.00  0.00     0.102 A 
HETATM    6  N2  UNL     1      -3.571   0.061   0.131  1.00  0.00    -0.180 N 
HETATM    7  C3  UNL     1      -4.654  -0.738   0.014  1.00  0.00     0.683 A 
ATOM      8  H2  UNL     1      -3.720   1.054   0.310  1.00  0.00     0.185 HD
HETATM    9  N9  UNL     1      -4.404  -2.044  -0.224  1.00  0.00    -0.141 N 
HETATM   10  C13 UNL     1      -3.169  -2.535  -0.339  1.00  0.00     0.339 A 
ATOM     11  H9  UNL     1      -5.194  -2.682  -0.320  1.00  0.00     0.189 HD
HETATM   12  N8  UNL     1      -2.129  -1.692  -0.213  1.00  0.00    -0.297 N 
HETATM   13  O1  UNL     1      -2.963  -3.772  -0.564  1.00  0.00    -0.246 OA
ATOM     14  H8  UNL     1      -1.179  -2.053  -0.299  1.00  0.00     0.172 HD
BRANCH   7  15
HETATM   15  N1  UNL     1      -5.867  -0.287   0.122  1.00  0.00    -0.226 N 
ATOM     16  H1  UNL     1      -6.668  -0.911   0.030  1.00  0.00     0.177 HD
BRANCH  15  17
HETATM   17  C2  UNL     1      -6.050   1.120   0.376  1.00  0.00     0.133 C 
HETATM   18  C1  UNL     1      -7.517   1.496   0.224  1.00  0.00     0.027 C 
ENDBRANCH  15  17
ENDBRANCH   7  15
ENDBRANCH   4   5
ENDBRANCH   3   4
ENDBRANCH   1   3
BRANCH   1  19
HETATM   19  C7  UNL     1       2.439   0.219  -0.053  1.00  0.00     0.681 A 
HETATM   20  N4  UNL     1       2.562  -1.086  -0.359  1.00  0.00    -0.176 N 
HETATM   21  C8  UNL     1       3.819  -1.529  -0.543  1.00  0.00     0.135 A 
ATOM     22  H4  UNL     1       1.753  -1.701  -0.446  1.00  0.00     0.186 HD
HETATM   23  C9  UNL     1       4.908  -0.653  -0.414  1.00  0.00     0.095 A 
HETATM   24  S1  UNL     1       6.615  -0.766  -0.552  1.00  0.00    -0.070 SA
HETATM   25  C12 UNL     1       4.748   0.670  -0.101  1.00  0.00     0.142 A 
HETATM   26  C10 UNL     1       7.006   0.861  -0.206  1.00  0.00     0.049 A 
HETATM   27  C11 UNL     1       8.324   1.563  -0.132  1.00  0.00     0.076 C 
HETATM   28  N6  UNL     1       5.820   1.399  -0.005  1.00  0.00    -0.339 N 
ATOM     29  H6  UNL     1       5.743   2.389   0.226  1.00  0.00     0.168 HD
HETATM   30  N7  UNL     1       3.446   1.071   0.076  1.00  0.00    -0.175 N 
ATOM     31  H7  UNL     1       3.250   2.044   0.311  1.00  0.00     0.186 HD
BRANCH  21  32
HETATM   32  N5  UNL     1       4.113  -2.740  -0.840  1.00  0.00    -0.384 N 
ATOM     33  H52 UNL     1       3.322  -3.377  -0.934  1.00  0.00     0.157 HD
ATOM     34  H51 UNL     1       5.066  -3.076  -0.979  1.00  0.00     0.157 HD
ENDBRANCH  21  32
ENDBRANCH   1  19
TORSDOF 7
