REMARK  7 active torsions:
REMARK  status: ('A' for Active; 'I' for Inactive)
REMARK    1  A    between atoms: C4_6  and  C5_7 
REMARK    2  A    between atoms: C5_7  and  N2_8 
REMARK    3  A    between atoms: N2_8  and  C6_9 
REMARK    4  A    between atoms: N2_8  and  C7_11 
REMARK    5  A    between atoms: C8_14  and  N4_15 
REMARK    6  A    between atoms: C12_25  and  C13_26 
REMARK    7  A    between atoms: C13_26  and  O1_27 
ROOT
HETATM    1  C7  UNL     1       2.019  -0.102   0.830  1.00  0.00     0.688 A 
HETATM    2  N3  UNL     1       2.932  -0.883   1.449  1.00  0.00    -0.175 N 
ATOM      3  H3  UNL     1       2.670  -1.314   2.335  1.00  0.00     0.186 HD
HETATM    4  C8  UNL     1       4.165  -1.127   0.969  1.00  0.00     0.139 A 
HETATM    5  C9  UNL     1       4.554  -0.561  -0.227  1.00  0.00     0.130 A 
HETATM    6  C10 UNL     1       5.853  -0.777  -0.798  1.00  0.00     0.106 C 
HETATM    7  N5  UNL     1       6.906  -0.935  -1.262  1.00  0.00    -0.191 NA
HETATM    8  C11 UNL     1       3.631   0.237  -0.865  1.00  0.00     0.156 A 
HETATM    9  N6  UNL     1       4.021   0.824  -2.093  1.00  0.00    -0.080 NA
HETATM   10  N7  UNL     1       2.392   0.452  -0.333  1.00  0.00    -0.177 N 
ATOM     11  H7  UNL     1       1.733   1.049  -0.833  1.00  0.00     0.185 HD
ENDROOT
BRANCH   4  12
HETATM   12  N4  UNL     1       4.996  -1.881   1.601  1.00  0.00    -0.384 N 
ATOM     13  H42 UNL     1       4.708  -2.300   2.486  1.00  0.00     0.157 HD
ATOM     14  H41 UNL     1       5.931  -2.066   1.237  1.00  0.00     0.157 HD
ENDBRANCH   4  12
BRANCH   1  15
HETATM   15  N2  UNL     1       0.734   0.089   1.430  1.00  0.00    -0.178 N 
BRANCH  15  16
HETATM   16  C5  UNL     1      -0.306   0.893   0.879  1.00  0.00     0.205 C 
BRANCH  16  17
HETATM   17  C4  UNL     1      -1.492   0.177   0.398  1.00  0.00     0.040 A 
HETATM   18  N1  UNL     1      -1.616  -1.153   0.420  1.00  0.00    -0.367 N 
HETATM   19  C3  UNL     1      -2.754  -1.728  -0.063  1.00  0.00     0.099 A 
ATOM     20  H1  UNL     1      -0.866  -1.733   0.795  1.00  0.00     0.165 HD
HETATM   21  C2  UNL     1      -3.797  -1.011  -0.579  1.00  0.00     0.004 A 
HETATM   22  C1  UNL     1      -5.037  -1.640  -1.105  1.00  0.00     0.054 C 
HETATM   23  C14 UNL     1      -3.688   0.362  -0.610  1.00  0.00     0.189 A 
HETATM   24  C12 UNL     1      -2.538   0.946  -0.122  1.00  0.00     0.040 A 
HETATM   25  O2  UNL     1      -4.614   1.086  -1.073  1.00  0.00    -0.287 OA
BRANCH  24  26
HETATM   26  C13 UNL     1      -2.364   2.415  -0.129  1.00  0.00     0.209 C 
BRANCH  26  27
HETATM   27  O1  UNL     1      -3.500   3.026  -0.679  1.00  0.00    -0.396 OA
ATOM     28  H1  UNL     1      -3.388   3.969  -0.683  1.00  0.00     0.209 HD
ENDBRANCH  26  27
ENDBRANCH  24  26
ENDBRANCH  16  17
ENDBRANCH  15  16
BRANCH  15  29
HETATM   29  C6  UNL     1       0.477  -0.573   2.660  1.00  0.00     0.191 C 
HETATM   30  S1  UNL     1      -0.430   0.097   3.821  1.00  0.00    -0.073 SA
ENDBRANCH  15  29
ENDBRANCH   1  15
TORSDOF 7
