REMARK  9 active torsions:
REMARK  status: ('A' for Active; 'I' for Inactive)
REMARK    1  A    between atoms: C2_2  and  N1_3 
REMARK    2  A    between atoms: C3_4  and  C4_5 
REMARK    3  A    between atoms: C4_5  and  O1_6 
REMARK    4  A    between atoms: C9_13  and  N3_14 
REMARK    5  A    between atoms: N3_14  and  N4_16 
REMARK    6  A    between atoms: C10_21  and  N6_22 
REMARK    7  A    between atoms: C13_25  and  N7_26 
REMARK    8  A    between atoms: C13_25  and  C14_30 
REMARK    9  A    between atoms: C14_30  and  O2_31 
ROOT
HETATM    1  N1  UNL     1      -1.720  -1.060  -0.112  1.00  0.00    -0.345 N 
HETATM    2  C3  UNL     1      -3.090  -1.088  -0.024  1.00  0.00     0.036 A 
HETATM    3  C5  UNL     1      -3.538   0.199   0.069  1.00  0.00     0.043 A 
HETATM    4  C6  UNL     1      -2.452   1.038   0.041  1.00  0.00     0.021 A 
HETATM    5  C7  UNL     1      -2.311   2.418   0.108  1.00  0.00     0.102 A 
HETATM    6  C8  UNL     1      -3.495   3.218   0.220  1.00  0.00     0.104 C 
HETATM    7  N2  UNL     1      -4.480   3.851   0.311  1.00  0.00    -0.191 NA
HETATM    8  C9  UNL     1      -1.059   2.981   0.066  1.00  0.00     0.143 A 
HETATM    9  N5  UNL     1      -0.017   2.162  -0.038  1.00  0.00    -0.325 N 
ATOM     10  H5  UNL     1       0.910   2.586  -0.068  1.00  0.00     0.169 HD
HETATM   11  C10 UNL     1      -0.087   0.791  -0.108  1.00  0.00     0.133 A 
HETATM   12  C16 UNL     1      -1.317   0.210  -0.072  1.00  0.00     0.091 A 
ENDROOT
BRANCH   8  13
HETATM   13  N3  UNL     1      -0.884   4.239   0.124  1.00  0.00    -0.291 N 
ATOM     14  H3  UNL     1       0.094   4.527   0.084  1.00  0.00     0.188 HD
BRANCH  13  15
HETATM   15  N4  UNL     1      -1.760   5.266   0.229  1.00  0.00    -0.344 N 
ATOM     16  H42 UNL     1      -2.731   4.957   0.267  1.00  0.00     0.176 HD
ATOM     17  H41 UNL     1      -1.620   6.275   0.276  1.00  0.00     0.176 HD
ENDBRANCH  13  15
ENDBRANCH   8  13
BRANCH   2  18
HETATM   18  C4  UNL     1      -3.901  -2.331  -0.033  1.00  0.00     0.221 C 
BRANCH  18  19
HETATM   19  O1  UNL     1      -4.081  -2.850   1.252  1.00  0.00    -0.395 OA
ATOM     20  H1  UNL     1      -4.600  -3.646   1.246  1.00  0.00     0.209 HD
ENDBRANCH  18  19
ENDBRANCH   2  18
BRANCH   1  21
HETATM   21  C2  UNL     1      -0.972  -2.269  -0.223  1.00  0.00     0.125 C 
HETATM   22  C1  UNL     1      -0.935  -2.770  -1.667  1.00  0.00     0.027 C 
ENDBRANCH   1  21
BRANCH  11  23
HETATM   23  N6  UNL     1       1.134   0.133  -0.161  1.00  0.00    -0.363 N 
HETATM   24  C11 UNL     1       1.895  -0.326  -1.282  1.00  0.00     0.127 C 
HETATM   25  C12 UNL     1       3.342   0.064  -0.966  1.00  0.00     0.062 C 
HETATM   26  C13 UNL     1       3.392  -0.204   0.498  1.00  0.00     0.162 C 
HETATM   27  C15 UNL     1       1.984  -0.150   1.004  1.00  0.00     0.165 C 
BRANCH  26  28
HETATM   28  N7  UNL     1       4.171   0.778   1.232  1.00  0.00    -0.067 N 
ATOM     29  H73 UNL     1       5.111   0.858   0.845  1.00  0.00     0.275 HD
ATOM     30  H72 UNL     1       3.832   1.722   1.047  1.00  0.00     0.275 HD
ATOM     31  H71 UNL     1       4.205   0.594   2.235  1.00  0.00     0.275 HD
ENDBRANCH  26  28
BRANCH  26  32
HETATM   32  C14 UNL     1       4.034  -1.565   0.754  1.00  0.00     0.204 C 
BRANCH  32  33
HETATM   33  O2  UNL     1       5.351  -1.568   0.314  1.00  0.00    -0.398 OA
ATOM     34  H2  UNL     1       5.751  -2.415   0.473  1.00  0.00     0.209 HD
ENDBRANCH  32  33
ENDBRANCH  26  32
ENDBRANCH  11  23
TORSDOF 9
