REMARK  5 active torsions:
REMARK  status: ('A' for Active; 'I' for Inactive)
REMARK    1  A    between atoms: C5_11  and  N3_12 
REMARK    2  A    between atoms: N3_12  and  C6_14 
REMARK    3  A    between atoms: C6_14  and  C7_15 
REMARK    4  A    between atoms: C10_20  and  N5_21 
REMARK    5  A    between atoms: N7_28  and  C12_29 
ROOT
HETATM    1  C7  UNL     1       0.071  -0.094   1.199  1.00  0.00     0.100 A 
HETATM    2  N4  UNL     1       0.335   1.223   1.320  1.00  0.00    -0.353 N 
ATOM      3  H4  UNL     1       1.208   1.516   1.759  1.00  0.00     0.166 HD
HETATM    4  C8  UNL     1      -0.528   2.169   0.874  1.00  0.00     0.108 A 
HETATM    5  C9  UNL     1      -1.712   1.776   0.278  1.00  0.00     0.067 A 
HETATM    6  C10 UNL     1      -2.635   2.680  -0.199  1.00  0.00     0.118 A 
HETATM    7  N6  UNL     1      -3.766   2.198  -0.767  1.00  0.00    -0.294 N 
ATOM      8  H6  UNL     1      -4.455   2.862  -1.121  1.00  0.00     0.172 HD
HETATM    9  C11 UNL     1      -4.018   0.895  -0.883  1.00  0.00     0.330 A 
HETATM   10  O3  UNL     1      -5.091   0.546  -1.423  1.00  0.00    -0.246 OA
HETATM   11  N7  UNL     1      -3.148  -0.021  -0.433  1.00  0.00    -0.280 N 
HETATM   12  C15 UNL     1      -1.991   0.438   0.149  1.00  0.00     0.128 A 
HETATM   13  N8  UNL     1      -1.081  -0.453   0.618  1.00  0.00    -0.330 N 
ATOM     14  H8  UNL     1      -1.285  -1.448   0.523  1.00  0.00     0.168 HD
ENDROOT
BRANCH   1  15
HETATM   15  C6  UNL     1       0.988  -1.145   1.678  1.00  0.00     0.196 C 
BRANCH  15  16
HETATM   16  N3  UNL     1       1.979  -1.564   0.736  1.00  0.00    -0.377 N 
ATOM     17  H3  UNL     1       1.984  -2.543   0.451  1.00  0.00     0.160 HD
BRANCH  16  18
HETATM   18  C5  UNL     1       2.953  -0.704   0.175  1.00  0.00     0.120 A 
HETATM   19  C2  UNL     1       4.186  -0.463   0.764  1.00  0.00     0.042 A 
HETATM   20  C1  UNL     1       4.495  -1.127   2.037  1.00  0.00     0.071 C 
HETATM   21  N1  UNL     1       5.075   0.359   0.183  1.00  0.00    -0.310 N 
HETATM   22  C3  UNL     1       4.807   0.972  -0.978  1.00  0.00     0.327 A 
ATOM     23  H1  UNL     1       5.975   0.520   0.636  1.00  0.00     0.170 HD
HETATM   24  O1  UNL     1       5.634   1.733  -1.512  1.00  0.00    -0.247 OA
HETATM   25  N2  UNL     1       3.615   0.756  -1.575  1.00  0.00    -0.274 N 
HETATM   26  C4  UNL     1       2.691  -0.071  -1.014  1.00  0.00     0.277 A 
ATOM     27  H2  UNL     1       3.404   1.219  -2.459  1.00  0.00     0.173 HD
HETATM   28  O2  UNL     1       1.612  -0.200  -1.658  1.00  0.00    -0.265 OA
ENDBRANCH  16  18
ENDBRANCH  15  16
ENDBRANCH   1  15
BRANCH  11  29
HETATM   29  C12 UNL     1      -3.376  -1.426  -0.536  1.00  0.00     0.096 A 
HETATM   30  C13 UNL     1      -3.936  -2.059  -1.779  1.00  0.00     0.028 A 
HETATM   31  C14 UNL     1      -4.682  -2.082  -0.432  1.00  0.00     0.028 A 
ENDBRANCH  11  29
BRANCH   6  32
HETATM   32  N5  UNL     1      -2.427   3.942  -0.105  1.00  0.00    -0.385 N 
ATOM     33  H52 UNL     1      -1.575   4.305   0.323  1.00  0.00     0.157 HD
ATOM     34  H51 UNL     1      -3.111   4.612  -0.458  1.00  0.00     0.157 HD
ENDBRANCH   6  32
TORSDOF 5
