REMARK  5 active torsions:
REMARK  status: ('A' for Active; 'I' for Inactive)
REMARK    1  A    between atoms: N1_1  and  C1_4 
REMARK    2  A    between atoms: N3_8  and  O1_9 
REMARK    3  A    between atoms: C3_11  and  S1_12 
REMARK    4  A    between atoms: S1_12  and  N4_13 
REMARK    5  A    between atoms: N5_19  and  O3_20 
ROOT
HETATM    1  C1  UNL     1      -2.826   0.423  -0.377  1.00  0.00     0.694 A 
HETATM    2  N2  UNL     1      -1.704   0.454  -1.109  1.00  0.00    -0.171 N 
ATOM      3  H2  UNL     1      -1.741   0.781  -2.074  1.00  0.00     0.186 HD
HETATM    4  C2  UNL     1      -0.521   0.056  -0.583  1.00  0.00     0.180 A 
HETATM    5  N3  UNL     1       0.734  -0.035  -1.023  1.00  0.00    -0.195 N 
HETATM    6  C3  UNL     1       1.555  -0.506  -0.070  1.00  0.00     0.154 A 
HETATM    7  C4  UNL     1       0.803  -0.739   1.059  1.00  0.00     0.081 A 
HETATM    8  C5  UNL     1      -0.505  -0.402   0.789  1.00  0.00     0.131 A 
HETATM    9  N5  UNL     1      -1.648  -0.413   1.470  1.00  0.00    -0.145 N 
HETATM   10  N6  UNL     1      -2.777  -0.009   0.895  1.00  0.00    -0.105 N 
ATOM     11  H6  UNL     1      -3.639  -0.028   1.440  1.00  0.00     0.208 HD
ENDROOT
BRANCH   6  12
HETATM   12  S1  UNL     1       3.255  -0.737  -0.342  1.00  0.00     0.163 S 
HETATM   13  O2  UNL     1       3.844  -2.159   0.227  1.00  0.00    -0.229 OA
BRANCH  12  14
HETATM   14  N4  UNL     1       4.170   0.641   0.042  1.00  0.00    -0.344 NA
ATOM     15  H42 UNL     1       3.804   1.525  -0.312  1.00  0.00     0.166 HD
ATOM     16  H41 UNL     1       5.168   0.505  -0.118  1.00  0.00     0.166 HD
ENDBRANCH  12  14
ENDBRANCH   6  12
BRANCH   5  17
HETATM   17  O1  UNL     1       1.078   0.333  -2.324  1.00  0.00    -0.280 OA
ATOM     18  H1  UNL     1       1.972   0.268  -2.638  1.00  0.00     0.245 HD
ENDBRANCH   5  17
BRANCH   9  19
HETATM   19  O3  UNL     1      -1.628  -0.848   2.767  1.00  0.00    -0.267 OA
ATOM     20  H3  UNL     1      -2.444  -0.856   3.253  1.00  0.00     0.247 HD
ENDBRANCH   9  19
BRANCH   1  21
HETATM   21  N1  UNL     1      -3.978   0.803  -0.866  1.00  0.00    -0.233 N 
ATOM     22  H12 UNL     1      -4.015   1.131  -1.831  1.00  0.00     0.174 HD
ATOM     23  H11 UNL     1      -4.832   0.779  -0.309  1.00  0.00     0.174 HD
ENDBRANCH   1  21
TORSDOF 5
