REMARK  4 active torsions:
REMARK  status: ('A' for Active; 'I' for Inactive)
REMARK    1  A    between atoms: C1_2  and  C2_4 
REMARK       I    between atoms: C2_4  and  N2_6 
REMARK    2  A    between atoms: N2_6  and  C3_8 
REMARK    3  A    between atoms: C3_8  and  N3_10 
REMARK    4  A    between atoms: N3_10  and  C4_12 
ROOT
HETATM    1  C3  UNL     1       0.360   0.856   0.178  1.00  0.00     0.181 C 
HETATM    2  S1  UNL     1      -0.649   2.147   0.360  1.00  0.00    -0.040 SA
ENDROOT
BRANCH   1   3
HETATM    3  N2  UNL     1       1.735   1.092   0.271  1.00  0.00    -0.296 N 
HETATM    4  C2  UNL     1       2.792   0.170   0.153  1.00  0.00     0.312 C 
HETATM    5  O2  UNL     1       2.563  -1.034  -0.061  1.00  0.00    -0.262 OA
ATOM      6  H2  UNL     1       2.008   2.059   0.447  1.00  0.00     0.171 HD
BRANCH   4   7
HETATM    7  C1  UNL     1       4.185   0.566   0.274  1.00  0.00     0.322 C 
HETATM    8  N1  UNL     1       5.239  -0.367   0.155  1.00  0.00    -0.053 NA
HETATM    9  O1  UNL     1       4.468   1.766   0.491  1.00  0.00    -0.266 OA
ENDBRANCH   4   7
ENDBRANCH   1   3
BRANCH   1  10
HETATM   10  N3  UNL     1      -0.244  -0.383  -0.058  1.00  0.00    -0.305 N 
ATOM     11  H3  UNL     1       0.332  -1.216  -0.180  1.00  0.00     0.171 HD
BRANCH  10  12
HETATM   12  C4  UNL     1      -1.695  -0.483  -0.130  1.00  0.00     0.177 A 
HETATM   13  N4  UNL     1      -2.418  -1.226   0.616  1.00  0.00    -0.361 N 
HETATM   14  C5  UNL     1      -3.821  -1.110   0.307  1.00  0.00     0.142 A 
ATOM     15  H4  UNL     1      -2.045  -1.832   1.347  1.00  0.00     0.162 HD
HETATM   16  C6  UNL     1      -3.897  -0.078  -0.784  1.00  0.00     0.142 A 
HETATM   17  N5  UNL     1      -2.515   0.228  -1.036  1.00  0.00    -0.361 N 
ATOM     18  H5  UNL     1      -2.177   0.863  -1.760  1.00  0.00     0.162 HD
ENDBRANCH  10  12
ENDBRANCH   1  10
TORSDOF 4
