REMARK  2 active torsions:
REMARK  status: ('A' for Active; 'I' for Inactive)
REMARK    1  A    between atoms: C3_9  and  N3_10 
REMARK    2  A    between atoms: N3_10  and  C4_12 
ROOT
HETATM    1  O1  UNL     1      -3.561   2.235   0.133  1.00  0.00    -0.246 OA
HETATM    2  C1  UNL     1      -2.794   1.226   0.228  1.00  0.00     0.331 C 
HETATM    3  N1  UNL     1      -3.364   0.014   0.053  1.00  0.00    -0.260 N 
ATOM      4  H1  UNL     1      -4.360   0.033  -0.167  1.00  0.00     0.175 HD
HETATM    5  C2  UNL     1      -2.815  -1.227   0.125  1.00  0.00     0.329 C 
HETATM    6  O2  UNL     1      -3.650  -2.173   0.047  1.00  0.00    -0.246 OA
HETATM    7  N2  UNL     1      -1.529  -1.594   0.265  1.00  0.00    -0.290 N 
ATOM      8  H2  UNL     1      -1.343  -2.592   0.368  1.00  0.00     0.172 HD
HETATM    9  C3  UNL     1      -0.451  -0.763   0.282  1.00  0.00     0.180 C 
HETATM   10  C7  UNL     1      -0.483   0.584   0.628  1.00  0.00     0.293 C 
HETATM   11  O3  UNL     1       0.571   1.011   1.126  1.00  0.00    -0.264 OA
HETATM   12  N6  UNL     1      -1.498   1.460   0.490  1.00  0.00    -0.272 N 
ATOM     13  H6  UNL     1      -1.245   2.442   0.600  1.00  0.00     0.174 HD
ENDROOT
BRANCH   9  14
HETATM   14  N3  UNL     1       0.652  -1.312  -0.053  1.00  0.00    -0.323 N 
ATOM     15  H3  UNL     1       0.607  -2.302  -0.294  1.00  0.00     0.169 HD
BRANCH  14  16
HETATM   16  C4  UNL     1       1.922  -0.712  -0.129  1.00  0.00     0.123 A 
HETATM   17  C5  UNL     1       2.368   0.081  -1.195  1.00  0.00     0.137 A 
HETATM   18  N4  UNL     1       3.623   0.475  -0.929  1.00  0.00    -0.358 N 
HETATM   19  C6  UNL     1       3.992  -0.032   0.257  1.00  0.00     0.182 A 
ATOM     20  H4  UNL     1       4.201   1.063  -1.530  1.00  0.00     0.166 HD
HETATM   21  N5  UNL     1       2.956  -0.756   0.745  1.00  0.00    -0.337 N 
ATOM     22  H5  UNL     1       2.955  -1.257   1.634  1.00  0.00     0.168 HD
ENDBRANCH  14  16
ENDBRANCH   9  14
TORSDOF 2
