REMARK  2 active torsions:
REMARK  status: ('A' for Active; 'I' for Inactive)
REMARK    1  A    between atoms: C3_6  and  N2_7 
REMARK    2  A    between atoms: N2_7  and  N3_9 
ROOT
HETATM    1  N2  UNL     1       0.625   0.463  -0.139  1.00  0.00    -0.271 N 
ATOM      2  H2  UNL     1       0.217   1.313  -0.529  1.00  0.00     0.190 HD
ENDROOT
BRANCH   1   3
HETATM    3  C3  UNL     1       2.038   0.326  -0.034  1.00  0.00     0.197 A 
HETATM    4  N1  UNL     1       2.647  -0.803  -0.165  1.00  0.00    -0.352 N 
HETATM    5  C2  UNL     1       4.073  -0.661  -0.013  1.00  0.00     0.225 A 
ATOM      6  H1  UNL     1       2.177  -1.688  -0.353  1.00  0.00     0.163 HD
HETATM    7  C1  UNL     1       4.272   0.782   0.243  1.00  0.00     0.242 A 
HETATM    8  O1  UNL     1       5.374   1.397   0.444  1.00  0.00    -0.271 OA
HETATM    9  N5  UNL     1       2.976   1.363   0.222  1.00  0.00    -0.296 N 
ATOM     10  H5  UNL     1       2.757   2.349   0.365  1.00  0.00     0.172 HD
ENDBRANCH   1   3
BRANCH   1  11
HETATM   11  N3  UNL     1      -0.191  -0.573   0.295  1.00  0.00    -0.304 N 
HETATM   12  C4  UNL     1      -1.460  -0.473   0.211  1.00  0.00     0.031 C 
HETATM   13  C5  UNL     1      -2.217   0.685  -0.328  1.00  0.00     0.083 C 
HETATM   14  C7  UNL     1      -2.491  -1.465   0.619  1.00  0.00     0.286 C 
HETATM   15  C6  UNL     1      -3.666   0.244  -0.252  1.00  0.00     0.238 C 
HETATM   16  N4  UNL     1      -3.538  -1.198  -0.374  1.00  0.00    -0.070 N 
ATOM     17  H42 UNL     1      -4.402  -1.728  -0.256  1.00  0.00     0.277 HD
ATOM     18  H41 UNL     1      -3.351  -1.545  -1.315  1.00  0.00     0.277 HD
ATOM     19  H3  UNL     1       0.226  -1.419   0.683  1.00  0.00     0.186 HD
ENDBRANCH   1  11
TORSDOF 2
