REMARK  1 active torsions:
REMARK  status: ('A' for Active; 'I' for Inactive)
REMARK    1  A    between atoms: N3_6  and  C3_7 
ROOT
HETATM    1  C3  UNL     1      -0.115   0.153  -0.293  1.00  0.00     0.116 A 
HETATM    2  C4  UNL     1       0.087   1.512  -0.331  1.00  0.00     0.103 A 
HETATM    3  C5  UNL     1       1.348   2.029  -0.130  1.00  0.00     0.178 A 
HETATM    4  O1  UNL     1       1.561   3.253  -0.158  1.00  0.00    -0.288 OA
HETATM    5  C6  UNL     1       2.387   1.153   0.109  1.00  0.00     0.100 A 
HETATM    6  C7  UNL     1       2.112  -0.195   0.134  1.00  0.00     0.121 A 
HETATM    7  N4  UNL     1       3.232  -1.077   0.377  1.00  0.00    -0.083 NA
HETATM    8  N5  UNL     1       0.882  -0.699  -0.063  1.00  0.00    -0.331 N 
ATOM      9  H5  UNL     1       0.717  -1.705  -0.037  1.00  0.00     0.168 HD
ENDROOT
BRANCH   1  10
HETATM   10  N3  UNL     1      -1.418  -0.395  -0.507  1.00  0.00    -0.290 N 
HETATM   11  C1  UNL     1      -2.558  -0.471   0.353  1.00  0.00     0.194 A 
HETATM   12  N1  UNL     1      -2.808  -0.037   1.701  1.00  0.00    -0.063 NA
HETATM   13  N2  UNL     1      -3.239  -1.064  -0.542  1.00  0.00    -0.348 N 
HETATM   14  C2  UNL     1      -2.189  -1.057  -1.508  1.00  0.00     0.259 A 
ATOM     15  H2  UNL     1      -4.195  -1.418  -0.562  1.00  0.00     0.163 HD
ENDBRANCH   1  10
TORSDOF 1
