REMARK  3 active torsions:
REMARK  status: ('A' for Active; 'I' for Inactive)
REMARK    1  A    between atoms: N1_1  and  N2_4 
REMARK    2  A    between atoms: N2_4  and  C1_6 
REMARK    3  A    between atoms: C4_11  and  N4_12 
ROOT
HETATM    1  C1  UNL     1       2.285   0.542   0.409  1.00  0.00     0.136 A 
HETATM    2  C2  UNL     1       2.706  -0.767   0.466  1.00  0.00     0.068 A 
HETATM    3  C3  UNL     1       1.801  -1.800   0.326  1.00  0.00     0.110 A 
HETATM    4  N3  UNL     1       0.504  -1.447   0.134  1.00  0.00    -0.202 N 
ATOM      5  H3  UNL     1      -0.194  -2.183   0.027  1.00  0.00     0.183 HD
HETATM    6  C4  UNL     1       0.106  -0.168   0.080  1.00  0.00     0.683 A 
HETATM    7  N6  UNL     1       0.991   0.836   0.217  1.00  0.00    -0.175 N 
ATOM      8  H6  UNL     1       0.682   1.807   0.175  1.00  0.00     0.186 HD
ENDROOT
BRANCH   6   9
HETATM    9  N4  UNL     1      -1.296   0.106  -0.128  1.00  0.00    -0.192 N 
HETATM   10  C5  UNL     1      -2.352  -0.860  -0.291  1.00  0.00     0.170 C 
HETATM   11  C6  UNL     1      -3.372  -0.142  -1.146  1.00  0.00     0.254 C 
HETATM   12  N5  UNL     1      -3.071   1.259  -1.080  1.00  0.00    -0.057 N 
HETATM   13  C7  UNL     1      -1.915   1.415  -0.215  1.00  0.00     0.374 C 
ATOM     14  H52 UNL     1      -2.941   1.682  -1.999  1.00  0.00     0.279 HD
ATOM     15  H51 UNL     1      -3.868   1.824  -0.786  1.00  0.00     0.279 HD
ENDBRANCH   6   9
BRANCH   1  16
HETATM   16  N2  UNL     1       3.126   1.513   0.539  1.00  0.00    -0.292 N 
ATOM     17  H2  UNL     1       2.783   2.472   0.491  1.00  0.00     0.188 HD
BRANCH  16  18
HETATM   18  N1  UNL     1       4.472   1.296   0.740  1.00  0.00    -0.344 N 
ATOM     19  H12 UNL     1       4.798   0.331   0.785  1.00  0.00     0.176 HD
ATOM     20  H11 UNL     1       5.136   2.063   0.843  1.00  0.00     0.176 HD
ENDBRANCH  16  18
ENDBRANCH   1  16
TORSDOF 3
