REMARK  3 active torsions:
REMARK  status: ('A' for Active; 'I' for Inactive)
REMARK    1  A    between atoms: C2_5  and  N3_6 
REMARK    2  A    between atoms: C2_5  and  C3_11 
REMARK    3  A    between atoms: N3_6  and  N4_8 
ROOT
HETATM    1  N1  UNL     1      -4.212  -1.877  -0.195  1.00  0.00    -0.172 NA
HETATM    2  C1  UNL     1      -3.065  -1.720  -0.165  1.00  0.00     0.183 C 
HETATM    3  N2  UNL     1      -1.689  -1.529  -0.150  1.00  0.00    -0.276 N 
ATOM      4  H2  UNL     1      -1.097  -2.280  -0.504  1.00  0.00     0.179 HD
HETATM    5  C2  UNL     1      -1.118  -0.462   0.284  1.00  0.00     0.157 C 
ENDROOT
BRANCH   5   6
HETATM    6  N3  UNL     1      -1.936   0.589   0.780  1.00  0.00    -0.290 N 
ATOM      7  H3  UNL     1      -2.676   0.416   1.460  1.00  0.00     0.188 HD
BRANCH   6   8
HETATM    8  N4  UNL     1      -1.674   1.879   0.286  1.00  0.00    -0.344 N 
ATOM      9  H42 UNL     1      -0.930   2.036  -0.394  1.00  0.00     0.176 HD
ATOM     10  H41 UNL     1      -2.261   2.633   0.642  1.00  0.00     0.176 HD
ENDBRANCH   6   8
ENDBRANCH   5   6
BRANCH   5  11
HETATM   11  C3  UNL     1       0.314  -0.273   0.294  1.00  0.00     0.094 A 
HETATM   12  C4  UNL     1       1.084  -0.890  -0.666  1.00  0.00     0.124 A 
HETATM   13  N5  UNL     1       2.411  -0.677  -0.605  1.00  0.00    -0.330 N 
HETATM   14  C5  UNL     1       2.993   0.088   0.326  1.00  0.00     0.260 A 
ATOM     15  H5  UNL     1       3.005  -1.122  -1.305  1.00  0.00     0.168 HD
HETATM   16  O1  UNL     1       4.248   0.247   0.325  1.00  0.00    -0.267 OA
HETATM   17  C6  UNL     1       2.202   0.706   1.290  1.00  0.00     0.163 A 
HETATM   18  N6  UNL     1       0.892   0.505   1.242  1.00  0.00    -0.357 N 
ATOM     19  H6  UNL     1       0.299   0.951   1.942  1.00  0.00     0.165 HD
ENDBRANCH   5  11
TORSDOF 3
