REMARK  10 active torsions:
REMARK  status: ('A' for Active; 'I' for Inactive)
REMARK    1  A    between atoms: C3_3  and  C4_4 
REMARK    2  A    between atoms: C4_4  and  N1_5 
REMARK    3  A    between atoms: N1_5  and  C5_6 
REMARK    4  A    between atoms: C5_6  and  C6_7 
REMARK    5  A    between atoms: C7_8  and  C8_9 
REMARK    6  A    between atoms: C8_9  and  C9_10 
REMARK    7  A    between atoms: C9_10  and  N2_11 
REMARK    8  A    between atoms: N5_18  and  S1_19 
REMARK    9  A    between atoms: S1_19  and  N6_22 
REMARK   10  A    between atoms: N6_22  and  C13_24 
ROOT
HETATM    1  C1  UNL     1       0.337  -5.318  -3.112  1.00  0.00     0.112 C 
HETATM    2  C2  UNL     1       0.748  -4.344  -2.098  1.00  0.00    -0.109 C 
HETATM    3  C3  UNL     1       1.092  -3.521  -1.272  1.00  0.00    -0.079 C 
ENDROOT
BRANCH   3   4
HETATM    4  C4  UNL     1       1.529  -2.529  -0.294  1.00  0.00     0.332 C 
BRANCH   4   5
HETATM    5  N1  UNL     1       0.507  -1.562  -0.065  1.00  0.00    -0.037 N 
HETATM    6  C11 UNL     1      -0.058  -1.133  -1.297  1.00  0.00     0.286 C 
HETATM    7  C12 UNL     1      -1.094  -0.067  -1.190  1.00  0.00     0.110 C 
HETATM    8  N5  UNL     1      -1.884  -0.059  -0.034  1.00  0.00    -0.249 N 
HETATM    9  C17 UNL     1      -1.507  -0.844   1.066  1.00  0.00     0.121 C 
HETATM   10  C18 UNL     1      -0.532  -1.954   0.842  1.00  0.00     0.157 C 
HETATM   11  C19 UNL     1       0.031  -2.315   2.226  1.00  0.00     0.052 C 
HETATM   12  C20 UNL     1      -1.306  -3.172   0.420  1.00  0.00     0.052 C 
BRANCH   5  13
HETATM   13  C5  UNL     1       1.209  -0.446   0.581  1.00  0.00     0.267 C 
BRANCH  13  14
HETATM   14  C6  UNL     1       2.207   0.201  -0.283  1.00  0.00    -0.003 C 
HETATM   15  C7  UNL     1       3.502   0.317  -0.062  1.00  0.00    -0.027 C 
BRANCH  15  16
HETATM   16  C8  UNL     1       4.256  -0.169   1.096  1.00  0.00     0.046 C 
BRANCH  16  17
HETATM   17  C9  UNL     1       4.904   1.033   1.756  1.00  0.00     0.125 C 
BRANCH  17  18
HETATM   18  N2  UNL     1       5.798   1.731   0.880  1.00  0.00    -0.367 N 
HETATM   19  C10 UNL     1       5.649   2.981   0.625  1.00  0.00     0.196 C 
HETATM   20  N3  UNL     1       4.567   3.687   1.230  1.00  0.00    -0.067 NA
HETATM   21  N4  UNL     1       6.503   3.711  -0.230  1.00  0.00    -0.067 NA
ATOM     22  H2  UNL     1       6.571   1.223   0.449  1.00  0.00     0.161 HD
ENDBRANCH  17  18
ENDBRANCH  16  17
ENDBRANCH  15  16
ENDBRANCH  13  14
ENDBRANCH   5  13
BRANCH   8  23
HETATM   23  S1  UNL     1      -3.575  -0.062  -0.318  1.00  0.00     0.324 S 
HETATM   24  O1  UNL     1      -4.323  -0.211   0.984  1.00  0.00    -0.182 OA
HETATM   25  O2  UNL     1      -3.892  -1.303  -1.125  1.00  0.00    -0.182 OA
BRANCH  23  26
HETATM   26  N6  UNL     1      -4.125   1.309  -1.177  1.00  0.00    -0.293 N 
ATOM     27  H6  UNL     1      -4.181   1.345  -2.195  1.00  0.00     0.174 HD
BRANCH  26  28
HETATM   28  C13 UNL     1      -4.501   2.407  -0.329  1.00  0.00     0.031 C 
HETATM   29  C14 UNL     1      -4.965   3.536  -1.250  1.00  0.00     0.038 C 
HETATM   30  C15 UNL     1      -5.647   2.076   0.581  1.00  0.00     0.038 C 
HETATM   31  C16 UNL     1      -3.318   2.949   0.441  1.00  0.00     0.038 C 
ENDBRANCH  26  28
ENDBRANCH  23  26
ENDBRANCH   8  23
ENDBRANCH   4   5
ENDBRANCH   3   4
TORSDOF 10
