REMARK  8 active torsions:
REMARK  status: ('A' for Active; 'I' for Inactive)
REMARK    1  A    between atoms: C2_2  and  C3_3 
REMARK    2  A    between atoms: C3_3  and  N1_4 
REMARK       I    between atoms: N1_4  and  C4_6 
REMARK       I    between atoms: C4_6  and  N2_8 
REMARK    3  A    between atoms: N2_8  and  C5_10 
REMARK    4  A    between atoms: C7_14  and  C8_15 
REMARK    5  A    between atoms: C8_15  and  C9_16 
REMARK    6  A    between atoms: C16_25  and  C18_27 
REMARK    7  A    between atoms: C18_27  and  N5_28 
REMARK    8  A    between atoms: N5_28  and  C21_31 
ROOT
HETATM    1  C5  UNL     1       0.286   1.101  -0.769  1.00  0.00     0.186 C 
HETATM    2  C6  UNL     1       1.775   1.101  -0.514  1.00  0.00     0.244 C 
HETATM    3  O2  UNL     1       2.312   2.229  -0.435  1.00  0.00    -0.271 OA
HETATM    4  N3  UNL     1       2.515  -0.098  -0.373  1.00  0.00    -0.338 N 
HETATM    5  C7  UNL     1       3.763  -0.788  -0.361  1.00  0.00     0.090 C 
HETATM    6  C12 UNL     1       3.001  -2.039  -0.796  1.00  0.00     0.053 C 
HETATM    7  C13 UNL     1       1.852  -1.390  -0.102  1.00  0.00     0.120 C 
HETATM    8  C14 UNL     1       0.609  -1.338  -0.943  1.00  0.00     0.074 A 
HETATM    9  N4  UNL     1       0.241  -2.497  -1.593  1.00  0.00    -0.401 N 
ATOM     10  H4  UNL     1       0.467  -3.176  -2.319  1.00  0.00     0.154 HD
HETATM   11  C15 UNL     1      -0.647  -2.115  -0.589  1.00  0.00     0.118 A 
HETATM   12  C16 UNL     1      -1.430  -0.840  -0.942  1.00  0.00     0.011 C 
HETATM   13  C17 UNL     1      -1.516  -0.594  -2.421  1.00  0.00     0.020 C 
HETATM   14  C23 UNL     1      -0.191  -0.222  -0.384  1.00  0.00     0.061 C 
ENDROOT
BRANCH   1  15
HETATM   15  N2  UNL     1      -0.256   2.096   0.138  1.00  0.00    -0.329 N 
HETATM   16  C4  UNL     1      -0.924   3.255  -0.275  1.00  0.00     0.317 C 
HETATM   17  N1  UNL     1      -1.442   4.207   0.639  1.00  0.00    -0.340 N 
HETATM   18  O1  UNL     1      -1.067   3.453  -1.507  1.00  0.00    -0.247 OA
ATOM     19  H1  UNL     1      -1.317   4.026   1.635  1.00  0.00     0.164 HD
ATOM     20  H2  UNL     1      -0.143   1.941   1.140  1.00  0.00     0.165 HD
BRANCH  17  21
HETATM   21  C3  UNL     1      -2.132   5.411   0.257  1.00  0.00     0.150 C 
BRANCH  21  22
HETATM   22  C2  UNL     1      -1.229   6.282  -0.582  1.00  0.00    -0.018 C 
HETATM   23  C1  UNL     1      -0.912   7.500  -0.189  1.00  0.00     0.008 C 
ENDBRANCH  21  22
ENDBRANCH  17  21
ENDBRANCH   1  15
BRANCH  12  24
HETATM   24  C18 UNL     1      -2.597  -0.512  -0.109  1.00  0.00     0.248 C 
BRANCH  24  25
HETATM   25  N5  UNL     1      -3.676  -1.387  -0.008  1.00  0.00    -0.074 N 
HETATM   26  C19 UNL     1      -3.624  -2.122   1.272  1.00  0.00     0.272 C 
HETATM   27  C20 UNL     1      -4.910  -0.586   0.144  1.00  0.00     0.272 C 
BRANCH  25  28
HETATM   28  C21 UNL     1      -3.919  -2.334  -1.026  1.00  0.00     0.232 C 
HETATM   29  C22 UNL     1      -4.770  -3.518  -0.534  1.00  0.00     0.034 C 
ENDBRANCH  25  28
ENDBRANCH  24  25
ENDBRANCH  12  24
BRANCH   5  30
HETATM   30  C8  UNL     1       4.303  -0.912   1.030  1.00  0.00     0.029 C 
BRANCH  30  31
HETATM   31  C9  UNL     1       5.636  -1.664   0.920  1.00  0.00    -0.021 C 
HETATM   32  C10 UNL     1       6.537  -0.849   0.043  1.00  0.00     0.009 C 
HETATM   33  C11 UNL     1       6.163  -1.836   2.321  1.00  0.00     0.009 C 
ENDBRANCH  30  31
ENDBRANCH   5  30
TORSDOF 8
