REMARK  11 active torsions:
REMARK  status: ('A' for Active; 'I' for Inactive)
REMARK    1  A    between atoms: C2_2  and  C3_3 
REMARK       I    between atoms: C3_3  and  N1_5 
REMARK    2  A    between atoms: N1_5  and  C4_7 
REMARK    3  A    between atoms: C4_7  and  C5_8 
REMARK    4  A    between atoms: C10_13  and  C15_23 
REMARK    5  A    between atoms: C12_15  and  C13_16 
REMARK       I    between atoms: C13_16  and  N2_18 
REMARK    6  A    between atoms: C15_23  and  C16_24 
REMARK    7  A    between atoms: C16_24  and  C17_25 
REMARK    8  A    between atoms: C18_26  and  C19_27 
REMARK    9  A    between atoms: C19_27  and  C20_28 
REMARK   10  A    between atoms: C20_28  and  C21_29 
REMARK   11  A    between atoms: C21_29  and  C22_30 
ROOT
HETATM    1  C5  UNL     1      -1.932  -0.229   0.747  1.00  0.00     0.009 C 
HETATM    2  C6  UNL     1      -1.322  -0.274  -0.583  1.00  0.00     0.021 C 
HETATM    3  C7  UNL     1      -0.081   0.604  -0.585  1.00  0.00    -0.003 C 
HETATM    4  C8  UNL     1       0.006   1.242   0.762  1.00  0.00     0.001 C 
HETATM    5  C9  UNL     1      -0.805   0.345   1.644  1.00  0.00     0.010 C 
HETATM    6  C10 UNL     1       0.065  -0.817   1.982  1.00  0.00     0.002 C 
HETATM    7  C11 UNL     1      -0.651  -2.062   1.537  1.00  0.00     0.021 C 
HETATM    8  C12 UNL     1      -2.069  -1.616   1.383  1.00  0.00     0.092 C 
HETATM    9  C15 UNL     1       1.321  -0.662   1.193  1.00  0.00    -0.017 A 
HETATM   10  C23 UNL     1       1.189  -0.158  -0.244  1.00  0.00     0.005 A 
HETATM   11  C24 UNL     1       1.424   0.755   0.870  1.00  0.00     0.006 A 
ENDROOT
BRANCH   9  12
HETATM   12  C16 UNL     1       2.463  -1.579   1.414  1.00  0.00     0.104 C 
BRANCH  12  13
HETATM   13  C17 UNL     1       3.557  -1.211   0.520  1.00  0.00    -0.106 C 
HETATM   14  C18 UNL     1       4.448  -0.906  -0.221  1.00  0.00    -0.107 C 
BRANCH  14  15
HETATM   15  C19 UNL     1       5.535  -0.533  -1.129  1.00  0.00     0.094 C 
BRANCH  15  16
HETATM   16  C20 UNL     1       5.585   0.975  -1.176  1.00  0.00     0.019 C 
BRANCH  16  17
HETATM   17  C21 UNL     1       5.843   1.495   0.205  1.00  0.00     0.070 C 
BRANCH  17  18
HETATM   18  C22 UNL     1       5.899   2.983   0.196  1.00  0.00     0.231 C 
HETATM   19  O3  UNL     1       5.744   3.572  -0.837  1.00  0.00    -0.307 OA
ENDBRANCH  17  18
ENDBRANCH  16  17
ENDBRANCH  15  16
ENDBRANCH  14  15
ENDBRANCH  12  13
ENDBRANCH   9  12
BRANCH   1  20
HETATM   20  C4  UNL     1      -3.190   0.485   0.987  1.00  0.00     0.074 C 
BRANCH  20  21
HETATM   21  N1  UNL     1      -3.353   1.865   0.808  1.00  0.00    -0.340 N 
HETATM   22  C3  UNL     1      -3.308   2.672  -0.337  1.00  0.00     0.220 C 
HETATM   23  O1  UNL     1      -3.113   2.244  -1.482  1.00  0.00    -0.273 OA
ATOM     24  H1  UNL     1      -3.539   2.377   1.670  1.00  0.00     0.167 HD
BRANCH  22  25
HETATM   25  C2  UNL     1      -3.503   4.166  -0.237  1.00  0.00     0.098 C 
HETATM   26  C1  UNL     1      -3.403   4.752  -1.609  1.00  0.00     0.014 C 
ENDBRANCH  22  25
ENDBRANCH  20  21
ENDBRANCH   1  20
BRANCH   8  27
HETATM   27  C13 UNL     1      -2.944  -2.525   0.663  1.00  0.00     0.229 C 
HETATM   28  O2  UNL     1      -3.973  -2.972   1.285  1.00  0.00    -0.273 OA
HETATM   29  N2  UNL     1      -2.805  -2.990  -0.659  1.00  0.00    -0.303 N 
HETATM   30  C14 UNL     1      -2.911  -4.221  -1.016  1.00  0.00     0.203 C 
ATOM     31  H2  UNL     1      -2.606  -2.302  -1.385  1.00  0.00     0.171 HD
HETATM   32  N3  UNL     1      -2.745  -4.536  -2.387  1.00  0.00    -0.066 NA
HETATM   33  N4  UNL     1      -3.183  -5.284  -0.121  1.00  0.00    -0.066 NA
ENDBRANCH   8  27
TORSDOF 11
