REMARK  7 active torsions:
REMARK  status: ('A' for Active; 'I' for Inactive)
REMARK    1  A    between atoms: N1_2  and  C2_3 
REMARK    2  A    between atoms: C2_3  and  C3_4 
REMARK       I    between atoms: C3_4  and  N2_6 
REMARK    3  A    between atoms: N2_6  and  C4_8 
REMARK    4  A    between atoms: C4_8  and  C5_9 
REMARK    5  A    between atoms: C5_9  and  C6_10 
REMARK       I    between atoms: C6_10  and  N3_12 
REMARK    6  A    between atoms: N3_12  and  C7_14 
REMARK    7  A    between atoms: C7_14  and  C8_15 
ROOT
HETATM    1  C3  UNL     1       2.772  -0.161  -0.945  1.00  0.00     0.244 C 
HETATM    2  O1  UNL     1       2.474  -1.296  -0.523  1.00  0.00    -0.272 OA
HETATM    3  N2  UNL     1       1.766   0.612  -1.590  1.00  0.00    -0.359 N 
ATOM      4  H2  UNL     1       2.003   1.538  -1.946  1.00  0.00     0.162 HD
ENDROOT
BRANCH   3   5
HETATM    5  C4  UNL     1       0.426   0.123  -1.753  1.00  0.00     0.132 C 
BRANCH   5   6
HETATM    6  C5  UNL     1      -0.235  -0.096  -0.432  1.00  0.00     0.122 C 
BRANCH   6   7
HETATM    7  C6  UNL     1      -1.656  -0.603  -0.648  1.00  0.00     0.222 C 
HETATM    8  O2  UNL     1      -1.986  -0.734  -1.823  1.00  0.00    -0.273 OA
HETATM    9  N3  UNL     1      -2.446  -0.871   0.453  1.00  0.00    -0.340 N 
ATOM     10  H3  UNL     1      -1.986  -0.720   1.351  1.00  0.00     0.167 HD
BRANCH   9  11
HETATM   11  C7  UNL     1      -3.765  -1.313   0.546  1.00  0.00     0.073 C 
BRANCH  11  12
HETATM   12  C8  UNL     1      -4.928  -0.484   0.146  1.00  0.00    -0.007 C 
HETATM   13  C9  UNL     1      -5.001   0.813   0.956  1.00  0.00     0.019 C 
HETATM   14  C10 UNL     1      -6.276   1.514   0.582  1.00  0.00    -0.013 C 
HETATM   15  C11 UNL     1      -7.447   0.648   1.004  1.00  0.00     0.009 C 
HETATM   16  C15 UNL     1      -6.360   1.853  -0.872  1.00  0.00     0.009 C 
HETATM   17  C12 UNL     1      -7.393  -0.601   0.186  1.00  0.00    -0.013 C 
HETATM   18  C13 UNL     1      -7.386  -0.355  -1.307  1.00  0.00     0.009 C 
HETATM   19  C17 UNL     1      -6.161  -1.351   0.526  1.00  0.00     0.019 C 
HETATM   20  C14 UNL     1      -6.276   0.563  -1.660  1.00  0.00    -0.013 C 
HETATM   21  C16 UNL     1      -4.941  -0.104  -1.286  1.00  0.00     0.019 C 
ENDBRANCH  11  12
ENDBRANCH   9  11
ENDBRANCH   6   7
ENDBRANCH   5   6
ENDBRANCH   3   5
BRANCH   1  22
HETATM   22  C2  UNL     1       4.134   0.394  -0.792  1.00  0.00     0.351 C 
BRANCH  22  23
HETATM   23  N1  UNL     1       5.081  -0.475  -0.122  1.00  0.00     0.018 N 
HETATM   24  C1  UNL     1       5.002  -1.877  -0.498  1.00  0.00     0.286 C 
HETATM   25  C18 UNL     1       5.063  -0.201   1.268  1.00  0.00     0.280 C 
HETATM   26  N4  UNL     1       4.303  -0.588   2.266  1.00  0.00    -0.365 N 
HETATM   27  N5  UNL     1       6.182   0.627   1.117  1.00  0.00    -0.318 N 
ATOM     28  H42 UNL     1       3.488  -1.191   2.376  1.00  0.00     0.159 HD
ATOM     29  H41 UNL     1       4.290  -0.391   3.267  1.00  0.00     0.159 HD
HETATM   30  C19 UNL     1       7.141   1.600   1.534  1.00  0.00     0.128 C 
HETATM   31  C23 UNL     1       6.382   0.097  -0.218  1.00  0.00     0.303 C 
HETATM   32  C20 UNL     1       8.489   1.386   0.889  1.00  0.00     0.020 C 
HETATM   33  C21 UNL     1       8.750   0.052   0.317  1.00  0.00     0.006 C 
HETATM   34  C22 UNL     1       7.590  -0.797  -0.066  1.00  0.00     0.056 C 
ENDBRANCH  22  23
ENDBRANCH   1  22
TORSDOF 7
