REMARK  10 active torsions:
REMARK  status: ('A' for Active; 'I' for Inactive)
REMARK    1  A    between atoms: C3_3  and  N1_4 
REMARK    2  A    between atoms: N1_4  and  N2_5 
REMARK    3  A    between atoms: C4_8  and  C5_9 
REMARK    4  A    between atoms: C6_10  and  C7_11 
REMARK    5  A    between atoms: C8_12  and  C9_13 
REMARK    6  A    between atoms: C9_13  and  C11_15 
REMARK    7  A    between atoms: C11_15  and  N3_16 
REMARK       I    between atoms: N3_16  and  C12_17 
REMARK    8  A    between atoms: C12_17  and  C13_19 
REMARK    9  A    between atoms: C13_19  and  C14_20 
REMARK   10  A    between atoms: C20_31  and  N6_32 
REMARK       I    between atoms: N6_32  and  C21_34 
ROOT
HETATM    1  C5  UNL     1      -1.327  -0.151   1.620  1.00  0.00    -0.015 C 
HETATM    2  C6  UNL     1      -0.843  -0.525   0.451  1.00  0.00    -0.004 C 
ENDROOT
BRANCH   1   3
HETATM    3  C4  UNL     1      -2.688  -0.494   2.080  1.00  0.00     0.076 C 
HETATM    4  C3  UNL     1      -3.442  -1.284   1.093  1.00  0.00     0.123 C 
HETATM    5  C2  UNL     1      -4.400  -0.718   0.167  1.00  0.00    -0.005 C 
HETATM    6  C1  UNL     1      -5.144  -1.513  -0.625  1.00  0.00     0.024 C 
HETATM    7  C20 UNL     1      -4.576   0.742   0.076  1.00  0.00     0.123 C 
HETATM    8  C18 UNL     1      -3.667   1.446   1.024  1.00  0.00     0.010 C 
HETATM    9  C17 UNL     1      -3.528   0.756   2.355  1.00  0.00     0.022 C 
HETATM   10  C19 UNL     1      -4.033   2.880   1.256  1.00  0.00     0.012 C 
BRANCH   4  11
HETATM   11  N1  UNL     1      -3.237  -2.534   1.057  1.00  0.00    -0.336 NA
BRANCH  11  12
HETATM   12  N2  UNL     1      -2.883  -3.696   0.797  1.00  0.00    -0.280 N 
ATOM     13  H22 UNL     1      -2.346  -3.379  -0.010  1.00  0.00     0.191 HD
ATOM     14  H21 UNL     1      -2.718  -4.702   0.768  1.00  0.00     0.191 HD
ENDBRANCH  11  12
ENDBRANCH   4  11
BRANCH   7  15
HETATM   15  N6  UNL     1      -5.952   1.141   0.197  1.00  0.00    -0.352 N 
HETATM   16  C21 UNL     1      -6.674   1.755  -0.856  1.00  0.00     0.214 C 
HETATM   17  C22 UNL     1      -8.085   2.157  -0.712  1.00  0.00     0.117 C 
HETATM   18  O3  UNL     1      -6.050   1.950  -1.950  1.00  0.00    -0.274 OA
ATOM     19  H6  UNL     1      -6.431   0.974   1.082  1.00  0.00     0.163 HD
ENDBRANCH   7  15
ENDBRANCH   1   3
BRANCH   2  20
HETATM   20  C7  UNL     1       0.490  -0.177   0.023  1.00  0.00    -0.004 C 
HETATM   21  C8  UNL     1       0.924  -0.575  -1.151  1.00  0.00    -0.016 C 
BRANCH  21  22
HETATM   22  C9  UNL     1       2.271  -0.276  -1.688  1.00  0.00     0.056 C 
HETATM   23  C10 UNL     1       2.980  -1.616  -1.866  1.00  0.00     0.021 C 
BRANCH  22  24
HETATM   24  C11 UNL     1       3.090   0.541  -0.734  1.00  0.00     0.167 C 
BRANCH  24  25
HETATM   25  N3  UNL     1       4.178   0.260  -0.357  1.00  0.00    -0.387 NA
HETATM   26  C12 UNL     1       5.379  -0.134   0.004  1.00  0.00     0.296 C 
HETATM   27  O1  UNL     1       5.604  -0.507   1.217  1.00  0.00    -0.257 OA
BRANCH  26  28
HETATM   28  C13 UNL     1       6.526  -0.172  -0.951  1.00  0.00     0.177 C 
BRANCH  28  29
HETATM   29  C14 UNL     1       7.769  -0.647  -0.339  1.00  0.00     0.039 A 
HETATM   30  C15 UNL     1       8.153  -1.976  -0.304  1.00  0.00     0.118 A 
HETATM   31  N4  UNL     1       9.342  -2.067   0.328  1.00  0.00    -0.317 N 
HETATM   32  C16 UNL     1       9.722  -0.845   0.693  1.00  0.00     0.324 A 
ATOM     33  H4  UNL     1       9.862  -2.928   0.497  1.00  0.00     0.170 HD
HETATM   34  O2  UNL     1      10.789  -0.578   1.306  1.00  0.00    -0.247 OA
HETATM   35  N5  UNL     1       8.764   0.014   0.286  1.00  0.00    -0.311 N 
ATOM     36  H5  UNL     1       8.789   1.023   0.431  1.00  0.00     0.170 HD
ENDBRANCH  28  29
ENDBRANCH  26  28
ENDBRANCH  24  25
ENDBRANCH  22  24
ENDBRANCH  21  22
ENDBRANCH   2  20
TORSDOF 10
