REMARK  7 active torsions:
REMARK  status: ('A' for Active; 'I' for Inactive)
REMARK    1  A    between atoms: C2_2  and  C4_4 
REMARK    2  A    between atoms: C4_4  and  C16_24 
REMARK       I    between atoms: N1_5  and  C5_7 
REMARK    3  A    between atoms: C5_7  and  C6_9 
REMARK    4  A    between atoms: C6_9  and  C7_10 
REMARK    5  A    between atoms: C6_9  and  N2_13 
REMARK    6  A    between atoms: C12_16  and  C13_17 
REMARK       I    between atoms: C16_24  and  N5_26 
REMARK    7  A    between atoms: N5_26  and  N6_28 
ROOT
HETATM    1  C4  UNL     1       0.290  -0.405   0.426  1.00  0.00     0.085 C 
HETATM    2  N1  UNL     1      -0.371  -1.490   0.106  1.00  0.00    -0.320 N 
ATOM      3  H1  UNL     1       0.116  -2.192  -0.451  1.00  0.00     0.169 HD
HETATM    4  C5  UNL     1      -1.700  -1.760   0.472  1.00  0.00     0.269 C 
HETATM    5  O1  UNL     1      -1.953  -1.994   1.702  1.00  0.00    -0.266 OA
ENDROOT
BRANCH   1   6
HETATM    6  C2  UNL     1      -0.398   0.625   1.232  1.00  0.00     0.033 C 
HETATM    7  C1  UNL     1      -0.515   1.971   0.588  1.00  0.00     0.016 C 
HETATM    8  C3  UNL     1       0.247   0.783   2.601  1.00  0.00     0.016 C 
ENDBRANCH   1   6
BRANCH   1   9
HETATM    9  C16 UNL     1       1.670  -0.319  -0.050  1.00  0.00     0.288 C 
HETATM   10  O2  UNL     1       2.078  -1.293  -0.712  1.00  0.00    -0.265 OA
HETATM   11  N5  UNL     1       2.506   0.777   0.207  1.00  0.00    -0.178 N 
ATOM     12  H5  UNL     1       2.060   1.508   0.761  1.00  0.00     0.197 HD
BRANCH  11  13
HETATM   13  N6  UNL     1       3.796   1.063  -0.134  1.00  0.00     0.037 N 
HETATM   14  C17 UNL     1       3.837   2.518  -0.490  1.00  0.00     0.304 C 
HETATM   15  C18 UNL     1       4.625   0.889   1.070  1.00  0.00     0.294 C 
HETATM   16  C19 UNL     1       5.452  -0.318   0.689  1.00  0.00     0.269 C 
HETATM   17  N7  UNL     1       5.784   0.018  -0.682  1.00  0.00    -0.047 N 
HETATM   18  C20 UNL     1       6.734   1.079  -0.664  1.00  0.00     0.274 C 
HETATM   19  C21 UNL     1       6.319  -1.117  -1.407  1.00  0.00     0.274 C 
HETATM   20  C22 UNL     1       4.462   0.410  -1.191  1.00  0.00     0.499 C 
ENDBRANCH  11  13
ENDBRANCH   1   9
BRANCH   4  21
HETATM   21  C6  UNL     1      -2.805  -1.785  -0.495  1.00  0.00     0.087 C 
BRANCH  21  22
HETATM   22  C7  UNL     1      -3.167  -3.135  -1.004  1.00  0.00     0.034 C 
HETATM   23  C8  UNL     1      -3.542  -4.173  -0.018  1.00  0.00     0.016 C 
HETATM   24  C9  UNL     1      -2.089  -3.730  -1.928  1.00  0.00     0.016 C 
ENDBRANCH  21  22
BRANCH  21  25
HETATM   25  N2  UNL     1      -3.849  -0.826  -0.289  1.00  0.00    -0.331 N 
HETATM   26  C10 UNL     1      -4.955  -0.993   0.446  1.00  0.00     0.097 A 
HETATM   27  C11 UNL     1      -5.921   0.005   0.612  1.00  0.00     0.032 A 
HETATM   28  C12 UNL     1      -5.787   1.222   0.024  1.00  0.00     0.007 A 
HETATM   29  C14 UNL     1      -4.651   1.415  -0.741  1.00  0.00     0.032 A 
HETATM   30  C15 UNL     1      -3.746   0.417  -0.870  1.00  0.00     0.097 A 
BRANCH  28  31
HETATM   31  C13 UNL     1      -6.714   2.335   0.126  1.00  0.00     0.120 C 
HETATM   32  N3  UNL     1      -7.797   2.304   0.806  1.00  0.00    -0.387 N 
ATOM     33  H32 UNL     1      -7.993   1.428   1.290  1.00  0.00     0.157 HD
ATOM     34  H31 UNL     1      -8.448   3.086   0.878  1.00  0.00     0.157 HD
HETATM   35  N4  UNL     1      -6.438   3.569  -0.556  1.00  0.00    -0.082 NA
ENDBRANCH  28  31
ENDBRANCH  21  25
ENDBRANCH   4  21
TORSDOF 7
