REMARK  5 active torsions:
REMARK  status: ('A' for Active; 'I' for Inactive)
REMARK    1  A    between atoms: C2_3  and  C3_4 
REMARK    2  A    between atoms: C2_3  and  N2_11 
REMARK    3  A    between atoms: C3_4  and  C4_5 
REMARK       I    between atoms: N2_11  and  C10_13 
REMARK    4  A    between atoms: C10_13  and  C11_15 
REMARK    5  A    between atoms: N4_19  and  C13_20 
REMARK       I    between atoms: N5_27  and  C20_29 
ROOT
HETATM    1  N1  UNL     1       4.148   1.938  -2.748  1.00  0.00    -0.195 NA
HETATM    2  C1  UNL     1       3.534   1.052  -2.355  1.00  0.00     0.085 C 
HETATM    3  C2  UNL     1       2.732  -0.104  -1.872  1.00  0.00     0.196 C 
ENDROOT
BRANCH   3   4
HETATM    4  C3  UNL     1       3.632  -1.069  -1.185  1.00  0.00     0.078 C 
BRANCH   4   5
HETATM    5  C4  UNL     1       4.341  -0.502  -0.024  1.00  0.00    -0.055 A 
HETATM    6  C5  UNL     1       5.571   0.102  -0.161  1.00  0.00     0.007 A 
HETATM    7  C6  UNL     1       6.240   0.633   0.921  1.00  0.00     0.001 A 
HETATM    8  C7  UNL     1       5.687   0.570   2.180  1.00  0.00     0.000 A 
HETATM    9  C8  UNL     1       4.458  -0.030   2.338  1.00  0.00     0.001 A 
HETATM   10  C9  UNL     1       3.798  -0.560   1.232  1.00  0.00     0.007 A 
ENDBRANCH   4   5
ENDBRANCH   3   4
BRANCH   3  11
HETATM   11  N2  UNL     1       1.597   0.332  -1.108  1.00  0.00    -0.339 N 
HETATM   12  C10 UNL     1       0.262   0.243  -1.611  1.00  0.00     0.258 C 
HETATM   13  O1  UNL     1       0.126  -0.240  -2.777  1.00  0.00    -0.267 OA
ATOM     14  H2  UNL     1       1.748   0.718  -0.176  1.00  0.00     0.164 HD
BRANCH  12  15
HETATM   15  C11 UNL     1      -0.848   0.697  -0.793  1.00  0.00     0.094 A 
HETATM   16  C12 UNL     1      -0.955   1.991  -0.265  1.00  0.00     0.128 A 
HETATM   17  N3  UNL     1      -2.097   2.034   0.427  1.00  0.00    -0.302 N 
HETATM   18  N4  UNL     1      -2.746   0.894   0.401  1.00  0.00    -0.239 N 
ATOM     19  H3  UNL     1      -2.428   2.862   0.921  1.00  0.00     0.186 HD
HETATM   20  C19 UNL     1      -1.977   0.042  -0.358  1.00  0.00     0.148 A 
HETATM   21  N5  UNL     1      -2.320  -1.148  -0.578  1.00  0.00    -0.295 N 
HETATM   22  C20 UNL     1      -1.802  -2.218  -1.261  1.00  0.00     0.334 C 
ATOM     23  H5  UNL     1      -3.211  -1.375  -0.135  1.00  0.00     0.172 HD
HETATM   24  N6  UNL     1      -2.370  -2.673  -2.483  1.00  0.00    -0.040 NA
HETATM   25  O2  UNL     1      -0.789  -2.845  -0.822  1.00  0.00    -0.251 OA
BRANCH  18  26
HETATM   26  C13 UNL     1      -3.997   0.584   1.020  1.00  0.00     0.058 A 
HETATM   27  C14 UNL     1      -5.153   1.194   0.561  1.00  0.00     0.031 A 
HETATM   28  C15 UNL     1      -6.380   0.919   1.136  1.00  0.00     0.002 A 
HETATM   29  C16 UNL     1      -6.496   0.031   2.184  1.00  0.00     0.000 A 
HETATM   30  C17 UNL     1      -5.352  -0.579   2.646  1.00  0.00     0.002 A 
HETATM   31  C18 UNL     1      -4.137  -0.303   2.071  1.00  0.00     0.031 A 
ENDBRANCH  18  26
ENDBRANCH  12  15
ENDBRANCH   3  11
TORSDOF 5
