REMARK  9 active torsions:
REMARK  status: ('A' for Active; 'I' for Inactive)
REMARK    1  A    between atoms: C2_2  and  O1_3 
REMARK    2  A    between atoms: C2_2  and  N1_5 
REMARK    3  A    between atoms: N1_5  and  C3_6 
REMARK    4  A    between atoms: N1_5  and  C16_28 
REMARK    5  A    between atoms: C3_6  and  C5_8 
REMARK       I    between atoms: C5_8  and  N2_10 
REMARK    6  A    between atoms: N2_10  and  N3_12 
REMARK       I    between atoms: N3_12  and  C6_14 
REMARK       I    between atoms: C6_14  and  N4_16 
REMARK    7  A    between atoms: N4_16  and  C7_18 
REMARK    8  A    between atoms: C10_21  and  C11_22 
REMARK    9  A    between atoms: C11_22  and  N5_23 
ROOT
HETATM    1  N3  UNL     1      -0.514  -1.533  -1.072  1.00  0.00    -0.249 N 
ATOM      2  H3  UNL     1      -0.623  -1.651  -2.079  1.00  0.00     0.192 HD
HETATM    3  C6  UNL     1       0.790  -1.254  -0.509  1.00  0.00     0.339 C 
HETATM    4  O3  UNL     1       0.877  -1.115   0.734  1.00  0.00    -0.245 OA
HETATM    5  N4  UNL     1       1.893  -1.153  -1.369  1.00  0.00    -0.308 N 
ATOM      6  H4  UNL     1       1.696  -1.288  -2.361  1.00  0.00     0.170 HD
ENDROOT
BRANCH   1   7
HETATM    7  N2  UNL     1      -1.613  -1.639  -0.236  1.00  0.00    -0.264 N 
HETATM    8  C5  UNL     1      -2.862  -1.006  -0.449  1.00  0.00     0.258 C 
HETATM    9  O2  UNL     1      -2.988  -0.296  -1.463  1.00  0.00    -0.269 OA
ATOM     10  H2  UNL     1      -1.515  -2.218   0.598  1.00  0.00     0.190 HD
BRANCH   8  11
HETATM   11  C3  UNL     1      -3.967  -1.197   0.515  1.00  0.00     0.176 C 
HETATM   12  C4  UNL     1      -3.478  -1.210   1.932  1.00  0.00     0.042 C 
BRANCH  11  13
HETATM   13  N1  UNL     1      -5.121  -0.365   0.273  1.00  0.00    -0.344 N 
BRANCH  13  14
HETATM   14  C2  UNL     1      -6.290  -0.995  -0.219  1.00  0.00     0.110 C 
HETATM   15  C1  UNL     1      -7.586  -0.394  -0.529  1.00  0.00     0.097 C 
BRANCH  14  16
HETATM   16  O1  UNL     1      -6.164  -2.282  -0.408  1.00  0.00    -0.350 OA
ATOM     17  H1  UNL     1      -5.322  -2.673  -0.207  1.00  0.00     0.219 HD
ENDBRANCH  14  16
ENDBRANCH  13  14
BRANCH  13  18
HETATM   18  C16 UNL     1      -5.161   1.047   0.507  1.00  0.00     0.024 C 
HETATM   19  C17 UNL     1      -5.345   1.836  -0.766  1.00  0.00     0.037 C 
HETATM   20  C18 UNL     1      -6.362   1.370   1.417  1.00  0.00     0.037 C 
HETATM   21  C19 UNL     1      -3.973   1.634   1.216  1.00  0.00     0.037 C 
ENDBRANCH  13  18
ENDBRANCH  11  13
ENDBRANCH   8  11
ENDBRANCH   1   7
BRANCH   5  22
HETATM   22  C7  UNL     1       3.232  -0.891  -1.043  1.00  0.00     0.036 A 
HETATM   23  C8  UNL     1       3.646  -0.489   0.182  1.00  0.00     0.030 A 
HETATM   24  C9  UNL     1       5.013  -0.259   0.451  1.00  0.00     0.011 A 
HETATM   25  C10 UNL     1       5.958  -0.432  -0.505  1.00  0.00    -0.030 A 
HETATM   26  C14 UNL     1       5.550  -0.842  -1.761  1.00  0.00     0.011 A 
HETATM   27  C15 UNL     1       4.221  -1.067  -2.030  1.00  0.00     0.030 A 
BRANCH  25  28
HETATM   28  C11 UNL     1       7.402  -0.208  -0.285  1.00  0.00     0.309 C 
BRANCH  28  29
HETATM   29  N5  UNL     1       7.708   0.579   0.880  1.00  0.00     0.084 N 
HETATM   30  C12 UNL     1       9.172   0.645   0.948  1.00  0.00     0.309 C 
HETATM   31  C13 UNL     1       7.288   1.962   0.652  1.00  0.00     0.309 C 
ENDBRANCH  28  29
ENDBRANCH  25  28
ENDBRANCH   5  22
TORSDOF 9
