REMARK  6 active torsions:
REMARK  status: ('A' for Active; 'I' for Inactive)
REMARK    1  A    between atoms: C2_2  and  N1_3 
REMARK    2  A    between atoms: N1_3  and  C3_4 
REMARK    3  A    between atoms: N1_3  and  C14_26 
REMARK    4  A    between atoms: C3_4  and  O1_5 
REMARK    5  A    between atoms: C3_4  and  C4_7 
REMARK    6  A    between atoms: C7_10  and  N2_11 
REMARK       I    between atoms: N2_11  and  C8_12 
REMARK       I    between atoms: N2_11  and  C10_15 
REMARK       I    between atoms: C10_15  and  N3_17 
REMARK       I    between atoms: N3_17  and  C11_19 
ROOT
HETATM    1  C4  UNL     1       0.616  -0.389   0.163  1.00  0.00     0.015 A 
HETATM    2  C5  UNL     1      -0.025   0.326  -0.797  1.00  0.00     0.018 A 
HETATM    3  C6  UNL     1      -1.386   0.128  -1.021  1.00  0.00     0.031 A 
HETATM    4  C7  UNL     1      -2.124  -0.771  -0.304  1.00  0.00     0.047 A 
HETATM    5  C12 UNL     1      -1.460  -1.478   0.656  1.00  0.00     0.031 A 
HETATM    6  C13 UNL     1      -0.121  -1.305   0.899  1.00  0.00     0.018 A 
ENDROOT
BRANCH   4   7
HETATM    7  N2  UNL     1      -3.551  -0.955  -0.561  1.00  0.00    -0.234 N 
HETATM    8  C8  UNL     1      -3.919  -2.011  -1.427  1.00  0.00     0.228 C 
HETATM    9  C9  UNL     1      -2.871  -2.884  -2.068  1.00  0.00     0.118 C 
HETATM   10  O2  UNL     1      -5.119  -2.256  -1.693  1.00  0.00    -0.273 OA
HETATM   11  C10 UNL     1      -4.456  -0.068   0.045  1.00  0.00     0.336 C 
HETATM   12  O3  UNL     1      -3.961   0.854   0.794  1.00  0.00    -0.246 OA
HETATM   13  N3  UNL     1      -5.850  -0.066  -0.072  1.00  0.00    -0.282 N 
HETATM   14  C11 UNL     1      -6.674   0.905   0.595  1.00  0.00     0.189 C 
ATOM     15  H3  UNL     1      -6.297  -0.778  -0.650  1.00  0.00     0.173 HD
HETATM   16  N4  UNL     1      -7.931   0.891   0.474  1.00  0.00    -0.373 N 
HETATM   17  N5  UNL     1      -6.078   1.912   1.404  1.00  0.00    -0.064 NA
ATOM     18  H42 UNL     1      -8.358   0.169  -0.106  1.00  0.00     0.158 HD
ATOM     19  H41 UNL     1      -8.516   1.580   0.947  1.00  0.00     0.158 HD
ENDBRANCH   4   7
BRANCH   1  20
HETATM   20  C3  UNL     1       2.037  -0.277   0.455  1.00  0.00     0.153 C 
BRANCH  20  21
HETATM   21  N1  UNL     1       3.048   0.482  -0.105  1.00  0.00    -0.328 N 
BRANCH  21  22
HETATM   22  C2  UNL     1       3.094   1.432  -1.158  1.00  0.00     0.127 C 
HETATM   23  C1  UNL     1       2.843   2.861  -0.714  1.00  0.00     0.027 C 
ENDBRANCH  21  22
BRANCH  21  24
HETATM   24  C14 UNL     1       4.373   0.255   0.507  1.00  0.00     0.036 A 
HETATM   25  C15 UNL     1       4.990   1.167   1.288  1.00  0.00     0.029 A 
HETATM   26  C16 UNL     1       6.254   0.884   1.816  1.00  0.00     0.002 A 
HETATM   27  C17 UNL     1       6.879  -0.322   1.547  1.00  0.00     0.000 A 
HETATM   28  C18 UNL     1       6.237  -1.249   0.747  1.00  0.00     0.002 A 
HETATM   29  C19 UNL     1       4.977  -0.947   0.229  1.00  0.00     0.029 A 
ENDBRANCH  21  24
ENDBRANCH  20  21
BRANCH  20  30
HETATM   30  O1  UNL     1       2.448  -1.043   1.438  1.00  0.00    -0.345 OA
ATOM     31  H1  UNL     1       1.753  -1.564   1.823  1.00  0.00     0.219 HD
ENDBRANCH  20  30
ENDBRANCH   1  20
TORSDOF 6
