REMARK  6 active torsions:
REMARK  status: ('A' for Active; 'I' for Inactive)
REMARK    1  A    between atoms: C2_2  and  N1_5 
REMARK    2  A    between atoms: N1_5  and  S1_7 
REMARK    3  A    between atoms: S1_7  and  C5_10 
REMARK    4  A    between atoms: C8_13  and  N2_14 
REMARK    5  A    between atoms: N2_14  and  S2_16 
REMARK    6  A    between atoms: S2_16  and  C9_19 
ROOT
HETATM    1  C5  UNL     1       1.077  -0.762  -0.499  1.00  0.00     0.079 A 
HETATM    2  C6  UNL     1       1.306  -1.304   0.736  1.00  0.00     0.027 A 
HETATM    3  C7  UNL     1       0.323  -1.266   1.725  1.00  0.00     0.031 A 
HETATM    4  C8  UNL     1      -0.917  -0.662   1.448  1.00  0.00     0.042 A 
HETATM    5  C15 UNL     1      -1.133  -0.127   0.224  1.00  0.00     0.031 A 
HETATM    6  C16 UNL     1      -0.133  -0.179  -0.748  1.00  0.00     0.027 A 
ENDROOT
BRANCH   4   7
HETATM    7  N2  UNL     1      -1.898  -0.670   2.454  1.00  0.00    -0.281 N 
ATOM      8  H2  UNL     1      -1.686  -0.227   3.348  1.00  0.00     0.179 HD
BRANCH   7   9
HETATM    9  S2  UNL     1      -3.424  -1.388   2.241  1.00  0.00     0.263 S 
HETATM   10  O3  UNL     1      -3.194  -2.869   1.996  1.00  0.00    -0.200 OA
HETATM   11  O4  UNL     1      -4.179  -1.311   3.573  1.00  0.00    -0.200 OA
BRANCH   9  12
HETATM   12  C9  UNL     1      -4.340  -0.673   0.979  1.00  0.00     0.079 A 
HETATM   13  C10 UNL     1      -4.494  -1.335  -0.228  1.00  0.00     0.025 A 
HETATM   14  C11 UNL     1      -5.240  -0.728  -1.207  1.00  0.00     0.002 A 
HETATM   15  C12 UNL     1      -5.832   0.508  -1.023  1.00  0.00     0.000 A 
HETATM   16  C13 UNL     1      -5.654   1.131   0.192  1.00  0.00     0.002 A 
HETATM   17  C14 UNL     1      -4.921   0.562   1.191  1.00  0.00     0.025 A 
ENDBRANCH   9  12
ENDBRANCH   7   9
ENDBRANCH   4   7
BRANCH   1  18
HETATM   18  S1  UNL     1       2.289  -0.805  -1.732  1.00  0.00     0.259 S 
HETATM   19  O1  UNL     1       3.038  -2.090  -1.559  1.00  0.00    -0.201 OA
HETATM   20  O2  UNL     1       1.539  -0.926  -3.057  1.00  0.00    -0.201 OA
BRANCH  18  21
HETATM   21  N1  UNL     1       3.198   0.578  -1.732  1.00  0.00    -0.307 N 
ATOM     22  H1  UNL     1       3.188   1.162  -2.568  1.00  0.00     0.173 HD
BRANCH  21  23
HETATM   23  C2  UNL     1       3.974   0.986  -0.654  1.00  0.00     0.029 C 
HETATM   24  C1  UNL     1       4.976  -0.136  -0.325  1.00  0.00     0.038 C 
HETATM   25  C3  UNL     1       3.324   1.446   0.592  1.00  0.00     0.038 C 
HETATM   26  C4  UNL     1       4.873   2.133  -1.166  1.00  0.00     0.038 C 
ENDBRANCH  21  23
ENDBRANCH  18  21
ENDBRANCH   1  18
TORSDOF 6
