REMARK  8 active torsions:
REMARK  status: ('A' for Active; 'I' for Inactive)
REMARK    1  A    between atoms: C2_2  and  C3_3 
REMARK    2  A    between atoms: C2_2  and  N1_13 
REMARK    3  A    between atoms: C3_3  and  O1_4 
REMARK    4  A    between atoms: O1_4  and  C4_5 
REMARK    5  A    between atoms: C7_8  and  O2_9 
REMARK    6  A    between atoms: N1_13  and  C10_15 
REMARK    7  A    between atoms: C10_15  and  C11_20 
REMARK    8  A    between atoms: N2_16  and  O3_18 
ROOT
HETATM    1  N1  UNL     1      -1.140  -1.384   0.490  1.00  0.00    -0.372 N 
ATOM      2  H1  UNL     1      -1.728  -2.003   1.048  1.00  0.00     0.161 HD
ENDROOT
BRANCH   1   3
HETATM    3  C2  UNL     1       0.285  -1.247   0.837  1.00  0.00     0.102 C 
HETATM    4  C1  UNL     1       0.530  -2.138   2.040  1.00  0.00     0.034 C 
BRANCH   3   5
HETATM    5  C3  UNL     1       0.476   0.211   1.177  1.00  0.00     0.193 C 
BRANCH   5   6
HETATM    6  O1  UNL     1       1.753   0.501   1.472  1.00  0.00    -0.384 OA
BRANCH   6   7
HETATM    7  C4  UNL     1       2.727   0.349   0.544  1.00  0.00     0.121 C 
HETATM    8  C5  UNL     1       3.289   1.698   0.074  1.00  0.00     0.034 C 
HETATM    9  C6  UNL     1       4.339   1.440  -0.963  1.00  0.00     0.034 C 
HETATM   10  C7  UNL     1       5.469   0.689  -0.273  1.00  0.00     0.118 C 
HETATM   11  C8  UNL     1       4.930  -0.705  -0.036  1.00  0.00     0.034 C 
HETATM   12  C9  UNL     1       3.820  -0.550   1.020  1.00  0.00     0.034 C 
BRANCH  10  13
HETATM   13  O2  UNL     1       6.635   0.692  -1.017  1.00  0.00    -0.396 OA
ATOM     14  H2  UNL     1       7.340   0.223  -0.586  1.00  0.00     0.210 HD
ENDBRANCH  10  13
ENDBRANCH   6   7
ENDBRANCH   5   6
ENDBRANCH   3   5
ENDBRANCH   1   3
BRANCH   1  15
HETATM   15  C10 UNL     1      -1.719  -0.678  -0.601  1.00  0.00     0.102 C 
HETATM   16  N2  UNL     1      -1.064  -0.605  -1.704  1.00  0.00    -0.257 N 
ATOM     17  H2  UNL     1      -0.148  -1.044  -1.794  1.00  0.00     0.195 HD
BRANCH  16  18
HETATM   18  O3  UNL     1      -1.618   0.073  -2.755  1.00  0.00    -0.288 OA
ATOM     19  H3  UNL     1      -1.134   0.127  -3.571  1.00  0.00     0.244 HD
ENDBRANCH  16  18
BRANCH  15  20
HETATM   20  C11 UNL     1      -3.035  -0.046  -0.479  1.00  0.00     0.055 C 
HETATM   21  C12 UNL     1      -4.089  -1.106  -0.147  1.00  0.00     0.012 C 
HETATM   22  C13 UNL     1      -5.429  -0.507  -0.580  1.00  0.00     0.001 C 
HETATM   23  C14 UNL     1      -5.402   0.963  -0.318  1.00  0.00     0.000 C 
HETATM   24  C15 UNL     1      -4.533   1.351   0.841  1.00  0.00     0.001 C 
HETATM   25  C16 UNL     1      -3.098   0.971   0.643  1.00  0.00     0.012 C 
ENDBRANCH  15  20
ENDBRANCH   1  15
TORSDOF 8
