REMARK  7 active torsions:
REMARK  status: ('A' for Active; 'I' for Inactive)
REMARK    1  A    between atoms: C1_2  and  C2_3 
REMARK       I    between atoms: C1_2  and  N3_20 
REMARK    2  A    between atoms: C2_3  and  C3_4 
REMARK    3  A    between atoms: C3_4  and  N1_5 
REMARK    4  A    between atoms: N1_5  and  C4_7 
REMARK    5  A    between atoms: C9_12  and  C10_13 
REMARK    6  A    between atoms: C10_13  and  O2_14 
REMARK    7  A    between atoms: N2_16  and  O3_18 
ROOT
HETATM    1  C4  UNL     1       2.051  -0.013   0.110  1.00  0.00     0.088 C 
HETATM    2  C5  UNL     1       2.488   1.265  -0.552  1.00  0.00     0.025 C 
HETATM    3  C6  UNL     1       3.006   2.134   0.583  1.00  0.00     0.002 C 
HETATM    4  C7  UNL     1       4.365   1.532   0.955  1.00  0.00     0.001 C 
HETATM    5  C8  UNL     1       4.280   0.095   1.297  1.00  0.00     0.015 C 
HETATM    6  C9  UNL     1       3.333  -0.727   0.508  1.00  0.00     0.084 C 
ENDROOT
BRANCH   1   7
HETATM    7  N1  UNL     1       1.304  -0.875  -0.764  1.00  0.00    -0.416 N 
ATOM      8  H1  UNL     1       1.631  -1.806  -1.022  1.00  0.00     0.153 HD
BRANCH   7   9
HETATM    9  C3  UNL     1       0.081  -0.342  -1.243  1.00  0.00     0.123 C 
BRANCH   9  10
HETATM   10  C2  UNL     1      -0.988  -0.169  -0.190  1.00  0.00     0.122 C 
BRANCH  10  11
HETATM   11  C1  UNL     1      -2.238   0.406  -0.806  1.00  0.00     0.221 C 
HETATM   12  O1  UNL     1      -2.240   0.689  -2.031  1.00  0.00    -0.273 OA
HETATM   13  N3  UNL     1      -3.403   0.635  -0.051  1.00  0.00    -0.352 N 
HETATM   14  C11 UNL     1      -3.448   0.318   1.372  1.00  0.00     0.125 C 
HETATM   15  C15 UNL     1      -4.566   1.191  -0.691  1.00  0.00     0.125 C 
HETATM   16  C12 UNL     1      -4.450  -0.807   1.534  1.00  0.00     0.020 C 
HETATM   17  C13 UNL     1      -5.320  -0.978   0.318  1.00  0.00     0.003 C 
HETATM   18  C14 UNL     1      -5.768   0.339  -0.287  1.00  0.00     0.020 C 
ENDBRANCH  10  11
ENDBRANCH   9  10
ENDBRANCH   7   9
ENDBRANCH   1   7
BRANCH   6  19
HETATM   19  C10 UNL     1       3.953  -1.414  -0.647  1.00  0.00     0.141 C 
HETATM   20  N2  UNL     1       5.129  -1.091  -1.057  1.00  0.00    -0.251 N 
ATOM     21  H2  UNL     1       5.634  -0.349  -0.572  1.00  0.00     0.196 HD
BRANCH  19  22
HETATM   22  O2  UNL     1       3.285  -2.419  -1.316  1.00  0.00    -0.348 OA
ATOM     23  H2  UNL     1       3.683  -2.860  -2.057  1.00  0.00     0.219 HD
ENDBRANCH  19  22
BRANCH  20  24
HETATM   24  O3  UNL     1       5.724  -1.709  -2.121  1.00  0.00    -0.288 OA
ATOM     25  H3  UNL     1       6.592  -1.471  -2.424  1.00  0.00     0.244 HD
ENDBRANCH  20  24
ENDBRANCH   6  19
TORSDOF 7
