REMARK  9 active torsions:
REMARK  status: ('A' for Active; 'I' for Inactive)
REMARK    1  A    between atoms: C2_2  and  C3_3 
REMARK    2  A    between atoms: C3_3  and  C4_4 
REMARK    3  A    between atoms: C10_11  and  C11_12 
REMARK    4  A    between atoms: C11_12  and  C12_13 
REMARK    5  A    between atoms: C12_13  and  C13_14 
REMARK    6  A    between atoms: C13_14  and  O2_16 
REMARK    7  A    between atoms: C13_14  and  C15_18 
REMARK    8  A    between atoms: C15_18  and  N1_19 
REMARK    9  A    between atoms: C17_24  and  O3_25 
ROOT
HETATM    1  C4  UNL     1       2.922   0.088  -0.659  1.00  0.00     0.151 C 
HETATM    2  O1  UNL     1       1.775  -0.371  -1.212  1.00  0.00    -0.378 OA
HETATM    3  C5  UNL     1       1.274  -1.583  -0.910  1.00  0.00     0.127 C 
HETATM    4  C6  UNL     1       1.689  -2.187   0.414  1.00  0.00     0.039 C 
HETATM    5  C7  UNL     1       1.915  -0.956   1.305  1.00  0.00     0.020 C 
HETATM    6  C8  UNL     1       0.762   0.015   1.146  1.00  0.00     0.012 C 
HETATM    7  C9  UNL     1      -0.440  -0.552   0.489  1.00  0.00    -0.003 A 
HETATM    8  C10 UNL     1      -0.839  -0.053  -0.900  1.00  0.00    -0.003 A 
HETATM    9  C16 UNL     1      -0.244  -1.371  -0.723  1.00  0.00     0.023 A 
HETATM   10  C17 UNL     1       3.219  -0.369   0.739  1.00  0.00     0.151 C 
ENDROOT
BRANCH   8  11
HETATM   11  C11 UNL     1      -2.322  -0.013  -1.216  1.00  0.00     0.008 C 
BRANCH  11  12
HETATM   12  C12 UNL     1      -3.060   0.902  -0.252  1.00  0.00     0.039 C 
BRANCH  12  13
HETATM   13  C13 UNL     1      -4.529   0.914  -0.601  1.00  0.00     0.078 C 
HETATM   14  C14 UNL     1      -5.281   1.822   0.351  1.00  0.00     0.047 C 
BRANCH  13  15
HETATM   15  O2  UNL     1      -4.723   1.413  -1.882  1.00  0.00    -0.389 OA
ATOM     16  H2  UNL     1      -5.647   1.421  -2.102  1.00  0.00     0.210 HD
ENDBRANCH  13  15
BRANCH  13  17
HETATM   17  C15 UNL     1      -5.153  -0.442  -0.529  1.00  0.00     0.266 C 
BRANCH  17  18
HETATM   18  N1  UNL     1      -5.004  -1.053   0.779  1.00  0.00    -0.076 N 
ATOM     19  H13 UNL     1      -4.024  -1.084   1.060  1.00  0.00     0.274 HD
ATOM     20  H12 UNL     1      -5.365  -0.443   1.512  1.00  0.00     0.274 HD
ATOM     21  H11 UNL     1      -5.430  -1.979   0.828  1.00  0.00     0.274 HD
ENDBRANCH  17  18
ENDBRANCH  13  17
ENDBRANCH  12  13
ENDBRANCH  11  12
ENDBRANCH   8  11
BRANCH  10  22
HETATM   22  O3  UNL     1       4.087  -1.457   0.666  1.00  0.00    -0.393 OA
ATOM     23  H3  UNL     1       4.275  -1.746   1.551  1.00  0.00     0.210 HD
ENDBRANCH  10  22
BRANCH   1  24
HETATM   24  C3  UNL     1       4.106  -0.009  -1.602  1.00  0.00     0.034 C 
BRANCH  24  25
HETATM   25  C2  UNL     1       5.388   0.497  -1.048  1.00  0.00    -0.002 C 
HETATM   26  C1  UNL     1       5.338   1.957  -0.654  1.00  0.00     0.005 C 
ENDBRANCH  24  25
ENDBRANCH   1  24
TORSDOF 9
