REMARK  8 active torsions:
REMARK  status: ('A' for Active; 'I' for Inactive)
REMARK    1  A    between atoms: C2_2  and  C4_4 
REMARK    2  A    between atoms: C4_4  and  O1_5 
REMARK    3  A    between atoms: C4_4  and  C5_7 
REMARK    4  A    between atoms: C5_7  and  C6_8 
REMARK    5  A    between atoms: C5_7  and  C7_10 
REMARK    6  A    between atoms: C7_10  and  O2_11 
REMARK    7  A    between atoms: C7_10  and  N1_13 
REMARK    8  A    between atoms: N1_13  and  C8_16 
ROOT
HETATM    1  N1  UNL     1       0.076   0.580   0.400  1.00  0.00    -0.043 N 
ATOM      2  H11 UNL     1       0.381   1.543   0.541  1.00  0.00     0.280 HD
ATOM      3  H12 UNL     1      -0.227   0.361   1.349  1.00  0.00     0.280 HD
ENDROOT
BRANCH   1   4
HETATM    4  C7  UNL     1       1.192  -0.267  -0.000  1.00  0.00     0.330 C 
BRANCH   4   5
HETATM    5  C5  UNL     1       2.320  -0.088   0.975  1.00  0.00     0.109 C 
BRANCH   5   6
HETATM    6  C4  UNL     1       3.511  -0.886   0.735  1.00  0.00     0.057 C 
BRANCH   6   7
HETATM    7  C2  UNL     1       4.507  -0.889  -0.278  1.00  0.00    -0.042 C 
HETATM    8  C1  UNL     1       5.502  -1.801  -0.160  1.00  0.00     0.021 C 
HETATM    9  C3  UNL     1       4.599  -0.035  -1.462  1.00  0.00     0.050 C 
ENDBRANCH   6   7
BRANCH   6  10
HETATM   10  O1  UNL     1       3.701  -1.804   1.668  1.00  0.00    -0.364 OA
ATOM     11  H1  UNL     1       3.035  -1.802   2.345  1.00  0.00     0.217 HD
ENDBRANCH   6  10
ENDBRANCH   5   6
BRANCH   5  12
HETATM   12  C6  UNL     1       2.664   1.367   1.187  1.00  0.00     0.101 C 
HETATM   13  S1  UNL     1       3.778   1.495   2.619  1.00  0.00    -0.097 SA
ENDBRANCH   5  12
ENDBRANCH   4   5
BRANCH   4  14
HETATM   14  O2  UNL     1       1.538   0.049  -1.270  1.00  0.00    -0.369 OA
ATOM     15  H2  UNL     1       0.824  -0.064  -1.887  1.00  0.00     0.212 HD
ENDBRANCH   4  14
ENDBRANCH   1   4
BRANCH   1  16
HETATM   16  C8  UNL     1      -1.016   0.519  -0.510  1.00  0.00     0.197 C 
HETATM   17  C9  UNL     1      -1.637  -0.860  -0.606  1.00  0.00     0.017 C 
HETATM   18  C10 UNL     1      -2.728  -0.830  -1.657  1.00  0.00     0.011 C 
HETATM   19  C14 UNL     1      -2.257  -1.290   0.685  1.00  0.00     0.011 C 
HETATM   20  C11 UNL     1      -3.813   0.105  -1.239  1.00  0.00    -0.013 C 
HETATM   21  C12 UNL     1      -4.389  -0.263   0.117  1.00  0.00     0.009 C 
HETATM   22  C17 UNL     1      -3.229   1.499  -1.117  1.00  0.00     0.011 C 
HETATM   23  C13 UNL     1      -3.249  -0.256   1.130  1.00  0.00    -0.013 C 
HETATM   24  C15 UNL     1      -2.644   1.127   1.219  1.00  0.00     0.011 C 
HETATM   25  C16 UNL     1      -2.083   1.502  -0.110  1.00  0.00     0.017 C 
ENDBRANCH   1  16
TORSDOF 8
