REMARK  8 active torsions:
REMARK  status: ('A' for Active; 'I' for Inactive)
REMARK    1  A    between atoms: O1_1  and  C1_3 
REMARK    2  A    between atoms: C1_3  and  N1_4 
REMARK    3  A    between atoms: C1_3  and  N4_18 
REMARK    4  A    between atoms: N1_4  and  N2_5 
REMARK    5  A    between atoms: C2_7  and  C3_8 
REMARK    6  A    between atoms: C2_7  and  C8_15 
REMARK    7  A    between atoms: N4_18  and  N5_20 
REMARK    8  A    between atoms: N5_20  and  C11_22 
ROOT
HETATM    1  N1  UNL     1      -0.168   0.417   0.200  1.00  0.00    -0.278 NA
ENDROOT
BRANCH   1   2
HETATM    2  C1  UNL     1       0.958  -0.282   0.360  1.00  0.00     0.333 C 
BRANCH   2   3
HETATM    3  O1  UNL     1       1.637  -0.475   1.452  1.00  0.00    -0.319 OA
ATOM      4  H1  UNL     1       2.438  -0.972   1.566  1.00  0.00     0.222 HD
ENDBRANCH   2   3
BRANCH   2   5
HETATM    5  N4  UNL     1       1.599  -0.952  -0.768  1.00  0.00    -0.251 N 
ATOM      6  H4  UNL     1       1.180  -0.903  -1.697  1.00  0.00     0.191 HD
BRANCH   5   7
HETATM    7  N5  UNL     1       2.772  -1.652  -0.575  1.00  0.00    -0.297 N 
ATOM      8  H5  UNL     1       2.768  -2.670  -0.631  1.00  0.00     0.187 HD
BRANCH   7   9
HETATM    9  C11 UNL     1       3.977  -0.973  -0.301  1.00  0.00     0.048 A 
HETATM   10  C12 UNL     1       4.045   0.394  -0.254  1.00  0.00     0.031 A 
HETATM   11  C13 UNL     1       5.235   1.046   0.029  1.00  0.00     0.002 A 
HETATM   12  C14 UNL     1       6.371   0.297   0.268  1.00  0.00     0.000 A 
HETATM   13  C15 UNL     1       6.331  -1.105   0.228  1.00  0.00     0.002 A 
HETATM   14  C16 UNL     1       5.130  -1.685  -0.057  1.00  0.00     0.031 A 
ENDBRANCH   7   9
ENDBRANCH   5   7
ENDBRANCH   2   5
ENDBRANCH   1   2
BRANCH   1  15
HETATM   15  N2  UNL     1      -1.266   1.099   0.047  1.00  0.00    -0.233 N 
HETATM   16  C2  UNL     1      -2.504   0.968   0.073  1.00  0.00     0.069 C 
ATOM     17  H2  UNL     1      -1.034   2.069  -0.166  1.00  0.00     0.202 HD
BRANCH  16  18
HETATM   18  C3  UNL     1      -3.162  -0.295   0.350  1.00  0.00     0.057 A 
HETATM   19  C4  UNL     1      -4.550  -0.439   0.437  1.00  0.00     0.031 A 
HETATM   20  C5  UNL     1      -5.145  -1.645   0.698  1.00  0.00     0.004 A 
HETATM   21  C6  UNL     1      -4.382  -2.760   0.886  1.00  0.00     0.017 A 
HETATM   22  C7  UNL     1      -2.991  -2.626   0.803  1.00  0.00     0.088 A 
HETATM   23  N3  UNL     1      -2.476  -1.435   0.547  1.00  0.00    -0.364 N 
ATOM     24  H3  UNL     1      -1.459  -1.375   0.494  1.00  0.00     0.165 HD
ENDBRANCH  16  18
BRANCH  16  25
HETATM   25  C8  UNL     1      -3.319   2.198  -0.223  1.00  0.00     0.040 A 
HETATM   26  C9  UNL     1      -2.608   3.485  -0.472  1.00  0.00     0.011 A 
HETATM   27  C10 UNL     1      -3.233   2.738  -1.641  1.00  0.00     0.011 A 
ENDBRANCH  16  25
ENDBRANCH   1  15
TORSDOF 8
