REMARK  0 active torsions:
REMARK  status: ('A' for Active; 'I' for Inactive)
ROOT
HETATM    1  N1  UNL     1      -0.493  -3.336  -0.508  1.00  0.00    -0.397 N 
ATOM      2  H11 UNL     1      -1.475  -3.140  -0.315  1.00  0.00     0.156 HD
ATOM      3  H12 UNL     1      -0.130  -4.261  -0.737  1.00  0.00     0.156 HD
HETATM    4  C1  UNL     1       0.330  -2.354  -0.458  1.00  0.00     0.093 C 
HETATM    5  C2  UNL     1       1.729  -2.633  -0.733  1.00  0.00     0.306 C 
HETATM    6  O1  UNL     1       2.224  -3.798  -0.663  1.00  0.00    -0.258 OA
HETATM    7  O2  UNL     1       2.526  -1.527  -1.090  1.00  0.00    -0.311 OA
HETATM    8  C3  UNL     1       1.772  -0.345  -1.383  1.00  0.00     0.137 C 
HETATM    9  C4  UNL     1       2.596   0.742  -1.970  1.00  0.00     0.033 C 
HETATM   10  C5  UNL     1       4.046   0.715  -1.550  1.00  0.00     0.002 C 
HETATM   11  C6  UNL     1       4.373   1.742  -0.508  1.00  0.00     0.000 C 
HETATM   12  C7  UNL     1       3.287   1.905   0.530  1.00  0.00     0.000 C 
HETATM   13  C8  UNL     1       2.989   0.553   1.102  1.00  0.00     0.001 C 
HETATM   14  C9  UNL     1       1.551   0.183   1.073  1.00  0.00     0.008 C 
HETATM   15  C10 UNL     1       0.908   0.053  -0.234  1.00  0.00     0.035 C 
HETATM   16  C11 UNL     1      -0.199  -1.006  -0.124  1.00  0.00     0.077 C 
HETATM   17  C12 UNL     1      -0.764  -1.079   1.268  1.00  0.00     0.024 C 
HETATM   18  C13 UNL     1      -2.265  -1.343   1.083  1.00  0.00     0.024 C 
HETATM   19  C14 UNL     1      -2.557  -0.416  -0.082  1.00  0.00     0.086 C 
HETATM   20  C15 UNL     1      -2.642   0.977   0.498  1.00  0.00     0.030 C 
HETATM   21  C16 UNL     1      -3.396   1.920  -0.418  1.00  0.00     0.081 C 
HETATM   22  C17 UNL     1      -4.795   1.452  -0.513  1.00  0.00     0.152 C 
HETATM   23  O3  UNL     1      -5.673   2.273  -0.642  1.00  0.00    -0.296 OA
HETATM   24  C18 UNL     1      -5.074  -0.010  -0.445  1.00  0.00     0.222 C 
HETATM   25 CL1  UNL     1      -5.741  -0.473   1.134  1.00  0.00    -0.109 Cl
HETATM   26  C19 UNL     1      -3.823  -0.738  -0.755  1.00  0.00     0.166 C 
HETATM   27  O4  UNL     1      -3.870  -1.617  -1.588  1.00  0.00    -0.295 OA
HETATM   28  C20 UNL     1      -1.362  -0.611  -0.966  1.00  0.00     0.258 A 
HETATM   29  O5  UNL     1      -1.518  -1.435  -2.105  1.00  0.00    -0.192 OA
HETATM   30  O6  UNL     1      -1.327  -0.063  -2.155  1.00  0.00    -0.192 OA
ENDROOT
TORSDOF 0
