REMARK  2 active torsions:
REMARK  status: ('A' for Active; 'I' for Inactive)
REMARK       I    between atoms: C1_2  and  N1_4 
REMARK    1  A    between atoms: C7_10  and  N2_11 
REMARK       I    between atoms: N2_11  and  C8_13 
REMARK    2  A    between atoms: C8_13  and  C9_15 
ROOT
HETATM    1  N2  UNL     1       0.531  -0.206   0.128  1.00  0.00    -0.356 N 
ATOM      2  H2  UNL     1       0.456  -0.690   1.023  1.00  0.00     0.162 HD
HETATM    3  C8  UNL     1      -0.660   0.062  -0.618  1.00  0.00     0.227 C 
HETATM    4  O3  UNL     1      -0.523   0.654  -1.703  1.00  0.00    -0.273 OA
ENDROOT
BRANCH   1   5
HETATM    5  C7  UNL     1       1.853   0.194  -0.355  1.00  0.00     0.088 C 
HETATM    6  C6  UNL     1       2.434   1.136   0.687  1.00  0.00     0.050 C 
HETATM    7  C5  UNL     1       3.904   1.348   0.392  1.00  0.00     0.092 C 
HETATM    8  N1  UNL     1       4.566   0.078   0.618  1.00  0.00    -0.317 N 
HETATM    9  C4  UNL     1       4.121   1.553  -1.093  1.00  0.00     0.028 C 
HETATM   10  C1  UNL     1       5.412  -0.284   1.700  1.00  0.00     0.286 C 
HETATM   11  C2  UNL     1       4.170  -0.749  -0.515  1.00  0.00     0.092 C 
HETATM   12  O1  UNL     1       5.928  -1.414   1.788  1.00  0.00    -0.630 OA
HETATM   13  O2  UNL     1       5.656   0.669   2.677  1.00  0.00    -0.630 OA
HETATM   14  C3  UNL     1       4.436   0.189  -1.672  1.00  0.00     0.028 C 
HETATM   15  C19 UNL     1       2.707  -1.047  -0.481  1.00  0.00     0.050 C 
ENDBRANCH   1   5
BRANCH   3  16
HETATM   16  C9  UNL     1      -1.926  -0.393  -0.021  1.00  0.00     0.045 C 
HETATM   17  C10 UNL     1      -1.937  -1.898   0.159  1.00  0.00     0.020 C 
HETATM   18  C11 UNL     1      -3.330  -2.383  -0.387  1.00  0.00     0.006 C 
HETATM   19  C12 UNL     1      -4.023  -1.164  -0.058  1.00  0.00    -0.009 C 
HETATM   20  C13 UNL     1      -5.278  -0.564  -0.072  1.00  0.00     0.005 C 
HETATM   21  C17 UNL     1      -3.117  -0.291  -0.940  1.00  0.00     0.008 C 
HETATM   22  C14 UNL     1      -5.027   0.727   0.784  1.00  0.00     0.005 C 
HETATM   23  C15 UNL     1      -3.642   1.247   0.603  1.00  0.00    -0.013 C 
HETATM   24  C16 UNL     1      -3.451   1.142  -0.926  1.00  0.00     0.011 C 
HETATM   25  C18 UNL     1      -2.454   0.482   1.077  1.00  0.00     0.024 C 
ENDBRANCH   3  16
TORSDOF 2
