REMARK  4 active torsions:
REMARK  status: ('A' for Active; 'I' for Inactive)
REMARK    1  A    between atoms: C2_2  and  C3_3 
REMARK       I    between atoms: C3_3  and  N1_5 
REMARK    2  A    between atoms: C4_7  and  C5_9 
REMARK    3  A    between atoms: C6_10  and  C7_11 
REMARK    4  A    between atoms: C17_22  and  O3_23 
ROOT
HETATM    1  C7  UNL     1      -0.584  -0.020  -0.457  1.00  0.00    -0.012 C 
HETATM    2  C8  UNL     1      -1.004  -0.271  -1.921  1.00  0.00     0.021 C 
HETATM    3  C9  UNL     1      -0.957  -1.156   0.400  1.00  0.00     0.014 C 
HETATM    4  C10 UNL     1      -0.596  -2.495  -0.212  1.00  0.00     0.014 C 
HETATM    5  C11 UNL     1      -1.871  -3.001  -0.897  1.00  0.00     0.079 C 
HETATM    6  C12 UNL     1      -2.979  -2.272  -0.254  1.00  0.00     0.135 C 
HETATM    7  O2  UNL     1      -4.136  -2.370  -0.526  1.00  0.00    -0.297 OA
HETATM    8  C13 UNL     1      -2.352  -1.419   0.773  1.00  0.00     0.021 C 
HETATM    9  C14 UNL     1      -2.259  -2.366   2.008  1.00  0.00     0.024 C 
HETATM   10  C15 UNL     1      -3.248  -0.344   1.196  1.00  0.00     0.020 C 
HETATM   11  C16 UNL     1      -3.542   0.624   0.126  1.00  0.00     0.034 C 
HETATM   12  C17 UNL     1      -2.543   1.567  -0.329  1.00  0.00     0.127 C 
HETATM   13  C18 UNL     1      -1.091   1.313  -0.096  1.00  0.00    -0.011 C 
HETATM   14  C19 UNL     1      -0.382   2.369  -0.927  1.00  0.00     0.018 C 
HETATM   15  C20 UNL     1      -0.698   1.642   1.355  1.00  0.00     0.018 C 
ENDROOT
BRANCH   1  16
HETATM   16  C6  UNL     1       0.896   0.086  -0.488  1.00  0.00    -0.013 C 
HETATM   17  C5  UNL     1       1.729   0.037   0.514  1.00  0.00     0.042 C 
BRANCH  17  18
HETATM   18  C4  UNL     1       3.174   0.151   0.382  1.00  0.00     0.118 C 
HETATM   19  N1  UNL     1       3.964   0.097   1.397  1.00  0.00    -0.312 N 
HETATM   20  C3  UNL     1       5.349   0.211   1.230  1.00  0.00     0.245 C 
ATOM     21  H1  UNL     1       3.577  -0.030   2.332  1.00  0.00     0.170 HD
HETATM   22  O1  UNL     1       6.068  -0.806   1.380  1.00  0.00    -0.268 OA
HETATM   23  N2  UNL     1       3.679   0.330  -0.954  1.00  0.00    -0.083 NA
BRANCH  20  24
HETATM   24  C2  UNL     1       5.927   1.502   0.888  1.00  0.00     0.064 C 
HETATM   25  C1  UNL     1       7.216   1.629   0.728  1.00  0.00     0.017 C 
ENDBRANCH  20  24
ENDBRANCH  17  18
ENDBRANCH   1  16
BRANCH  12  26
HETATM   26  O3  UNL     1      -2.734   1.826  -1.699  1.00  0.00    -0.395 OA
ATOM     27  H3  UNL     1      -2.078   2.445  -1.998  1.00  0.00     0.210 HD
ENDBRANCH  12  26
TORSDOF 4
