REMARK  4 active torsions:
REMARK  status: ('A' for Active; 'I' for Inactive)
REMARK    1  A    between atoms: C4_4  and  N1_5 
REMARK       I    between atoms: N1_5  and  C5_7 
REMARK    2  A    between atoms: C5_7  and  C6_9 
REMARK    3  A    between atoms: C6_9  and  C7_10 
REMARK    4  A    between atoms: C12_15  and  C14_17 
ROOT
HETATM    1  N1  UNL     1       2.120  -1.202   0.115  1.00  0.00    -0.312 N 
ATOM      2  H1  UNL     1       1.850  -2.016   0.668  1.00  0.00     0.170 HD
HETATM    3  C5  UNL     1       1.193  -0.610  -0.782  1.00  0.00     0.223 C 
HETATM    4  O1  UNL     1       1.229  -0.946  -2.018  1.00  0.00    -0.273 OA
ENDROOT
BRANCH   3   5
HETATM    5  C6  UNL     1       0.218   0.372  -0.253  1.00  0.00     0.108 C 
BRANCH   5   6
HETATM    6  C7  UNL     1      -1.196  -0.010  -0.565  1.00  0.00     0.003 C 
HETATM    7  C8  UNL     1      -2.115   1.045  -0.002  1.00  0.00     0.012 C 
HETATM    8  C9  UNL     1      -3.316   0.413   0.597  1.00  0.00     0.009 C 
HETATM    9  C10 UNL     1      -3.159  -1.047   0.356  1.00  0.00     0.000 C 
HETATM   10  C12 UNL     1      -4.520   0.390  -0.327  1.00  0.00     0.049 C 
HETATM   11  C11 UNL     1      -3.975  -0.884  -0.926  1.00  0.00     0.026 C 
HETATM   12  C15 UNL     1      -1.683  -1.260   0.072  1.00  0.00    -0.040 C 
HETATM   13  C16 UNL     1      -1.621  -2.386  -0.950  1.00  0.00     0.015 C 
HETATM   14  C17 UNL     1      -1.005  -1.704   1.308  1.00  0.00     0.015 C 
HETATM   15  C13 UNL     1      -5.820   0.163   0.420  1.00  0.00     0.027 C 
BRANCH  10  16
HETATM   16  C14 UNL     1      -4.523   1.567  -1.218  1.00  0.00     0.181 C 
HETATM   17  O2  UNL     1      -4.455   1.488  -2.471  1.00  0.00    -0.647 OA
HETATM   18  O3  UNL     1      -4.607   2.834  -0.620  1.00  0.00    -0.647 OA
ENDBRANCH  10  16
ENDBRANCH   5   6
ENDBRANCH   3   5
BRANCH   1  19
HETATM   19  C4  UNL     1       3.300  -0.708   0.227  1.00  0.00     0.122 A 
HETATM   20  C3  UNL     1       3.709   0.386  -0.493  1.00  0.00     0.058 A 
HETATM   21  C2  UNL     1       5.002   0.851  -0.309  1.00  0.00    -0.035 A 
HETATM   22  C1  UNL     1       5.510   2.027  -1.060  1.00  0.00     0.050 C 
HETATM   23  C18 UNL     1       5.845   0.227   0.573  1.00  0.00     0.028 A 
HETATM   24  N3  UNL     1       5.375  -0.845   1.247  1.00  0.00    -0.303 N 
HETATM   25  C19 UNL     1       7.231   0.669   0.821  1.00  0.00     0.070 C 
HETATM   26  N2  UNL     1       4.152  -1.313   1.096  1.00  0.00    -0.285 N 
ATOM     27  H3  UNL     1       5.997  -1.315   1.905  1.00  0.00     0.186 HD
ATOM     28  H2  UNL     1       3.846  -2.127   1.630  1.00  0.00     0.188 HD
ENDBRANCH   1  19
TORSDOF 4
