REMARK  4 active torsions:
REMARK  status: ('A' for Active; 'I' for Inactive)
REMARK    1  A    between atoms: C2_2  and  O1_3 
REMARK    2  A    between atoms: O1_3  and  C3_4 
REMARK       I    between atoms: C3_4  and  N1_6 
REMARK    3  A    between atoms: C6_9  and  N2_10 
REMARK       I    between atoms: N2_10  and  C7_12 
REMARK       I    between atoms: C7_12  and  N3_14 
REMARK    4  A    between atoms: N3_14  and  C8_16 
ROOT
HETATM    1  N2  UNL     1       0.099  -1.104  -1.637  1.00  0.00    -0.338 N 
ATOM      2  H2  UNL     1      -0.160  -1.702  -2.422  1.00  0.00     0.164 HD
HETATM    3  C7  UNL     1      -0.957  -0.516  -0.887  1.00  0.00     0.317 C 
HETATM    4  O3  UNL     1      -0.700   0.241   0.083  1.00  0.00    -0.247 OA
HETATM    5  N3  UNL     1      -2.320  -0.741  -1.181  1.00  0.00    -0.334 N 
ATOM      6  H3  UNL     1      -2.530  -1.358  -1.965  1.00  0.00     0.165 HD
ENDROOT
BRANCH   1   7
HETATM    7  C6  UNL     1       1.494  -0.926  -1.381  1.00  0.00     0.089 C 
HETATM    8  C5  UNL     1       1.776  -1.248   0.073  1.00  0.00     0.045 C 
HETATM    9  C4  UNL     1       2.573  -0.181   0.780  1.00  0.00     0.130 C 
HETATM   10  N1  UNL     1       3.671   0.183  -0.084  1.00  0.00    -0.328 N 
HETATM   11  C3  UNL     1       4.996  -0.033   0.358  1.00  0.00     0.362 C 
HETATM   12  C18 UNL     1       3.363   0.746  -1.360  1.00  0.00     0.130 C 
HETATM   13  O2  UNL     1       5.207  -0.549   1.508  1.00  0.00    -0.238 OA
HETATM   14  C17 UNL     1       1.952   0.430  -1.810  1.00  0.00     0.045 C 
BRANCH  11  15
HETATM   15  O1  UNL     1       6.111   0.285  -0.391  1.00  0.00    -0.304 OA
BRANCH  15  16
HETATM   16  C2  UNL     1       7.393   0.025   0.146  1.00  0.00     0.176 C 
HETATM   17  C1  UNL     1       7.541   0.794   1.422  1.00  0.00     0.034 C 
ENDBRANCH  15  16
ENDBRANCH  11  15
ENDBRANCH   1   7
BRANCH   5  18
HETATM   18  C8  UNL     1      -3.425  -0.185  -0.483  1.00  0.00     0.039 C 
HETATM   19  C9  UNL     1      -3.480   1.333  -0.502  1.00  0.00     0.036 C 
HETATM   20  C10 UNL     1      -4.403   1.579   0.702  1.00  0.00    -0.011 C 
HETATM   21  C11 UNL     1      -5.740   0.947   0.509  1.00  0.00     0.009 C 
HETATM   22  C15 UNL     1      -3.636   0.760   1.752  1.00  0.00     0.012 C 
HETATM   23  C12 UNL     1      -5.653  -0.513   0.147  1.00  0.00    -0.011 C 
HETATM   24  C13 UNL     1      -4.805  -1.281   1.166  1.00  0.00     0.012 C 
HETATM   25  C16 UNL     1      -4.765  -0.642  -1.077  1.00  0.00     0.036 C 
HETATM   26  C14 UNL     1      -3.470  -0.543   0.983  1.00  0.00     0.014 C 
ENDBRANCH   5  18
TORSDOF 4
