REMARK  9 active torsions:
REMARK  status: ('A' for Active; 'I' for Inactive)
REMARK    1  A    between atoms: C2_2  and  C3_3 
REMARK    2  A    between atoms: C3_3  and  C6_6 
REMARK    3  A    between atoms: C7_7  and  C8_8 
REMARK    4  A    between atoms: C11_11  and  O1_12 
REMARK    5  A    between atoms: C15_17  and  C16_18 
REMARK    6  A    between atoms: C16_18  and  C18_20 
REMARK    7  A    between atoms: C18_20  and  C19_21 
REMARK    8  A    between atoms: C19_21  and  C20_22 
REMARK    9  A    between atoms: C20_22  and  C21_23 
ROOT
HETATM    1  C8  UNL     1      -1.622  -0.495  -1.360  1.00  0.00     0.074 C 
HETATM    2  C9  UNL     1      -2.626  -1.440  -2.044  1.00  0.00     0.020 C 
HETATM    3  C10 UNL     1      -3.046  -2.565  -1.160  1.00  0.00     0.033 C 
HETATM    4  C11 UNL     1      -1.854  -3.345  -0.631  1.00  0.00     0.123 C 
HETATM    5  C12 UNL     1      -0.626  -2.661  -1.138  1.00  0.00     0.024 C 
HETATM    6  C13 UNL     1       0.661  -3.318  -0.830  1.00  0.00     0.008 C 
HETATM    7  C14 UNL     1       1.559  -2.139  -0.422  1.00  0.00     0.006 C 
HETATM    8  C15 UNL     1       0.869  -0.933  -1.015  1.00  0.00    -0.001 C 
HETATM    9  C24 UNL     1      -0.543  -1.203  -0.618  1.00  0.00    -0.020 C 
HETATM   10  C25 UNL     1      -0.787  -1.310   0.854  1.00  0.00     0.017 C 
ENDROOT
BRANCH   8  11
HETATM   11  C16 UNL     1       1.531   0.318  -0.904  1.00  0.00    -0.014 C 
HETATM   12  C17 UNL     1       0.849   1.543  -1.497  1.00  0.00     0.010 C 
BRANCH  11  13
HETATM   13  C18 UNL     1       2.223   0.809   0.325  1.00  0.00     0.005 C 
BRANCH  13  14
HETATM   14  C19 UNL     1       3.391   0.036   0.830  1.00  0.00     0.001 C 
BRANCH  14  15
HETATM   15  C20 UNL     1       4.568  -0.104  -0.046  1.00  0.00     0.004 C 
BRANCH  15  16
HETATM   16  C21 UNL     1       5.374   1.070  -0.415  1.00  0.00    -0.023 C 
HETATM   17  C22 UNL     1       4.784   2.198  -1.151  1.00  0.00     0.009 C 
HETATM   18  C23 UNL     1       6.112   1.664   0.795  1.00  0.00     0.009 C 
ENDBRANCH  15  16
ENDBRANCH  14  15
ENDBRANCH  13  14
ENDBRANCH  11  13
ENDBRANCH   8  11
BRANCH   1  19
HETATM   19  C7  UNL     1      -2.472   0.270  -0.406  1.00  0.00    -0.100 C 
HETATM   20  C6  UNL     1      -3.157   0.911   0.356  1.00  0.00    -0.093 C 
BRANCH  20  21
HETATM   21  C3  UNL     1      -3.972   1.683   1.294  1.00  0.00     0.033 C 
HETATM   22  C4  UNL     1      -3.090   2.742   1.915  1.00  0.00     0.033 C 
HETATM   23  C5  UNL     1      -4.502   0.808   2.398  1.00  0.00     0.033 C 
BRANCH  21  24
HETATM   24  C2  UNL     1      -5.102   2.347   0.621  1.00  0.00    -0.015 C 
HETATM   25  C1  UNL     1      -5.815   3.263   1.226  1.00  0.00     0.008 C 
ENDBRANCH  21  24
ENDBRANCH  20  21
ENDBRANCH   1  19
BRANCH   4  26
HETATM   26  O1  UNL     1      -1.894  -4.610  -1.197  1.00  0.00    -0.395 OA
ATOM     27  H1  UNL     1      -1.149  -5.098  -0.866  1.00  0.00     0.210 HD
ENDBRANCH   4  26
TORSDOF 9
