REMARK  6 active torsions:
REMARK  status: ('A' for Active; 'I' for Inactive)
REMARK    1  A    between atoms: C2_2  and  C3_3 
REMARK    2  A    between atoms: C3_3  and  C4_4 
REMARK    3  A    between atoms: C4_4  and  C5_5 
REMARK    4  A    between atoms: C5_5  and  C6_6 
REMARK    5  A    between atoms: C6_6  and  C8_8 
REMARK    6  A    between atoms: C17_17  and  N1_18 
ROOT
HETATM    1  C8  UNL     1      -1.236  -0.421   0.153  1.00  0.00    -0.003 C 
HETATM    2  C9  UNL     1      -0.533  -1.712  -0.248  1.00  0.00     0.006 C 
HETATM    3  C10 UNL     1       0.595  -1.535  -1.219  1.00  0.00     0.006 C 
HETATM    4  C11 UNL     1       1.510  -0.396  -0.975  1.00  0.00    -0.005 C 
HETATM    5  C12 UNL     1       1.016   0.436   0.205  1.00  0.00    -0.002 C 
HETATM    6  C13 UNL     1       1.876   1.596   0.505  1.00  0.00     0.006 C 
HETATM    7  C14 UNL     1       3.307   1.457   0.013  1.00  0.00     0.012 C 
HETATM    8  C15 UNL     1       3.729   0.048   0.156  1.00  0.00    -0.020 C 
HETATM    9  C16 UNL     1       3.532  -0.564   1.503  1.00  0.00     0.018 C 
HETATM   10  C17 UNL     1       5.103  -0.317  -0.298  1.00  0.00     0.084 C 
HETATM   11  C19 UNL     1       4.924  -1.822  -0.597  1.00  0.00     0.026 C 
HETATM   12  C20 UNL     1       3.441  -2.050  -0.806  1.00  0.00     0.008 C 
HETATM   13  C21 UNL     1       2.942  -0.678  -0.959  1.00  0.00     0.000 C 
HETATM   14  C22 UNL     1      -0.458   0.803  -0.098  1.00  0.00    -0.040 C 
HETATM   15  C23 UNL     1      -0.823   1.865   0.949  1.00  0.00     0.015 C 
HETATM   16  C24 UNL     1      -0.503   1.430  -1.435  1.00  0.00     0.015 C 
ENDROOT
BRANCH   1  17
HETATM   17  C6  UNL     1      -2.649  -0.521  -0.323  1.00  0.00    -0.014 C 
HETATM   18  C7  UNL     1      -3.210  -1.789   0.269  1.00  0.00     0.010 C 
BRANCH  17  19
HETATM   19  C5  UNL     1      -3.549   0.615  -0.073  1.00  0.00     0.005 C 
BRANCH  19  20
HETATM   20  C4  UNL     1      -4.910   0.583  -0.624  1.00  0.00     0.000 C 
BRANCH  20  21
HETATM   21  C3  UNL     1      -5.945  -0.346  -0.177  1.00  0.00    -0.000 C 
BRANCH  21  22
HETATM   22  C2  UNL     1      -6.423  -0.188   1.253  1.00  0.00    -0.005 C 
HETATM   23  C1  UNL     1      -7.010   1.209   1.443  1.00  0.00     0.005 C 
ENDBRANCH  21  22
ENDBRANCH  20  21
ENDBRANCH  19  20
ENDBRANCH  17  19
ENDBRANCH   1  17
BRANCH  10  24
HETATM   24  N1  UNL     1       6.101  -0.128   0.691  1.00  0.00    -0.420 N 
HETATM   25  C18 UNL     1       6.348   1.172   1.163  1.00  0.00     0.140 C 
ATOM     26  H1  UNL     1       6.630  -0.921   1.053  1.00  0.00     0.153 HD
ENDBRANCH  10  24
TORSDOF 6
