REMARK  6 active torsions:
REMARK  status: ('A' for Active; 'I' for Inactive)
REMARK    1  A    between atoms: C16_16  and  C17_17 
REMARK    2  A    between atoms: C17_17  and  C18_18 
REMARK    3  A    between atoms: C18_18  and  C19_19 
REMARK    4  A    between atoms: C19_19  and  C20_20 
REMARK    5  A    between atoms: C20_20  and  C21_21 
REMARK    6  A    between atoms: C21_21  and  N1_22 
ROOT
HETATM    1  C1  UNL     1      -4.370  -0.511   2.023  1.00  0.00     0.015 C 
HETATM    2  C2  UNL     1      -4.006   0.564   0.987  1.00  0.00    -0.043 C 
HETATM    3  C3  UNL     1      -3.508   1.741   1.700  1.00  0.00     0.015 C 
HETATM    4  C4  UNL     1      -5.329   0.946   0.305  1.00  0.00     0.009 C 
HETATM    5  C5  UNL     1      -5.486   0.309  -1.040  1.00  0.00     0.002 C 
HETATM    6  C6  UNL     1      -4.406   0.586  -2.026  1.00  0.00     0.010 C 
HETATM    7  C7  UNL     1      -3.041   0.655  -1.324  1.00  0.00    -0.039 C 
HETATM    8  C8  UNL     1      -2.683   2.093  -1.283  1.00  0.00     0.015 C 
HETATM    9  C9  UNL     1      -1.975  -0.116  -2.039  1.00  0.00     0.015 C 
HETATM   10  C10 UNL     1      -1.354  -1.074  -1.062  1.00  0.00    -0.004 C 
HETATM   11  C11 UNL     1      -1.884  -0.700   0.325  1.00  0.00    -0.004 C 
HETATM   12  C12 UNL     1      -0.910   0.069   1.104  1.00  0.00     0.006 C 
HETATM   13  C13 UNL     1       0.306  -0.799   1.348  1.00  0.00     0.014 C 
HETATM   14  C14 UNL     1       0.784  -1.554   0.145  1.00  0.00    -0.017 C 
HETATM   15  C15 UNL     1       0.690  -3.062   0.365  1.00  0.00     0.020 C 
HETATM   16  C16 UNL     1       2.199  -1.149  -0.085  1.00  0.00    -0.075 C 
HETATM   17  C22 UNL     1       2.270  -0.323  -1.091  1.00  0.00    -0.023 C 
HETATM   18  C23 UNL     1       0.903  -0.093  -1.632  1.00  0.00     0.033 C 
HETATM   19  C24 UNL     1       0.100  -1.236  -1.134  1.00  0.00     0.006 C 
HETATM   20  C25 UNL     1      -3.178  -0.076  -0.039  1.00  0.00     0.006 C 
ENDROOT
BRANCH  16  21
HETATM   21  C17 UNL     1       3.281  -1.661   0.785  1.00  0.00     0.034 C 
BRANCH  21  22
HETATM   22  C18 UNL     1       4.647  -1.188   0.583  1.00  0.00     0.004 C 
BRANCH  22  23
HETATM   23  C19 UNL     1       4.967   0.239   0.796  1.00  0.00     0.002 C 
BRANCH  23  24
HETATM   24  C20 UNL     1       6.468   0.406   0.499  1.00  0.00     0.027 C 
BRANCH  24  25
HETATM   25  C21 UNL     1       6.856   1.877   0.705  1.00  0.00     0.229 C 
BRANCH  25  26
HETATM   26  N1  UNL     1       8.249   2.079   0.438  1.00  0.00    -0.079 N 
ATOM     27  H13 UNL     1       8.834   1.454   0.992  1.00  0.00     0.274 HD
ATOM     28  H12 UNL     1       8.507   1.748  -0.492  1.00  0.00     0.274 HD
ATOM     29  H11 UNL     1       8.507   3.056   0.575  1.00  0.00     0.274 HD
ENDBRANCH  25  26
ENDBRANCH  24  25
ENDBRANCH  23  24
ENDBRANCH  22  23
ENDBRANCH  21  22
ENDBRANCH  16  21
TORSDOF 6
