REMARK  7 active torsions:
REMARK  status: ('A' for Active; 'I' for Inactive)
REMARK    1  A    between atoms: C2_2  and  C3_3 
REMARK    2  A    between atoms: C3_3  and  C4_4 
REMARK    3  A    between atoms: C4_4  and  C5_5 
REMARK    4  A    between atoms: C5_5  and  C6_6 
REMARK    5  A    between atoms: C6_6  and  C7_7 
REMARK    6  A    between atoms: C7_7  and  C8_8 
REMARK    7  A    between atoms: C17_17  and  O1_18 
ROOT
HETATM    1  C8  UNL     1       1.537   1.267   0.969  1.00  0.00    -0.006 C 
HETATM    2  C9  UNL     1       1.287   0.050   1.773  1.00  0.00     0.006 C 
HETATM    3  C10 UNL     1       0.256  -0.797   1.058  1.00  0.00     0.006 C 
HETATM    4  C11 UNL     1      -0.114  -0.044  -0.176  1.00  0.00    -0.002 C 
HETATM    5  C12 UNL     1      -1.587  -0.188  -0.432  1.00  0.00    -0.005 C 
HETATM    6  C13 UNL     1      -1.955  -1.627  -0.549  1.00  0.00     0.006 C 
HETATM    7  C14 UNL     1      -3.349  -1.990  -0.258  1.00  0.00     0.012 C 
HETATM    8  C15 UNL     1      -4.186  -1.094   0.542  1.00  0.00    -0.014 C 
HETATM    9  C16 UNL     1      -4.253  -1.596   1.986  1.00  0.00     0.018 C 
HETATM   10  C17 UNL     1      -5.624  -1.009   0.067  1.00  0.00     0.126 C 
HETATM   11  C18 UNL     1      -5.900   0.441  -0.272  1.00  0.00     0.033 C 
HETATM   12  C19 UNL     1      -4.501   0.953  -0.554  1.00  0.00     0.008 C 
HETATM   13  C20 UNL     1      -3.762   0.340   0.619  1.00  0.00     0.001 C 
HETATM   14  C21 UNL     1      -2.304   0.571   0.619  1.00  0.00    -0.005 C 
HETATM   15  C22 UNL     1      -2.027   2.042   0.329  1.00  0.00     0.006 C 
HETATM   16  C23 UNL     1      -0.601   2.393   0.327  1.00  0.00     0.010 C 
HETATM   17  C24 UNL     1       0.399   1.353  -0.059  1.00  0.00    -0.036 C 
HETATM   18  C25 UNL     1       0.905   1.727  -1.435  1.00  0.00     0.016 C 
ENDROOT
BRANCH   1  19
HETATM   19  C7  UNL     1       2.874   1.586   0.504  1.00  0.00     0.005 C 
BRANCH  19  20
HETATM   20  C6  UNL     1       3.682   0.756  -0.390  1.00  0.00     0.000 C 
BRANCH  20  21
HETATM   21  C5  UNL     1       4.043  -0.634   0.042  1.00  0.00     0.000 C 
BRANCH  21  22
HETATM   22  C4  UNL     1       4.915  -1.344  -0.986  1.00  0.00     0.004 C 
BRANCH  22  23
HETATM   23  C3  UNL     1       6.207  -0.623  -1.227  1.00  0.00     0.026 C 
BRANCH  23  24
HETATM   24  C2  UNL     1       6.975  -0.506   0.037  1.00  0.00    -0.037 C 
HETATM   25  C1  UNL     1       8.174  -1.060   0.114  1.00  0.00     0.007 C 
ENDBRANCH  23  24
ENDBRANCH  22  23
ENDBRANCH  21  22
ENDBRANCH  20  21
ENDBRANCH  19  20
ENDBRANCH   1  19
BRANCH  10  26
HETATM   26  O1  UNL     1      -5.842  -1.731  -1.103  1.00  0.00    -0.395 OA
ATOM     27  H1  UNL     1      -6.743  -1.678  -1.401  1.00  0.00     0.210 HD
ENDBRANCH  10  26
TORSDOF 7
