REMARK  8 active torsions:
REMARK  status: ('A' for Active; 'I' for Inactive)
REMARK    1  A    between atoms: C2_2  and  C4_4 
REMARK    2  A    between atoms: C4_4  and  C5_5 
REMARK    3  A    between atoms: C5_5  and  C6_6 
REMARK    4  A    between atoms: C6_6  and  C7_7 
REMARK    5  A    between atoms: C7_7  and  C8_8 
REMARK    6  A    between atoms: C8_8  and  C9_9 
REMARK    7  A    between atoms: C9_9  and  C11_11 
REMARK    8  A    between atoms: C13_13  and  O1_14 
ROOT
HETATM    1  C11 UNL     1      -0.357   0.934  -1.149  1.00  0.00    -0.008 C 
HETATM    2  C12 UNL     1      -0.798   2.108  -0.344  1.00  0.00     0.037 C 
HETATM    3  C13 UNL     1      -1.981   1.660   0.485  1.00  0.00     0.127 C 
HETATM    4  C14 UNL     1      -2.407   0.305  -0.006  1.00  0.00    -0.013 C 
HETATM    5  C15 UNL     1      -3.247   0.268  -1.206  1.00  0.00     0.017 C 
HETATM    6  C16 UNL     1      -4.707   0.306  -1.129  1.00  0.00    -0.013 C 
HETATM    7  C17 UNL     1      -5.297   1.723  -1.294  1.00  0.00     0.010 C 
HETATM    8  C18 UNL     1      -5.420  -0.320  -0.044  1.00  0.00    -0.002 C 
HETATM    9  C19 UNL     1      -4.955  -1.631   0.491  1.00  0.00    -0.005 C 
HETATM   10  C20 UNL     1      -6.143  -1.982   1.392  1.00  0.00     0.006 C 
HETATM   11  C21 UNL     1      -6.346  -0.601   2.052  1.00  0.00     0.006 C 
HETATM   12  C22 UNL     1      -5.193   0.157   1.352  1.00  0.00    -0.005 C 
HETATM   13  C23 UNL     1      -4.127  -0.838   1.474  1.00  0.00    -0.005 C 
HETATM   14  C24 UNL     1      -2.754  -0.595   1.112  1.00  0.00     0.017 C 
HETATM   15  C25 UNL     1      -1.012  -0.213  -0.458  1.00  0.00     0.017 C 
ENDROOT
BRANCH   1  16
HETATM   16  C9  UNL     1       1.164   0.853  -1.037  1.00  0.00    -0.014 C 
HETATM   17  C10 UNL     1       1.709   2.164  -1.503  1.00  0.00     0.010 C 
BRANCH  16  18
HETATM   18  C8  UNL     1       1.695  -0.318  -1.830  1.00  0.00     0.004 C 
BRANCH  18  19
HETATM   19  C7  UNL     1       3.178  -0.439  -1.754  1.00  0.00     0.000 C 
BRANCH  19  20
HETATM   20  C6  UNL     1       3.669  -0.635  -0.316  1.00  0.00     0.000 C 
BRANCH  20  21
HETATM   21  C5  UNL     1       5.190  -0.750  -0.324  1.00  0.00     0.000 C 
BRANCH  21  22
HETATM   22  C4  UNL     1       5.642  -0.942   1.109  1.00  0.00     0.004 C 
BRANCH  22  23
HETATM   23  C2  UNL     1       7.149  -1.065   1.177  1.00  0.00    -0.023 C 
HETATM   24  C1  UNL     1       7.558  -2.278   0.336  1.00  0.00     0.009 C 
HETATM   25  C3  UNL     1       7.757   0.201   0.603  1.00  0.00     0.009 C 
ENDBRANCH  22  23
ENDBRANCH  21  22
ENDBRANCH  20  21
ENDBRANCH  19  20
ENDBRANCH  18  19
ENDBRANCH  16  18
ENDBRANCH   1  16
BRANCH   3  26
HETATM   26  O1  UNL     1      -2.897   2.659   0.447  1.00  0.00    -0.395 OA
ATOM     27  H1  UNL     1      -3.640   2.378   0.968  1.00  0.00     0.210 HD
ENDBRANCH   3  26
TORSDOF 8
