REMARK  7 active torsions:
REMARK  status: ('A' for Active; 'I' for Inactive)
REMARK    1  A    between atoms: C2_2  and  C3_3 
REMARK    2  A    between atoms: C3_3  and  C4_4 
REMARK    3  A    between atoms: C4_4  and  C5_5 
REMARK    4  A    between atoms: C5_5  and  C6_6 
REMARK    5  A    between atoms: C6_6  and  N1_7 
REMARK    6  A    between atoms: C12_13  and  C13_14 
REMARK    7  A    between atoms: C18_19  and  O1_20 
ROOT
HETATM    1  N1  UNL     1       1.491  -0.457   0.016  1.00  0.00    -0.067 N 
HETATM    2  C7  UNL     1       1.955   0.670  -0.718  1.00  0.00     0.238 C 
HETATM    3  C8  UNL     1       0.972   1.209  -1.735  1.00  0.00     0.033 C 
HETATM    4  C9  UNL     1      -0.176   0.178  -1.792  1.00  0.00    -0.005 C 
HETATM    5  C10 UNL     1       0.536  -1.129  -2.044  1.00  0.00     0.033 C 
HETATM    6  C11 UNL     1       1.316  -1.618  -0.840  1.00  0.00     0.238 C 
HETATM    7  C12 UNL     1      -0.834   0.276  -0.459  1.00  0.00     0.025 C 
HETATM    8  C23 UNL     1       0.125  -0.152   0.557  1.00  0.00     0.243 C 
ENDROOT
BRANCH   7   9
HETATM    9  C13 UNL     1      -2.263  -0.167  -0.404  1.00  0.00    -0.028 C 
HETATM   10  C14 UNL     1      -2.450  -1.616  -0.877  1.00  0.00     0.016 C 
HETATM   11  C15 UNL     1      -2.967   0.620  -1.501  1.00  0.00    -0.007 C 
HETATM   12  C16 UNL     1      -2.721   2.064  -1.514  1.00  0.00     0.011 C 
HETATM   13  C17 UNL     1      -4.489   0.419  -1.414  1.00  0.00     0.037 C 
HETATM   14  C18 UNL     1      -4.846   1.167  -0.147  1.00  0.00     0.119 C 
HETATM   15  C19 UNL     1      -4.366   0.304   0.954  1.00  0.00     0.041 C 
HETATM   16  C20 UNL     1      -2.913  -0.108   0.920  1.00  0.00    -0.037 C 
HETATM   17  C21 UNL     1      -2.214   0.801   1.940  1.00  0.00     0.015 C 
HETATM   18  C22 UNL     1      -2.970  -1.468   1.641  1.00  0.00     0.015 C 
BRANCH  14  19
HETATM   19  O1  UNL     1      -6.258   1.162  -0.090  1.00  0.00    -0.396 OA
ATOM     20  H1  UNL     1      -6.482   1.631   0.705  1.00  0.00     0.210 HD
ENDBRANCH  14  19
ENDBRANCH   7   9
BRANCH   1  21
HETATM   21  C6  UNL     1       2.269  -0.746   1.182  1.00  0.00     0.237 C 
BRANCH  21  22
HETATM   22  C5  UNL     1       3.343  -1.719   1.110  1.00  0.00     0.028 C 
BRANCH  22  23
HETATM   23  C4  UNL     1       4.626  -1.555   0.403  1.00  0.00     0.002 C 
BRANCH  23  24
HETATM   24  C3  UNL     1       5.648  -0.641   0.909  1.00  0.00    -0.000 C 
BRANCH  24  25
HETATM   25  C2  UNL     1       5.562   0.801   1.014  1.00  0.00    -0.005 C 
HETATM   26  C1  UNL     1       5.460   1.614  -0.228  1.00  0.00     0.005 C 
ENDBRANCH  24  25
ENDBRANCH  23  24
ENDBRANCH  22  23
ENDBRANCH  21  22
ENDBRANCH   1  21
TORSDOF 7
