REMARK  5 active torsions:
REMARK  status: ('A' for Active; 'I' for Inactive)
REMARK       I    between atoms: N1_2  and  C2_4 
REMARK       I    between atoms: C2_4  and  N2_6 
REMARK       I    between atoms: N2_6  and  C3_7 
REMARK       I    between atoms: C3_7  and  N4_9 
REMARK    1  A    between atoms: C4_11  and  C5_12 
REMARK    2  A    between atoms: C4_11  and  N5_14 
REMARK    3  A    between atoms: N5_14  and  C6_16 
REMARK    4  A    between atoms: N6_18  and  C7_20 
REMARK    5  A    between atoms: C7_20  and  C8_21 
ROOT
HETATM    1  C1  UNL     1       5.565  -1.380   0.085  1.00  0.00     0.152 C 
HETATM    2  N1  UNL     1       4.227  -0.821  -0.050  1.00  0.00    -0.335 N 
ATOM      3  H1  UNL     1       3.424  -1.333   0.315  1.00  0.00     0.164 HD
HETATM    4  C2  UNL     1       4.032   0.450  -0.695  1.00  0.00     0.396 C 
HETATM    5  O1  UNL     1       5.129   1.000  -1.119  1.00  0.00    -0.230 OA
HETATM    6  N2  UNL     1       2.831   0.991  -0.822  1.00  0.00    -0.319 NA
HETATM    7  C3  UNL     1       1.756   1.441  -0.932  1.00  0.00     0.273 C 
HETATM    8  N3  UNL     1       1.592   2.891  -1.117  1.00  0.00    -0.049 NA
HETATM    9  N4  UNL     1       0.475   0.769  -0.897  1.00  0.00    -0.307 N 
ATOM     10  H4  UNL     1      -0.100   0.832  -1.737  1.00  0.00     0.171 HD
HETATM   11  C4  UNL     1       0.005   0.122   0.056  1.00  0.00     0.096 C 
ENDROOT
BRANCH  11  12
HETATM   12  C5  UNL     1       0.640  -0.121   1.362  1.00  0.00     0.161 C 
HETATM   13 BR1  UNL     1       0.637  -1.978   1.879  1.00  0.00    -0.088 Br
ENDBRANCH  11  12
BRANCH  11  14
HETATM   14  N5  UNL     1      -1.371  -0.369  -0.100  1.00  0.00    -0.322 N 
ATOM     15  H5  UNL     1      -1.563  -1.325  -0.401  1.00  0.00     0.169 HD
BRANCH  14  16
HETATM   16  C6  UNL     1      -2.412   0.531   0.182  1.00  0.00     0.173 C 
HETATM   17  S1  UNL     1      -1.953   2.074   0.623  1.00  0.00    -0.041 SA
HETATM   18  N6  UNL     1      -3.750   0.273   0.108  1.00  0.00    -0.366 N 
ATOM     19  H6  UNL     1      -4.381   1.034   0.358  1.00  0.00     0.161 HD
BRANCH  18  20
HETATM   20  C7  UNL     1      -4.349  -0.959  -0.286  1.00  0.00     0.133 C 
BRANCH  20  21
HETATM   21  C8  UNL     1      -5.853  -0.955  -0.016  1.00  0.00     0.104 C 
HETATM   22 BR2  UNL     1      -6.774   0.434  -0.954  1.00  0.00    -0.095 Br
ENDBRANCH  20  21
ENDBRANCH  18  20
ENDBRANCH  14  16
ENDBRANCH  11  14
TORSDOF 5
