REMARK  4 active torsions:
REMARK  status: ('A' for Active; 'I' for Inactive)
REMARK       I    between atoms: C3_3  and  N1_5 
REMARK    1  A    between atoms: N1_5  and  C4_7 
REMARK    2  A    between atoms: C5_8  and  C6_10 
REMARK    3  A    between atoms: C6_10  and  N3_14 
REMARK    4  A    between atoms: N3_14  and  C7_16 
ROOT
HETATM    1  C1  UNL     1       4.068   2.890  -0.820  1.00  0.00     0.022 C 
HETATM    2  C2  UNL     1       4.077   1.775  -0.337  1.00  0.00    -0.016 C 
HETATM    3  C3  UNL     1       4.082   0.473   0.252  1.00  0.00     0.299 C 
HETATM    4  O1  UNL     1       5.088   0.072   0.864  1.00  0.00    -0.258 OA
HETATM    5  N1  UNL     1       2.888  -0.328   0.104  1.00  0.00    -0.325 N 
ATOM      6  H1  UNL     1       2.092   0.053  -0.408  1.00  0.00     0.169 HD
ENDROOT
BRANCH   5   7
HETATM    7  C4  UNL     1       2.800  -1.615   0.648  1.00  0.00     0.115 C 
HETATM    8  C5  UNL     1       1.801  -2.410   0.581  1.00  0.00     0.069 C 
HETATM    9 BR1  UNL     1       2.092  -4.132   1.481  1.00  0.00    -0.046 Br
BRANCH   8  10
HETATM   10  C6  UNL     1       0.497  -2.269  -0.026  1.00  0.00     0.114 C 
HETATM   11  N2  UNL     1      -0.350  -3.279   0.056  1.00  0.00    -0.385 N 
ATOM     12  H22 UNL     1       0.011  -4.093   0.553  1.00  0.00     0.157 HD
ATOM     13  H21 UNL     1      -1.270  -3.179  -0.372  1.00  0.00     0.157 HD
BRANCH  10  14
HETATM   14  N3  UNL     1      -0.003  -1.141  -0.715  1.00  0.00    -0.370 N 
ATOM     15  H3  UNL     1       0.362  -0.968  -1.652  1.00  0.00     0.161 HD
BRANCH  14  16
HETATM   16  C7  UNL     1      -0.971  -0.226  -0.215  1.00  0.00     0.100 C 
HETATM   17  C8  UNL     1      -2.328  -0.780   0.078  1.00  0.00     0.052 C 
HETATM   18  C9  UNL     1      -3.235   0.444   0.131  1.00  0.00     0.100 A 
HETATM   19  N4  UNL     1      -3.114   1.194   1.362  1.00  0.00    -0.355 N 
HETATM   20  C11 UNL     1      -2.532   1.526  -0.652  1.00  0.00     0.117 A 
HETATM   21  C10 UNL     1      -2.535   2.265   0.635  1.00  0.00     0.225 A 
ATOM     22  H4  UNL     1      -3.347   1.024   2.340  1.00  0.00     0.162 HD
HETATM   23  O2  UNL     1      -2.152   3.423   0.927  1.00  0.00    -0.273 OA
HETATM   24  C12 UNL     1      -1.183   0.997  -1.074  1.00  0.00     0.095 C 
HETATM   25 BR2  UNL     1      -1.101   0.613  -2.946  1.00  0.00    -0.088 Br
ENDBRANCH  14  16
ENDBRANCH  10  14
ENDBRANCH   8  10
ENDBRANCH   5   7
TORSDOF 4
