REMARK  4 active torsions:
REMARK  status: ('A' for Active; 'I' for Inactive)
REMARK    1  A    between atoms: C2_2  and  N1_5 
REMARK       I    between atoms: C4_7  and  N3_9 
REMARK       I    between atoms: C5_11  and  N5_13 
REMARK    2  A    between atoms: N5_13  and  C8_16 
REMARK    3  A    between atoms: C8_16  and  C9_17 
REMARK       I    between atoms: C9_17  and  N6_19 
REMARK    4  A    between atoms: N6_19  and  C10_21 
REMARK       I    between atoms: N7_23  and  C11_25 
ROOT
HETATM    1  N1  UNL     1      -3.367   0.399  -0.077  1.00  0.00    -0.343 N 
ATOM      2  H1  UNL     1      -3.663  -0.571   0.029  1.00  0.00     0.164 HD
HETATM    3  C4  UNL     1      -2.171   0.719   0.238  1.00  0.00     0.192 C 
HETATM    4  N2  UNL     1      -1.727   2.053   0.103  1.00  0.00    -0.063 NA
HETATM    5  N3  UNL     1      -1.226  -0.227   0.734  1.00  0.00    -0.298 N 
ATOM      6  H3  UNL     1      -1.046  -0.259   1.737  1.00  0.00     0.171 HD
HETATM    7  C5  UNL     1      -0.592  -1.042  -0.033  1.00  0.00     0.295 C 
HETATM    8  N4  UNL     1      -0.857  -0.982  -1.426  1.00  0.00    -0.057 NA
HETATM    9  N5  UNL     1       0.333  -1.952   0.551  1.00  0.00    -0.008 N 
HETATM   10  C6  UNL     1      -0.263  -3.288   0.415  1.00  0.00     0.283 C 
HETATM   11  C7  UNL     1       0.493  -1.697   1.947  1.00  0.00     0.283 C 
ENDROOT
BRANCH   9  12
HETATM   12  C8  UNL     1       1.576  -1.996  -0.177  1.00  0.00     0.348 C 
BRANCH  12  13
HETATM   13  C9  UNL     1       2.451  -0.839   0.095  1.00  0.00     0.250 C 
HETATM   14  O1  UNL     1       2.146   0.091   0.882  1.00  0.00    -0.271 OA
HETATM   15  N6  UNL     1       3.701  -0.770  -0.561  1.00  0.00    -0.305 N 
ATOM     16  H6  UNL     1       3.941  -1.530  -1.198  1.00  0.00     0.171 HD
BRANCH  15  17
HETATM   17  C10 UNL     1       4.648   0.276  -0.401  1.00  0.00     0.159 C 
HETATM   18 BR1  UNL     1       4.217   1.703   0.784  1.00  0.00    -0.010 Br
HETATM   19  N7  UNL     1       5.774   0.250  -1.052  1.00  0.00    -0.291 N 
HETATM   20  C11 UNL     1       6.678   1.308  -0.861  1.00  0.00     0.334 C 
ATOM     21  H7  UNL     1       5.995  -0.519  -1.685  1.00  0.00     0.172 HD
HETATM   22  N8  UNL     1       6.234   2.658  -0.847  1.00  0.00    -0.040 NA
HETATM   23  O2  UNL     1       7.890   1.070  -0.700  1.00  0.00    -0.251 OA
ENDBRANCH  15  17
ENDBRANCH  12  13
ENDBRANCH   9  12
BRANCH   1  24
HETATM   24  C2  UNL     1      -4.305   1.358  -0.574  1.00  0.00     0.102 C 
HETATM   25  C1  UNL     1      -5.427   0.617  -1.286  1.00  0.00     0.056 C 
HETATM   26  C3  UNL     1      -4.945   2.192   0.517  1.00  0.00     0.056 C 
HETATM   27 CL1  UNL     1      -3.599   2.481  -1.757  1.00  0.00    -0.096 Cl
ENDBRANCH   1  24
TORSDOF 4
