REMARK  7 active torsions:
REMARK  status: ('A' for Active; 'I' for Inactive)
REMARK    1  A    between atoms: C1_2  and  C2_4 
REMARK    2  A    between atoms: C2_4  and  C3_5 
REMARK    3  A    between atoms: C3_5  and  C4_6 
REMARK    4  A    between atoms: C4_6  and  N2_7 
REMARK    5  A    between atoms: C4_6  and  O3_17 
REMARK       I    between atoms: N2_7  and  C5_9 
REMARK    6  A    between atoms: C5_9  and  C6_11 
REMARK    7  A    between atoms: O3_17  and  N3_18 
REMARK       I    between atoms: N3_18  and  C12_20 
ROOT
HETATM    1  C4  UNL     1      -0.696  -0.122  -0.246  1.00  0.00     0.254 C 
ENDROOT
BRANCH   1   2
HETATM    2  C3  UNL     1      -1.185  -1.368  -0.930  1.00  0.00     0.065 C 
BRANCH   2   3
HETATM    3  C2  UNL     1      -2.699  -1.360  -0.966  1.00  0.00     0.104 C 
BRANCH   3   4
HETATM    4  C1  UNL     1      -3.204  -2.572  -1.628  1.00  0.00     0.231 C 
HETATM    5  N1  UNL     1      -4.599  -2.790  -1.694  1.00  0.00    -0.062 NA
HETATM    6  O1  UNL     1      -2.422  -3.413  -2.133  1.00  0.00    -0.277 OA
ENDBRANCH   3   4
ENDBRANCH   2   3
ENDBRANCH   1   2
BRANCH   1   7
HETATM    7  N2  UNL     1       0.753  -0.058  -0.168  1.00  0.00    -0.328 N 
HETATM    8  C5  UNL     1       1.463  -0.101   1.044  1.00  0.00     0.253 C 
HETATM    9  O2  UNL     1       0.827  -0.204   2.112  1.00  0.00    -0.268 OA
ATOM     10  H2  UNL     1       1.282   0.022  -1.037  1.00  0.00     0.165 HD
BRANCH   8  11
HETATM   11  C6  UNL     1       2.895  -0.031   1.077  1.00  0.00     0.032 A 
HETATM   12  C7  UNL     1       3.585   0.359  -0.043  1.00  0.00     0.017 A 
HETATM   13  C8  UNL     1       4.974   0.441  -0.065  1.00  0.00     0.001 A 
HETATM   14  C9  UNL     1       5.696   0.130   1.051  1.00  0.00     0.000 A 
HETATM   15  C10 UNL     1       4.998  -0.266   2.189  1.00  0.00     0.001 A 
HETATM   16  C11 UNL     1       3.629  -0.353   2.227  1.00  0.00     0.017 A 
ENDBRANCH   8  11
ENDBRANCH   1   7
BRANCH   1  17
HETATM   17  O3  UNL     1      -1.144   1.039  -0.853  1.00  0.00    -0.251 OA
BRANCH  17  18
HETATM   18  N3  UNL     1      -1.849   1.758   0.041  1.00  0.00    -0.217 N 
HETATM   19  C12 UNL     1      -2.456   2.982  -0.386  1.00  0.00     0.352 C 
HETATM   20  N4  UNL     1      -3.214   3.805   0.478  1.00  0.00    -0.038 NA
HETATM   21  O4  UNL     1      -2.328   3.379  -1.593  1.00  0.00    -0.249 OA
ATOM     22  H3  UNL     1      -1.949   1.437   1.004  1.00  0.00     0.199 HD
ENDBRANCH  17  18
ENDBRANCH   1  17
TORSDOF 7
