REMARK  11 active torsions:
REMARK  status: ('A' for Active; 'I' for Inactive)
REMARK    1  A    between atoms: C1_4  and  O1_6 
REMARK    2  A    between atoms: O1_6  and  N3_7 
REMARK    3  A    between atoms: C2_9  and  O2_11 
REMARK    4  A    between atoms: O2_11  and  C3_12 
REMARK    5  A    between atoms: C3_12  and  C4_13 
REMARK    6  A    between atoms: C4_13  and  O3_14 
REMARK    7  A    between atoms: C4_13  and  C5_16 
REMARK    8  A    between atoms: C5_16  and  O4_17 
REMARK    9  A    between atoms: O4_17  and  C6_18 
REMARK   10  A    between atoms: C6_18  and  C7_19 
REMARK   11  A    between atoms: C7_19  and  N5_20 
ROOT
HETATM    1  C4  UNL     1       0.234  -0.456   1.362  1.00  0.00     0.166 C 
ENDROOT
BRANCH   1   2
HETATM    2  C3  UNL     1      -1.274  -0.653   1.157  1.00  0.00     0.212 C 
BRANCH   2   3
HETATM    3  O2  UNL     1      -1.876   0.565   1.558  1.00  0.00    -0.321 OA
BRANCH   3   4
HETATM    4  C2  UNL     1      -3.260   0.626   1.460  1.00  0.00     0.252 C 
HETATM    5  N3  UNL     1      -3.783  -0.028   0.482  1.00  0.00    -0.224 N 
ATOM      6  H3  UNL     1      -3.197  -0.551  -0.168  1.00  0.00     0.198 HD
HETATM    7  N4  UNL     1      -4.077   1.358   2.367  1.00  0.00    -0.054 NA
BRANCH   5   8
HETATM    8  O1  UNL     1      -5.148  -0.005   0.334  1.00  0.00    -0.202 OA
BRANCH   8   9
HETATM    9  C1  UNL     1      -5.651   0.244  -0.937  1.00  0.00     0.249 C 
HETATM   10  N1  UNL     1      -4.967  -0.147  -1.956  1.00  0.00    -0.366 N 
ATOM     11  H12 UNL     1      -5.336   0.036  -2.889  1.00  0.00     0.159 HD
ATOM     12  H11 UNL     1      -4.081  -0.626  -1.794  1.00  0.00     0.159 HD
HETATM   13  N2  UNL     1      -6.886   0.911  -1.163  1.00  0.00    -0.055 NA
ENDBRANCH   8   9
ENDBRANCH   5   8
ENDBRANCH   3   4
ENDBRANCH   2   3
ENDBRANCH   1   2
BRANCH   1  14
HETATM   14  O3  UNL     1       0.905  -1.599   0.995  1.00  0.00    -0.391 OA
ATOM     15  H3  UNL     1       1.839  -1.477   1.122  1.00  0.00     0.210 HD
ENDBRANCH   1  14
BRANCH   1  16
HETATM   16  C5  UNL     1       0.688   0.793   0.613  1.00  0.00     0.201 C 
BRANCH  16  17
HETATM   17  O4  UNL     1       0.570   0.803  -0.686  1.00  0.00    -0.387 OA
BRANCH  17  18
HETATM   18  C6  UNL     1       1.115   0.060  -1.617  1.00  0.00     0.187 C 
BRANCH  18  19
HETATM   19  C7  UNL     1       2.532   0.060  -2.004  1.00  0.00     0.154 C 
BRANCH  19  20
HETATM   20  N5  UNL     1       3.550  -0.285  -1.073  1.00  0.00    -0.364 N 
HETATM   21  C8  UNL     1       3.942  -1.579  -0.878  1.00  0.00     0.090 A 
HETATM   22  C9  UNL     1       4.961  -1.925  -0.033  1.00  0.00     0.017 A 
HETATM   23  C10 UNL     1       5.638  -0.952   0.662  1.00  0.00     0.003 A 
HETATM   24  C11 UNL     1       5.260   0.362   0.482  1.00  0.00     0.017 A 
HETATM   25  C12 UNL     1       4.236   0.647  -0.374  1.00  0.00     0.090 A 
ENDBRANCH  19  20
ENDBRANCH  18  19
ENDBRANCH  17  18
ENDBRANCH  16  17
ENDBRANCH   1  16
TORSDOF 11
