REMARK  6 active torsions:
REMARK  status: ('A' for Active; 'I' for Inactive)
REMARK    1  A    between atoms: O1_2  and  C2_3 
REMARK    2  A    between atoms: C5_6  and  S1_7 
REMARK    3  A    between atoms: S1_7  and  N1_10 
REMARK    4  A    between atoms: N1_10  and  C6_12 
REMARK    5  A    between atoms: C6_12  and  C7_13 
REMARK    6  A    between atoms: C7_13  and  N2_14 
REMARK       I    between atoms: N2_14  and  C8_16 
REMARK       I    between atoms: C8_16  and  N3_17 
REMARK       I    between atoms: C8_16  and  N4_21 
ROOT
HETATM    1  N1  UNL     1      -0.627   0.244   1.188  1.00  0.00    -0.311 N 
ATOM      2  H1  UNL     1      -0.380  -0.302   2.013  1.00  0.00     0.172 HD
ENDROOT
BRANCH   1   3
HETATM    3  S1  UNL     1       0.262   1.605   0.597  1.00  0.00     0.259 S 
HETATM    4  O2  UNL     1      -0.431   2.315  -0.512  1.00  0.00    -0.201 OA
HETATM    5  O3  UNL     1       0.458   2.587   1.713  1.00  0.00    -0.201 OA
BRANCH   3   6
HETATM    6  C5  UNL     1       1.804   1.040   0.073  1.00  0.00     0.079 A 
HETATM    7  C4  UNL     1       2.874   1.098   0.928  1.00  0.00     0.028 A 
HETATM    8  C3  UNL     1       4.124   0.648   0.524  1.00  0.00     0.038 A 
HETATM    9  C2  UNL     1       4.302   0.142  -0.728  1.00  0.00     0.068 A 
HETATM   10  C10 UNL     1       3.206   0.093  -1.574  1.00  0.00     0.038 A 
HETATM   11  C9  UNL     1       1.955   0.536  -1.191  1.00  0.00     0.028 A 
BRANCH   9  12
HETATM   12  O1  UNL     1       5.556  -0.324  -1.173  1.00  0.00    -0.356 OA
HETATM   13  C1  UNL     1       6.633  -0.234  -0.242  1.00  0.00     0.210 C 
ENDBRANCH   9  12
ENDBRANCH   3   6
ENDBRANCH   1   3
BRANCH   1  14
HETATM   14  C6  UNL     1      -1.789  -0.010   0.328  1.00  0.00     0.176 C 
BRANCH  14  15
HETATM   15  C7  UNL     1      -2.511  -1.181   0.876  1.00  0.00     0.079 C 
BRANCH  15  16
HETATM   16  N2  UNL     1      -3.660  -1.634   0.197  1.00  0.00    -0.353 N 
HETATM   17  C8  UNL     1      -4.802  -0.803   0.231  1.00  0.00     0.479 C 
HETATM   18  N3  UNL     1      -4.610   0.390  -0.521  1.00  0.00    -0.033 N 
HETATM   19  N4  UNL     1      -5.922  -1.597  -0.274  1.00  0.00    -0.033 N 
ATOM     20  H33 UNL     1      -3.776   0.892  -0.215  1.00  0.00     0.278 HD
ATOM     21  H32 UNL     1      -4.329   0.184  -1.480  1.00  0.00     0.278 HD
ATOM     22  H31 UNL     1      -5.435   0.990  -0.496  1.00  0.00     0.278 HD
ATOM     23  H43 UNL     1      -5.746  -1.999  -1.195  1.00  0.00     0.278 HD
ATOM     24  H42 UNL     1      -6.050  -2.475   0.229  1.00  0.00     0.278 HD
ATOM     25  H41 UNL     1      -6.747  -0.997  -0.249  1.00  0.00     0.278 HD
ATOM     26  H2  UNL     1      -3.667  -2.525  -0.299  1.00  0.00     0.162 HD
ENDBRANCH  15  16
ENDBRANCH  14  15
ENDBRANCH   1  14
TORSDOF 6
