REMARK  8 active torsions:
REMARK  status: ('A' for Active; 'I' for Inactive)
REMARK    1  A    between atoms: C1_4  and  N2_5 
REMARK    2  A    between atoms: N2_5  and  C2_7 
REMARK    3  A    between atoms: C4_9  and  N3_10 
REMARK    4  A    between atoms: C4_9  and  C5_14 
REMARK    5  A    between atoms: C5_14  and  S1_15 
REMARK    6  A    between atoms: S1_15  and  N4_18 
REMARK    7  A    between atoms: N4_18  and  C6_20 
REMARK    8  A    between atoms: C6_20  and  C7_21 
ROOT
HETATM    1  C5  UNL     1       1.318   1.393  -0.229  1.00  0.00     0.204 C 
ENDROOT
BRANCH   1   2
HETATM    2  C4  UNL     1       1.806   0.157  -0.871  1.00  0.00     0.160 A 
HETATM    3  C2  UNL     1       2.815  -0.651  -0.058  1.00  0.00     0.121 A 
HETATM    4  C3  UNL     1       1.479  -1.222  -0.477  1.00  0.00     0.069 A 
BRANCH   3   5
HETATM    5  N2  UNL     1       4.018  -1.135  -0.708  1.00  0.00    -0.379 N 
ATOM      6  H2  UNL     1       3.962  -1.848  -1.435  1.00  0.00     0.160 HD
BRANCH   5   7
HETATM    7  C1  UNL     1       5.274  -0.603  -0.319  1.00  0.00     0.169 C 
HETATM    8  N1  UNL     1       5.323   0.648  -0.076  1.00  0.00    -0.396 N 
ATOM      9  H12 UNL     1       4.487   1.226  -0.162  1.00  0.00     0.156 HD
ATOM     10  H11 UNL     1       6.226   1.031   0.204  1.00  0.00     0.156 HD
ENDBRANCH   5   7
ENDBRANCH   3   5
BRANCH   2  11
HETATM   11  N3  UNL     1       2.279   0.338  -2.263  1.00  0.00    -0.067 N 
ATOM     12  H33 UNL     1       3.210   0.754  -2.295  1.00  0.00     0.275 HD
ATOM     13  H32 UNL     1       2.495  -0.554  -2.708  1.00  0.00     0.275 HD
ATOM     14  H31 UNL     1       1.605   0.878  -2.806  1.00  0.00     0.275 HD
ENDBRANCH   2  11
ENDBRANCH   1   2
BRANCH   1  15
HETATM   15  S1  UNL     1       0.472   1.308   1.279  1.00  0.00     0.229 S 
HETATM   16  O1  UNL     1       1.397   0.800   2.384  1.00  0.00    -0.206 OA
HETATM   17  O2  UNL     1       0.143   2.757   1.688  1.00  0.00    -0.206 OA
BRANCH  15  18
HETATM   18  N4  UNL     1      -0.966   0.447   1.339  1.00  0.00    -0.314 N 
ATOM     19  H4  UNL     1      -1.120  -0.370   1.930  1.00  0.00     0.172 HD
BRANCH  18  20
HETATM   20  C6  UNL     1      -1.944   0.997   0.464  1.00  0.00     0.188 C 
BRANCH  20  21
HETATM   21  C7  UNL     1      -3.243   0.325   0.436  1.00  0.00     0.027 A 
HETATM   22  C8  UNL     1      -3.544  -0.679   1.305  1.00  0.00     0.027 A 
HETATM   23  C9  UNL     1      -4.788  -1.328   1.279  1.00  0.00     0.003 A 
HETATM   24  C10 UNL     1      -5.727  -0.938   0.351  1.00  0.00     0.017 A 
HETATM   25  C11 UNL     1      -5.381   0.088  -0.516  1.00  0.00     0.088 A 
HETATM   26  N5  UNL     1      -4.164   0.699  -0.466  1.00  0.00    -0.368 N 
ATOM     27  H5  UNL     1      -3.950   1.450  -1.122  1.00  0.00     0.165 HD
ENDBRANCH  20  21
ENDBRANCH  18  20
ENDBRANCH  15  18
ENDBRANCH   1  15
TORSDOF 8
