REMARK  9 active torsions:
REMARK  status: ('A' for Active; 'I' for Inactive)
REMARK    1  A    between atoms: N1_1  and  C1_5 
REMARK    2  A    between atoms: C1_5  and  C2_6 
REMARK    3  A    between atoms: C2_6  and  O1_7 
REMARK    4  A    between atoms: C2_6  and  C3_9 
REMARK    5  A    between atoms: C3_9  and  C4_10 
REMARK    6  A    between atoms: C3_9  and  N3_15 
REMARK    7  A    between atoms: C4_10  and  N2_11 
REMARK    8  A    between atoms: N2_11  and  C5_13 
REMARK    9  A    between atoms: N3_15  and  C6_17 
ROOT
HETATM    1  C3  UNL     1      -1.786   0.205   0.195  1.00  0.00     0.125 C 
ENDROOT
BRANCH   1   2
HETATM    2  C2  UNL     1      -2.977  -0.762   0.411  1.00  0.00     0.167 C 
BRANCH   2   3
HETATM    3  C1  UNL     1      -2.616  -1.890   1.340  1.00  0.00     0.263 C 
BRANCH   3   4
HETATM    4  N1  UNL     1      -2.236  -1.369   2.643  1.00  0.00    -0.077 N 
ATOM      5  H13 UNL     1      -1.488  -0.679   2.573  1.00  0.00     0.274 HD
ATOM      6  H12 UNL     1      -2.959  -0.768   3.038  1.00  0.00     0.274 HD
ATOM      7  H11 UNL     1      -1.991  -2.133   3.273  1.00  0.00     0.274 HD
ENDBRANCH   3   4
ENDBRANCH   2   3
BRANCH   2   8
HETATM    8  O1  UNL     1      -4.040  -0.095   1.025  1.00  0.00    -0.392 OA
ATOM      9  H1  UNL     1      -4.268   0.617   0.439  1.00  0.00     0.210 HD
ENDBRANCH   2   8
ENDBRANCH   1   2
BRANCH   1  10
HETATM   10  C4  UNL     1      -2.396   1.359  -0.513  1.00  0.00     0.149 C 
BRANCH  10  11
HETATM   11  N2  UNL     1      -1.577   2.455  -0.856  1.00  0.00    -0.366 N 
ATOM     12  H2  UNL     1      -0.585   2.465  -0.617  1.00  0.00     0.161 HD
BRANCH  11  13
HETATM   13  C5  UNL     1      -2.179   3.553  -1.549  1.00  0.00     0.348 C 
HETATM   14  O2  UNL     1      -3.423   3.538  -1.852  1.00  0.00    -0.284 OA
ENDBRANCH  11  13
ENDBRANCH  10  11
ENDBRANCH   1  10
BRANCH   1  15
HETATM   15  N3  UNL     1      -0.750  -0.506  -0.450  1.00  0.00    -0.402 N 
ATOM     16  H3  UNL     1      -0.988  -1.277  -1.074  1.00  0.00     0.154 HD
BRANCH  15  17
HETATM   17  C6  UNL     1       0.586  -0.178  -0.253  1.00  0.00     0.156 C 
HETATM   18  C7  UNL     1       1.374  -0.486  -1.536  1.00  0.00     0.072 C 
HETATM   19  C8  UNL     1       2.770  -0.376  -1.041  1.00  0.00    -0.042 A 
HETATM   20  C9  UNL     1       3.971  -0.038  -1.627  1.00  0.00     0.008 A 
HETATM   21  C13 UNL     1       2.777  -0.699   0.325  1.00  0.00     0.018 A 
HETATM   22  C10 UNL     1       5.140  -0.020  -0.885  1.00  0.00     0.001 A 
HETATM   23  C11 UNL     1       5.153  -0.338   0.470  1.00  0.00     0.001 A 
HETATM   24  C12 UNL     1       3.938  -0.683   1.071  1.00  0.00     0.016 A 
HETATM   25  C14 UNL     1       1.378  -1.024   0.690  1.00  0.00     0.182 C 
HETATM   26  O3  UNL     1       1.072  -1.818   1.576  1.00  0.00    -0.290 OA
ENDBRANCH  15  17
ENDBRANCH   1  15
TORSDOF 9
