REMARK  6 active torsions:
REMARK  status: ('A' for Active; 'I' for Inactive)
REMARK    1  A    between atoms: C2_2  and  C5_5 
REMARK    2  A    between atoms: C5_5  and  C6_6 
REMARK       I    between atoms: C6_6  and  N1_8 
REMARK       I    between atoms: C7_10  and  N2_11 
REMARK       I    between atoms: C7_10  and  N4_25 
REMARK    3  A    between atoms: N2_11  and  C8_13 
REMARK    4  A    between atoms: N3_20  and  C15_21 
REMARK    5  A    between atoms: C15_21  and  C16_22 
REMARK    6  A    between atoms: N4_25  and  C19_27 
ROOT
HETATM    1  C6  UNL     1      -2.353   2.426   0.564  1.00  0.00     0.236 C 
HETATM    2  O1  UNL     1      -3.385   1.815   0.210  1.00  0.00    -0.273 OA
HETATM    3  N1  UNL     1      -1.191   1.837   1.077  1.00  0.00    -0.160 N 
ATOM      4  H1  UNL     1      -0.667   2.351   1.785  1.00  0.00     0.187 HD
HETATM    5  C7  UNL     1      -0.733   0.664   0.704  1.00  0.00     0.677 C 
HETATM    6  N2  UNL     1       0.451   0.194   1.305  1.00  0.00    -0.222 N 
ATOM      7  H2  UNL     1       0.405  -0.526   2.026  1.00  0.00     0.178 HD
HETATM    8  N4  UNL     1      -1.478  -0.015  -0.272  1.00  0.00    -0.217 N 
ATOM      9  H4  UNL     1      -1.742   0.508  -1.107  1.00  0.00     0.178 HD
ENDROOT
BRANCH   6  10
HETATM   10  C8  UNL     1       1.739   0.733   0.900  1.00  0.00     0.103 C 
HETATM   11  C9  UNL     1       1.946   0.500  -0.548  1.00  0.00     0.061 C 
HETATM   12  C10 UNL     1       3.434   0.695  -0.874  1.00  0.00     0.225 C 
HETATM   13  C11 UNL     1       3.939   2.003  -0.316  1.00  0.00     0.038 C 
HETATM   14  N3  UNL     1       4.108  -0.370  -0.147  1.00  0.00     0.098 N 
HETATM   15  C12 UNL     1       4.645   1.609   0.958  1.00  0.00     0.038 C 
HETATM   16  C13 UNL     1       4.174   0.183   1.164  1.00  0.00     0.225 C 
HETATM   17  C14 UNL     1       2.794   0.134   1.785  1.00  0.00     0.061 C 
BRANCH  14  18
HETATM   18  C15 UNL     1       5.337  -0.757  -0.745  1.00  0.00     0.278 C 
BRANCH  18  19
HETATM   19  C16 UNL     1       5.931  -1.911   0.030  1.00  0.00     0.014 A 
HETATM   20  C17 UNL     1       7.228  -2.495  -0.406  1.00  0.00     0.007 A 
HETATM   21  C18 UNL     1       5.985  -3.264  -0.663  1.00  0.00     0.007 A 
ENDBRANCH  18  19
ENDBRANCH  14  18
ENDBRANCH   6  10
BRANCH   8  22
HETATM   22  C19 UNL     1      -1.897  -1.376  -0.194  1.00  0.00     0.048 C 
HETATM   23  C20 UNL     1      -0.755  -2.326  -0.288  1.00  0.00     0.036 C 
HETATM   24  C21 UNL     1      -1.262  -3.769  -0.328  1.00  0.00    -0.012 C 
HETATM   25  C22 UNL     1      -2.242  -3.970  -1.444  1.00  0.00     0.009 C 
HETATM   26  C26 UNL     1      -1.926  -4.025   1.007  1.00  0.00     0.009 C 
HETATM   27  C23 UNL     1      -3.414  -3.022  -1.233  1.00  0.00    -0.012 C 
HETATM   28  C24 UNL     1      -4.063  -3.339   0.079  1.00  0.00     0.009 C 
HETATM   29  C28 UNL     1      -2.884  -1.630  -1.322  1.00  0.00     0.036 C 
HETATM   30  C25 UNL     1      -3.062  -3.064   1.190  1.00  0.00    -0.012 C 
HETATM   31  C27 UNL     1      -2.667  -1.627   1.093  1.00  0.00     0.036 C 
ENDBRANCH   8  22
BRANCH   1  32
HETATM   32  C5  UNL     1      -2.392   3.916   0.414  1.00  0.00     0.112 C 
BRANCH  32  33
HETATM   33  C2  UNL     1      -3.689   4.410  -0.141  1.00  0.00    -0.043 C 
HETATM   34  C1  UNL     1      -3.592   5.925  -0.239  1.00  0.00     0.015 C 
HETATM   35  C3  UNL     1      -3.957   3.859  -1.507  1.00  0.00     0.015 C 
HETATM   36  C4  UNL     1      -4.832   4.039   0.779  1.00  0.00     0.015 C 
ENDBRANCH  32  33
ENDBRANCH   1  32
TORSDOF 6
