REMARK  5 active torsions:
REMARK  status: ('A' for Active; 'I' for Inactive)
REMARK    1  A    between atoms: C2_2  and  C3_3 
REMARK    2  A    between atoms: C3_3  and  C4_4 
REMARK    3  A    between atoms: C4_4  and  N1_5 
REMARK       I    between atoms: N1_5  and  C6_7 
REMARK       I    between atoms: C6_7  and  N2_9 
REMARK    4  A    between atoms: N2_9  and  C7_11 
REMARK    5  A    between atoms: C20_24  and  C22_26 
ROOT
HETATM    1  C7  UNL     1       2.414  -1.019   0.144  1.00  0.00     0.086 C 
HETATM    2  C8  UNL     1       1.783  -2.320  -0.236  1.00  0.00     0.026 C 
HETATM    3  C9  UNL     1       0.389  -2.121  -0.851  1.00  0.00     0.008 C 
HETATM    4  C10 UNL     1      -0.252  -1.046  -0.018  1.00  0.00    -0.002 C 
HETATM    5  C11 UNL     1       0.308   0.322  -0.272  1.00  0.00    -0.008 C 
HETATM    6  C12 UNL     1      -0.017   1.141   0.979  1.00  0.00     0.005 C 
HETATM    7  C13 UNL     1      -1.394   0.727   1.542  1.00  0.00     0.006 C 
HETATM    8  C14 UNL     1      -2.220   0.267   0.406  1.00  0.00     0.003 C 
HETATM    9  C15 UNL     1      -1.771  -1.089  -0.047  1.00  0.00    -0.036 C 
HETATM   10  C16 UNL     1      -2.162  -2.241   0.816  1.00  0.00     0.016 C 
HETATM   11  C17 UNL     1      -2.303  -1.209  -1.466  1.00  0.00     0.010 C 
HETATM   12  C18 UNL     1      -3.785  -0.969  -1.471  1.00  0.00     0.007 C 
HETATM   13  C19 UNL     1      -4.190   0.407  -0.963  1.00  0.00     0.011 C 
HETATM   14  C20 UNL     1      -5.631   0.632  -1.169  1.00  0.00     0.039 C 
HETATM   15  C21 UNL     1      -5.868   2.125  -1.477  1.00  0.00     0.025 C 
HETATM   16  C23 UNL     1      -6.536   0.228  -0.057  1.00  0.00     0.019 C 
HETATM   17  C24 UNL     1      -5.932   0.222   1.303  1.00  0.00     0.002 C 
HETATM   18  C25 UNL     1      -4.511  -0.365   1.327  1.00  0.00     0.010 C 
HETATM   19  C26 UNL     1      -3.695   0.502   0.466  1.00  0.00    -0.035 C 
HETATM   20  C27 UNL     1      -3.800   1.908   1.045  1.00  0.00     0.016 C 
HETATM   21  C28 UNL     1       1.793   0.193  -0.483  1.00  0.00     0.030 C 
ENDROOT
BRANCH   1  22
HETATM   22  N2  UNL     1       3.834  -0.990  -0.229  1.00  0.00    -0.338 N 
HETATM   23  C6  UNL     1       4.884  -0.717   0.655  1.00  0.00     0.318 C 
HETATM   24  N1  UNL     1       6.210  -0.723   0.194  1.00  0.00    -0.339 N 
HETATM   25  O1  UNL     1       4.647  -0.467   1.855  1.00  0.00    -0.247 OA
HETATM   26  C5  UNL     1       6.515  -1.040  -1.209  1.00  0.00     0.154 C 
ATOM     27  H2  UNL     1       4.072  -1.183  -1.202  1.00  0.00     0.164 HD
BRANCH  24  28
HETATM   28  C4  UNL     1       7.281  -0.423   1.121  1.00  0.00     0.127 C 
BRANCH  28  29
HETATM   29  C3  UNL     1       7.633   1.044   1.174  1.00  0.00     0.020 C 
BRANCH  29  30
HETATM   30  C2  UNL     1       8.758   1.197   2.176  1.00  0.00    -0.003 C 
HETATM   31  C1  UNL     1       9.106   2.677   2.207  1.00  0.00     0.005 C 
ENDBRANCH  29  30
ENDBRANCH  28  29
ENDBRANCH  24  28
ENDBRANCH   1  22
BRANCH  14  32
HETATM   32  C22 UNL     1      -6.091  -0.072  -2.402  1.00  0.00     0.239 C 
HETATM   33  N3  UNL     1      -5.818   0.336  -3.720  1.00  0.00    -0.061 NA
HETATM   34  O2  UNL     1      -6.781  -1.123  -2.285  1.00  0.00    -0.276 OA
ENDBRANCH  14  32
TORSDOF 5
