REMARK  6 active torsions:
REMARK  status: ('A' for Active; 'I' for Inactive)
REMARK    1  A    between atoms: C2_2  and  C4_4 
REMARK    2  A    between atoms: C14_14  and  N1_16 
REMARK       I    between atoms: N1_16  and  C16_18 
REMARK    3  A    between atoms: C16_18  and  C17_20 
REMARK    4  A    between atoms: C17_20  and  N2_21 
REMARK    5  A    between atoms: N2_21  and  C20_24 
REMARK    6  A    between atoms: C20_24  and  O2_25 
ROOT
HETATM    1  C4  UNL     1      -5.508   1.187   0.265  1.00  0.00     0.022 C 
HETATM    2  C5  UNL     1      -4.817   2.094  -0.788  1.00  0.00     0.010 C 
HETATM    3  C6  UNL     1      -3.853   1.186  -1.496  1.00  0.00     0.006 C 
HETATM    4  C7  UNL     1      -3.791  -0.093  -0.710  1.00  0.00    -0.001 C 
HETATM    5  C8  UNL     1      -2.414  -0.689  -0.572  1.00  0.00    -0.005 C 
HETATM    6  C9  UNL     1      -2.004  -1.117  -1.931  1.00  0.00     0.005 C 
HETATM    7  C10 UNL     1      -0.614  -1.578  -2.115  1.00  0.00     0.001 C 
HETATM    8  C11 UNL     1       0.447  -0.631  -1.714  1.00  0.00     0.005 C 
HETATM    9  C12 UNL     1       0.810  -0.538  -0.283  1.00  0.00    -0.004 C 
HETATM   10  C13 UNL     1       1.895  -1.504   0.156  1.00  0.00     0.036 C 
HETATM   11  C14 UNL     1       2.528  -0.904   1.362  1.00  0.00     0.029 C 
HETATM   12  C15 UNL     1       3.389  -2.009   1.993  1.00  0.00     0.038 C 
HETATM   13  C21 UNL     1       1.568  -0.454   2.412  1.00  0.00     0.031 C 
HETATM   14  C22 UNL     1       0.303   0.194   1.946  1.00  0.00     0.012 C 
HETATM   15  C23 UNL     1      -0.303  -0.514   0.718  1.00  0.00    -0.036 C 
HETATM   16  C24 UNL     1      -0.640  -1.870   1.279  1.00  0.00     0.016 C 
HETATM   17  C25 UNL     1      -1.461   0.215   0.135  1.00  0.00    -0.002 C 
HETATM   18  C26 UNL     1      -2.194   1.153   1.033  1.00  0.00     0.006 C 
HETATM   19  C27 UNL     1      -3.480   0.656   1.609  1.00  0.00     0.010 C 
HETATM   20  C28 UNL     1      -4.481   0.170   0.597  1.00  0.00    -0.033 C 
HETATM   21  C29 UNL     1      -5.072  -1.094   1.193  1.00  0.00     0.016 C 
ENDROOT
BRANCH  11  22
HETATM   22  N1  UNL     1       3.434   0.182   1.061  1.00  0.00    -0.351 N 
HETATM   23  C16 UNL     1       4.614   0.072   0.279  1.00  0.00     0.244 C 
HETATM   24  O1  UNL     1       4.913  -1.050  -0.194  1.00  0.00    -0.272 OA
ATOM     25  H1  UNL     1       3.207   1.101   1.441  1.00  0.00     0.163 HD
BRANCH  23  26
HETATM   26  C17 UNL     1       5.501   1.203  -0.005  1.00  0.00     0.341 C 
BRANCH  26  27
HETATM   27  N2  UNL     1       6.646   0.886  -0.820  1.00  0.00    -0.046 N 
HETATM   28  C18 UNL     1       7.328   2.118  -1.195  1.00  0.00     0.275 C 
HETATM   29  C19 UNL     1       6.366   0.074  -1.964  1.00  0.00     0.275 C 
BRANCH  27  30
HETATM   30  C20 UNL     1       7.595   0.161   0.029  1.00  0.00     0.401 C 
BRANCH  30  31
HETATM   31  O2  UNL     1       8.424  -0.649  -0.743  1.00  0.00    -0.374 OA
ATOM     32  H2  UNL     1       9.039  -1.119  -0.193  1.00  0.00     0.211 HD
ENDBRANCH  30  31
ENDBRANCH  27  30
ENDBRANCH  26  27
ENDBRANCH  23  26
ENDBRANCH  11  22
BRANCH   1  33
HETATM   33  C2  UNL     1      -6.756   0.799  -0.370  1.00  0.00    -0.088 C 
HETATM   34  C1  UNL     1      -7.178  -0.353  -0.788  1.00  0.00     0.014 C 
HETATM   35  C3  UNL     1      -7.758   1.949  -0.558  1.00  0.00     0.043 C 
ENDBRANCH   1  33
TORSDOF 6
