REMARK  7 active torsions:
REMARK  status: ('A' for Active; 'I' for Inactive)
REMARK    1  A    between atoms: C4_4  and  C5_5 
REMARK    2  A    between atoms: C5_5  and  C6_6 
REMARK    3  A    between atoms: C6_6  and  C7_7 
REMARK    4  A    between atoms: C7_7  and  N1_8 
REMARK    5  A    between atoms: C8_10  and  O1_12 
REMARK    6  A    between atoms: C18_23  and  C20_25 
REMARK       I    between atoms: C20_25  and  N3_27 
REMARK    7  A    between atoms: N3_27  and  C21_29 
ROOT
HETATM    1  C1  UNL     1      -5.169  -2.581  -1.615  1.00  0.00     0.043 C 
HETATM    2  C2  UNL     1      -4.308  -1.351  -1.502  1.00  0.00    -0.083 C 
HETATM    3  C3  UNL     1      -4.787  -0.145  -1.371  1.00  0.00    -0.019 C 
HETATM    4  C4  UNL     1      -3.679   0.826  -1.286  1.00  0.00     0.013 C 
HETATM    5  C9  UNL     1      -2.498   0.073  -1.825  1.00  0.00     0.002 C 
HETATM    6  C10 UNL     1      -1.170   0.535  -1.393  1.00  0.00     0.016 C 
HETATM    7  C11 UNL     1      -0.219  -0.550  -0.986  1.00  0.00    -0.032 C 
HETATM    8  C12 UNL     1      -0.891  -1.407   0.058  1.00  0.00     0.011 C 
HETATM    9  C13 UNL     1      -2.199  -1.969  -0.380  1.00  0.00     0.010 C 
HETATM   10  C14 UNL     1      -2.835  -1.352  -1.548  1.00  0.00     0.018 C 
HETATM   11  C15 UNL     1       0.236  -1.429  -2.087  1.00  0.00     0.011 C 
HETATM   12  C16 UNL     1       1.637  -1.823  -1.737  1.00  0.00     0.007 C 
HETATM   13  C17 UNL     1       2.034  -1.074  -0.503  1.00  0.00     0.012 C 
HETATM   14  C18 UNL     1       3.482  -0.743  -0.576  1.00  0.00     0.042 C 
HETATM   15  C19 UNL     1       4.196  -1.913  -1.280  1.00  0.00     0.026 C 
HETATM   16  C24 UNL     1       3.814   0.470  -1.373  1.00  0.00     0.019 C 
HETATM   17  C25 UNL     1       2.863   1.619  -1.235  1.00  0.00     0.002 C 
HETATM   18  C26 UNL     1       1.421   1.193  -1.377  1.00  0.00     0.010 C 
HETATM   19  C27 UNL     1       1.071   0.047  -0.458  1.00  0.00    -0.032 C 
HETATM   20  C28 UNL     1       0.883   0.620   0.935  1.00  0.00     0.016 C 
ENDROOT
BRANCH   4  21
HETATM   21  C5  UNL     1      -3.576   1.171   0.191  1.00  0.00     0.010 C 
BRANCH  21  22
HETATM   22  C6  UNL     1      -4.917   1.769   0.660  1.00  0.00     0.020 C 
BRANCH  22  23
HETATM   23  C7  UNL     1      -4.831   2.120   2.134  1.00  0.00     0.123 C 
BRANCH  23  24
HETATM   24  N1  UNL     1      -6.086   2.683   2.589  1.00  0.00    -0.359 N 
HETATM   25  C8  UNL     1      -7.081   1.934   2.959  1.00  0.00     0.225 C 
HETATM   26  N2  UNL     1      -7.034   0.514   2.952  1.00  0.00    -0.057 NA
ATOM     27  H1  UNL     1      -6.191   3.697   2.620  1.00  0.00     0.162 HD
BRANCH  25  28
HETATM   28  O1  UNL     1      -8.254   2.539   3.384  1.00  0.00    -0.335 OA
ATOM     29  H1  UNL     1      -8.982   1.991   3.655  1.00  0.00     0.220 HD
ENDBRANCH  25  28
ENDBRANCH  23  24
ENDBRANCH  22  23
ENDBRANCH  21  22
ENDBRANCH   4  21
BRANCH  14  30
HETATM   30  C20 UNL     1       4.148  -0.653   0.750  1.00  0.00     0.226 C 
HETATM   31  O2  UNL     1       3.557  -0.842   1.840  1.00  0.00    -0.273 OA
HETATM   32  N3  UNL     1       5.528  -0.341   0.885  1.00  0.00    -0.357 N 
ATOM     33  H3  UNL     1       6.068  -0.176   0.035  1.00  0.00     0.162 HD
BRANCH  32  34
HETATM   34  C21 UNL     1       6.212  -0.244   2.153  1.00  0.00     0.076 C 
HETATM   35  C22 UNL     1       7.359  -1.205   2.292  1.00  0.00     0.032 C 
HETATM   36  C23 UNL     1       6.764   1.159   2.379  1.00  0.00     0.032 C 
ENDBRANCH  32  34
ENDBRANCH  14  30
TORSDOF 7
