REMARK  7 active torsions:
REMARK  status: ('A' for Active; 'I' for Inactive)
REMARK    1  A    between atoms: C2_2  and  C3_3 
REMARK    2  A    between atoms: C2_2  and  N2_29 
REMARK    3  A    between atoms: C3_3  and  C4_4 
REMARK       I    between atoms: C4_4  and  N1_6 
REMARK    4  A    between atoms: N1_6  and  C5_8 
REMARK    5  A    between atoms: C8_11  and  C10_13 
REMARK    6  A    between atoms: C14_17  and  C16_19 
REMARK       I    between atoms: N2_29  and  C24_30 
REMARK    7  A    between atoms: C24_30  and  C25_32 
ROOT
HETATM    1  C5  UNL     1       1.590  -0.343   0.272  1.00  0.00     0.084 C 
HETATM    2  C6  UNL     1       0.685  -0.699   1.416  1.00  0.00     0.026 C 
HETATM    3  C7  UNL     1      -0.532  -1.393   0.915  1.00  0.00     0.011 C 
HETATM    4  C8  UNL     1      -1.334  -0.560  -0.091  1.00  0.00    -0.040 C 
HETATM    5  C9  UNL     1      -1.206  -1.263  -1.416  1.00  0.00     0.015 C 
HETATM    6  C22 UNL     1      -0.598   0.757  -0.209  1.00  0.00     0.011 C 
HETATM    7  C23 UNL     1       0.822   0.557  -0.667  1.00  0.00     0.026 C 
ENDROOT
BRANCH   4   8
HETATM    8  C10 UNL     1      -2.683  -0.443   0.449  1.00  0.00     0.002 C 
HETATM    9  C11 UNL     1      -3.281  -1.837   0.604  1.00  0.00     0.006 C 
HETATM   10  C12 UNL     1      -4.763  -1.654   0.240  1.00  0.00     0.007 C 
HETATM   11  C13 UNL     1      -4.928  -0.190   0.529  1.00  0.00     0.013 C 
HETATM   12  C14 UNL     1      -6.247   0.395   0.315  1.00  0.00     0.049 C 
HETATM   13  C20 UNL     1      -3.728   0.390  -0.178  1.00  0.00    -0.035 C 
HETATM   14  C15 UNL     1      -7.035  -0.156  -0.844  1.00  0.00     0.027 C 
HETATM   15  C17 UNL     1      -6.137   1.904   0.260  1.00  0.00     0.020 C 
HETATM   16  C18 UNL     1      -4.867   2.355   0.909  1.00  0.00     0.002 C 
HETATM   17  C19 UNL     1      -3.634   1.856   0.236  1.00  0.00     0.010 C 
HETATM   18  C21 UNL     1      -3.843   0.341  -1.650  1.00  0.00     0.016 C 
BRANCH  12  19
HETATM   19  C16 UNL     1      -7.077   0.084   1.518  1.00  0.00     0.181 C 
HETATM   20  O2  UNL     1      -7.554   1.006   2.221  1.00  0.00    -0.647 OA
HETATM   21  O3  UNL     1      -7.371  -1.209   1.932  1.00  0.00    -0.647 OA
ENDBRANCH  12  19
ENDBRANCH   4   8
BRANCH   1  22
HETATM   22  N1  UNL     1       2.799   0.270   0.755  1.00  0.00    -0.356 N 
HETATM   23  C4  UNL     1       4.046  -0.349   0.498  1.00  0.00     0.224 C 
HETATM   24  O1  UNL     1       4.144  -1.427  -0.144  1.00  0.00    -0.273 OA
ATOM     25  H1  UNL     1       2.758   1.144   1.279  1.00  0.00     0.162 HD
BRANCH  23  26
HETATM   26  C3  UNL     1       5.281   0.287   0.997  1.00  0.00     0.170 C 
BRANCH  26  27
HETATM   27  C2  UNL     1       6.443  -0.573   0.585  1.00  0.00     0.071 C 
HETATM   28  C1  UNL     1       6.403  -1.986   1.127  1.00  0.00     0.080 C 
BRANCH  27  29
HETATM   29  N2  UNL     1       7.306  -0.173  -0.101  1.00  0.00    -0.379 NA
HETATM   30  C24 UNL     1       8.283   0.267  -0.872  1.00  0.00     0.295 C 
HETATM   31  O4  UNL     1       8.213   0.087  -2.155  1.00  0.00    -0.257 OA
BRANCH  30  32
HETATM   32  C25 UNL     1       9.531   0.990  -0.426  1.00  0.00     0.093 A 
HETATM   33  C26 UNL     1      10.198   1.920  -1.410  1.00  0.00     0.016 A 
HETATM   34  C27 UNL     1      10.807   0.554  -1.116  1.00  0.00     0.016 A 
ENDBRANCH  30  32
ENDBRANCH  27  29
ENDBRANCH  26  27
ENDBRANCH  23  26
ENDBRANCH   1  22
TORSDOF 7
