REMARK  7 active torsions:
REMARK  status: ('A' for Active; 'I' for Inactive)
REMARK    1  A    between atoms: C2_2  and  C3_3 
REMARK    2  A    between atoms: C2_2  and  C10_13 
REMARK    3  A    between atoms: C3_3  and  N1_4 
REMARK       I    between atoms: N1_4  and  C4_6 
REMARK    4  A    between atoms: C4_6  and  C5_8 
REMARK    5  A    between atoms: C5_8  and  C6_9 
REMARK    6  A    between atoms: C13_16  and  O2_17 
REMARK    7  A    between atoms: C15_20  and  N2_21 
ROOT
HETATM    1  C10 UNL     1       1.265  -0.624  -1.183  1.00  0.00     0.002 C 
HETATM    2  C11 UNL     1       1.294   0.238  -2.421  1.00  0.00     0.009 C 
HETATM    3  C12 UNL     1      -0.214   0.530  -2.528  1.00  0.00     0.039 C 
HETATM    4  C13 UNL     1      -0.684   0.780  -1.097  1.00  0.00     0.067 C 
HETATM    5  C14 UNL     1      -2.118   0.543  -0.967  1.00  0.00     0.072 C 
HETATM    6  C15 UNL     1      -2.646  -0.181   0.198  1.00  0.00     0.193 C 
HETATM    7  C26 UNL     1      -1.576  -0.515   1.244  1.00  0.00     0.034 C 
HETATM    8  C27 UNL     1      -0.437  -1.121   0.501  1.00  0.00     0.014 C 
HETATM    9  C28 UNL     1       0.277  -0.004  -0.257  1.00  0.00    -0.009 C 
HETATM   10  C29 UNL     1       0.834   0.927   0.777  1.00  0.00     0.019 C 
ENDROOT
BRANCH   1  11
HETATM   11  C2  UNL     1       2.524  -1.170  -0.702  1.00  0.00     0.004 C 
HETATM   12  C1  UNL     1       3.109  -2.092  -1.824  1.00  0.00     0.012 C 
BRANCH  11  13
HETATM   13  C3  UNL     1       3.669  -0.226  -0.450  1.00  0.00     0.127 C 
BRANCH  13  14
HETATM   14  N1  UNL     1       4.865  -0.949  -0.022  1.00  0.00    -0.361 N 
HETATM   15  C4  UNL     1       6.050  -0.222   0.250  1.00  0.00     0.218 C 
HETATM   16  O1  UNL     1       6.040   1.038   0.111  1.00  0.00    -0.274 OA
ATOM     17  H1  UNL     1       4.847  -1.964   0.080  1.00  0.00     0.162 HD
BRANCH  15  18
HETATM   18  C5  UNL     1       7.308  -0.879   0.693  1.00  0.00     0.111 C 
BRANCH  18  19
HETATM   19  C6  UNL     1       8.412   0.154   0.858  1.00  0.00    -0.043 C 
HETATM   20  C7  UNL     1       8.688   0.866  -0.453  1.00  0.00     0.015 C 
HETATM   21  C8  UNL     1       9.655  -0.596   1.269  1.00  0.00     0.015 C 
HETATM   22  C9  UNL     1       8.084   1.186   1.899  1.00  0.00     0.015 C 
ENDBRANCH  18  19
ENDBRANCH  15  18
ENDBRANCH  13  14
ENDBRANCH  11  13
ENDBRANCH   1  11
BRANCH   4  23
HETATM   23  O2  UNL     1      -0.363   2.154  -0.919  1.00  0.00    -0.389 OA
ATOM     24  H2  UNL     1      -0.655   2.310  -0.029  1.00  0.00     0.210 HD
ENDBRANCH   4  23
BRANCH   6  25
HETATM   25  N2  UNL     1      -3.811   0.411   0.811  1.00  0.00    -0.061 N 
HETATM   26  C16 UNL     1      -3.597   1.766   1.236  1.00  0.00     0.273 C 
HETATM   27  C17 UNL     1      -4.179  -0.346   2.018  1.00  0.00     0.239 C 
HETATM   28  C18 UNL     1      -5.594   0.025   2.348  1.00  0.00     0.039 C 
HETATM   29  C19 UNL     1      -6.168   0.358   0.992  1.00  0.00    -0.010 C 
HETATM   30  C20 UNL     1      -6.862   1.697   0.981  1.00  0.00     0.018 C 
HETATM   31  C21 UNL     1      -7.101  -0.745   0.601  1.00  0.00    -0.008 C 
HETATM   32  C25 UNL     1      -4.995   0.327   0.031  1.00  0.00     0.199 C 
HETATM   33  C22 UNL     1      -8.552  -0.400   0.764  1.00  0.00     0.011 C 
HETATM   34  C23 UNL     1      -6.704  -1.038  -0.822  1.00  0.00     0.007 C 
HETATM   35  C24 UNL     1      -5.176  -0.974  -0.703  1.00  0.00     0.035 C 
ENDBRANCH   6  25
TORSDOF 7
