REMARK  8 active torsions:
REMARK  status: ('A' for Active; 'I' for Inactive)
REMARK    1  A    between atoms: N1_1  and  C1_5 
REMARK       I    between atoms: N2_10  and  C5_11 
REMARK    2  A    between atoms: C5_11  and  C6_13 
REMARK    3  A    between atoms: C6_13  and  S2_14 
REMARK    4  A    between atoms: S2_14  and  C7_15 
REMARK    5  A    between atoms: C8_20  and  C9_21 
REMARK    6  A    between atoms: N5_24  and  C12_25 
REMARK    7  A    between atoms: N6_33  and  N7_34 
REMARK    8  A    between atoms: N7_34  and  C20_36 
ROOT
HETATM    1  C7  UNL     1       1.465  -0.066  -0.940  1.00  0.00     0.182 A 
HETATM    2  N3  UNL     1       1.194  -1.300  -1.341  1.00  0.00    -0.277 N 
ATOM      3  H3  UNL     1       1.876  -1.955  -1.724  1.00  0.00     0.189 HD
HETATM    4  N4  UNL     1      -0.071  -1.552  -1.174  1.00  0.00    -0.282 N 
ATOM      5  H4  UNL     1      -0.527  -2.435  -1.406  1.00  0.00     0.188 HD
HETATM    6  C8  UNL     1      -0.715  -0.436  -0.630  1.00  0.00     0.146 A 
HETATM    7  N6  UNL     1       0.250   0.472  -0.494  1.00  0.00    -0.219 N 
ENDROOT
BRANCH   1   8
HETATM    8  S2  UNL     1       3.029   0.807  -0.997  1.00  0.00    -0.081 SA
BRANCH   8   9
HETATM    9  C6  UNL     1       4.002   0.451   0.517  1.00  0.00     0.185 C 
BRANCH   9  10
HETATM   10  C5  UNL     1       4.468  -0.935   0.524  1.00  0.00     0.231 C 
HETATM   11  N2  UNL     1       5.815  -1.324   0.303  1.00  0.00    -0.322 N 
HETATM   12  C1  UNL     1       6.193  -2.712   0.277  1.00  0.00     0.295 C 
HETATM   13  C4  UNL     1       6.815  -0.296   0.123  1.00  0.00     0.138 C 
HETATM   14  C2  UNL     1       7.456  -3.012   1.028  1.00  0.00     0.128 C 
HETATM   15  S1  UNL     1       8.788  -2.110   0.180  1.00  0.00    -0.164 SA
HETATM   16  C3  UNL     1       7.993  -0.749  -0.727  1.00  0.00     0.094 C 
HETATM   17  O1  UNL     1       3.629  -1.864   0.738  1.00  0.00    -0.272 OA
BRANCH  12  18
HETATM   18  N1  UNL     1       6.364  -3.239  -1.063  1.00  0.00    -0.057 N 
ATOM     19  H13 UNL     1       7.201  -2.888  -1.529  1.00  0.00     0.276 HD
ATOM     20  H12 UNL     1       6.614  -4.228  -1.077  1.00  0.00     0.276 HD
ATOM     21  H11 UNL     1       5.505  -3.035  -1.574  1.00  0.00     0.276 HD
ENDBRANCH  12  18
ENDBRANCH   9  10
ENDBRANCH   8   9
ENDBRANCH   1   8
BRANCH   7  22
HETATM   22  N7  UNL     1       0.229   1.727   0.043  1.00  0.00    -0.321 N 
ATOM     23  H7  UNL     1       1.155   2.018   0.357  1.00  0.00     0.181 HD
BRANCH  22  24
HETATM   24  C20 UNL     1      -0.742   2.731   0.278  1.00  0.00     0.100 C 
HETATM   25  C21 UNL     1      -0.283   3.661   1.402  1.00  0.00     0.026 C 
HETATM   26  C22 UNL     1      -0.288   5.093   1.020  1.00  0.00     0.002 C 
HETATM   27  C23 UNL     1      -1.578   5.513   0.343  1.00  0.00     0.000 C 
HETATM   28  C24 UNL     1      -1.668   4.758  -0.943  1.00  0.00     0.002 C 
HETATM   29  C25 UNL     1      -0.805   3.548  -1.028  1.00  0.00     0.026 C 
ENDBRANCH  22  24
ENDBRANCH   7  22
BRANCH   6  30
HETATM   30  C9  UNL     1      -2.140  -0.489  -0.309  1.00  0.00    -0.029 C 
HETATM   31  C10 UNL     1      -3.077   0.246  -1.197  1.00  0.00     0.058 C 
HETATM   32  C11 UNL     1      -4.485  -0.024  -0.715  1.00  0.00     0.127 C 
HETATM   33  N5  UNL     1      -4.604  -1.137   0.189  1.00  0.00    -0.380 N 
HETATM   34  C18 UNL     1      -3.763  -1.241   1.362  1.00  0.00     0.127 C 
HETATM   35  C19 UNL     1      -2.527  -0.391   1.129  1.00  0.00     0.058 C 
BRANCH  33  36
HETATM   36  C12 UNL     1      -5.549  -2.205   0.001  1.00  0.00     0.030 A 
HETATM   37  C13 UNL     1      -5.951  -2.923   1.094  1.00  0.00     0.029 A 
HETATM   38  C14 UNL     1      -6.851  -3.949   0.949  1.00  0.00     0.002 A 
HETATM   39  C15 UNL     1      -7.381  -4.294  -0.288  1.00  0.00     0.000 A 
HETATM   40  C16 UNL     1      -6.955  -3.552  -1.364  1.00  0.00     0.002 A 
HETATM   41  C17 UNL     1      -6.047  -2.514  -1.240  1.00  0.00     0.029 A 
ENDBRANCH  33  36
ENDBRANCH   6  30
TORSDOF 8
