REMARK  12 active torsions:
REMARK  status: ('A' for Active; 'I' for Inactive)
REMARK    1  A    between atoms: C8_8  and  O1_9 
REMARK    2  A    between atoms: O1_9  and  C9_10 
REMARK    3  A    between atoms: C9_10  and  C10_12 
REMARK    4  A    between atoms: C10_12  and  C12_14 
REMARK    5  A    between atoms: C12_14  and  C13_15 
REMARK    6  A    between atoms: C13_15  and  O3_16 
REMARK    7  A    between atoms: C13_15  and  C14_18 
REMARK    8  A    between atoms: C19_24  and  O5_25 
REMARK    9  A    between atoms: O5_25  and  C20_26 
REMARK   10  A    between atoms: C23_31  and  C24_32 
REMARK   11  A    between atoms: C24_32  and  O8_33 
REMARK   12  A    between atoms: C26_35  and  O9_36 
ROOT
HETATM    1  C1  UNL     1      -4.205  -2.996  -1.004  1.00  0.00     0.014 C 
HETATM    2  C2  UNL     1      -3.916  -2.528   0.198  1.00  0.00    -0.087 C 
HETATM    3  C3  UNL     1      -2.869  -3.282   0.986  1.00  0.00     0.033 C 
HETATM    4  C4  UNL     1      -1.622  -3.507   0.226  1.00  0.00     0.005 C 
HETATM    5  C5  UNL     1      -0.371  -2.884   0.692  1.00  0.00     0.007 C 
HETATM    6  C6  UNL     1      -0.459  -1.826   1.731  1.00  0.00     0.011 C 
HETATM    7  C7  UNL     1      -0.200  -2.504   3.088  1.00  0.00     0.012 C 
HETATM    8  C8  UNL     1       0.492  -0.671   1.545  1.00  0.00     0.138 C 
HETATM    9  C17 UNL     1      -0.173   0.614   1.162  1.00  0.00     0.068 C 
HETATM   10  C18 UNL     1      -1.073   0.539  -0.030  1.00  0.00     0.173 A 
HETATM   11  O4  UNL     1      -0.637   1.356  -1.104  1.00  0.00    -0.321 OA
HETATM   12  C19 UNL     1      -1.838   2.056  -1.002  1.00  0.00     0.327 A 
HETATM   13  O7  UNL     1      -1.927   2.776   0.323  1.00  0.00    -0.307 OA
HETATM   14  C22 UNL     1      -2.284   1.408   0.035  1.00  0.00     0.185 A 
HETATM   15  C23 UNL     1      -3.461   0.885   0.707  1.00  0.00     0.084 C 
HETATM   16  C26 UNL     1      -4.352  -0.061  -0.050  1.00  0.00     0.131 C 
HETATM   17  C27 UNL     1      -4.598  -1.346   0.705  1.00  0.00     0.065 C 
ENDROOT
BRANCH   8  18
HETATM   18  O1  UNL     1       1.476  -1.082   0.614  1.00  0.00    -0.315 OA
BRANCH  18  19
HETATM   19  C9  UNL     1       2.825  -1.199   0.935  1.00  0.00     0.263 C 
HETATM   20  O2  UNL     1       3.095  -0.906   2.125  1.00  0.00    -0.265 OA
BRANCH  19  21
HETATM   21  C10 UNL     1       3.848  -1.636  -0.041  1.00  0.00     0.084 C 
HETATM   22  C11 UNL     1       3.416  -1.225  -1.465  1.00  0.00     0.020 C 
BRANCH  21  23
HETATM   23  C12 UNL     1       5.198  -1.052   0.248  1.00  0.00     0.046 C 
BRANCH  23  24
HETATM   24  C13 UNL     1       5.332   0.417   0.183  1.00  0.00     0.122 C 
BRANCH  24  25
HETATM   25  O3  UNL     1       4.537   1.124   1.051  1.00  0.00    -0.395 OA
ATOM     26  H3  UNL     1       4.623   2.069   1.009  1.00  0.00     0.210 HD
ENDBRANCH  24  25
BRANCH  24  27
HETATM   27  C14 UNL     1       6.755   0.894   0.423  1.00  0.00     0.006 C 
HETATM   28  C15 UNL     1       6.736   2.415   0.325  1.00  0.00     0.012 C 
HETATM   29  C16 UNL     1       7.719   0.379  -0.590  1.00  0.00     0.012 C 
ENDBRANCH  24  27
ENDBRANCH  23  24
ENDBRANCH  21  23
ENDBRANCH  19  21
ENDBRANCH  18  19
ENDBRANCH   8  18
BRANCH  12  30
HETATM   30  O5  UNL     1      -2.216   2.972  -1.973  1.00  0.00    -0.256 OA
BRANCH  30  31
HETATM   31  C20 UNL     1      -2.417   2.704  -3.304  1.00  0.00     0.259 C 
HETATM   32  C21 UNL     1      -2.824   3.752  -4.279  1.00  0.00     0.126 C 
HETATM   33  O6  UNL     1      -2.237   1.508  -3.674  1.00  0.00    -0.266 OA
ENDBRANCH  30  31
ENDBRANCH  12  30
BRANCH  15  34
HETATM   34  C24 UNL     1      -4.248   2.060   1.314  1.00  0.00     0.177 C 
BRANCH  34  35
HETATM   35  O8  UNL     1      -4.635   2.934   0.321  1.00  0.00    -0.395 OA
HETATM   36  C25 UNL     1      -5.343   3.972   0.969  1.00  0.00     0.201 C 
ENDBRANCH  34  35
ENDBRANCH  15  34
BRANCH  16  37
HETATM   37  O9  UNL     1      -4.048  -0.208  -1.372  1.00  0.00    -0.395 OA
ATOM     38  H9  UNL     1      -4.611  -0.806  -1.850  1.00  0.00     0.210 HD
ENDBRANCH  16  37
TORSDOF 12
