REMARK  11 active torsions:
REMARK  status: ('A' for Active; 'I' for Inactive)
REMARK    1  A    between atoms: C2_2  and  C3_3 
REMARK    2  A    between atoms: C3_3  and  C4_4 
REMARK    3  A    between atoms: C4_4  and  C5_5 
REMARK    4  A    between atoms: C5_5  and  C6_6 
REMARK    5  A    between atoms: C6_6  and  O2_8 
REMARK    6  A    between atoms: O2_8  and  C7_9 
REMARK    7  A    between atoms: C9_11  and  O3_12 
REMARK    8  A    between atoms: O3_12  and  C10_13 
REMARK    9  A    between atoms: C25_32  and  C26_33 
REMARK   10  A    between atoms: C26_33  and  O8_34 
REMARK   11  A    between atoms: C27_36  and  O9_37 
ROOT
HETATM    1  C7  UNL     1       2.888  -1.614   0.551  1.00  0.00     0.167 C 
HETATM    2  C8  UNL     1       1.482  -1.569   0.001  1.00  0.00     0.096 C 
HETATM    3  C9  UNL     1       0.648  -0.903   1.098  1.00  0.00     0.266 C 
HETATM    4  O7  UNL     1       1.217  -0.976   2.335  1.00  0.00    -0.351 OA
HETATM    5  C25 UNL     1       1.886  -2.092   2.706  1.00  0.00     0.179 C 
HETATM    6  C27 UNL     1       2.872  -2.622   1.674  1.00  0.00     0.179 C 
ENDROOT
BRANCH   3   7
HETATM    7  O3  UNL     1      -0.661  -1.291   1.062  1.00  0.00    -0.331 OA
BRANCH   7   8
HETATM    8  C10 UNL     1      -1.565  -0.253   0.704  1.00  0.00     0.267 C 
HETATM    9  C11 UNL     1      -2.283  -0.651  -0.516  1.00  0.00     0.065 C 
HETATM   10  C12 UNL     1      -3.713  -0.481  -0.700  1.00  0.00    -0.009 C 
HETATM   11  C13 UNL     1      -4.377  -1.813  -0.253  1.00  0.00     0.010 C 
HETATM   12  C14 UNL     1      -4.483   0.616  -0.110  1.00  0.00     0.010 C 
HETATM   13  C15 UNL     1      -5.151   1.331  -1.288  1.00  0.00    -0.013 C 
HETATM   14  C20 UNL     1      -3.814   1.626   0.710  1.00  0.00     0.053 C 
HETATM   15  C16 UNL     1      -6.314   2.176  -0.844  1.00  0.00     0.010 C 
HETATM   16  C17 UNL     1      -4.211   2.062  -2.169  1.00  0.00     0.005 C 
HETATM   17  C18 UNL     1      -3.030   2.652  -1.486  1.00  0.00     0.001 C 
HETATM   18  C19 UNL     1      -3.054   2.685  -0.018  1.00  0.00     0.018 C 
HETATM   19  C21 UNL     1      -4.531   2.268   1.876  1.00  0.00     0.183 C 
HETATM   20  C22 UNL     1      -3.044   1.068   1.889  1.00  0.00     0.216 C 
HETATM   21  O4  UNL     1      -3.464   3.135   2.275  1.00  0.00    -0.231 OA
HETATM   22  C23 UNL     1      -4.235   1.157   2.821  1.00  0.00     0.081 C 
HETATM   23  O5  UNL     1      -2.431   2.261   2.262  1.00  0.00    -0.199 OA
HETATM   24  C24 UNL     1      -5.128   0.046   3.054  1.00  0.00     0.018 C 
HETATM   25  O6  UNL     1      -2.425  -0.070   1.733  1.00  0.00    -0.321 OA
ENDBRANCH   7   8
ENDBRANCH   3   7
BRANCH   1  26
HETATM   26  O2  UNL     1       3.859  -1.863  -0.413  1.00  0.00    -0.313 OA
BRANCH  26  27
HETATM   27  C6  UNL     1       4.906  -1.061  -0.747  1.00  0.00     0.259 C 
HETATM   28  O1  UNL     1       5.041   0.028  -0.139  1.00  0.00    -0.265 OA
BRANCH  27  29
HETATM   29  C5  UNL     1       5.860  -1.439  -1.781  1.00  0.00     0.111 C 
BRANCH  29  30
HETATM   30  C4  UNL     1       6.953  -0.476  -2.070  1.00  0.00     0.010 C 
BRANCH  30  31
HETATM   31  C3  UNL     1       6.556   0.874  -2.539  1.00  0.00     0.000 C 
BRANCH  31  32
HETATM   32  C2  UNL     1       7.853   1.662  -2.766  1.00  0.00    -0.005 C 
HETATM   33  C1  UNL     1       8.657   1.770  -1.489  1.00  0.00     0.005 C 
ENDBRANCH  31  32
ENDBRANCH  30  31
ENDBRANCH  29  30
ENDBRANCH  27  29
ENDBRANCH  26  27
ENDBRANCH   1  26
BRANCH   5  34
HETATM   34  C26 UNL     1       1.047  -3.218   3.264  1.00  0.00     0.198 C 
BRANCH  34  35
HETATM   35  O8  UNL     1       0.097  -3.712   2.412  1.00  0.00    -0.398 OA
ATOM     36  H8  UNL     1      -0.430  -4.420   2.763  1.00  0.00     0.209 HD
ENDBRANCH  34  35
ENDBRANCH   5  34
BRANCH   6  37
HETATM   37  O9  UNL     1       4.136  -2.811   2.167  1.00  0.00    -0.390 OA
ATOM     38  H9  UNL     1       4.126  -3.446   2.874  1.00  0.00     0.210 HD
ENDBRANCH   6  37
TORSDOF 11
