REMARK  11 active torsions:
REMARK  status: ('A' for Active; 'I' for Inactive)
REMARK    1  A    between atoms: C2_2  and  C3_3 
REMARK    2  A    between atoms: C3_3  and  C4_4 
REMARK    3  A    between atoms: C4_4  and  O2_6 
REMARK    4  A    between atoms: C8_10  and  O3_11 
REMARK    5  A    between atoms: N1_13  and  C9_14 
REMARK    6  A    between atoms: C9_14  and  C10_15 
REMARK    7  A    between atoms: C13_18  and  O4_19 
REMARK    8  A    between atoms: C19_26  and  C20_27 
REMARK    9  A    between atoms: C19_26  and  C22_30 
REMARK   10  A    between atoms: C22_30  and  O7_32 
REMARK   11  A    between atoms: O7_32  and  C23_33 
ROOT
HETATM    1  C3  UNL     1       0.653  -1.077  -0.237  1.00  0.00     0.158 C 
HETATM    2  C6  UNL     1       2.007  -0.610   0.215  1.00  0.00     0.046 A 
HETATM    3  C7  UNL     1       2.151   0.319   1.161  1.00  0.00     0.031 A 
HETATM    4  C8  UNL     1       3.530   0.509   1.405  1.00  0.00     0.155 A 
HETATM    5  N1  UNL     1       4.197  -0.309   0.599  1.00  0.00    -0.307 N 
HETATM    6  C13 UNL     1       3.288  -0.997  -0.133  1.00  0.00     0.154 A 
HETATM    7  C14 UNL     1       1.064   1.051   1.769  1.00  0.00     0.046 C 
HETATM    8  C15 UNL     1      -0.151   0.725   1.303  1.00  0.00     0.038 C 
HETATM    9  C16 UNL     1      -1.291   1.454   1.882  1.00  0.00     0.034 C 
HETATM   10  C17 UNL     1      -2.517   1.237   1.484  1.00  0.00    -0.049 C 
HETATM   11  C18 UNL     1      -3.632   2.006   2.096  1.00  0.00     0.046 C 
HETATM   12  C19 UNL     1      -2.866   0.213   0.501  1.00  0.00     0.183 C 
HETATM   13  C26 UNL     1      -1.740  -0.429  -0.192  1.00  0.00     0.112 C 
HETATM   14  S1  UNL     1      -2.091  -1.315  -1.557  1.00  0.00    -0.063 SA
HETATM   15  N2  UNL     1      -0.381  -0.227   0.278  1.00  0.00    -0.316 N 
ENDROOT
BRANCH  12  16
HETATM   16  C20 UNL     1      -3.634  -0.859   1.230  1.00  0.00     0.152 C 
HETATM   17  C21 UNL     1      -3.119  -1.592   2.396  1.00  0.00     0.093 C 
HETATM   18  O5  UNL     1      -4.751  -1.142   0.836  1.00  0.00    -0.296 OA
ENDBRANCH  12  16
BRANCH  12  19
HETATM   19  C22 UNL     1      -3.770   0.830  -0.514  1.00  0.00     0.286 C 
HETATM   20  O6  UNL     1      -3.404   0.882  -1.697  1.00  0.00    -0.263 OA
BRANCH  19  21
HETATM   21  O7  UNL     1      -5.004   1.340  -0.156  1.00  0.00    -0.315 OA
BRANCH  21  22
HETATM   22  C23 UNL     1      -5.891   1.932  -1.080  1.00  0.00     0.123 C 
HETATM   23  C24 UNL     1      -6.211   3.368  -0.757  1.00  0.00     0.040 C 
HETATM   24  C25 UNL     1      -7.199   1.183  -1.190  1.00  0.00     0.040 C 
ENDBRANCH  21  22
ENDBRANCH  19  21
ENDBRANCH  12  19
BRANCH   1  25
HETATM   25  C2  UNL     1       0.658  -2.476   0.323  1.00  0.00     0.043 C 
HETATM   26  C1  UNL     1      -0.385  -3.457   0.076  1.00  0.00     0.008 C 
ENDBRANCH   1  25
BRANCH   1  27
HETATM   27  C4  UNL     1       0.625  -1.128  -1.698  1.00  0.00     0.292 C 
HETATM   28  O1  UNL     1       0.329  -0.234  -2.515  1.00  0.00    -0.262 OA
BRANCH  27  29
HETATM   29  O2  UNL     1       0.978  -2.338  -2.276  1.00  0.00    -0.324 OA
HETATM   30  C5  UNL     1       1.002  -2.548  -3.678  1.00  0.00     0.213 C 
ENDBRANCH  27  29
ENDBRANCH   1  27
BRANCH   6  31
HETATM   31  O4  UNL     1       3.605  -1.928  -1.069  1.00  0.00    -0.345 OA
ATOM     32  H4  UNL     1       4.485  -2.194  -1.308  1.00  0.00     0.219 HD
ENDBRANCH   6  31
BRANCH   4  33
HETATM   33  O3  UNL     1       4.095   1.393   2.325  1.00  0.00    -0.345 OA
ATOM     34  H3  UNL     1       5.022   1.521   2.489  1.00  0.00     0.219 HD
ENDBRANCH   4  33
BRANCH   5  35
HETATM   35  C9  UNL     1       5.633  -0.453   0.500  1.00  0.00     0.137 C 
BRANCH  35  36
HETATM   36  C10 UNL     1       6.282   0.435  -0.505  1.00  0.00    -0.004 C 
HETATM   37  C11 UNL     1       7.784   0.130  -0.455  1.00  0.00     0.011 C 
HETATM   38  C12 UNL     1       6.042   1.886  -0.200  1.00  0.00     0.011 C 
ENDBRANCH  35  36
ENDBRANCH   5  35
TORSDOF 11
