REMARK  4 active torsions:
REMARK  status: ('A' for Active; 'I' for Inactive)
REMARK    1  A    between atoms: C3_7  and  N3_8 
REMARK    2  A    between atoms: N4_10  and  C4_12 
REMARK    3  A    between atoms: C9_19  and  N6_20 
REMARK    4  A    between atoms: N7_23  and  N8_24 
ROOT
HETATM    1  C4  UNL     1       1.041  -0.353  -1.889  1.00  0.00     0.090 A 
HETATM    2  C5  UNL     1      -0.001  -1.109  -1.426  1.00  0.00     0.057 A 
HETATM    3  C6  UNL     1      -0.969  -0.481  -0.721  1.00  0.00     0.058 A 
HETATM    4  C7  UNL     1      -2.088  -1.178  -0.200  1.00  0.00     0.273 C 
HETATM    5  O1  UNL     1      -1.948  -2.434  -0.054  1.00  0.00    -0.267 OA
HETATM    6  N5  UNL     1      -3.289  -0.707   0.167  1.00  0.00    -0.150 N 
HETATM    7  C8  UNL     1      -4.412  -1.643   0.077  1.00  0.00     0.179 C 
HETATM    8  C9  UNL     1      -3.601   0.536   0.616  1.00  0.00     0.704 C 
HETATM    9  N7  UNL     1      -2.851   1.651   0.669  1.00  0.00    -0.053 N 
HETATM   10  C10 UNL     1      -1.625   1.793   0.140  1.00  0.00     0.299 C 
HETATM   11  O2  UNL     1      -1.057   2.914   0.229  1.00  0.00    -0.264 OA
HETATM   12  C11 UNL     1      -0.814   0.866  -0.535  1.00  0.00     0.093 A 
HETATM   13  S1  UNL     1       0.652   1.209  -1.336  1.00  0.00    -0.065 SA
ENDROOT
BRANCH   1  14
HETATM   14  N4  UNL     1       2.182  -0.808  -2.661  1.00  0.00    -0.295 N 
HETATM   15  N3  UNL     1       3.314  -0.681  -2.122  1.00  0.00    -0.280 N 
ATOM     16  H3  UNL     1       4.143  -0.988  -2.631  1.00  0.00     0.184 HD
ATOM     17  H4  UNL     1       2.074  -1.210  -3.592  1.00  0.00     0.187 HD
BRANCH  15  18
HETATM   18  C3  UNL     1       3.470  -0.116  -0.812  1.00  0.00     0.540 C 
HETATM   19  N1  UNL     1       4.718  -0.508  -0.141  1.00  0.00     0.161 N 
HETATM   20  C1  UNL     1       5.243   0.551   0.679  1.00  0.00     0.317 C 
HETATM   21  C2  UNL     1       3.958  -1.523   0.560  1.00  0.00     0.512 C 
HETATM   22  N2  UNL     1       2.753  -0.809   0.236  1.00  0.00     0.002 N 
ATOM     23  H22 UNL     1       1.894  -1.317   0.024  1.00  0.00     0.284 HD
ATOM     24  H21 UNL     1       2.256  -0.283   0.955  1.00  0.00     0.284 HD
ENDBRANCH  15  18
ENDBRANCH   1  14
BRANCH   9  25
HETATM   25  N8  UNL     1      -3.382   2.755   1.327  1.00  0.00    -0.321 N 
ATOM     26  H82 UNL     1      -4.313   2.647   1.729  1.00  0.00     0.178 HD
ATOM     27  H81 UNL     1      -2.813   3.601   1.367  1.00  0.00     0.178 HD
ENDBRANCH   9  25
BRANCH   8  28
HETATM   28  N6  UNL     1      -4.808   0.630   1.051  1.00  0.00    -0.232 N 
ATOM     29  H62 UNL     1      -5.377  -0.216   1.011  1.00  0.00     0.174 HD
ATOM     30  H61 UNL     1      -5.042   1.564   1.388  1.00  0.00     0.174 HD
ENDBRANCH   8  28
TORSDOF 4
