REMARK  5 active torsions:
REMARK  status: ('A' for Active; 'I' for Inactive)
REMARK    1  A    between atoms: O1_2  and  C2_3 
REMARK    2  A    between atoms: C3_4  and  O2_5 
REMARK    3  A    between atoms: C9_13  and  O4_14 
REMARK    4  A    between atoms: N1_19  and  O6_20 
REMARK    5  A    between atoms: N2_26  and  O9_27 
ROOT
HETATM    1  C2  UNL     1      -0.326   1.624   0.585  1.00  0.00     0.121 A 
HETATM    2  C3  UNL     1       1.067   1.731   0.625  1.00  0.00     0.132 A 
HETATM    3  C4  UNL     1       1.849   0.637   0.348  1.00  0.00     0.134 A 
HETATM    4  C5  UNL     1       1.268  -0.572   0.028  1.00  0.00     0.133 A 
HETATM    5  C6  UNL     1      -0.102  -0.688  -0.013  1.00  0.00     0.124 A 
HETATM    6  O3  UNL     1      -0.666  -1.832  -0.314  1.00  0.00    -0.309 OA
HETATM    7  C7  UNL     1      -1.957  -1.990  -0.362  1.00  0.00     0.087 A 
HETATM    8  C8  UNL     1      -2.585  -3.311  -0.709  1.00  0.00     0.079 C 
HETATM    9  C9  UNL     1      -2.820  -0.955  -0.098  1.00  0.00     0.146 A 
HETATM   10  C10 UNL     1      -2.285   0.280   0.225  1.00  0.00     0.223 A 
HETATM   11  O5  UNL     1      -3.070   1.220   0.467  1.00  0.00    -0.284 OA
HETATM   12  C11 UNL     1      -0.914   0.423   0.268  1.00  0.00     0.089 A 
HETATM   13  N1  UNL     1       2.066  -1.645  -0.245  1.00  0.00    -0.178 N 
HETATM   14  C12 UNL     1       3.399  -1.562  -0.212  1.00  0.00     0.342 A 
HETATM   15  O7  UNL     1       4.125  -2.554  -0.464  1.00  0.00    -0.259 OA
HETATM   16  C13 UNL     1       3.963  -0.357   0.107  1.00  0.00     0.342 A 
HETATM   17  O8  UNL     1       5.214  -0.211   0.155  1.00  0.00    -0.259 OA
HETATM   18  N2  UNL     1       3.210   0.721   0.381  1.00  0.00    -0.178 N 
ENDROOT
BRANCH   1  19
HETATM   19  O1  UNL     1      -1.124   2.713   0.860  1.00  0.00    -0.352 OA
HETATM   20  C1  UNL     1      -1.522   3.673  -0.106  1.00  0.00     0.210 C 
ENDBRANCH   1  19
BRANCH   2  21
HETATM   21  O2  UNL     1       1.601   2.963   0.951  1.00  0.00    -0.356 OA
ATOM     22  H2  UNL     1       2.548   3.036   0.978  1.00  0.00     0.218 HD
ENDBRANCH   2  21
BRANCH  18  23
HETATM   23  O9  UNL     1       3.791   1.919   0.698  1.00  0.00    -0.279 OA
ATOM     24  H9  UNL     1       4.739   1.978   0.721  1.00  0.00     0.245 HD
ENDBRANCH  18  23
BRANCH   9  25
HETATM   25  O4  UNL     1      -4.217  -1.137  -0.153  1.00  0.00    -0.355 OA
ATOM     26  H4  UNL     1      -4.814  -0.421   0.030  1.00  0.00     0.218 HD
ENDBRANCH   9  25
BRANCH  13  27
HETATM   27  O6  UNL     1       1.442  -2.837  -0.560  1.00  0.00    -0.279 OA
ATOM     28  H6  UNL     1       1.997  -3.584  -0.750  1.00  0.00     0.245 HD
ENDBRANCH  13  27
TORSDOF 5
