REMARK  4 active torsions:
REMARK  status: ('A' for Active; 'I' for Inactive)
REMARK    1  A    between atoms: C2_2  and  O2_4 
REMARK    2  A    between atoms: O2_4  and  C3_5 
REMARK    3  A    between atoms: C9_21  and  N6_22 
REMARK    4  A    between atoms: N7_27  and  O4_28 
ROOT
HETATM    1  C3  UNL     1      -1.580   0.019   0.887  1.00  0.00     0.229 C 
HETATM    2  C4  UNL     1      -2.533   0.393   1.970  1.00  0.00     0.205 C 
HETATM    3  N1  UNL     1      -2.115   1.730   2.338  1.00  0.00    -0.136 NA
HETATM    4  N2  UNL     1      -0.790   1.859   1.948  1.00  0.00    -0.301 N 
ATOM      5  H2  UNL     1      -0.172   2.605   2.267  1.00  0.00     0.182 HD
HETATM    6  C5  UNL     1      -0.437   0.939   1.147  1.00  0.00     0.109 C 
HETATM    7  C6  UNL     1       0.802   0.576   0.473  1.00  0.00     0.078 A 
HETATM    8  N3  UNL     1       1.763   1.469   0.201  1.00  0.00    -0.332 N 
ATOM      9  H3  UNL     1       1.635   2.445   0.470  1.00  0.00     0.168 HD
HETATM   10  C7  UNL     1       2.917   1.088  -0.434  1.00  0.00     0.177 A 
HETATM   11  S1  UNL     1       4.315   1.944  -0.923  1.00  0.00     0.011 SA
HETATM   12  C8  UNL     1       5.153   0.630  -1.606  1.00  0.00     0.306 A 
HETATM   13  O3  UNL     1       6.309   0.592  -2.169  1.00  0.00    -0.258 OA
HETATM   14  N4  UNL     1       4.314  -0.382  -1.419  1.00  0.00    -0.250 N 
ATOM     15  H4  UNL     1       4.554  -1.322  -1.735  1.00  0.00     0.191 HD
HETATM   16  N5  UNL     1       3.182  -0.152  -0.826  1.00  0.00    -0.213 N 
HETATM   17  C9  UNL     1       2.214  -1.098  -0.563  1.00  0.00     0.137 A 
HETATM   18  C10 UNL     1       1.053  -0.717   0.077  1.00  0.00     0.056 A 
HETATM   19  C11 UNL     1       0.011  -1.742   0.368  1.00  0.00     0.138 C 
HETATM   20  N7  UNL     1      -1.133  -1.345   1.040  1.00  0.00    -0.227 N 
ENDROOT
BRANCH   1  21
HETATM   21  O2  UNL     1      -2.177   0.115  -0.344  1.00  0.00    -0.280 OA
BRANCH  21  22
HETATM   22  C2  UNL     1      -2.731   1.173  -1.003  1.00  0.00     0.257 C 
HETATM   23  C1  UNL     1      -3.320   0.946  -2.367  1.00  0.00     0.126 C 
HETATM   24  O1  UNL     1      -2.732   2.279  -0.463  1.00  0.00    -0.266 OA
ENDBRANCH  21  22
ENDBRANCH   1  21
BRANCH  20  25
HETATM   25  O4  UNL     1      -1.451  -1.919   2.176  1.00  0.00    -0.285 OA
ATOM     26  H4  UNL     1      -1.157  -2.817   2.277  1.00  0.00     0.245 HD
ENDBRANCH  20  25
BRANCH  17  27
HETATM   27  N6  UNL     1       2.354  -2.326  -0.895  1.00  0.00    -0.383 N 
ATOM     28  H62 UNL     1       3.213  -2.608  -1.368  1.00  0.00     0.157 HD
ATOM     29  H61 UNL     1       1.638  -3.026  -0.700  1.00  0.00     0.157 HD
ENDBRANCH  17  27
TORSDOF 4
