REMARK  4 active torsions:
REMARK  status: ('A' for Active; 'I' for Inactive)
REMARK    1  A    between atoms: O1_2  and  C2_3 
REMARK    2  A    between atoms: C3_4  and  O2_5 
REMARK    3  A    between atoms: N5_21  and  O4_22 
REMARK    4  A    between atoms: C9_24  and  N6_25 
REMARK       I    between atoms: N6_25  and  C10_27 
ROOT
HETATM    1  C2  UNL     1      -1.472   1.147   0.404  1.00  0.00     0.149 A 
HETATM    2  C3  UNL     1      -0.095   1.371   0.414  1.00  0.00     0.122 A 
HETATM    3  C4  UNL     1       0.735   0.286   0.220  1.00  0.00     0.116 A 
HETATM    4  C5  UNL     1       2.109   0.386   0.210  1.00  0.00     0.285 A 
HETATM    5  O3  UNL     1       2.623   1.517   0.387  1.00  0.00    -0.266 OA
HETATM    6  N1  UNL     1       2.923  -0.691   0.018  1.00  0.00    -0.085 N 
HETATM    7  C6  UNL     1       4.268  -0.770  -0.021  1.00  0.00     0.197 A 
HETATM    8  S1  UNL     1       5.465   0.542   0.172  1.00  0.00    -0.011 SA
HETATM    9  N2  UNL     1       4.540  -2.066  -0.239  1.00  0.00    -0.264 N 
ATOM     10  H2  UNL     1       5.478  -2.458  -0.321  1.00  0.00     0.189 HD
HETATM   11  N3  UNL     1       3.411  -2.769  -0.333  1.00  0.00    -0.129 N 
ATOM     12  H3  UNL     1       3.336  -3.773  -0.496  1.00  0.00     0.205 HD
HETATM   13  C7  UNL     1       2.382  -1.904  -0.172  1.00  0.00     0.710 A 
HETATM   14  N4  UNL     1       1.047  -2.032  -0.167  1.00  0.00    -0.171 N 
ATOM     15  H4  UNL     1       0.644  -2.958  -0.311  1.00  0.00     0.186 HD
HETATM   16  C8  UNL     1       0.215  -0.987   0.021  1.00  0.00     0.169 A 
HETATM   17  N5  UNL     1      -1.131  -1.178   0.015  1.00  0.00    -0.187 N 
HETATM   18  C9  UNL     1      -1.953  -0.135   0.202  1.00  0.00     0.176 A 
ENDROOT
BRANCH  18  19
HETATM   19  N6  UNL     1      -3.230  -0.280   0.202  1.00  0.00    -0.282 N 
HETATM   20  C10 UNL     1      -3.892  -1.509   0.013  1.00  0.00     0.289 C 
HETATM   21  O5  UNL     1      -4.195  -2.210   1.019  1.00  0.00    -0.629 OA
HETATM   22  O6  UNL     1      -4.222  -1.971  -1.259  1.00  0.00    -0.629 OA
ATOM     23  H6  UNL     1      -3.803   0.551   0.349  1.00  0.00     0.173 HD
ENDBRANCH  18  19
BRANCH   1  24
HETATM   24  O1  UNL     1      -2.330   2.192   0.592  1.00  0.00    -0.350 OA
HETATM   25  C1  UNL     1      -2.867   3.006  -0.425  1.00  0.00     0.210 C 
ENDBRANCH   1  24
BRANCH  17  26
HETATM   26  O4  UNL     1      -1.605  -2.471  -0.189  1.00  0.00    -0.279 OA
ATOM     27  H4  UNL     1      -2.546  -2.604  -0.193  1.00  0.00     0.245 HD
ENDBRANCH  17  26
BRANCH   2  28
HETATM   28  O2  UNL     1       0.341   2.632   0.614  1.00  0.00    -0.357 OA
ATOM     29  H2  UNL     1       1.279   2.785   0.621  1.00  0.00     0.218 HD
ENDBRANCH   2  28
TORSDOF 4
