REMARK  3 active torsions:
REMARK  status: ('A' for Active; 'I' for Inactive)
REMARK    1  A    between atoms: C2_2  and  C4_4 
REMARK    2  A    between atoms: C7_10  and  C8_11 
REMARK    3  A    between atoms: C8_11  and  N2_13 
ROOT
HETATM    1  C4  UNL     1      -0.719  -0.860   0.272  1.00  0.00     0.195 C 
HETATM    2  N1  UNL     1      -0.880  -1.674  -0.961  1.00  0.00    -0.070 N 
ATOM      3  H11 UNL     1      -1.053  -1.138  -1.812  1.00  0.00     0.277 HD
ATOM      4  H12 UNL     1      -1.743  -2.215  -1.010  1.00  0.00     0.277 HD
HETATM    5  C5  UNL     1       0.354  -2.471  -0.969  1.00  0.00     0.233 C 
HETATM    6  C6  UNL     1       1.345  -1.347  -0.777  1.00  0.00     0.036 C 
HETATM    7  C7  UNL     1       0.675  -0.653   0.425  1.00  0.00     0.048 C 
ENDROOT
BRANCH   7   8
HETATM    8  C8  UNL     1       1.348   0.644   0.660  1.00  0.00     0.185 C 
HETATM    9  C9  UNL     1       1.168   1.681  -0.417  1.00  0.00     0.040 C 
BRANCH   8  10
HETATM   10  N2  UNL     1       2.804   0.412   0.757  1.00  0.00    -0.075 N 
ATOM     11  H23 UNL     1       3.042  -0.285   1.463  1.00  0.00     0.274 HD
ATOM     12  H22 UNL     1       3.176  -0.079  -0.056  1.00  0.00     0.274 HD
ATOM     13  H21 UNL     1       3.268   1.306   0.919  1.00  0.00     0.274 HD
ENDBRANCH   8  10
ENDBRANCH   7   8
BRANCH   1  14
HETATM   14  C2  UNL     1      -1.799   0.124   0.275  1.00  0.00     0.008 C 
HETATM   15  C1  UNL     1      -1.811   1.053   1.480  1.00  0.00     0.011 C 
HETATM   16  C3  UNL     1      -2.132   0.884  -0.950  1.00  0.00     0.011 C 
ENDBRANCH   1  14
TORSDOF 3
