REMARK  17 active torsions:
REMARK  status: ('A' for Active; 'I' for Inactive)
REMARK    1  A    between atoms: C2_2  and  O1_3 
REMARK    2  A    between atoms: O1_3  and  C3_4 
REMARK    3  A    between atoms: C3_4  and  O3_6 
REMARK    4  A    between atoms: O3_6  and  C4_7 
REMARK    5  A    between atoms: C4_7  and  C6_9 
REMARK    6  A    between atoms: C6_9  and  C7_10 
REMARK    7  A    between atoms: C6_9  and  N2_17 
REMARK    8  A    between atoms: C7_10  and  O4_11 
REMARK    9  A    between atoms: N1_13  and  O5_15 
REMARK   10  A    between atoms: N2_17  and  C8_18 
REMARK   11  A    between atoms: N2_17  and  S1_25 
REMARK   12  A    between atoms: C8_18  and  O6_19 
REMARK   13  A    between atoms: N3_21  and  O7_23 
REMARK   14  A    between atoms: S1_25  and  C9_28 
REMARK   15  A    between atoms: C11_30  and  N4_31 
REMARK   16  A    between atoms: N4_31  and  O10_32 
REMARK   17  A    between atoms: N4_31  and  C12_34 
ROOT
HETATM    1  N2  UNL     1       0.376  -0.968   0.133  1.00  0.00    -0.195 N 
ENDROOT
BRANCH   1   2
HETATM    2  C6  UNL     1       1.250  -1.898   0.710  1.00  0.00     0.113 C 
BRANCH   2   3
HETATM    3  C4  UNL     1       2.751  -1.574   0.505  1.00  0.00     0.185 C 
HETATM    4  C5  UNL     1       3.530  -2.778   1.006  1.00  0.00     0.047 C 
BRANCH   3   5
HETATM    5  O3  UNL     1       3.156  -0.375   1.028  1.00  0.00    -0.287 OA
BRANCH   5   6
HETATM    6  C3  UNL     1       3.714   0.603   0.217  1.00  0.00     0.407 C 
HETATM    7  O2  UNL     1       3.820   0.323  -0.979  1.00  0.00    -0.229 OA
BRANCH   6   8
HETATM    8  O1  UNL     1       4.140   1.830   0.675  1.00  0.00    -0.298 OA
BRANCH   8   9
HETATM    9  C2  UNL     1       4.706   2.831  -0.110  1.00  0.00     0.176 C 
HETATM   10  C1  UNL     1       3.838   3.345  -1.223  1.00  0.00     0.034 C 
ENDBRANCH   8   9
ENDBRANCH   6   8
ENDBRANCH   5   6
ENDBRANCH   3   5
ENDBRANCH   2   3
BRANCH   2  11
HETATM   11  C7  UNL     1       1.029  -2.426   2.052  1.00  0.00     0.187 C 
HETATM   12  N1  UNL     1       0.341  -3.511   2.296  1.00  0.00    -0.246 N 
ATOM     13  H1  UNL     1       0.239  -3.806   3.267  1.00  0.00     0.196 HD
BRANCH  11  14
HETATM   14  O4  UNL     1       1.545  -1.804   3.209  1.00  0.00    -0.343 OA
ATOM     15  H4  UNL     1       1.401  -2.148   4.083  1.00  0.00     0.219 HD
ENDBRANCH  11  14
BRANCH  12  16
HETATM   16  O5  UNL     1      -0.244  -4.266   1.338  1.00  0.00    -0.288 OA
ATOM     17  H5  UNL     1      -0.744  -5.054   1.515  1.00  0.00     0.244 HD
ENDBRANCH  12  16
ENDBRANCH   2  11
ENDBRANCH   1   2
BRANCH   1  18
HETATM   18  C8  UNL     1      -0.290  -1.445  -1.106  1.00  0.00     0.258 C 
HETATM   19  N3  UNL     1      -1.478  -1.887  -1.075  1.00  0.00    -0.232 N 
ATOM     20  H3  UNL     1      -1.953  -1.902  -0.172  1.00  0.00     0.198 HD
BRANCH  18  21
HETATM   21  O6  UNL     1       0.493  -1.356  -2.238  1.00  0.00    -0.330 OA
ATOM     22  H6  UNL     1       0.067  -1.661  -3.030  1.00  0.00     0.221 HD
ENDBRANCH  18  21
BRANCH  19  23
HETATM   23  O7  UNL     1      -2.163  -2.341  -2.151  1.00  0.00    -0.287 OA
ATOM     24  H7  UNL     1      -3.053  -2.672  -2.128  1.00  0.00     0.244 HD
ENDBRANCH  19  23
ENDBRANCH   1  18
BRANCH   1  25
HETATM   25  S1  UNL     1      -0.099   0.606   0.534  1.00  0.00     0.274 S 
HETATM   26  O8  UNL     1       0.522   1.101   1.818  1.00  0.00    -0.200 OA
HETATM   27  O9  UNL     1       0.318   1.627  -0.517  1.00  0.00    -0.200 OA
BRANCH  25  28
HETATM   28  C9  UNL     1      -1.821   0.789   0.764  1.00  0.00     0.104 A 
HETATM   29  C10 UNL     1      -2.581   1.345  -0.274  1.00  0.00     0.058 A 
HETATM   30  C11 UNL     1      -3.940   1.468  -0.209  1.00  0.00     0.059 A 
HETATM   31  C13 UNL     1      -4.577   1.030   0.916  1.00  0.00     0.033 A 
HETATM   32  C14 UNL     1      -3.854   0.486   1.941  1.00  0.00     0.028 A 
HETATM   33  C15 UNL     1      -2.462   0.362   1.872  1.00  0.00     0.057 A 
HETATM   34 CL2  UNL     1      -1.683  -0.275   3.309  1.00  0.00    -0.083 Cl
BRANCH  30  35
HETATM   35  N4  UNL     1      -4.688   2.032  -1.282  1.00  0.00    -0.247 N 
BRANCH  35  36
HETATM   36  O10 UNL     1      -4.044   2.379  -2.319  1.00  0.00    -0.286 OA
ATOM     37  H10 UNL     1      -4.543   2.755  -3.035  1.00  0.00     0.244 HD
ENDBRANCH  35  36
BRANCH  35  38
HETATM   38  C12 UNL     1      -6.118   2.231  -1.259  1.00  0.00     0.270 C 
HETATM   39 CL1  UNL     1      -6.572   3.377   0.014  1.00  0.00    -0.106 Cl
ENDBRANCH  35  38
ENDBRANCH  30  35
ENDBRANCH  25  28
ENDBRANCH   1  25
TORSDOF 17
