REMARK  13 active torsions:
REMARK  status: ('A' for Active; 'I' for Inactive)
REMARK    1  A    between atoms: C2_2  and  C3_3 
REMARK    2  A    between atoms: C3_3  and  C5_5 
REMARK    3  A    between atoms: C5_5  and  N1_6 
REMARK    4  A    between atoms: C5_5  and  C12_20 
REMARK       I    between atoms: N1_6  and  C6_8 
REMARK    5  A    between atoms: C6_8  and  O2_10 
REMARK    6  A    between atoms: O2_10  and  C7_11 
REMARK    7  A    between atoms: C7_11  and  C8_12 
REMARK    8  A    between atoms: C12_20  and  N4_21 
REMARK    9  A    between atoms: C12_20  and  C18_36 
REMARK   10  A    between atoms: N4_21  and  C13_23 
REMARK   11  A    between atoms: C16_30  and  N7_31 
REMARK   12  A    between atoms: C18_36  and  O7_38 
REMARK   13  A    between atoms: O7_38  and  C19_39 
ROOT
HETATM    1  C12 UNL     1      -1.036  -0.604   0.353  1.00  0.00     0.109 C 
ENDROOT
BRANCH   1   2
HETATM    2  C5  UNL     1       0.117  -0.991  -0.546  1.00  0.00     0.146 C 
BRANCH   2   3
HETATM    3  C3  UNL     1      -0.212  -1.333  -1.942  1.00  0.00     0.010 C 
HETATM    4  C4  UNL     1      -0.589  -0.250  -2.882  1.00  0.00     0.012 C 
BRANCH   3   5
HETATM    5  C2  UNL     1       1.023  -2.001  -2.591  1.00  0.00     0.002 C 
HETATM    6  C1  UNL     1       0.693  -2.550  -3.941  1.00  0.00     0.005 C 
ENDBRANCH   3   5
ENDBRANCH   2   3
BRANCH   2   7
HETATM    7  N1  UNL     1       1.202  -0.081  -0.355  1.00  0.00    -0.326 N 
HETATM    8  C6  UNL     1       2.493  -0.352   0.144  1.00  0.00     0.361 C 
HETATM    9  O1  UNL     1       2.884  -1.495   0.506  1.00  0.00    -0.238 OA
ATOM     10  H1  UNL     1       1.019   0.889  -0.613  1.00  0.00     0.165 HD
BRANCH   8  11
HETATM   11  O2  UNL     1       3.409   0.676   0.252  1.00  0.00    -0.299 OA
BRANCH  11  12
HETATM   12  C7  UNL     1       4.706   0.455   0.742  1.00  0.00     0.222 C 
BRANCH  12  13
HETATM   13  C8  UNL     1       5.470   1.737   0.745  1.00  0.00    -0.003 A 
HETATM   14  C9  UNL     1       4.956   2.888   1.307  1.00  0.00     0.099 A 
HETATM   15  N2  UNL     1       5.677   4.021   1.285  1.00  0.00    -0.361 N 
HETATM   16  C10 UNL     1       6.907   4.023   0.709  1.00  0.00     0.180 A 
ATOM     17  H2  UNL     1       5.303   4.875   1.699  1.00  0.00     0.166 HD
HETATM   18  N3  UNL     1       7.412   2.913   0.163  1.00  0.00    -0.361 N 
HETATM   19  C11 UNL     1       6.712   1.758   0.169  1.00  0.00     0.099 A 
ATOM     20  H3  UNL     1       8.338   2.938  -0.264  1.00  0.00     0.166 HD
ENDBRANCH  12  13
ENDBRANCH  11  12
ENDBRANCH   8  11
ENDBRANCH   2   7
ENDBRANCH   1   2
BRANCH   1  21
HETATM   21  N4  UNL     1      -1.773   0.530  -0.033  1.00  0.00    -0.347 N 
ATOM     22  H4  UNL     1      -1.415   1.104  -0.797  1.00  0.00     0.166 HD
BRANCH  21  23
HETATM   23  C13 UNL     1      -2.982   0.913   0.584  1.00  0.00     0.127 A 
HETATM   24  C14 UNL     1      -4.222   0.775  -0.010  1.00  0.00     0.148 A 
HETATM   25  N5  UNL     1      -4.328   0.281  -1.350  1.00  0.00    -0.080 NA
HETATM   26  N6  UNL     1      -5.368   1.114   0.592  1.00  0.00    -0.331 N 
HETATM   27  C15 UNL     1      -5.354   1.614   1.829  1.00  0.00     0.142 A 
ATOM     28  H6  UNL     1      -6.255   0.990   0.104  1.00  0.00     0.168 HD
HETATM   29 CL1  UNL     1      -6.850   2.076   2.655  1.00  0.00    -0.062 Cl
HETATM   30  C16 UNL     1      -4.166   1.791   2.506  1.00  0.00     0.193 A 
HETATM   31  C17 UNL     1      -2.988   1.441   1.881  1.00  0.00     0.237 A 
HETATM   32  O5  UNL     1      -1.900   1.605   2.504  1.00  0.00    -0.283 OA
BRANCH  30  33
HETATM   33  N7  UNL     1      -4.154   2.327   3.837  1.00  0.00    -0.108 N 
HETATM   34  O3  UNL     1      -4.375   3.527   4.051  1.00  0.00    -0.532 OA
HETATM   35  O4  UNL     1      -3.886   1.446   4.853  1.00  0.00    -0.532 OA
ENDBRANCH  30  33
ENDBRANCH  21  23
ENDBRANCH   1  21
BRANCH   1  36
HETATM   36  C18 UNL     1      -1.748  -1.764   0.898  1.00  0.00     0.309 C 
HETATM   37  O6  UNL     1      -2.985  -1.764   1.060  1.00  0.00    -0.258 OA
BRANCH  36  38
HETATM   38  O7  UNL     1      -1.107  -2.942   1.272  1.00  0.00    -0.302 OA
BRANCH  38  39
HETATM   39  C19 UNL     1      -1.860  -4.018   1.790  1.00  0.00     0.293 C 
HETATM   40 CL2  UNL     1      -3.067  -4.568   0.609  1.00  0.00    -0.101 Cl
ENDBRANCH  38  39
ENDBRANCH  36  38
ENDBRANCH   1  36
TORSDOF 13
