REMARK  6 active torsions:
REMARK  status: ('A' for Active; 'I' for Inactive)
REMARK    1  A    between atoms: C2_2  and  C3_3 
REMARK    2  A    between atoms: C2_2  and  C4_5 
REMARK       I    between atoms: C4_5  and  N1_7 
REMARK    3  A    between atoms: N1_7  and  N2_9 
REMARK       I    between atoms: N2_9  and  C5_11 
REMARK       I    between atoms: C5_11  and  N3_13 
REMARK    4  A    between atoms: N3_13  and  N4_15 
REMARK    5  A    between atoms: N4_15  and  C6_17 
REMARK    6  A    between atoms: C6_17  and  C7_19 
ROOT
HETATM    1  N2  UNL     1       3.213  -0.473   0.238  1.00  0.00    -0.247 N 
ATOM      2  H2  UNL     1       3.375  -1.475   0.338  1.00  0.00     0.192 HD
HETATM    3  C5  UNL     1       1.879  -0.042   0.002  1.00  0.00     0.353 C 
HETATM    4  O3  UNL     1       1.644   1.190  -0.122  1.00  0.00    -0.244 OA
HETATM    5  N3  UNL     1       0.866  -1.033  -0.085  1.00  0.00    -0.249 N 
ATOM      6  H3  UNL     1       1.102  -2.020   0.020  1.00  0.00     0.192 HD
ENDROOT
BRANCH   5   7
HETATM    7  N4  UNL     1      -0.446  -0.648  -0.314  1.00  0.00    -0.286 N 
ATOM      8  H4  UNL     1      -0.702  -0.371  -1.262  1.00  0.00     0.188 HD
BRANCH   7   9
HETATM    9  C6  UNL     1      -1.452  -0.614   0.677  1.00  0.00     0.126 C 
HETATM   10  S1  UNL     1      -0.990  -1.058   2.177  1.00  0.00    -0.058 SA
BRANCH   9  11
HETATM   11  C7  UNL     1      -2.787  -0.197   0.303  1.00  0.00     0.011 A 
HETATM   12  C8  UNL     1      -3.027   0.954  -0.460  1.00  0.00     0.016 A 
HETATM   13  C9  UNL     1      -4.305   1.332  -0.813  1.00  0.00     0.009 A 
HETATM   14  C10 UNL     1      -5.401   0.584  -0.424  1.00  0.00    -0.044 A 
HETATM   15  C11 UNL     1      -6.771   1.046  -0.840  1.00  0.00     0.049 C 
HETATM   16  C12 UNL     1      -5.173  -0.544   0.324  1.00  0.00     0.023 A 
HETATM   17 BR1  UNL     1      -6.694  -1.579   0.864  1.00  0.00    -0.050 Br
HETATM   18  C13 UNL     1      -3.879  -0.926   0.680  1.00  0.00    -0.031 A 
HETATM   19  C14 UNL     1      -3.732  -2.136   1.478  1.00  0.00     0.050 C 
ENDBRANCH   9  11
ENDBRANCH   7   9
ENDBRANCH   5   7
BRANCH   1  20
HETATM   20  N1  UNL     1       4.312   0.370   0.343  1.00  0.00    -0.262 N 
HETATM   21  C4  UNL     1       5.574  -0.063  -0.106  1.00  0.00     0.268 C 
HETATM   22  O2  UNL     1       5.636  -1.248  -0.602  1.00  0.00    -0.266 OA
ATOM     23  H1  UNL     1       4.205   1.301   0.745  1.00  0.00     0.190 HD
BRANCH  21  24
HETATM   24  C2  UNL     1       6.784   0.716  -0.047  1.00  0.00     0.045 C 
HETATM   25  C1  UNL     1       7.427   1.152   1.233  1.00  0.00     0.057 C 
BRANCH  24  26
HETATM   26  C3  UNL     1       7.395   1.077  -1.158  1.00  0.00     0.271 C 
HETATM   27  O1  UNL     1       8.153   1.106  -2.165  1.00  0.00    -0.302 OA
ENDBRANCH  24  26
ENDBRANCH  21  24
ENDBRANCH   1  20
TORSDOF 6
