REMARK  3 active torsions:
REMARK  status: ('A' for Active; 'I' for Inactive)
REMARK    1  A    between atoms: C5_5  and  N1_6 
REMARK    2  A    between atoms: N1_6  and  C6_8 
REMARK    3  A    between atoms: C10_15  and  N4_16 
ROOT
HETATM    1  C6  UNL     1       1.367  -0.620   0.100  1.00  0.00     0.121 A 
HETATM    2  N2  UNL     1       1.105  -1.638  -0.738  1.00  0.00    -0.350 N 
ATOM      3  H2  UNL     1       0.164  -1.714  -1.125  1.00  0.00     0.166 HD
HETATM    4  C7  UNL     1       2.013  -2.559  -1.093  1.00  0.00     0.114 A 
HETATM    5  C8  UNL     1       3.306  -2.535  -0.619  1.00  0.00     0.088 A 
HETATM    6  C9  UNL     1       4.275  -3.524  -0.997  1.00  0.00     0.103 C 
HETATM    7  N3  UNL     1       5.070  -4.308  -1.311  1.00  0.00    -0.191 NA
HETATM    8  C10 UNL     1       3.613  -1.484   0.259  1.00  0.00     0.077 A 
HETATM    9  C12 UNL     1       2.672  -0.556   0.607  1.00  0.00     0.083 A 
HETATM   10 BR1  UNL     1       3.106   0.859   1.808  1.00  0.00    -0.045 Br
ENDROOT
BRANCH   8  11
HETATM   11  N4  UNL     1       4.920  -1.428   0.793  1.00  0.00    -0.331 N 
HETATM   12  C11 UNL     1       5.811  -0.543   0.554  1.00  0.00     0.201 C 
HETATM   13  N5  UNL     1       7.061  -0.665   1.189  1.00  0.00    -0.066 NA
HETATM   14  N6  UNL     1       5.629   0.565  -0.330  1.00  0.00    -0.066 NA
ATOM     15  H4  UNL     1       5.181  -2.174   1.438  1.00  0.00     0.168 HD
ENDBRANCH   8  11
BRANCH   1  16
HETATM   16  N1  UNL     1       0.496   0.246   0.442  1.00  0.00    -0.370 N 
ATOM     17  H1  UNL     1       0.850   0.956   1.083  1.00  0.00     0.161 HD
BRANCH  16  18
HETATM   18  C5  UNL     1      -0.850   0.409   0.108  1.00  0.00     0.088 C 
HETATM   19  C4  UNL     1      -1.393   1.741   0.690  1.00  0.00     0.055 C 
HETATM   20  C2  UNL     1      -2.707   2.043   0.038  1.00  0.00     0.021 C 
HETATM   21  C1  UNL     1      -2.348   2.976  -1.135  1.00  0.00     0.037 C 
HETATM   22  C3  UNL     1      -3.590   2.864   0.954  1.00  0.00     0.037 C 
HETATM   23  N7  UNL     1      -3.408   0.953  -0.484  1.00  0.00    -0.405 N 
HETATM   24  C14 UNL     1      -3.132  -0.362  -0.058  1.00  0.00     0.021 C 
ATOM     25  H7  UNL     1      -4.132   1.111  -1.185  1.00  0.00     0.154 HD
HETATM   26  C13 UNL     1      -1.829  -0.600   0.650  1.00  0.00     0.055 C 
HETATM   27  C15 UNL     1      -4.292  -0.829   0.825  1.00  0.00     0.037 C 
HETATM   28  C16 UNL     1      -3.150  -1.261  -1.282  1.00  0.00     0.037 C 
ENDBRANCH  16  18
ENDBRANCH   1  16
TORSDOF 3
