REMARK  9 active torsions:
REMARK  status: ('A' for Active; 'I' for Inactive)
REMARK    1  A    between atoms: C2_2  and  C3_3 
REMARK    2  A    between atoms: C3_3  and  O1_4 
REMARK    3  A    between atoms: O1_4  and  C4_5 
REMARK       I    between atoms: C4_5  and  N1_7 
REMARK    4  A    between atoms: N1_7  and  C5_9 
REMARK    5  A    between atoms: C5_9  and  N2_11 
REMARK    6  A    between atoms: N2_11  and  N3_13 
REMARK    7  A    between atoms: N3_13  and  C6_15 
REMARK    8  A    between atoms: C6_15  and  N4_17 
REMARK    9  A    between atoms: N4_17  and  C7_19 
ROOT
HETATM    1  N3  UNL     1      -1.470   2.061  -1.246  1.00  0.00    -0.274 N 
ATOM      2  H3  UNL     1      -1.239   2.298  -2.211  1.00  0.00     0.189 HD
ENDROOT
BRANCH   1   3
HETATM    3  N2  UNL     1      -0.546   1.408  -0.451  1.00  0.00    -0.274 N 
ATOM      4  H2  UNL     1      -0.785   1.156   0.508  1.00  0.00     0.189 HD
BRANCH   3   5
HETATM    5  C5  UNL     1       0.733   1.089  -0.970  1.00  0.00     0.195 C 
HETATM    6  S1  UNL     1       1.070   1.519  -2.528  1.00  0.00    -0.039 SA
BRANCH   5   7
HETATM    7  N1  UNL     1       1.725   0.424  -0.214  1.00  0.00    -0.278 N 
HETATM    8  C4  UNL     1       2.986   0.125  -0.771  1.00  0.00     0.367 C 
HETATM    9  O2  UNL     1       3.317   0.419  -1.948  1.00  0.00    -0.238 OA
ATOM     10  H1  UNL     1       1.526   0.156   0.750  1.00  0.00     0.173 HD
BRANCH   8  11
HETATM   11  O1  UNL     1       3.981  -0.537  -0.028  1.00  0.00    -0.300 OA
BRANCH  11  12
HETATM   12  C3  UNL     1       5.237  -0.826  -0.605  1.00  0.00     0.207 C 
BRANCH  12  13
HETATM   13  C2  UNL     1       6.154  -1.515   0.297  1.00  0.00    -0.011 C 
HETATM   14  C1  UNL     1       6.624  -2.704  -0.011  1.00  0.00     0.009 C 
ENDBRANCH  12  13
ENDBRANCH  11  12
ENDBRANCH   8  11
ENDBRANCH   5   7
ENDBRANCH   3   5
ENDBRANCH   1   3
BRANCH   1  15
HETATM   15  C6  UNL     1      -2.734   2.399  -0.718  1.00  0.00     0.192 C 
HETATM   16  S2  UNL     1      -3.809   3.167  -1.668  1.00  0.00    -0.039 SA
BRANCH  15  17
HETATM   17  N4  UNL     1      -3.038   2.063   0.619  1.00  0.00    -0.318 N 
ATOM     18  H4  UNL     1      -2.717   2.659   1.382  1.00  0.00     0.170 HD
BRANCH  17  19
HETATM   19  C7  UNL     1      -3.713   1.015   0.869  1.00  0.00     0.107 A 
HETATM   20  C8  UNL     1      -4.144   0.211  -0.151  1.00  0.00     0.050 A 
HETATM   21  C9  UNL     1      -4.877  -0.930   0.101  1.00  0.00     0.024 A 
HETATM   22  C10 UNL     1      -5.162  -1.239   1.407  1.00  0.00     0.026 A 
HETATM   23 BR1  UNL     1      -6.166  -2.796   1.816  1.00  0.00    -0.050 Br
HETATM   24  C11 UNL     1      -4.729  -0.433   2.426  1.00  0.00     0.108 A 
HETATM   25  N5  UNL     1      -4.010   0.682   2.129  1.00  0.00    -0.351 N 
ATOM     26  H5  UNL     1      -3.688   1.281   2.889  1.00  0.00     0.166 HD
ENDBRANCH  17  19
ENDBRANCH  15  17
ENDBRANCH   1  15
TORSDOF 9
