REMARK  6 active torsions:
REMARK  status: ('A' for Active; 'I' for Inactive)
REMARK    1  A    between atoms: C2_2  and  N1_5 
REMARK       I    between atoms: N1_5  and  C4_7 
REMARK       I    between atoms: C4_7  and  N2_9 
REMARK    2  A    between atoms: C8_16  and  N4_17 
REMARK    3  A    between atoms: N4_17  and  C9_19 
REMARK    4  A    between atoms: C9_19  and  O3_20 
REMARK    5  A    between atoms: C9_19  and  N5_22 
REMARK       I    between atoms: N5_22  and  C10_24 
REMARK    6  A    between atoms: C10_24  and  C11_26 
ROOT
HETATM    1  N1  UNL     1       3.787   0.859  -0.776  1.00  0.00    -0.321 N 
ATOM      2  H1  UNL     1       4.723   0.504  -0.972  1.00  0.00     0.166 HD
HETATM    3  C4  UNL     1       2.674  -0.004  -0.996  1.00  0.00     0.321 C 
HETATM    4  O1  UNL     1       1.543   0.536  -0.718  1.00  0.00    -0.247 OA
HETATM    5  N2  UNL     1       2.769  -1.321  -1.469  1.00  0.00    -0.302 N 
HETATM    6  C5  UNL     1       4.052  -1.891  -1.786  1.00  0.00     0.150 C 
HETATM    7  C6  UNL     1       4.355  -3.062  -0.859  1.00  0.00     0.143 C 
HETATM    8  N3  UNL     1       3.130  -3.787  -0.563  1.00  0.00    -0.356 N 
ATOM      9  H3  UNL     1       3.151  -4.517   0.149  1.00  0.00     0.162 HD
HETATM   10  C7  UNL     1       1.909  -3.517  -1.227  1.00  0.00     0.260 C 
HETATM   11  O2  UNL     1       1.067  -4.422  -1.475  1.00  0.00    -0.269 OA
HETATM   12  C8  UNL     1       1.602  -2.132  -1.647  1.00  0.00     0.285 C 
ENDROOT
BRANCH  12  13
HETATM   13  N4  UNL     1       0.415  -1.627  -0.971  1.00  0.00    -0.327 N 
ATOM     14  H4  UNL     1       0.420  -1.505   0.042  1.00  0.00     0.165 HD
BRANCH  13  15
HETATM   15  C9  UNL     1      -0.727  -1.310  -1.702  1.00  0.00     0.221 C 
BRANCH  15  16
HETATM   16  O3  UNL     1      -0.630  -1.504  -2.987  1.00  0.00    -0.332 OA
ATOM     17  H3  UNL     1      -1.409  -1.288  -3.486  1.00  0.00     0.220 HD
ENDBRANCH  15  16
BRANCH  15  18
HETATM   18  N5  UNL     1      -1.917  -0.822  -1.185  1.00  0.00    -0.292 N 
HETATM   19  C10 UNL     1      -2.183  -0.559   0.163  1.00  0.00     0.233 C 
HETATM   20  O4  UNL     1      -1.352  -0.745   1.057  1.00  0.00    -0.272 OA
ATOM     21  H5  UNL     1      -2.669  -0.637  -1.849  1.00  0.00     0.172 HD
BRANCH  19  22
HETATM   22  C11 UNL     1      -3.527  -0.021   0.612  1.00  0.00     0.038 C 
HETATM   23  C12 UNL     1      -4.531  -1.089   0.167  1.00  0.00     0.025 C 
HETATM   24  C13 UNL     1      -3.787   1.195  -0.200  1.00  0.00     0.019 C 
HETATM   25  C14 UNL     1      -4.867   2.037   0.415  1.00  0.00     0.001 C 
HETATM   26  C15 UNL     1      -4.292   2.511   1.754  1.00  0.00     0.000 C 
HETATM   27  C16 UNL     1      -4.215   1.315   2.642  1.00  0.00     0.001 C 
HETATM   28  C17 UNL     1      -3.527   0.133   2.068  1.00  0.00     0.019 C 
ENDBRANCH  19  22
ENDBRANCH  15  18
ENDBRANCH  13  15
ENDBRANCH  12  13
BRANCH   1  29
HETATM   29  C2  UNL     1       3.654   2.205  -0.291  1.00  0.00     0.104 C 
HETATM   30  C1  UNL     1       2.999   2.272   1.065  1.00  0.00     0.056 C 
HETATM   31  C3  UNL     1       5.000   2.894  -0.304  1.00  0.00     0.056 C 
HETATM   32 CL1  UNL     1       2.617   3.120  -1.440  1.00  0.00    -0.096 Cl
ENDBRANCH   1  29
TORSDOF 6
