REMARK  7 active torsions:
REMARK  status: ('A' for Active; 'I' for Inactive)
REMARK       I    between atoms: C2_2  and  N1_4 
REMARK    1  A    between atoms: N1_4  and  N2_6 
REMARK       I    between atoms: N2_6  and  C3_8 
REMARK    2  A    between atoms: C3_8  and  C4_10 
REMARK    3  A    between atoms: C4_10  and  N3_11 
REMARK       I    between atoms: N3_11  and  C5_13 
REMARK    4  A    between atoms: C5_13  and  C6_15 
REMARK    5  A    between atoms: N4_16  and  C7_17 
REMARK    6  A    between atoms: C7_17  and  N5_19 
REMARK    7  A    between atoms: N5_19  and  C8_21 
ROOT
HETATM    1  C6  UNL     1      -0.025  -1.554  -0.380  1.00  0.00     0.186 C 
HETATM    2  N4  UNL     1      -1.235  -0.895   0.085  1.00  0.00    -0.344 N 
HETATM    3  C12 UNL     1      -1.777  -1.795   1.076  1.00  0.00     0.127 C 
HETATM    4  C13 UNL     1      -1.533  -3.168   0.522  1.00  0.00     0.031 C 
HETATM    5  C14 UNL     1      -0.326  -3.017  -0.342  1.00  0.00    -0.017 C 
HETATM    6  C15 UNL     1      -0.677  -3.550  -1.742  1.00  0.00     0.017 C 
HETATM    7  C16 UNL     1       0.796  -3.883   0.149  1.00  0.00     0.017 C 
ENDROOT
BRANCH   1   8
HETATM    8  C5  UNL     1       1.162  -1.144   0.398  1.00  0.00     0.241 C 
HETATM    9  N3  UNL     1       1.123  -0.189   1.443  1.00  0.00    -0.350 N 
ATOM     10  H3  UNL     1       0.218   0.223   1.669  1.00  0.00     0.163 HD
HETATM   11  O3  UNL     1       2.263  -1.672   0.113  1.00  0.00    -0.271 OA
BRANCH   9  12
HETATM   12  C4  UNL     1       2.247   0.241   2.202  1.00  0.00     0.227 C 
BRANCH  12  13
HETATM   13  C3  UNL     1       3.304   0.954   1.482  1.00  0.00     0.253 C 
HETATM   14  N2  UNL     1       3.227   1.281   0.116  1.00  0.00    -0.266 N 
ATOM     15  H2  UNL     1       2.405   1.032  -0.435  1.00  0.00     0.190 HD
HETATM   16  O2  UNL     1       4.337   1.295   2.120  1.00  0.00    -0.270 OA
BRANCH  14  17
HETATM   17  N1  UNL     1       4.306   1.957  -0.471  1.00  0.00    -0.268 N 
HETATM   18  C2  UNL     1       5.554   1.334  -0.580  1.00  0.00     0.232 C 
HETATM   19  C1  UNL     1       6.687   2.055  -1.202  1.00  0.00     0.119 C 
HETATM   20  O1  UNL     1       5.711   0.171  -0.154  1.00  0.00    -0.272 OA
ATOM     21  H1  UNL     1       4.181   2.907  -0.820  1.00  0.00     0.190 HD
ENDBRANCH  14  17
ENDBRANCH  12  13
ENDBRANCH   9  12
ENDBRANCH   1   8
BRANCH   2  22
HETATM   22  C7  UNL     1      -1.793   0.343  -0.313  1.00  0.00     0.171 C 
HETATM   23  S1  UNL     1      -1.025   1.248  -1.463  1.00  0.00    -0.041 SA
BRANCH  22  24
HETATM   24  N5  UNL     1      -2.987   0.803   0.269  1.00  0.00    -0.359 N 
ATOM     25  H5  UNL     1      -3.431   0.224   0.982  1.00  0.00     0.162 HD
BRANCH  24  26
HETATM   26  C8  UNL     1      -3.622   2.057  -0.089  1.00  0.00     0.021 C 
HETATM   27  C9  UNL     1      -4.868   2.291   0.766  1.00  0.00     0.037 C 
HETATM   28  C10 UNL     1      -2.718   3.249   0.102  1.00  0.00     0.037 C 
HETATM   29  C11 UNL     1      -4.142   2.044  -1.526  1.00  0.00     0.037 C 
ENDBRANCH  24  26
ENDBRANCH  22  24
ENDBRANCH   2  22
TORSDOF 7
