REMARK  7 active torsions:
REMARK  status: ('A' for Active; 'I' for Inactive)
REMARK    1  A    between atoms: N1_2  and  C2_4 
REMARK    2  A    between atoms: C2_4  and  N2_6 
REMARK    3  A    between atoms: N2_6  and  C3_8 
REMARK    4  A    between atoms: C3_8  and  N3_10 
REMARK    5  A    between atoms: N3_10  and  N4_12 
REMARK       I    between atoms: N4_12  and  C4_14 
REMARK    6  A    between atoms: C4_14  and  C5_16 
REMARK    7  A    between atoms: C6_17  and  C7_18 
ROOT
HETATM    1  C7  UNL     1      -3.526   0.103  -0.196  1.00  0.00    -0.033 A 
HETATM    2  C8  UNL     1      -4.315   1.136   0.257  1.00  0.00     0.030 A 
HETATM    3  C9  UNL     1      -5.701   1.147   0.159  1.00  0.00     0.013 A 
HETATM    4 BR1  UNL     1      -6.775   2.585   0.787  1.00  0.00    -0.051 Br
HETATM    5  C10 UNL     1      -6.280   0.031  -0.437  1.00  0.00     0.041 A 
HETATM    6  C11 UNL     1      -5.558  -1.026  -0.907  1.00  0.00     0.046 A 
HETATM    7  C12 UNL     1      -6.207  -2.164  -1.521  1.00  0.00     0.099 C 
HETATM    8  N5  UNL     1      -6.708  -3.082  -2.021  1.00  0.00    -0.191 NA
HETATM    9  C13 UNL     1      -4.184  -0.973  -0.779  1.00  0.00     0.034 A 
ENDROOT
BRANCH   1  10
HETATM   10  C6  UNL     1      -2.084   0.100  -0.098  1.00  0.00     0.017 C 
HETATM   11  C5  UNL     1      -1.368   1.086   0.412  1.00  0.00     0.076 C 
BRANCH  11  12
HETATM   12  C4  UNL     1       0.078   0.997   0.471  1.00  0.00     0.259 C 
HETATM   13  N4  UNL     1       0.840  -0.090   0.031  1.00  0.00    -0.264 N 
ATOM     14  H4  UNL     1       0.357  -0.899  -0.360  1.00  0.00     0.190 HD
HETATM   15  O1  UNL     1       0.707   1.998   0.963  1.00  0.00    -0.267 OA
BRANCH  13  16
HETATM   16  N3  UNL     1       2.234  -0.116   0.104  1.00  0.00    -0.273 N 
ATOM     17  H3  UNL     1       2.787  -0.076  -0.752  1.00  0.00     0.189 HD
BRANCH  16  18
HETATM   18  C3  UNL     1       2.876  -0.196   1.342  1.00  0.00     0.192 C 
HETATM   19  S2  UNL     1       1.889  -0.254   2.720  1.00  0.00    -0.039 SA
BRANCH  18  20
HETATM   20  N2  UNL     1       4.238  -0.234   1.635  1.00  0.00    -0.309 N 
ATOM     21  H2  UNL     1       4.446  -0.295   2.632  1.00  0.00     0.170 HD
BRANCH  20  22
HETATM   22  C2  UNL     1       5.351  -0.205   0.835  1.00  0.00     0.173 C 
HETATM   23  S1  UNL     1       6.830  -0.271   1.647  1.00  0.00    -0.041 SA
BRANCH  22  24
HETATM   24  N1  UNL     1       5.478  -0.125  -0.550  1.00  0.00    -0.371 N 
HETATM   25  C1  UNL     1       6.811  -0.111  -1.197  1.00  0.00     0.148 C 
ATOM     26  H1  UNL     1       4.639  -0.075  -1.128  1.00  0.00     0.161 HD
ENDBRANCH  22  24
ENDBRANCH  20  22
ENDBRANCH  18  20
ENDBRANCH  16  18
ENDBRANCH  13  16
ENDBRANCH  11  12
ENDBRANCH   1  10
TORSDOF 7
