REMARK  8 active torsions:
REMARK  status: ('A' for Active; 'I' for Inactive)
REMARK    1  A    between atoms: C2_2  and  N1_3 
REMARK       I    between atoms: N1_3  and  C3_5 
REMARK       I    between atoms: C3_5  and  N2_7 
REMARK    2  A    between atoms: N3_10  and  C6_11 
REMARK    3  A    between atoms: C6_11  and  C7_12 
REMARK    4  A    between atoms: C9_14  and  N4_15 
REMARK    5  A    between atoms: N4_15  and  C10_18 
REMARK    6  A    between atoms: C10_18  and  C11_19 
REMARK    7  A    between atoms: C11_19  and  N5_20 
REMARK    8  A    between atoms: C11_19  and  C14_25 
REMARK       I    between atoms: N5_20  and  C12_22 
ROOT
HETATM    1  C7  UNL     1       0.666   1.394  -0.244  1.00  0.00     0.166 C 
HETATM    2  C8  UNL     1      -0.450   0.844  -1.146  1.00  0.00     0.098 C 
HETATM    3  C9  UNL     1      -1.403   1.697  -0.355  1.00  0.00     0.324 C 
HETATM    4  O3  UNL     1      -0.362   1.814   0.599  1.00  0.00    -0.348 OA
ENDROOT
BRANCH   3   5
HETATM    5  N4  UNL     1      -2.498   0.995   0.269  1.00  0.00    -0.047 N 
ATOM      6  H42 UNL     1      -2.152   0.326   0.957  1.00  0.00     0.280 HD
ATOM      7  H41 UNL     1      -3.020   1.618   0.885  1.00  0.00     0.280 HD
BRANCH   5   8
HETATM    8  C10 UNL     1      -3.384   0.347  -0.672  1.00  0.00     0.261 C 
BRANCH   8   9
HETATM    9  C11 UNL     1      -4.470  -0.335   0.129  1.00  0.00     0.117 C 
BRANCH   9  10
HETATM   10  N5  UNL     1      -5.151   0.704   0.879  1.00  0.00    -0.354 N 
HETATM   11  C12 UNL     1      -5.240   0.748   2.278  1.00  0.00     0.213 C 
HETATM   12  C13 UNL     1      -5.957   1.852   2.932  1.00  0.00     0.117 C 
HETATM   13  O2  UNL     1      -4.710  -0.149   2.978  1.00  0.00    -0.274 OA
ATOM     14  H5  UNL     1      -5.596   1.455   0.352  1.00  0.00     0.162 HD
ENDBRANCH   9  10
BRANCH   9  15
HETATM   15  C14 UNL     1      -5.484  -1.023  -0.740  1.00  0.00    -0.029 C 
HETATM   16  C15 UNL     1      -4.884  -2.088  -1.612  1.00  0.00     0.016 C 
HETATM   17  C16 UNL     1      -6.245  -0.054  -1.615  1.00  0.00     0.016 C 
HETATM   18  C17 UNL     1      -6.502  -1.710   0.159  1.00  0.00     0.016 C 
ENDBRANCH   9  15
ENDBRANCH   8   9
ENDBRANCH   5   8
ENDBRANCH   3   5
BRANCH   1  19
HETATM   19  C6  UNL     1       1.474   0.244   0.267  1.00  0.00     0.090 C 
BRANCH  19  20
HETATM   20  N3  UNL     1       2.516  -0.191  -0.568  1.00  0.00    -0.388 N 
HETATM   21  C5  UNL     1       3.288  -1.278  -0.130  1.00  0.00     0.142 C 
HETATM   22  C4  UNL     1       4.342  -0.746   0.856  1.00  0.00     0.147 C 
HETATM   23  N2  UNL     1       5.081   0.268   0.155  1.00  0.00    -0.331 N 
HETATM   24  C3  UNL     1       6.475   0.223   0.077  1.00  0.00     0.318 C 
HETATM   25  C19 UNL     1       4.298   1.345  -0.464  1.00  0.00     0.147 C 
HETATM   26  N1  UNL     1       7.241  -0.795   0.672  1.00  0.00    -0.343 N 
HETATM   27  O1  UNL     1       7.067   1.135  -0.555  1.00  0.00    -0.247 OA
ATOM     28  H1  UNL     1       6.787  -1.547   1.191  1.00  0.00     0.164 HD
HETATM   29  C18 UNL     1       3.216   0.730  -1.365  1.00  0.00     0.142 C 
BRANCH  26  30
HETATM   30  C2  UNL     1       8.701  -0.762   0.536  1.00  0.00     0.120 C 
HETATM   31  C1  UNL     1       9.037  -0.820  -0.923  1.00  0.00     0.026 C 
ENDBRANCH  26  30
ENDBRANCH  19  20
ENDBRANCH   1  19
TORSDOF 8
