REMARK  7 active torsions:
REMARK  status: ('A' for Active; 'I' for Inactive)
REMARK    1  A    between atoms: C5_5  and  N1_6 
REMARK       I    between atoms: N1_6  and  C6_8 
REMARK    2  A    between atoms: C6_8  and  C7_10 
REMARK    3  A    between atoms: C10_13  and  C11_14 
REMARK    4  A    between atoms: C11_14  and  N2_15 
REMARK       I    between atoms: N2_15  and  C12_17 
REMARK    5  A    between atoms: C12_17  and  C13_19 
REMARK       I    between atoms: C13_19  and  N3_21 
REMARK    6  A    between atoms: N3_21  and  C14_23 
REMARK    7  A    between atoms: C14_23  and  C16_26 
ROOT
HETATM    1  C14 UNL     1       4.148  -1.249  -0.239  1.00  0.00     0.196 C 
HETATM    2  C15 UNL     1       4.256  -2.332  -1.218  1.00  0.00     0.085 C 
HETATM    3  N4  UNL     1       4.345  -3.178  -2.001  1.00  0.00    -0.195 NA
ENDROOT
BRANCH   1   4
HETATM    4  N3  UNL     1       3.236  -0.215  -0.685  1.00  0.00    -0.336 N 
HETATM    5  C13 UNL     1       2.098   0.170   0.046  1.00  0.00     0.310 C 
HETATM    6  O3  UNL     1       1.863  -0.415   1.138  1.00  0.00    -0.262 OA
ATOM      7  H3  UNL     1       3.428   0.255  -1.570  1.00  0.00     0.164 HD
BRANCH   5   8
HETATM    8  C12 UNL     1       1.228   1.213  -0.459  1.00  0.00     0.309 C 
HETATM    9  N2  UNL     1       0.086   1.586   0.291  1.00  0.00    -0.350 N 
ATOM     10  H2  UNL     1      -0.096   1.107   1.173  1.00  0.00     0.162 HD
HETATM   11  O2  UNL     1       1.511   1.761  -1.552  1.00  0.00    -0.262 OA
BRANCH   9  12
HETATM   12  C11 UNL     1      -0.830   2.611  -0.137  1.00  0.00     0.155 C 
BRANCH  12  13
HETATM   13  C10 UNL     1      -1.458   2.278  -1.453  1.00  0.00     0.140 C 
HETATM   14  C9  UNL     1      -2.508   3.312  -1.808  1.00  0.00     0.036 C 
HETATM   15  C8  UNL     1      -3.604   2.437  -2.381  1.00  0.00     0.044 C 
HETATM   16  C7  UNL     1      -3.083   1.013  -2.330  1.00  0.00     0.214 C 
HETATM   17  O4  UNL     1      -2.149   1.075  -1.298  1.00  0.00    -0.370 OA
BRANCH  16  18
HETATM   18  C6  UNL     1      -4.129   0.051  -1.954  1.00  0.00     0.247 C 
HETATM   19  N1  UNL     1      -4.081  -0.630  -0.728  1.00  0.00    -0.354 N 
ATOM     20  H1  UNL     1      -3.297  -0.437  -0.105  1.00  0.00     0.162 HD
HETATM   21  O1  UNL     1      -5.074  -0.163  -2.740  1.00  0.00    -0.271 OA
BRANCH  19  22
HETATM   22  C5  UNL     1      -5.064  -1.581  -0.294  1.00  0.00     0.088 C 
HETATM   23  C2  UNL     1      -5.549  -1.439   1.120  1.00  0.00     0.004 C 
HETATM   24  C1  UNL     1      -5.197  -0.184   1.830  1.00  0.00     0.012 C 
HETATM   25  C3  UNL     1      -4.722  -2.601   1.567  1.00  0.00     0.008 C 
HETATM   26  C4  UNL     1      -4.415  -2.893   0.114  1.00  0.00     0.026 C 
ENDBRANCH  19  22
ENDBRANCH  16  18
ENDBRANCH  12  13
ENDBRANCH   9  12
ENDBRANCH   5   8
ENDBRANCH   1   4
BRANCH   1  27
HETATM   27  C16 UNL     1       5.517  -0.605  -0.059  1.00  0.00     0.022 C 
HETATM   28  C17 UNL     1       6.543  -1.598   0.404  1.00  0.00     0.007 C 
HETATM   29  C18 UNL     1       6.987  -1.160   1.760  1.00  0.00     0.000 C 
HETATM   30  C19 UNL     1       6.734   0.343   1.730  1.00  0.00     0.000 C 
HETATM   31  C20 UNL     1       5.379   0.409   1.054  1.00  0.00     0.007 C 
ENDBRANCH   1  27
TORSDOF 7
