REMARK  9 active torsions:
REMARK  status: ('A' for Active; 'I' for Inactive)
REMARK    1  A    between atoms: C2_2  and  C3_3 
REMARK    2  A    between atoms: C3_3  and  N1_4 
REMARK    3  A    between atoms: N1_4  and  C4_6 
REMARK    4  A    between atoms: C5_9  and  N3_10 
REMARK    5  A    between atoms: N3_10  and  C6_12 
REMARK    6  A    between atoms: C6_12  and  C7_13 
REMARK    7  A    between atoms: C7_13  and  C8_14 
REMARK    8  A    between atoms: C8_14  and  N4_15 
REMARK    9  A    between atoms: N6_24  and  C14_26 
ROOT
HETATM    1  C4  UNL     1      -0.899   2.239  -0.437  1.00  0.00     0.707 A 
HETATM    2  N2  UNL     1       0.206   1.449  -0.231  1.00  0.00    -0.022 N 
ATOM      3  H2  UNL     1       1.140   1.860  -0.242  1.00  0.00     0.203 HD
HETATM    4  C5  UNL     1       0.051   0.140  -0.016  1.00  0.00     0.707 A 
HETATM    5  N5  UNL     1      -1.217  -0.373  -0.009  1.00  0.00    -0.022 N 
ATOM      6  H5  UNL     1      -1.325  -1.374   0.156  1.00  0.00     0.203 HD
HETATM    7  C13 UNL     1      -2.320   0.347  -0.203  1.00  0.00     0.707 A 
HETATM    8  N6  UNL     1      -3.514  -0.136  -0.222  1.00  0.00    -0.220 N 
ATOM      9  H6  UNL     1      -4.269   0.532  -0.379  1.00  0.00     0.178 HD
HETATM   10  N7  UNL     1      -2.118   1.683  -0.419  1.00  0.00    -0.021 N 
ATOM     11  H7  UNL     1      -2.930   2.281  -0.573  1.00  0.00     0.203 HD
ENDROOT
BRANCH   4  12
HETATM   12  N3  UNL     1       0.988  -0.686   0.152  1.00  0.00    -0.225 N 
ATOM     13  H3  UNL     1       0.700  -1.652   0.307  1.00  0.00     0.177 HD
BRANCH  12  14
HETATM   14  C6  UNL     1       2.419  -0.453   0.156  1.00  0.00     0.140 C 
BRANCH  14  15
HETATM   15  C7  UNL     1       3.066  -0.946   1.393  1.00  0.00     0.050 C 
BRANCH  15  16
HETATM   16  C8  UNL     1       4.514  -0.762   1.508  1.00  0.00     0.274 C 
BRANCH  16  17
HETATM   17  N4  UNL     1       5.343  -1.421   0.566  1.00  0.00     0.092 N 
HETATM   18  C9  UNL     1       6.756  -1.326   1.021  1.00  0.00     0.298 C 
HETATM   19  C10 UNL     1       7.362   0.002   0.716  1.00  0.00     0.198 C 
HETATM   20  O1  UNL     1       7.493   0.188  -0.662  1.00  0.00    -0.388 OA
HETATM   21  C11 UNL     1       6.745  -0.743  -1.355  1.00  0.00     0.198 C 
HETATM   22  C12 UNL     1       5.336  -0.877  -0.765  1.00  0.00     0.298 C 
ENDBRANCH  16  17
ENDBRANCH  15  16
ENDBRANCH  14  15
ENDBRANCH  12  14
ENDBRANCH   4  12
BRANCH   1  23
HETATM   23  N1  UNL     1      -0.663   3.479  -0.642  1.00  0.00    -0.222 N 
ATOM     24  H1  UNL     1       0.323   3.741  -0.631  1.00  0.00     0.178 HD
BRANCH  23  25
HETATM   25  C3  UNL     1      -1.568   4.542  -0.882  1.00  0.00     0.164 C 
BRANCH  25  26
HETATM   26  C2  UNL     1      -0.892   5.814  -0.438  1.00  0.00    -0.017 C 
HETATM   27  C1  UNL     1      -1.424   6.573   0.512  1.00  0.00     0.008 C 
ENDBRANCH  25  26
ENDBRANCH  23  25
ENDBRANCH   1  23
BRANCH   8  28
HETATM   28  C14 UNL     1      -3.896  -1.478  -0.051  1.00  0.00     0.103 C 
HETATM   29  C15 UNL     1      -4.895  -1.725   1.085  1.00  0.00     0.030 C 
HETATM   30  C16 UNL     1      -5.807  -2.827   0.633  1.00  0.00    -0.012 C 
HETATM   31  C17 UNL     1      -6.925  -2.195  -0.169  1.00  0.00     0.005 C 
HETATM   32  C20 UNL     1      -5.009  -3.414  -0.545  1.00  0.00     0.011 C 
HETATM   33  C18 UNL     1      -6.084  -1.440  -1.209  1.00  0.00     0.007 C 
HETATM   34  C19 UNL     1      -4.721  -2.047  -1.202  1.00  0.00     0.009 C 
ENDBRANCH   8  28
TORSDOF 9
