REMARK  7 active torsions:
REMARK  status: ('A' for Active; 'I' for Inactive)
REMARK    1  A    between atoms: C2_2  and  C3_3 
REMARK    2  A    between atoms: C3_3  and  C5_5 
REMARK    3  A    between atoms: C5_5  and  N1_6 
REMARK    4  A    between atoms: C5_5  and  C13_21 
REMARK       I    between atoms: N1_6  and  C6_8 
REMARK    5  A    between atoms: C6_8  and  C7_10 
REMARK    6  A    between atoms: C7_10  and  N2_11 
REMARK       I    between atoms: C13_21  and  N4_23 
REMARK    7  A    between atoms: N5_26  and  C16_27 
ROOT
HETATM    1  C5  UNL     1      -0.310  -1.152   0.133  1.00  0.00     0.180 C 
ENDROOT
BRANCH   1   2
HETATM    2  C3  UNL     1      -0.791  -2.590   0.153  1.00  0.00     0.013 C 
HETATM    3  C4  UNL     1      -1.568  -3.004  -1.055  1.00  0.00     0.012 C 
BRANCH   2   4
HETATM    4  C2  UNL     1       0.187  -3.604   0.649  1.00  0.00     0.002 C 
HETATM    5  C1  UNL     1       1.232  -4.025  -0.329  1.00  0.00     0.005 C 
ENDBRANCH   2   4
ENDBRANCH   1   2
BRANCH   1   6
HETATM    6  N1  UNL     1      -1.437  -0.358  -0.423  1.00  0.00    -0.345 N 
HETATM    7  C6  UNL     1      -2.411   0.225   0.394  1.00  0.00     0.255 C 
HETATM    8  O1  UNL     1      -2.307   0.038   1.648  1.00  0.00    -0.271 OA
ATOM      9  H1  UNL     1      -1.502  -0.234  -1.433  1.00  0.00     0.163 HD
BRANCH   7  10
HETATM   10  C7  UNL     1      -3.539   1.030  -0.070  1.00  0.00     0.207 C 
HETATM   11  C9  UNL     1      -4.053   0.743  -1.426  1.00  0.00     0.068 C 
HETATM   12  C10 UNL     1      -4.833   1.955  -1.898  1.00  0.00     0.116 C 
HETATM   13  N3  UNL     1      -5.274   2.813  -0.862  1.00  0.00    -0.421 N 
HETATM   14  C11 UNL     1      -4.267   3.339  -0.004  1.00  0.00     0.116 C 
ATOM     15  H3  UNL     1      -6.260   3.042  -0.737  1.00  0.00     0.153 HD
HETATM   16  C12 UNL     1      -3.013   2.488  -0.098  1.00  0.00     0.068 C 
BRANCH  10  17
HETATM   17  N2  UNL     1      -4.608   0.977   0.912  1.00  0.00    -0.061 N 
HETATM   18  C8  UNL     1      -5.072  -0.395   1.026  1.00  0.00     0.268 C 
ATOM     19  H22 UNL     1      -4.331   1.370   1.811  1.00  0.00     0.278 HD
ATOM     20  H21 UNL     1      -5.364   1.628   0.700  1.00  0.00     0.278 HD
ENDBRANCH  10  17
ENDBRANCH   7  10
ENDBRANCH   1   6
BRANCH   1  21
HETATM   21  C13 UNL     1       0.907  -0.904  -0.617  1.00  0.00     0.243 C 
HETATM   22  O2  UNL     1       0.795  -0.795  -1.906  1.00  0.00    -0.271 OA
HETATM   23  N4  UNL     1       2.233  -0.761  -0.130  1.00  0.00    -0.347 N 
HETATM   24  C14 UNL     1       3.310  -0.569  -1.096  1.00  0.00     0.156 C 
HETATM   25  C20 UNL     1       2.510  -0.785   1.263  1.00  0.00     0.156 C 
HETATM   26  C15 UNL     1       4.642  -0.409  -0.450  1.00  0.00     0.292 C 
HETATM   27  N5  UNL     1       4.635   0.386   0.738  1.00  0.00     0.095 N 
HETATM   28  C19 UNL     1       3.666   0.042   1.702  1.00  0.00     0.292 C 
BRANCH  27  29
HETATM   29  C16 UNL     1       4.699   1.797   0.429  1.00  0.00     0.215 C 
HETATM   30  C17 UNL     1       6.024   2.049  -0.277  1.00  0.00     0.042 C 
HETATM   31  C18 UNL     1       4.648   2.662   1.637  1.00  0.00     0.042 C 
ENDBRANCH  27  29
ENDBRANCH   1  21
TORSDOF 7
