REMARK  8 active torsions:
REMARK  status: ('A' for Active; 'I' for Inactive)
REMARK    1  A    between atoms: C5_6  and  C6_7 
REMARK       I    between atoms: C6_7  and  N2_9 
REMARK    2  A    between atoms: N2_9  and  N3_11 
REMARK       I    between atoms: N3_11  and  C7_13 
REMARK    3  A    between atoms: C7_13  and  C8_15 
REMARK    4  A    between atoms: C8_15  and  C9_16 
REMARK    5  A    between atoms: C9_16  and  C10_17 
REMARK    6  A    between atoms: C10_17  and  C11_18 
REMARK    7  A    between atoms: C11_18  and  C12_19 
REMARK    8  A    between atoms: C12_19  and  N4_20 
ROOT
HETATM    1  C6  UNL     1      -3.193   1.688   0.060  1.00  0.00     0.241 C 
HETATM    2  O1  UNL     1      -2.896   2.704   0.724  1.00  0.00    -0.271 OA
HETATM    3  N2  UNL     1      -2.160   0.973  -0.593  1.00  0.00    -0.267 N 
ATOM      4  H2  UNL     1      -2.392   0.142  -1.137  1.00  0.00     0.190 HD
ENDROOT
BRANCH   3   5
HETATM    5  N3  UNL     1      -0.817   1.389  -0.505  1.00  0.00    -0.268 N 
HETATM    6  C7  UNL     1       0.166   0.560  -1.100  1.00  0.00     0.236 C 
HETATM    7  O2  UNL     1      -0.103  -0.505  -1.686  1.00  0.00    -0.272 OA
ATOM      8  H3  UNL     1      -0.562   2.255  -0.030  1.00  0.00     0.190 HD
BRANCH   6   9
HETATM    9  C8  UNL     1       1.589   0.995  -1.012  1.00  0.00     0.104 C 
BRANCH   9  10
HETATM   10  C9  UNL     1       2.455  -0.014  -1.709  1.00  0.00     0.009 C 
BRANCH  10  11
HETATM   11  C10 UNL     1       3.890   0.420  -1.647  1.00  0.00     0.002 C 
BRANCH  11  12
HETATM   12  C11 UNL     1       4.361   0.530  -0.235  1.00  0.00     0.030 C 
BRANCH  12  13
HETATM   13  C12 UNL     1       5.816   0.949  -0.155  1.00  0.00     0.272 C 
BRANCH  13  14
HETATM   14  N4  UNL     1       6.624  -0.024  -0.829  1.00  0.00     0.088 N 
HETATM   15  C13 UNL     1       8.012   0.421  -0.808  1.00  0.00     0.272 C 
HETATM   16  C14 UNL     1       8.865  -0.526  -0.042  1.00  0.00     0.030 C 
HETATM   17  C15 UNL     1       8.240  -0.891   1.264  1.00  0.00     0.003 C 
HETATM   18  C16 UNL     1       6.891  -1.504   1.093  1.00  0.00     0.030 C 
HETATM   19  C17 UNL     1       6.484  -1.367  -0.360  1.00  0.00     0.272 C 
ENDBRANCH  13  14
ENDBRANCH  12  13
ENDBRANCH  11  12
ENDBRANCH  10  11
ENDBRANCH   9  10
ENDBRANCH   6   9
ENDBRANCH   3   5
BRANCH   1  20
HETATM   20  C5  UNL     1      -4.569   1.240  -0.045  1.00  0.00     0.105 C 
HETATM   21  C4  UNL     1      -4.702  -0.186   0.516  1.00  0.00     0.024 C 
HETATM   22  C3  UNL     1      -6.070  -0.629   0.146  1.00  0.00     0.047 C 
HETATM   23  C2  UNL     1      -6.524  -1.931   0.710  1.00  0.00     0.278 C 
HETATM   24  C19 UNL     1      -7.034   0.317   0.886  1.00  0.00     0.219 C 
HETATM   25  N1  UNL     1      -7.978  -1.836   0.498  1.00  0.00     0.086 N 
HETATM   26  C1  UNL     1      -8.205  -2.218  -0.894  1.00  0.00     0.310 C 
HETATM   27  C20 UNL     1      -8.310  -0.416   0.698  1.00  0.00     0.305 C 
HETATM   28  N5  UNL     1      -6.922   1.582   0.244  1.00  0.00    -0.068 N 
HETATM   29  C18 UNL     1      -5.593   2.113   0.592  1.00  0.00     0.246 C 
ATOM     30  H52 UNL     1      -7.684   2.220   0.474  1.00  0.00     0.277 HD
ATOM     31  H51 UNL     1      -7.089   1.540  -0.761  1.00  0.00     0.277 HD
ENDBRANCH   1  20
TORSDOF 8
