REMARK  11 active torsions:
REMARK  status: ('A' for Active; 'I' for Inactive)
REMARK    1  A    between atoms: C2_2  and  C3_3 
REMARK    2  A    between atoms: C2_2  and  C9_16 
REMARK    3  A    between atoms: C4_4  and  O1_5 
REMARK    4  A    between atoms: O1_5  and  C5_6 
REMARK    5  A    between atoms: C5_6  and  C6_7 
REMARK    6  A    between atoms: C6_7  and  O2_8 
REMARK    7  A    between atoms: C6_7  and  C7_10 
REMARK    8  A    between atoms: C7_10  and  O3_11 
REMARK    9  A    between atoms: C7_10  and  C8_13 
REMARK   10  A    between atoms: C8_13  and  O4_14 
REMARK   11  A    between atoms: C9_16  and  N1_17 
ROOT
HETATM    1  C1  UNL     1       0.917   0.353   1.832  1.00  0.00     0.045 C 
HETATM    2  C2  UNL     1       0.564  -0.020   0.455  1.00  0.00    -0.056 C 
ENDROOT
BRANCH   2   3
HETATM    3  C3  UNL     1       1.261  -0.931  -0.208  1.00  0.00     0.028 C 
HETATM    4  C4  UNL     1       2.388  -1.771   0.003  1.00  0.00     0.135 C 
BRANCH   4   5
HETATM    5  O1  UNL     1       3.150  -1.841   1.084  1.00  0.00    -0.360 OA
BRANCH   5   6
HETATM    6  C5  UNL     1       4.127  -0.935   1.351  1.00  0.00     0.208 C 
BRANCH   6   7
HETATM    7  C6  UNL     1       5.201  -0.913   0.256  1.00  0.00     0.173 C 
BRANCH   7   8
HETATM    8  O2  UNL     1       5.801  -2.140   0.129  1.00  0.00    -0.391 OA
ATOM      9  H2  UNL     1       6.466  -2.126  -0.549  1.00  0.00     0.210 HD
ENDBRANCH   7   8
BRANCH   7  10
HETATM   10  C7  UNL     1       6.207   0.158   0.683  1.00  0.00     0.172 C 
BRANCH  10  11
HETATM   11  O3  UNL     1       5.540   1.377   0.794  1.00  0.00    -0.391 OA
ATOM     12  H3  UNL     1       6.165   2.042   1.059  1.00  0.00     0.210 HD
ENDBRANCH  10  11
BRANCH  10  13
HETATM   13  C8  UNL     1       7.337   0.248  -0.325  1.00  0.00     0.198 C 
BRANCH  13  14
HETATM   14  O4  UNL     1       8.215   1.228   0.127  1.00  0.00    -0.398 OA
ATOM     15  H4  UNL     1       8.923   1.284  -0.504  1.00  0.00     0.209 HD
ENDBRANCH  13  14
ENDBRANCH  10  13
ENDBRANCH   7  10
ENDBRANCH   6   7
ENDBRANCH   5   6
ENDBRANCH   4   5
ENDBRANCH   2   3
BRANCH   2  16
HETATM   16  C9  UNL     1      -0.516   0.653  -0.309  1.00  0.00     0.271 C 
BRANCH  16  17
HETATM   17  N1  UNL     1      -1.881   0.440   0.014  1.00  0.00    -0.063 N 
HETATM   18  C10 UNL     1      -2.124   0.189   1.395  1.00  0.00     0.238 C 
HETATM   19  C11 UNL     1      -3.579  -0.270   1.570  1.00  0.00     0.035 C 
HETATM   20  C12 UNL     1      -4.428   0.653   0.774  1.00  0.00     0.023 C 
HETATM   21  C13 UNL     1      -3.703   1.953   0.521  1.00  0.00     0.035 C 
HETATM   22  C15 UNL     1      -4.821   0.119  -0.569  1.00  0.00     0.068 C 
HETATM   23  C14 UNL     1      -2.578   1.675  -0.423  1.00  0.00     0.238 C 
HETATM   24  C16 UNL     1      -6.099  -0.686  -0.472  1.00  0.00     0.065 C 
HETATM   25  O5  UNL     1      -5.547   1.082  -1.278  1.00  0.00    -0.380 OA
HETATM   26  C18 UNL     1      -3.743  -0.548  -1.325  1.00  0.00     0.066 C 
HETATM   27  C17 UNL     1      -6.496   0.138  -1.684  1.00  0.00     0.171 C 
HETATM   28  C19 UNL     1      -2.433  -0.700  -0.707  1.00  0.00     0.240 C 
ENDBRANCH  16  17
ENDBRANCH   2  16
TORSDOF 11
