REMARK  6 active torsions:
REMARK  status: ('A' for Active; 'I' for Inactive)
REMARK    1  A    between atoms: O1_2  and  C2_3 
REMARK    2  A    between atoms: C2_3  and  C3_5 
REMARK    3  A    between atoms: C3_5  and  C4_6 
REMARK    4  A    between atoms: C4_6  and  C5_7 
REMARK       I    between atoms: N1_10  and  C8_12 
REMARK    5  A    between atoms: C8_12  and  C9_14 
REMARK    6  A    between atoms: C9_14  and  C15_27 
REMARK       I    between atoms: N2_15  and  C10_17 
REMARK       I    between atoms: C10_17  and  N3_19 
ROOT
HETATM    1  C9  UNL     1       0.798   1.576   0.343  1.00  0.00     0.085 C 
HETATM    2  N2  UNL     1       1.952   0.937   0.494  1.00  0.00    -0.307 N 
ATOM      3  H2  UNL     1       2.494   1.082   1.346  1.00  0.00     0.170 HD
HETATM    4  C10 UNL     1       2.453   0.051  -0.508  1.00  0.00     0.322 C 
HETATM    5  O4  UNL     1       1.788  -0.239  -1.515  1.00  0.00    -0.247 OA
HETATM    6  N3  UNL     1       3.698  -0.573  -0.269  1.00  0.00    -0.331 N 
HETATM    7  C11 UNL     1       4.762  -0.562  -1.255  1.00  0.00     0.155 C 
HETATM    8  C12 UNL     1       5.983  -1.192  -0.606  1.00  0.00     0.252 C 
HETATM    9  N4  UNL     1       5.626  -2.574  -0.372  1.00  0.00    -0.072 N 
ATOM     10  H41 UNL     1       6.432  -3.112  -0.055  1.00  0.00     0.277 HD
ATOM     11  H42 UNL     1       5.441  -3.058  -1.250  1.00  0.00     0.277 HD
HETATM   12  C13 UNL     1       4.520  -2.714   0.539  1.00  0.00     0.252 C 
HETATM   13  C14 UNL     1       3.887  -1.388   0.908  1.00  0.00     0.155 C 
ENDROOT
BRANCH   1  14
HETATM   14  C8  UNL     1      -0.342   1.053  -0.485  1.00  0.00     0.269 C 
HETATM   15  N1  UNL     1      -1.132   0.081   0.154  1.00  0.00    -0.320 N 
HETATM   16  C3  UNL     1      -2.468   0.015  -0.018  1.00  0.00     0.088 C 
ATOM     17  H1  UNL     1      -0.680  -0.597   0.768  1.00  0.00     0.169 HD
HETATM   18  O3  UNL     1      -0.487   1.543  -1.608  1.00  0.00    -0.266 OA
BRANCH  16  19
HETATM   19  C2  UNL     1      -3.125  -0.506   1.280  1.00  0.00     0.305 C 
HETATM   20  O2  UNL     1      -2.642  -1.507   1.430  1.00  0.00    -0.258 OA
BRANCH  19  21
HETATM   21  O1  UNL     1      -3.903   0.085   1.921  1.00  0.00    -0.322 OA
HETATM   22  C1  UNL     1      -4.484  -0.423   3.159  1.00  0.00     0.213 C 
ENDBRANCH  19  21
ENDBRANCH  16  19
BRANCH  16  23
HETATM   23  C4  UNL     1      -3.146  -0.280  -1.320  1.00  0.00     0.067 C 
BRANCH  23  24
HETATM   24  C5  UNL     1      -3.931  -1.599  -1.286  1.00  0.00    -0.017 C 
HETATM   25  C6  UNL     1      -3.994  -2.258  -2.642  1.00  0.00     0.010 C 
HETATM   26  C7  UNL     1      -5.407  -1.171  -0.943  1.00  0.00     0.010 C 
ENDBRANCH  23  24
ENDBRANCH  16  23
ENDBRANCH   1  14
BRANCH   1  27
HETATM   27  C15 UNL     1       0.764   3.105   0.260  1.00  0.00     0.033 C 
HETATM   28  C16 UNL     1      -0.214   3.844   1.129  1.00  0.00     0.016 C 
HETATM   29  C17 UNL     1       2.106   3.702   0.323  1.00  0.00     0.016 C 
ENDBRANCH   1  27
TORSDOF 6
