REMARK  10 active torsions:
REMARK  status: ('A' for Active; 'I' for Inactive)
REMARK    1  A    between atoms: C2_2  and  C4_4 
REMARK    2  A    between atoms: C4_4  and  N1_6 
REMARK    3  A    between atoms: N1_6  and  C6_8 
REMARK    4  A    between atoms: C6_8  and  O1_9 
REMARK    5  A    between atoms: C6_8  and  C7_11 
REMARK    6  A    between atoms: C7_11  and  C8_12 
REMARK    7  A    between atoms: C8_12  and  C9_13 
REMARK       I    between atoms: C9_13  and  N2_15 
REMARK    8  A    between atoms: N2_15  and  C10_17 
REMARK    9  A    between atoms: C10_17  and  C11_18 
REMARK       I    between atoms: C11_18  and  N3_20 
REMARK   10  A    between atoms: N3_20  and  N4_22 
ROOT
HETATM    1  N4  UNL     1       5.889  -1.443  -2.212  1.00  0.00    -0.230 N 
HETATM    2  C12 UNL     1       7.138  -1.906  -2.800  1.00  0.00     0.191 C 
HETATM    3  C13 UNL     1       5.400  -0.205  -2.595  1.00  0.00     0.200 C 
HETATM    4  N5  UNL     1       4.984   0.827  -2.941  1.00  0.00    -0.170 NA
ENDROOT
BRANCH   1   5
HETATM    5  N3  UNL     1       5.227  -2.244  -1.310  1.00  0.00    -0.258 N 
HETATM    6  C11 UNL     1       4.155  -1.811  -0.549  1.00  0.00     0.254 C 
HETATM    7  O3  UNL     1       3.717  -0.599  -0.630  1.00  0.00    -0.270 OA
ATOM      8  H3  UNL     1       5.543  -3.207  -1.196  1.00  0.00     0.191 HD
BRANCH   6   9
HETATM    9  C10 UNL     1       3.457  -2.712   0.394  1.00  0.00     0.227 C 
BRANCH   9  10
HETATM   10  N2  UNL     1       2.343  -2.121   1.079  1.00  0.00    -0.352 N 
HETATM   11  C9  UNL     1       1.259  -1.638   0.309  1.00  0.00     0.227 C 
HETATM   12  O2  UNL     1       1.237  -1.720  -0.943  1.00  0.00    -0.273 OA
ATOM     13  H2  UNL     1       2.333  -2.051   2.097  1.00  0.00     0.162 HD
BRANCH  11  14
HETATM   14  C8  UNL     1       0.100  -1.011   1.051  1.00  0.00     0.048 C 
HETATM   15  C14 UNL     1       0.640  -0.204   2.168  1.00  0.00     0.020 C 
HETATM   16  C15 UNL     1       0.254  -0.865   3.458  1.00  0.00     0.001 C 
HETATM   17  C16 UNL     1      -0.479  -2.138   3.091  1.00  0.00     0.001 C 
HETATM   18  C17 UNL     1      -0.690  -2.146   1.608  1.00  0.00     0.020 C 
BRANCH  14  19
HETATM   19  C7  UNL     1      -0.630  -0.205  -0.010  1.00  0.00     0.103 C 
BRANCH  19  20
HETATM   20  C6  UNL     1      -1.806   0.505   0.466  1.00  0.00     0.112 C 
BRANCH  20  21
HETATM   21  N1  UNL     1      -2.415   1.521  -0.240  1.00  0.00    -0.370 N 
ATOM     22  H1  UNL     1      -2.005   1.772  -1.140  1.00  0.00     0.161 HD
BRANCH  21  23
HETATM   23  C4  UNL     1      -3.609   2.278   0.192  1.00  0.00     0.082 C 
HETATM   24  C5  UNL     1      -3.200   3.577   0.819  1.00  0.00     0.032 C 
BRANCH  23  25
HETATM   25  C2  UNL     1      -4.666   2.334  -0.839  1.00  0.00    -0.000 C 
HETATM   26  C1  UNL     1      -5.935   2.899  -0.256  1.00  0.00     0.011 C 
HETATM   27  C3  UNL     1      -4.320   3.142  -2.062  1.00  0.00     0.011 C 
ENDBRANCH  23  25
ENDBRANCH  21  23
ENDBRANCH  20  21
BRANCH  20  28
HETATM   28  O1  UNL     1      -2.337   0.193   1.625  1.00  0.00    -0.350 OA
ATOM     29  H1  UNL     1      -1.917  -0.507   2.111  1.00  0.00     0.219 HD
ENDBRANCH  20  28
ENDBRANCH  19  20
ENDBRANCH  14  19
ENDBRANCH  11  14
ENDBRANCH   9  10
ENDBRANCH   6   9
ENDBRANCH   1   5
TORSDOF 10
