REMARK  5 active torsions:
REMARK  status: ('A' for Active; 'I' for Inactive)
REMARK    1  A    between atoms: C1_2  and  C2_3 
REMARK       I    between atoms: C1_2  and  N3_13 
REMARK    2  A    between atoms: C2_3  and  N1_4 
REMARK    3  A    between atoms: N3_13  and  C8_15 
REMARK    4  A    between atoms: C10_17  and  C11_18 
REMARK    5  A    between atoms: C11_18  and  N4_19 
ROOT
HETATM    1  C8  UNL     1       0.242   0.289   0.106  1.00  0.00     0.187 C 
HETATM    2  C9  UNL     1       1.197  -0.644  -0.615  1.00  0.00     0.062 C 
HETATM    3  C10 UNL     1       2.547  -0.044  -0.158  1.00  0.00     0.110 C 
HETATM    4  C17 UNL     1       2.249   0.178   1.281  1.00  0.00     0.225 C 
HETATM    5  O2  UNL     1       3.057   0.046   2.230  1.00  0.00    -0.273 OA
HETATM    6  N5  UNL     1       0.874   0.567   1.358  1.00  0.00    -0.340 N 
ATOM      7  H5  UNL     1       0.419   0.976   2.174  1.00  0.00     0.164 HD
ENDROOT
BRANCH   1   8
HETATM    8  N3  UNL     1      -1.073  -0.290   0.243  1.00  0.00    -0.339 N 
HETATM    9  C1  UNL     1      -2.241   0.241  -0.315  1.00  0.00     0.236 C 
HETATM   10  O1  UNL     1      -2.193   1.308  -0.998  1.00  0.00    -0.272 OA
ATOM     11  H3  UNL     1      -1.157  -1.149   0.786  1.00  0.00     0.164 HD
BRANCH   9  12
HETATM   12  C2  UNL     1      -3.563  -0.396  -0.143  1.00  0.00     0.219 C 
BRANCH  12  13
HETATM   13  N1  UNL     1      -4.649   0.261  -0.765  1.00  0.00    -0.402 N 
HETATM   14  C3  UNL     1      -5.055   1.515  -0.250  1.00  0.00     0.119 C 
HETATM   15  C4  UNL     1      -6.146   1.287   0.789  1.00  0.00     0.047 C 
HETATM   16  C5  UNL     1      -7.436   0.973   0.073  1.00  0.00     0.234 C 
HETATM   17  N2  UNL     1      -7.686  -0.456   0.013  1.00  0.00    -0.074 N 
HETATM   18  C6  UNL     1      -6.479  -1.199  -0.291  1.00  0.00     0.251 C 
ATOM     19  H22 UNL     1      -8.124  -0.793   0.870  1.00  0.00     0.277 HD
ATOM     20  H21 UNL     1      -8.434  -0.675  -0.645  1.00  0.00     0.277 HD
HETATM   21  C7  UNL     1      -5.656  -0.542  -1.358  1.00  0.00     0.144 C 
ENDBRANCH  12  13
ENDBRANCH   9  12
ENDBRANCH   1   8
BRANCH   3  22
HETATM   22  C11 UNL     1       3.659  -1.003  -0.381  1.00  0.00     0.286 C 
BRANCH  22  23
HETATM   23  N4  UNL     1       4.904  -0.461   0.048  1.00  0.00     0.089 N 
HETATM   24  C12 UNL     1       5.932  -1.476  -0.169  1.00  0.00     0.272 C 
HETATM   25  C13 UNL     1       7.276  -1.070   0.328  1.00  0.00     0.030 C 
HETATM   26  C14 UNL     1       7.639   0.350  -0.047  1.00  0.00     0.003 C 
HETATM   27  C15 UNL     1       6.511   1.296   0.266  1.00  0.00     0.030 C 
HETATM   28  C16 UNL     1       5.285   0.797  -0.520  1.00  0.00     0.272 C 
ENDBRANCH  22  23
ENDBRANCH   3  22
TORSDOF 5
