REMARK  7 active torsions:
REMARK  status: ('A' for Active; 'I' for Inactive)
REMARK    1  A    between atoms: N1_2  and  C2_4 
REMARK    2  A    between atoms: C2_4  and  N2_6 
REMARK    3  A    between atoms: N2_6  and  C3_8 
REMARK    4  A    between atoms: C3_8  and  C4_9 
REMARK       I    between atoms: C4_9  and  N3_11 
REMARK    5  A    between atoms: N3_11  and  C5_13 
REMARK    6  A    between atoms: N4_16  and  C8_17 
REMARK    7  A    between atoms: C8_17  and  C9_18 
ROOT
HETATM    1  C5  UNL     1       0.520  -0.340   0.005  1.00  0.00     0.093 C 
HETATM    2  C6  UNL     1      -0.005  -1.736   0.088  1.00  0.00     0.070 C 
HETATM    3  C7  UNL     1      -1.479  -1.692  -0.278  1.00  0.00     0.065 C 
HETATM    4  N4  UNL     1      -2.135  -0.512   0.095  1.00  0.00    -0.371 N 
HETATM    5  C13 UNL     1      -1.626   0.281   1.136  1.00  0.00     0.065 C 
HETATM    6  C14 UNL     1      -0.135   0.510   1.079  1.00  0.00     0.070 C 
ENDROOT
BRANCH   1   7
HETATM    7  N3  UNL     1       1.961  -0.246   0.245  1.00  0.00    -0.354 N 
HETATM    8  C4  UNL     1       2.756   0.403  -0.722  1.00  0.00     0.235 C 
HETATM    9  O1  UNL     1       2.125   0.862  -1.752  1.00  0.00    -0.272 OA
ATOM     10  H3  UNL     1       2.379  -0.639   1.089  1.00  0.00     0.162 HD
BRANCH   8  11
HETATM   11  C3  UNL     1       4.222   0.599  -0.653  1.00  0.00     0.224 C 
BRANCH  11  12
HETATM   12  N2  UNL     1       4.860   0.064   0.512  1.00  0.00    -0.359 N 
ATOM     13  H2  UNL     1       4.323  -0.434   1.222  1.00  0.00     0.162 HD
BRANCH  12  14
HETATM   14  C2  UNL     1       6.258   0.246   0.649  1.00  0.00     0.167 C 
HETATM   15  S1  UNL     1       6.995  -0.348   1.965  1.00  0.00    -0.041 SA
BRANCH  14  16
HETATM   16  N1  UNL     1       6.999   0.928  -0.326  1.00  0.00    -0.372 N 
HETATM   17  C1  UNL     1       8.435   1.111  -0.171  1.00  0.00     0.148 C 
ATOM     18  H1  UNL     1       6.528   1.299  -1.151  1.00  0.00     0.161 HD
ENDBRANCH  14  16
ENDBRANCH  12  14
ENDBRANCH  11  12
ENDBRANCH   8  11
ENDBRANCH   1   7
BRANCH   4  19
HETATM   19  C8  UNL     1      -3.141   0.014  -0.743  1.00  0.00     0.161 C 
BRANCH  19  20
HETATM   20  C9  UNL     1      -4.385  -0.863  -0.760  1.00  0.00     0.163 C 
HETATM   21  C10 UNL     1      -5.033  -0.960   0.602  1.00  0.00     0.201 C 
HETATM   22  O2  UNL     1      -5.123   0.329   1.118  1.00  0.00    -0.386 OA
HETATM   23  C11 UNL     1      -5.975   1.062   0.310  1.00  0.00     0.193 C 
HETATM   24  C12 UNL     1      -6.303   0.433  -0.999  1.00  0.00     0.194 C 
HETATM   25  O3  UNL     1      -5.290  -0.246  -1.617  1.00  0.00    -0.380 OA
ENDBRANCH  19  20
ENDBRANCH   4  19
TORSDOF 7
