REMARK  12 active torsions:
REMARK  status: ('A' for Active; 'I' for Inactive)
REMARK    1  A    between atoms: C2_2  and  O2_4 
REMARK    2  A    between atoms: O2_4  and  C3_5 
REMARK    3  A    between atoms: C6_9  and  C7_10 
REMARK    4  A    between atoms: C7_10  and  O4_11 
REMARK    5  A    between atoms: C8_13  and  O5_14 
REMARK    6  A    between atoms: O5_14  and  C9_15 
REMARK    7  A    between atoms: C9_15  and  C10_16 
REMARK    8  A    between atoms: C10_16  and  C11_17 
REMARK    9  A    between atoms: C12_18  and  C13_19 
REMARK   10  A    between atoms: C13_19  and  C14_20 
REMARK   11  A    between atoms: C14_20  and  C15_21 
REMARK   12  A    between atoms: C16_22  and  O6_23 
ROOT
HETATM    1  C15 UNL     1       6.441  -0.948   0.196  1.00  0.00     0.056 C 
HETATM    2  C16 UNL     1       7.400  -1.647   0.724  1.00  0.00     0.147 C 
HETATM    3  C17 UNL     1       8.733  -1.446   0.182  1.00  0.00     0.124 C 
HETATM    4  N1  UNL     1       9.781  -1.270  -0.267  1.00  0.00    -0.189 NA
ENDROOT
BRANCH   2   5
HETATM    5  O6  UNL     1       7.232  -2.557   1.752  1.00  0.00    -0.351 OA
ATOM      6  H6  UNL     1       7.933  -3.068   2.138  1.00  0.00     0.218 HD
ENDBRANCH   2   5
BRANCH   1   7
HETATM    7  C14 UNL     1       5.026  -1.009   0.612  1.00  0.00     0.059 C 
BRANCH   7   8
HETATM    8  C13 UNL     1       4.037  -0.428   0.209  1.00  0.00    -0.128 C 
BRANCH   8   9
HETATM    9  C12 UNL     1       2.876   0.263  -0.274  1.00  0.00     0.063 C 
HETATM   10  C11 UNL     1       1.642  -0.019   0.299  1.00  0.00     0.061 C 
BRANCH  10  11
HETATM   11  C10 UNL     1       0.532   0.714  -0.237  1.00  0.00    -0.129 C 
BRANCH  11  12
HETATM   12  C9  UNL     1      -0.400   1.327  -0.687  1.00  0.00     0.253 C 
BRANCH  12  13
HETATM   13  O5  UNL     1      -1.688   1.423  -0.501  1.00  0.00    -0.371 OA
BRANCH  13  14
HETATM   14  C8  UNL     1      -2.873   1.192   0.002  1.00  0.00     0.165 C 
HETATM   15  C3  UNL     1      -3.528  -0.144  -0.049  1.00  0.00     0.168 C 
HETATM   16  C4  UNL     1      -4.939   0.042  -0.572  1.00  0.00     0.114 C 
HETATM   17  C5  UNL     1      -5.173   1.465  -0.144  1.00  0.00     0.138 C 
HETATM   18  O3  UNL     1      -6.132   1.897   0.421  1.00  0.00    -0.297 OA
HETATM   19  C6  UNL     1      -3.968   2.164  -0.571  1.00  0.00     0.110 C 
BRANCH  15  20
HETATM   20  O2  UNL     1      -2.843  -1.187  -0.655  1.00  0.00    -0.313 OA
BRANCH  20  21
HETATM   21  C2  UNL     1      -2.434  -2.332   0.008  1.00  0.00     0.255 C 
HETATM   22  C1  UNL     1      -1.736  -3.481  -0.594  1.00  0.00     0.126 C 
HETATM   23  O1  UNL     1      -2.690  -2.397   1.248  1.00  0.00    -0.266 OA
ENDBRANCH  20  21
ENDBRANCH  15  20
BRANCH  19  24
HETATM   24  C7  UNL     1      -3.741   3.540  -0.085  1.00  0.00     0.179 C 
BRANCH  24  25
HETATM   25  O4  UNL     1      -3.643   3.709   1.271  1.00  0.00    -0.400 OA
ATOM     26  H4  UNL     1      -3.497   4.594   1.584  1.00  0.00     0.209 HD
ENDBRANCH  24  25
ENDBRANCH  19  24
ENDBRANCH  13  14
ENDBRANCH  12  13
ENDBRANCH  11  12
ENDBRANCH  10  11
ENDBRANCH   8   9
ENDBRANCH   7   8
ENDBRANCH   1   7
TORSDOF 12
