REMARK  9 active torsions:
REMARK  status: ('A' for Active; 'I' for Inactive)
REMARK    1  A    between atoms: C2_2  and  C13_19 
REMARK    2  A    between atoms: N1_3  and  O1_5 
REMARK    3  A    between atoms: O1_5  and  C3_6 
REMARK    4  A    between atoms: C3_6  and  C4_7 
REMARK    5  A    between atoms: C4_7  and  O2_8 
REMARK    6  A    between atoms: C4_7  and  C5_10 
REMARK    7  A    between atoms: C5_10  and  N2_11 
REMARK    8  A    between atoms: C13_19  and  O3_20 
REMARK    9  A    between atoms: C13_19  and  N3_22 
ROOT
HETATM    1  O1  UNL     1       1.675  -0.429  -1.031  1.00  0.00    -0.278 OA
ENDROOT
BRANCH   1   2
HETATM    2  N1  UNL     1       2.661  -0.914  -0.218  1.00  0.00    -0.271 N 
HETATM    3  C2  UNL     1       3.529  -0.153   0.366  1.00  0.00     0.054 C 
HETATM    4  C1  UNL     1       3.433   1.318   0.130  1.00  0.00     0.070 C 
ATOM      5  H1  UNL     1       2.715  -1.921  -0.065  1.00  0.00     0.193 HD
BRANCH   3   6
HETATM    6  C13 UNL     1       4.576  -0.731   1.238  1.00  0.00     0.273 C 
BRANCH   6   7
HETATM    7  O3  UNL     1       4.424  -0.199   2.527  1.00  0.00    -0.371 OA
ATOM      8  H3  UNL     1       5.096  -0.570   3.087  1.00  0.00     0.212 HD
ENDBRANCH   6   7
BRANCH   6   9
HETATM    9  N3  UNL     1       5.911  -0.465   0.757  1.00  0.00    -0.320 N 
HETATM   10  C14 UNL     1       6.293  -0.413  -0.534  1.00  0.00     0.112 A 
HETATM   11  C15 UNL     1       7.631  -0.137  -0.608  1.00  0.00     0.106 A 
HETATM   12  N4  UNL     1       8.068  -0.019   0.653  1.00  0.00    -0.361 N 
HETATM   13  C16 UNL     1       7.019  -0.219   1.504  1.00  0.00     0.185 A 
ATOM     14  H4  UNL     1       9.027   0.187   0.932  1.00  0.00     0.166 HD
ENDBRANCH   6   9
ENDBRANCH   3   6
ENDBRANCH   1   2
BRANCH   1  15
HETATM   15  C3  UNL     1       0.434   0.017  -0.496  1.00  0.00     0.238 C 
BRANCH  15  16
HETATM   16  C4  UNL     1      -0.472   0.502  -1.601  1.00  0.00     0.183 C 
BRANCH  16  17
HETATM   17  O2  UNL     1      -0.729  -0.547  -2.483  1.00  0.00    -0.388 OA
ATOM     18  H2  UNL     1      -1.299  -0.242  -3.179  1.00  0.00     0.210 HD
ENDBRANCH  16  17
BRANCH  16  19
HETATM   19  C5  UNL     1      -1.695   1.214  -1.116  1.00  0.00     0.101 C 
BRANCH  19  20
HETATM   20  N2  UNL     1      -2.658   0.464  -0.426  1.00  0.00    -0.351 N 
HETATM   21  C6  UNL     1      -2.394  -0.044   0.848  1.00  0.00     0.072 C 
HETATM   22  C7  UNL     1      -3.611   0.153   1.728  1.00  0.00     0.021 C 
HETATM   23  C8  UNL     1      -3.821   1.615   2.071  1.00  0.00     0.015 C 
HETATM   24  C9  UNL     1      -4.840  -0.416   1.135  1.00  0.00     0.019 C 
HETATM   25  C10 UNL     1      -4.911  -0.533  -0.339  1.00  0.00     0.021 C 
HETATM   26  C11 UNL     1      -5.233  -1.977  -0.762  1.00  0.00     0.015 C 
HETATM   27  C12 UNL     1      -3.787   0.014  -1.128  1.00  0.00     0.072 C 
ENDBRANCH  19  20
ENDBRANCH  16  19
ENDBRANCH  15  16
ENDBRANCH   1  15
TORSDOF 9
