REMARK  4 active torsions:
REMARK  status: ('A' for Active; 'I' for Inactive)
REMARK    1  A    between atoms: O1_2  and  C2_3 
REMARK    2  A    between atoms: C2_3  and  C3_5 
REMARK    3  A    between atoms: C12_16  and  O5_17 
REMARK    4  A    between atoms: C15_21  and  O6_22 
ROOT
HETATM    1  C3  UNL     1       2.255  -0.109  -0.545  1.00  0.00     0.162 C 
HETATM    2  C4  UNL     1       1.552  -1.433  -0.332  1.00  0.00     0.101 C 
HETATM    3  C5  UNL     1       0.402  -1.599  -1.247  1.00  0.00     0.134 C 
HETATM    4  O3  UNL     1       0.353  -0.920  -2.251  1.00  0.00    -0.297 OA
HETATM    5  C6  UNL     1      -0.665  -2.578  -0.935  1.00  0.00     0.080 C 
HETATM    6  C7  UNL     1      -1.383  -3.065  -2.185  1.00  0.00     0.020 C 
HETATM    7  C8  UNL     1      -1.667  -1.991   0.068  1.00  0.00     0.128 C 
HETATM    8  C9  UNL     1      -1.367  -2.617   1.404  1.00  0.00     0.040 C 
HETATM    9  O4  UNL     1      -1.466  -0.618   0.053  1.00  0.00    -0.378 OA
HETATM   10  C10 UNL     1      -2.319   0.077   0.871  1.00  0.00     0.147 C 
HETATM   11  C11 UNL     1      -3.718  -0.534   0.703  1.00  0.00     0.042 C 
HETATM   12  C12 UNL     1      -2.424   1.519   0.530  1.00  0.00     0.152 C 
HETATM   13  C13 UNL     1      -1.156   2.082  -0.108  1.00  0.00     0.042 C 
HETATM   14  C14 UNL     1      -1.613   3.427  -0.694  1.00  0.00     0.015 C 
HETATM   15  C15 UNL     1      -0.067   2.321   0.868  1.00  0.00     0.135 C 
HETATM   16  C16 UNL     1       1.316   2.166   0.353  1.00  0.00     0.081 C 
HETATM   17  C17 UNL     1       1.513   2.597  -1.067  1.00  0.00     0.020 C 
HETATM   18  C18 UNL     1       1.865   0.784   0.572  1.00  0.00     0.147 C 
HETATM   19  O7  UNL     1       2.005   0.359   1.705  1.00  0.00    -0.297 OA
ENDROOT
BRANCH   1  20
HETATM   20  C2  UNL     1       3.710  -0.346  -0.445  1.00  0.00     0.270 C 
HETATM   21  O2  UNL     1       4.527  -0.124  -1.348  1.00  0.00    -0.264 OA
BRANCH  20  22
HETATM   22  O1  UNL     1       4.181  -0.861   0.769  1.00  0.00    -0.326 OA
HETATM   23  C1  UNL     1       5.536  -1.139   1.015  1.00  0.00     0.213 C 
ENDBRANCH  20  22
ENDBRANCH   1  20
BRANCH  15  24
HETATM   24  O6  UNL     1      -0.185   1.505   2.016  1.00  0.00    -0.394 OA
ATOM     25  H6  UNL     1       0.513   1.658   2.642  1.00  0.00     0.210 HD
ENDBRANCH  15  24
BRANCH  12  26
HETATM   26  O5  UNL     1      -3.423   1.644  -0.464  1.00  0.00    -0.393 OA
ATOM     27  H5  UNL     1      -3.490   2.566  -0.682  1.00  0.00     0.210 HD
ENDBRANCH  12  26
TORSDOF 4
