REMARK  5 active torsions:
REMARK  status: ('A' for Active; 'I' for Inactive)
REMARK    1  A    between atoms: C4_5  and  C5_6 
REMARK    2  A    between atoms: C5_6  and  C6_7 
REMARK    3  A    between atoms: C6_7  and  C7_8 
REMARK    4  A    between atoms: C6_7  and  C8_17 
REMARK    5  A    between atoms: C13_25  and  C14_26 
ROOT
HETATM    1  C6  UNL     1      -0.261  -0.817   0.239  1.00  0.00     0.065 C 
ENDROOT
BRANCH   1   2
HETATM    2  C5  UNL     1       0.772  -0.349   1.198  1.00  0.00     0.052 C 
BRANCH   2   3
HETATM    3  C4  UNL     1       1.448   0.915   0.805  1.00  0.00    -0.043 A 
HETATM    4  C3  UNL     1       1.005   2.099   1.430  1.00  0.00     0.010 A 
HETATM    5  C2  UNL     1       1.505   3.337   1.135  1.00  0.00     0.026 A 
HETATM    6  C1  UNL     1       2.488   3.405   0.180  1.00  0.00     0.056 A 
HETATM    7 CL1  UNL     1       3.173   4.980  -0.245  1.00  0.00    -0.083 Cl
HETATM    8  C18 UNL     1       2.938   2.238  -0.446  1.00  0.00     0.069 A 
HETATM    9  C13 UNL     1       2.449   1.001  -0.162  1.00  0.00     0.028 A 
HETATM   10 CL2  UNL     1       4.225   2.470  -1.600  1.00  0.00    -0.082 Cl
BRANCH   9  11
HETATM   11  C14 UNL     1       2.984  -0.234  -0.760  1.00  0.00     0.087 A 
HETATM   12  C15 UNL     1       3.691  -0.377  -1.921  1.00  0.00     0.040 A 
HETATM   13  C16 UNL     1       3.997  -1.746  -2.110  1.00  0.00     0.027 A 
HETATM   14  C17 UNL     1       3.443  -2.359  -1.026  1.00  0.00     0.142 A 
HETATM   15  O1  UNL     1       2.882  -1.460  -0.294  1.00  0.00    -0.322 OA
ENDBRANCH   9  11
ENDBRANCH   2   3
ENDBRANCH   1   2
BRANCH   1  16
HETATM   16  C7  UNL     1      -0.840  -2.118   0.754  1.00  0.00     0.117 A 
HETATM   17  N1  UNL     1      -1.501  -2.314   1.909  1.00  0.00    -0.272 N 
HETATM   18  N2  UNL     1      -1.836  -3.612   1.968  1.00  0.00    -0.227 N 
ATOM     19  H1  UNL     1      -1.710  -1.605   2.612  1.00  0.00     0.190 HD
HETATM   20  N3  UNL     1      -1.409  -4.230   0.894  1.00  0.00    -0.227 N 
ATOM     21  H2  UNL     1      -2.346  -4.052   2.734  1.00  0.00     0.210 HD
HETATM   22  N4  UNL     1      -0.807  -3.325   0.159  1.00  0.00    -0.272 N 
ATOM     23  H3  UNL     1      -1.522  -5.219   0.673  1.00  0.00     0.210 HD
ATOM     24  H4  UNL     1      -0.371  -3.512  -0.744  1.00  0.00     0.190 HD
ENDBRANCH   1  16
BRANCH   1  25
HETATM   25  C8  UNL     1      -1.379   0.137  -0.038  1.00  0.00     0.000 C 
HETATM   26  C9  UNL     1      -2.308  -0.545  -1.061  1.00  0.00     0.033 C 
HETATM   27  C10 UNL     1      -3.671   0.126  -1.019  1.00  0.00     0.232 C 
HETATM   28  N5  UNL     1      -3.574   1.516  -0.709  1.00  0.00    -0.075 N 
HETATM   29  C11 UNL     1      -3.106   1.694   0.630  1.00  0.00     0.232 C 
ATOM     30  H52 UNL     1      -2.996   2.017  -1.384  1.00  0.00     0.277 HD
ATOM     31  H51 UNL     1      -4.454   2.005  -0.872  1.00  0.00     0.277 HD
HETATM   32  C12 UNL     1      -2.260   0.498   1.096  1.00  0.00     0.033 C 
ENDBRANCH   1  25
TORSDOF 5
