REMARK  7 active torsions:
REMARK  status: ('A' for Active; 'I' for Inactive)
REMARK    1  A    between atoms: C5_6  and  C6_7 
REMARK    2  A    between atoms: N2_10  and  C9_11 
REMARK    3  A    between atoms: C9_11  and  C10_12 
REMARK    4  A    between atoms: C10_12  and  C11_13 
REMARK    5  A    between atoms: C10_12  and  N4_20 
REMARK    6  A    between atoms: C11_13  and  O1_14 
REMARK    7  A    between atoms: N3_16  and  O2_18 
ROOT
HETATM    1  N1  UNL     1       7.257   1.742   2.793  1.00  0.00    -0.191 NA
HETATM    2  C1  UNL     1       6.354   1.405   2.105  1.00  0.00     0.099 C 
HETATM    3  C2  UNL     1       5.282   0.973   1.223  1.00  0.00     0.046 A 
HETATM    4  C3  UNL     1       3.971   1.063   1.595  1.00  0.00     0.023 A 
HETATM    5  C4  UNL     1       2.953   0.639   0.726  1.00  0.00     0.011 A 
HETATM    6  C5  UNL     1       3.319   0.131  -0.513  1.00  0.00    -0.032 A 
HETATM    7  C18 UNL     1       4.648   0.055  -0.852  1.00  0.00     0.042 A 
HETATM    8 CL1  UNL     1       5.138  -0.479  -2.487  1.00  0.00    -0.084 Cl
HETATM    9  C19 UNL     1       5.645   0.451  -0.045  1.00  0.00     0.047 A 
ENDROOT
BRANCH   6  10
HETATM   10  C6  UNL     1       2.370  -0.463  -1.460  1.00  0.00     0.029 C 
HETATM   11  C7  UNL     1       1.375   0.521  -1.998  1.00  0.00     0.054 C 
HETATM   12  C8  UNL     1      -0.000   0.591  -1.341  1.00  0.00     0.067 C 
HETATM   13  N2  UNL     1      -0.592  -0.682  -1.217  1.00  0.00    -0.341 N 
HETATM   14  C16 UNL     1       0.286  -1.760  -1.509  1.00  0.00     0.275 C 
HETATM   15  F1  UNL     1      -0.274  -2.987  -1.269  1.00  0.00    -0.227 F 
HETATM   16  C17 UNL     1       1.558  -1.546  -0.672  1.00  0.00     0.069 C 
BRANCH  13  17
HETATM   17  C9  UNL     1      -1.512  -0.838  -0.194  1.00  0.00     0.100 C 
BRANCH  17  18
HETATM   18  C10 UNL     1      -2.860  -0.223  -0.270  1.00  0.00     0.203 C 
BRANCH  18  19
HETATM   19  C11 UNL     1      -3.099   1.192  -0.353  1.00  0.00     0.164 C 
HETATM   20  N3  UNL     1      -2.426   2.206  -0.037  1.00  0.00    -0.249 N 
ATOM     21  H3  UNL     1      -1.503   2.065   0.373  1.00  0.00     0.196 HD
BRANCH  19  22
HETATM   22  O1  UNL     1      -4.381   1.534  -0.918  1.00  0.00    -0.346 OA
ATOM     23  H1  UNL     1      -4.539   2.469  -0.973  1.00  0.00     0.219 HD
ENDBRANCH  19  22
BRANCH  20  24
HETATM   24  O2  UNL     1      -2.875   3.508  -0.217  1.00  0.00    -0.288 OA
ATOM     25  H2  UNL     1      -2.367   4.274   0.022  1.00  0.00     0.244 HD
ENDBRANCH  20  24
ENDBRANCH  18  19
BRANCH  18  26
HETATM   26  N4  UNL     1      -3.659  -0.755   0.870  1.00  0.00    -0.349 N 
HETATM   27  C12 UNL     1      -4.849  -1.373   0.790  1.00  0.00     0.092 A 
HETATM   28  C13 UNL     1      -5.352  -1.675   2.043  1.00  0.00     0.019 A 
HETATM   29  C14 UNL     1      -4.392  -1.202   2.941  1.00  0.00     0.019 A 
HETATM   30  C15 UNL     1      -3.368  -0.647   2.176  1.00  0.00     0.092 A 
ENDBRANCH  18  26
ENDBRANCH  17  18
ENDBRANCH  13  17
ENDBRANCH   6  10
TORSDOF 7
