REMARK  6 active torsions:
REMARK  status: ('A' for Active; 'I' for Inactive)
REMARK    1  A    between atoms: C2_2  and  C3_3 
REMARK    2  A    between atoms: C2_2  and  C5_10 
REMARK       I    between atoms: C3_3  and  N1_5 
REMARK       I    between atoms: N1_5  and  C4_7 
REMARK    3  A    between atoms: C5_10  and  O3_11 
REMARK    4  A    between atoms: C5_10  and  C6_13 
REMARK    5  A    between atoms: C7_15  and  S2_16 
REMARK    6  A    between atoms: S2_16  and  C8_17 
ROOT
HETATM    1  C6  UNL     1      -1.740  -0.796   0.680  1.00  0.00     0.076 A 
HETATM    2  S1  UNL     1      -0.506  -0.230   1.799  1.00  0.00    -0.076 SA
HETATM    3  C7  UNL     1       0.856  -0.199   0.782  1.00  0.00     0.067 A 
HETATM    4  C14 UNL     1       0.334  -0.620  -0.392  1.00  0.00     0.097 A 
HETATM    5 CL1  UNL     1       1.388  -0.781  -1.851  1.00  0.00    -0.079 Cl
HETATM    6  C15 UNL     1      -0.984  -0.925  -0.444  1.00  0.00     0.159 A 
HETATM    7  F1  UNL     1      -1.537  -1.363  -1.646  1.00  0.00    -0.203 F 
ENDROOT
BRANCH   1   8
HETATM    8  C5  UNL     1      -3.134  -0.996   1.022  1.00  0.00     0.076 C 
BRANCH   8   9
HETATM    9  C2  UNL     1      -4.293  -1.551   0.418  1.00  0.00     0.132 C 
HETATM   10  C1  UNL     1      -4.386  -2.009  -0.981  1.00  0.00     0.027 C 
BRANCH   9  11
HETATM   11  C3  UNL     1      -5.423  -0.547   0.548  1.00  0.00     0.235 C 
HETATM   12  O1  UNL     1      -6.255  -0.637   1.458  1.00  0.00    -0.272 OA
HETATM   13  N1  UNL     1      -5.496   0.496  -0.401  1.00  0.00    -0.281 N 
HETATM   14  C4  UNL     1      -6.540   1.464  -0.382  1.00  0.00     0.335 C 
ATOM     15  H1  UNL     1      -4.778   0.558  -1.123  1.00  0.00     0.173 HD
HETATM   16  N2  UNL     1      -7.517   1.406   0.636  1.00  0.00    -0.040 NA
HETATM   17  O2  UNL     1      -6.575   2.373  -1.281  1.00  0.00    -0.251 OA
ENDBRANCH   9  11
ENDBRANCH   8   9
BRANCH   8  18
HETATM   18  O3  UNL     1      -3.383  -0.548   2.250  1.00  0.00    -0.363 OA
ATOM     19  H3  UNL     1      -2.608  -0.177   2.654  1.00  0.00     0.217 HD
ENDBRANCH   8  18
ENDBRANCH   1   8
BRANCH   3  20
HETATM   20  S2  UNL     1       2.474   0.151   1.397  1.00  0.00    -0.116 SA
BRANCH  20  21
HETATM   21  C8  UNL     1       3.801   0.318   0.282  1.00  0.00     0.053 C 
HETATM   22  C9  UNL     1       4.355   1.747   0.265  1.00  0.00     0.015 C 
HETATM   23  C10 UNL     1       5.832   1.707   0.669  1.00  0.00     0.001 C 
HETATM   24  C11 UNL     1       6.663   0.860  -0.264  1.00  0.00     0.000 C 
HETATM   25  C12 UNL     1       5.873  -0.329  -0.752  1.00  0.00     0.001 C 
HETATM   26  C13 UNL     1       4.935  -0.687   0.414  1.00  0.00     0.015 C 
ENDBRANCH  20  21
ENDBRANCH   3  20
TORSDOF 6
