REMARK  5 active torsions:
REMARK  status: ('A' for Active; 'I' for Inactive)
REMARK    1  A    between atoms: N1_7  and  C7_8 
REMARK    2  A    between atoms: C7_8  and  C8_9 
REMARK    3  A    between atoms: C8_9  and  N2_10 
REMARK    4  A    between atoms: N2_10  and  C9_12 
REMARK    5  A    between atoms: C10_13  and  N3_14 
ROOT
HETATM    1  C9  UNL     1      -2.799   0.192   0.047  1.00  0.00     0.081 A 
HETATM    2  C10 UNL     1      -3.812   1.093  -0.264  1.00  0.00     0.132 A 
HETATM    3  C11 UNL     1      -5.126   0.703   0.034  1.00  0.00     0.066 A 
HETATM    4  C12 UNL     1      -5.429  -0.510   0.607  1.00  0.00     0.071 A 
HETATM    5  N4  UNL     1      -6.777  -0.877   0.898  1.00  0.00    -0.101 NA
HETATM    6  C13 UNL     1      -4.395  -1.369   0.895  1.00  0.00     0.078 A 
HETATM    7 CL1  UNL     1      -4.715  -2.942   1.630  1.00  0.00    -0.081 Cl
HETATM    8  C14 UNL     1      -3.067  -1.029   0.619  1.00  0.00     0.063 A 
HETATM    9 BR1  UNL     1      -1.706  -2.316   1.063  1.00  0.00    -0.047 Br
ENDROOT
BRANCH   1  10
HETATM   10  N2  UNL     1      -1.474   0.577  -0.189  1.00  0.00    -0.385 N 
ATOM     11  H2  UNL     1      -1.360   1.543  -0.495  1.00  0.00     0.159 HD
BRANCH  10  12
HETATM   12  C8  UNL     1      -0.252  -0.161  -0.072  1.00  0.00     0.150 C 
BRANCH  12  13
HETATM   13  C7  UNL     1       0.946   0.710  -0.546  1.00  0.00     0.292 C 
BRANCH  13  14
HETATM   14  N1  UNL     1       2.125  -0.115  -0.412  1.00  0.00     0.094 N 
HETATM   15  C2  UNL     1       3.304   0.584  -0.860  1.00  0.00     0.219 C 
HETATM   16  C1  UNL     1       3.925  -0.230  -1.978  1.00  0.00     0.043 C 
HETATM   17  C3  UNL     1       4.339   0.829   0.178  1.00  0.00     0.035 C 
HETATM   18  C4  UNL     1       4.720  -0.500   0.792  1.00  0.00     0.004 C 
HETATM   19  C5  UNL     1       3.529  -1.237   1.294  1.00  0.00     0.030 C 
HETATM   20  C6  UNL     1       2.199  -0.646   0.898  1.00  0.00     0.273 C 
ENDBRANCH  13  14
ENDBRANCH  12  13
ENDBRANCH  10  12
ENDBRANCH   1  10
BRANCH   2  21
HETATM   21  N3  UNL     1      -3.635   2.356  -0.858  1.00  0.00    -0.113 N 
HETATM   22  O1  UNL     1      -4.503   3.229  -0.529  1.00  0.00    -0.532 OA
HETATM   23  O2  UNL     1      -2.686   2.783  -1.715  1.00  0.00    -0.532 OA
ENDBRANCH   2  21
TORSDOF 5
