REMARK  5 active torsions:
REMARK  status: ('A' for Active; 'I' for Inactive)
REMARK    1  A    between atoms: S1_2  and  C2_3 
REMARK    2  A    between atoms: C4_10  and  N3_11 
REMARK    3  A    between atoms: C10_19  and  S2_20 
REMARK    4  A    between atoms: S2_20  and  C11_21 
REMARK    5  A    between atoms: C11_21  and  C12_22 
ROOT
HETATM    1  C2  UNL     1      -0.552   3.469   0.497  1.00  0.00     0.146 A 
HETATM    2  N1  UNL     1      -1.259   2.800   1.422  1.00  0.00    -0.321 N 
ATOM      3  H1  UNL     1      -1.646   3.297   2.224  1.00  0.00     0.169 HD
HETATM    4  C3  UNL     1      -1.461   1.458   1.292  1.00  0.00     0.130 A 
HETATM    5  N2  UNL     1      -2.138   0.827   2.176  1.00  0.00    -0.383 N 
ATOM      6  H21 UNL     1      -2.289  -0.177   2.079  1.00  0.00     0.157 HD
ATOM      7  H22 UNL     1      -2.511   1.355   2.965  1.00  0.00     0.157 HD
HETATM    8  C4  UNL     1      -0.953   0.738   0.216  1.00  0.00     0.108 A 
HETATM    9  C10 UNL     1      -0.236   1.440  -0.712  1.00  0.00     0.102 A 
HETATM   10  N4  UNL     1      -0.064   2.780  -0.535  1.00  0.00    -0.329 N 
ATOM     11  H4  UNL     1       0.473   3.289  -1.237  1.00  0.00     0.168 HD
ENDROOT
BRANCH   8  12
HETATM   12  N3  UNL     1      -1.245  -0.618   0.109  1.00  0.00    -0.375 N 
HETATM   13  C5  UNL     1      -0.541  -1.745   0.660  1.00  0.00     0.129 C 
HETATM   14  C6  UNL     1      -0.651  -2.885  -0.365  1.00  0.00     0.099 C 
HETATM   15  C7  UNL     1      -2.046  -3.436  -0.238  1.00  0.00     0.246 C 
HETATM   16  F1  UNL     1      -2.098  -4.199   0.911  1.00  0.00    -0.206 F 
HETATM   17  F2  UNL     1      -2.400  -4.221  -1.316  1.00  0.00    -0.206 F 
HETATM   18  C8  UNL     1      -3.013  -2.303  -0.141  1.00  0.00     0.099 C 
HETATM   19  C9  UNL     1      -2.447  -1.004  -0.680  1.00  0.00     0.129 C 
ENDBRANCH   8  12
BRANCH   9  20
HETATM   20  S2  UNL     1       0.402   0.623  -2.157  1.00  0.00    -0.105 SA
BRANCH  20  21
HETATM   21  C11 UNL     1       2.191   0.479  -2.039  1.00  0.00     0.119 C 
BRANCH  21  22
HETATM   22  C12 UNL     1       2.703  -0.368  -0.977  1.00  0.00    -0.049 A 
HETATM   23  C13 UNL     1       2.964  -1.713  -1.086  1.00  0.00     0.008 A 
HETATM   24  C14 UNL     1       3.462  -2.470  -0.044  1.00  0.00     0.001 A 
HETATM   25  C15 UNL     1       3.714  -1.863   1.162  1.00  0.00     0.000 A 
HETATM   26  C16 UNL     1       3.468  -0.528   1.310  1.00  0.00     0.001 A 
HETATM   27  C17 UNL     1       2.971   0.221   0.266  1.00  0.00     0.008 A 
ENDBRANCH  21  22
ENDBRANCH  20  21
ENDBRANCH   9  20
BRANCH   1  28
HETATM   28  S1  UNL     1      -0.291   5.237   0.675  1.00  0.00    -0.098 SA
HETATM   29  C1  UNL     1      -1.606   6.176  -0.125  1.00  0.00     0.099 C 
ENDBRANCH   1  28
TORSDOF 5
