REMARK  4 active torsions:
REMARK  status: ('A' for Active; 'I' for Inactive)
REMARK    1  A    between atoms: C2_2  and  N1_3 
REMARK    2  A    between atoms: C2_2  and  C11_18 
REMARK    3  A    between atoms: C3_5  and  N2_6 
REMARK    4  A    between atoms: C3_5  and  C5_11 
ROOT
HETATM    1  N1  UNL     1       0.558  -0.589  -0.991  1.00  0.00    -0.367 N 
ATOM      2  H1  UNL     1       0.578  -1.608  -1.023  1.00  0.00     0.161 HD
HETATM    3  C3  UNL     1      -0.590  -0.019  -1.110  1.00  0.00     0.114 C 
ENDROOT
BRANCH   3   4
HETATM    4  N2  UNL     1      -0.646   1.388  -1.070  1.00  0.00    -0.319 N 
HETATM    5  C4  UNL     1      -1.039   2.087  -0.095  1.00  0.00     0.202 C 
HETATM    6  N3  UNL     1      -1.477   1.465   1.098  1.00  0.00    -0.066 NA
HETATM    7  N4  UNL     1      -1.049   3.500  -0.177  1.00  0.00    -0.066 NA
ATOM      8  H2  UNL     1      -0.341   1.888  -1.905  1.00  0.00     0.169 HD
ENDBRANCH   3   4
BRANCH   3   9
HETATM    9  C5  UNL     1      -1.758  -0.867  -1.280  1.00  0.00     0.008 A 
HETATM   10  C6  UNL     1      -3.034  -0.356  -1.417  1.00  0.00     0.018 A 
HETATM   11  C7  UNL     1      -4.155  -1.135  -1.578  1.00  0.00     0.043 A 
HETATM   12  C8  UNL     1      -3.992  -2.506  -1.605  1.00  0.00     0.116 A 
HETATM   13  F1  UNL     1      -5.074  -3.310  -1.762  1.00  0.00    -0.206 F 
HETATM   14  C9  UNL     1      -2.722  -3.074  -1.471  1.00  0.00     0.043 A 
HETATM   15  C10 UNL     1      -1.626  -2.231  -1.310  1.00  0.00     0.018 A 
ENDBRANCH   3   9
BRANCH   1  16
HETATM   16  C2  UNL     1       1.807   0.084  -0.818  1.00  0.00     0.112 C 
HETATM   17  C1  UNL     1       2.941  -0.704  -1.467  1.00  0.00     0.037 C 
BRANCH  16  18
HETATM   18  C11 UNL     1       2.132   0.209   0.632  1.00  0.00    -0.036 A 
HETATM   19  C12 UNL     1       2.599   1.405   1.132  1.00  0.00     0.009 A 
HETATM   20  C13 UNL     1       2.906   1.540   2.473  1.00  0.00     0.001 A 
HETATM   21  C14 UNL     1       2.750   0.487   3.323  1.00  0.00     0.000 A 
HETATM   22  C15 UNL     1       2.285  -0.722   2.852  1.00  0.00     0.001 A 
HETATM   23  C16 UNL     1       1.980  -0.840   1.495  1.00  0.00     0.009 A 
ENDBRANCH  16  18
ENDBRANCH   1  16
TORSDOF 4
