REMARK  3 active torsions:
REMARK  status: ('A' for Active; 'I' for Inactive)
REMARK       I    between atoms: C1_2  and  N3_17 
REMARK       I    between atoms: N2_3  and  C2_5 
REMARK    1  A    between atoms: C2_5  and  C3_7 
REMARK    2  A    between atoms: C5_9  and  C6_10 
REMARK    3  A    between atoms: N3_17  and  C12_19 
ROOT
HETATM    1  N1  UNL     1      -2.282   1.886   1.283  1.00  0.00    -0.063 NA
HETATM    2  C1  UNL     1      -1.813   1.016   0.271  1.00  0.00     0.191 C 
HETATM    3  N2  UNL     1      -0.590   1.033  -0.026  1.00  0.00    -0.301 N 
ATOM      4  H2  UNL     1      -0.001   1.686   0.491  1.00  0.00     0.171 HD
HETATM    5  C2  UNL     1       0.049   0.236  -1.006  1.00  0.00     0.228 C 
HETATM    6  O1  UNL     1      -0.408   0.044  -2.153  1.00  0.00    -0.273 OA
HETATM    7  N3  UNL     1      -2.722   0.153  -0.379  1.00  0.00    -0.360 N 
ATOM      8  H3  UNL     1      -2.379  -0.671  -0.873  1.00  0.00     0.162 HD
ENDROOT
BRANCH   5   9
HETATM    9  C3  UNL     1       1.336  -0.403  -0.638  1.00  0.00     0.087 A 
HETATM   10  C4  UNL     1       1.464  -0.894   0.825  1.00  0.00     0.025 A 
HETATM   11  C5  UNL     1       2.221   0.328   0.295  1.00  0.00     0.032 A 
BRANCH  11  12
HETATM   12  C6  UNL     1       3.684   0.124   0.288  1.00  0.00    -0.053 A 
HETATM   13  C7  UNL     1       4.255  -1.069  -0.092  1.00  0.00     0.010 A 
HETATM   14  C8  UNL     1       5.634  -1.237  -0.090  1.00  0.00     0.043 A 
HETATM   15  C9  UNL     1       6.452  -0.190   0.300  1.00  0.00     0.116 A 
HETATM   16  F1  UNL     1       7.804  -0.381   0.292  1.00  0.00    -0.206 F 
HETATM   17  C10 UNL     1       5.899   1.013   0.683  1.00  0.00     0.043 A 
HETATM   18  C11 UNL     1       4.515   1.149   0.670  1.00  0.00     0.010 A 
ENDBRANCH  11  12
ENDBRANCH   5   9
BRANCH   7  19
HETATM   19  C12 UNL     1      -4.152   0.439  -0.344  1.00  0.00     0.084 C 
HETATM   20  C13 UNL     1      -5.003  -0.542  -1.065  1.00  0.00     0.025 C 
HETATM   21  C14 UNL     1      -5.350  -1.201   0.268  1.00  0.00     0.004 C 
HETATM   22  C15 UNL     1      -4.762   0.009   0.956  1.00  0.00     0.025 C 
ENDBRANCH   7  19
TORSDOF 3
