REMARK  3 active torsions:
REMARK  status: ('A' for Active; 'I' for Inactive)
REMARK       I    between atoms: N1_2  and  C2_4 
REMARK       I    between atoms: C2_4  and  N2_6 
REMARK    1  A    between atoms: N2_6  and  C3_8 
REMARK    2  A    between atoms: C3_8  and  C4_9 
REMARK    3  A    between atoms: C4_9  and  C5_10 
ROOT
HETATM    1  C4  UNL     1       0.153  -0.944   0.991  1.00  0.00     0.041 C 
ENDROOT
BRANCH   1   2
HETATM    2  C3  UNL     1       1.450  -1.391   0.463  1.00  0.00     0.126 C 
BRANCH   2   3
HETATM    3  N2  UNL     1       2.546  -0.456   0.495  1.00  0.00    -0.343 N 
HETATM    4  C2  UNL     1       3.839  -0.845  -0.039  1.00  0.00     0.319 C 
HETATM    5  N1  UNL     1       4.939   0.047  -0.026  1.00  0.00    -0.329 N 
HETATM    6  O1  UNL     1       3.989  -1.983  -0.520  1.00  0.00    -0.247 OA
HETATM    7  C1  UNL     1       5.152   0.873  -0.984  1.00  0.00     0.123 C 
ATOM      8  H1  UNL     1       5.580   0.032   0.767  1.00  0.00     0.169 HD
ATOM      9  H2  UNL     1       2.414   0.475   0.891  1.00  0.00     0.164 HD
ENDBRANCH   2   3
ENDBRANCH   1   2
BRANCH   1  10
HETATM   10  C5  UNL     1      -0.565   0.172   0.348  1.00  0.00     0.023 C 
HETATM   11 BR1  UNL     1       0.333   1.863   0.310  1.00  0.00    -0.085 Br
HETATM   12  C6  UNL     1      -0.970  -0.166  -1.103  1.00  0.00     0.026 C 
HETATM   13  C7  UNL     1      -2.475  -0.109  -1.124  1.00  0.00    -0.013 C 
HETATM   14  C8  UNL     1      -2.969   1.295  -0.898  1.00  0.00     0.005 C 
HETATM   15  C11 UNL     1      -2.749  -0.705   0.269  1.00  0.00     0.011 C 
HETATM   16  C9  UNL     1      -2.548   1.584   0.530  1.00  0.00     0.006 C 
HETATM   17  C10 UNL     1      -1.915   0.304   1.030  1.00  0.00     0.005 C 
ENDBRANCH   1  10
TORSDOF 3
