REMARK  2 active torsions:
REMARK  status: ('A' for Active; 'I' for Inactive)
REMARK    1  A    between atoms: C10_10  and  C11_11 
REMARK       I    between atoms: C11_11  and  N1_13 
REMARK       I    between atoms: N1_13  and  C12_15 
REMARK       I    between atoms: C12_15  and  N2_17 
REMARK    2  A    between atoms: C15_20  and  N3_21 
REMARK       I    between atoms: N3_21  and  C16_23 
REMARK       I    between atoms: C16_23  and  N4_25 
ROOT
HETATM    1  N3  UNL     1       3.738  -1.147  -0.412  1.00  0.00    -0.337 N 
ATOM      2  H3  UNL     1       3.111  -0.343  -0.443  1.00  0.00     0.164 HD
HETATM    3  C16 UNL     1       5.134  -0.956  -0.299  1.00  0.00     0.320 C 
HETATM    4  O3  UNL     1       5.931  -1.934  -0.258  1.00  0.00    -0.247 OA
HETATM    5  N4  UNL     1       5.658   0.358  -0.230  1.00  0.00    -0.311 N 
HETATM    6  C17 UNL     1       4.850   1.559  -0.268  1.00  0.00     0.208 C 
HETATM    7  C18 UNL     1       5.776   2.690   0.158  1.00  0.00     0.262 C 
HETATM    8  F1  UNL     1       5.550   2.870   1.529  1.00  0.00    -0.204 F 
HETATM    9  F2  UNL     1       5.512   3.828  -0.546  1.00  0.00    -0.204 F 
HETATM   10  C19 UNL     1       7.172   2.165  -0.043  1.00  0.00     0.121 C 
HETATM   11  C20 UNL     1       7.057   0.682  -0.114  1.00  0.00     0.202 C 
HETATM   12  C21 UNL     1       7.547   0.083   1.127  1.00  0.00     0.085 C 
HETATM   13  N5  UNL     1       7.916  -0.400   2.104  1.00  0.00    -0.195 NA
ENDROOT
BRANCH   1  14
HETATM   14  C15 UNL     1       3.195  -2.508  -0.484  1.00  0.00     0.105 C 
HETATM   15  C14 UNL     1       2.321  -2.688  -1.681  1.00  0.00     0.047 C 
HETATM   16  C13 UNL     1       0.888  -2.638  -1.201  1.00  0.00     0.129 C 
HETATM   17  N2  UNL     1       1.012  -2.120   0.145  1.00  0.00    -0.332 N 
HETATM   18  C12 UNL     1       0.141  -1.249   0.846  1.00  0.00     0.325 C 
HETATM   19  C22 UNL     1       2.241  -2.676   0.676  1.00  0.00     0.152 C 
HETATM   20  N1  UNL     1      -1.032  -0.786   0.193  1.00  0.00    -0.279 N 
HETATM   21  O2  UNL     1       0.419  -0.898   2.038  1.00  0.00    -0.247 OA
HETATM   22  C11 UNL     1      -1.927   0.086   0.873  1.00  0.00     0.230 C 
ATOM     23  H1  UNL     1      -1.233  -1.079  -0.763  1.00  0.00     0.173 HD
HETATM   24  O1  UNL     1      -1.649   0.426   2.033  1.00  0.00    -0.273 OA
BRANCH  22  25
HETATM   25  C10 UNL     1      -3.132   0.542   0.177  1.00  0.00     0.090 C 
HETATM   26  C2  UNL     1      -4.009   1.512   0.847  1.00  0.00    -0.035 C 
HETATM   27  C1  UNL     1      -3.723   2.877   0.169  1.00  0.00     0.015 C 
HETATM   28  C3  UNL     1      -3.780   1.789   2.302  1.00  0.00     0.015 C 
HETATM   29  C4  UNL     1      -5.485   1.299   0.624  1.00  0.00     0.014 C 
HETATM   30  C5  UNL     1      -5.930  -0.112   0.645  1.00  0.00    -0.013 C 
HETATM   31  C6  UNL     1      -6.253  -0.502  -0.809  1.00  0.00     0.005 C 
HETATM   32  C9  UNL     1      -4.787  -1.105   0.870  1.00  0.00     0.010 C 
HETATM   33  C7  UNL     1      -4.848  -0.381  -1.412  1.00  0.00     0.006 C 
HETATM   34  C8  UNL     1      -3.885  -0.724  -0.269  1.00  0.00    -0.000 C 
ENDBRANCH  22  25
ENDBRANCH   1  14
TORSDOF 2
