REMARK  2 active torsions:
REMARK  status: ('A' for Active; 'I' for Inactive)
REMARK    1  A    between atoms: C9_12  and  C10_13 
REMARK    2  A    between atoms: C11_15  and  C12_16 
ROOT
HETATM    1  C1  UNL     1      -0.356   2.328   0.096  1.00  0.00     0.017 C 
HETATM    2  C2  UNL     1      -0.784   1.090   0.012  1.00  0.00    -0.060 C 
HETATM    3  C3  UNL     1      -1.753   0.760  -1.097  1.00  0.00     0.047 C 
HETATM    4  C4  UNL     1      -3.118   0.450  -0.509  1.00  0.00    -0.013 C 
HETATM    5  C5  UNL     1      -3.912  -0.243  -1.595  1.00  0.00     0.018 C 
HETATM    6  C6  UNL     1      -3.862   1.666  -0.074  1.00  0.00     0.018 C 
HETATM    7  C7  UNL     1      -2.921  -0.481   0.684  1.00  0.00     0.168 C 
HETATM    8 BR1  UNL     1      -3.435   0.383   2.320  1.00  0.00    -0.068 Br
HETATM    9  N1  UNL     1      -1.558  -0.979   0.721  1.00  0.00    -0.323 N 
HETATM   10  C8  UNL     1      -1.017  -2.287   0.598  1.00  0.00     0.227 C 
HETATM   11  O1  UNL     1      -1.514  -3.384   0.927  1.00  0.00    -0.273 OA
HETATM   12  C9  UNL     1       0.304  -2.092  -0.021  1.00  0.00     0.098 C 
HETATM   13  C11 UNL     1       0.764  -0.806   0.619  1.00  0.00     0.090 C 
HETATM   14  C16 UNL     1      -0.432  -0.035   0.901  1.00  0.00     0.064 C 
HETATM   15  C17 UNL     1      -0.414   0.390   2.364  1.00  0.00     0.044 C 
ENDROOT
BRANCH  13  16
HETATM   16  C12 UNL     1       1.870  -0.257  -0.186  1.00  0.00     0.390 C 
HETATM   17  N2  UNL     1       1.598   0.094  -1.538  1.00  0.00    -0.044 N 
HETATM   18  C13 UNL     1       2.923   0.560  -1.979  1.00  0.00     0.267 C 
ATOM     19  H22 UNL     1       1.181  -0.643  -2.107  1.00  0.00     0.279 HD
ATOM     20  H21 UNL     1       0.833   0.755  -1.674  1.00  0.00     0.279 HD
HETATM   21  C14 UNL     1       3.421   1.305  -0.772  1.00  0.00     0.210 C 
HETATM   22  C15 UNL     1       4.896   1.077  -0.522  1.00  0.00     0.042 C 
HETATM   23  N3  UNL     1       2.611   0.832   0.332  1.00  0.00    -0.040 N 
ATOM     24  H32 UNL     1       2.033   1.557   0.758  1.00  0.00     0.280 HD
ATOM     25  H31 UNL     1       3.149   0.602   1.168  1.00  0.00     0.280 HD
ENDBRANCH  13  16
BRANCH  12  26
HETATM   26  C10 UNL     1       1.212  -3.253   0.311  1.00  0.00     0.100 C 
HETATM   27 BR2  UNL     1       1.450  -3.412   2.206  1.00  0.00    -0.096 Br
ENDBRANCH  12  26
TORSDOF 2
