REMARK  4 active torsions:
REMARK  status: ('A' for Active; 'I' for Inactive)
REMARK    1  A    between atoms: C4_6  and  N2_7 
REMARK    2  A    between atoms: N2_7  and  C5_9 
REMARK    3  A    between atoms: C13_19  and  N4_20 
REMARK    4  A    between atoms: N4_20  and  C14_22 
ROOT
HETATM    1  C1  UNL     1      -2.585   3.967  -0.137  1.00  0.00     0.054 C 
HETATM    2  C2  UNL     1      -1.788   2.715  -0.205  1.00  0.00    -0.002 A 
HETATM    3  C3  UNL     1      -0.411   2.784  -0.158  1.00  0.00     0.116 A 
HETATM    4  N1  UNL     1       0.312   1.669  -0.218  1.00  0.00    -0.201 N 
ATOM      5  H1  UNL     1       1.330   1.725  -0.183  1.00  0.00     0.183 HD
HETATM    6  C4  UNL     1      -0.276   0.485  -0.323  1.00  0.00     0.679 A 
HETATM    7  N3  UNL     1      -1.640   0.425  -0.369  1.00  0.00    -0.176 N 
ATOM      8  H3  UNL     1      -2.081  -0.491  -0.450  1.00  0.00     0.186 HD
HETATM    9  C13 UNL     1      -2.426   1.501  -0.314  1.00  0.00     0.126 A 
ENDROOT
BRANCH   6  10
HETATM   10  N2  UNL     1       0.341  -0.587  -0.383  1.00  0.00    -0.221 N 
ATOM     11  H2  UNL     1      -0.319  -1.360  -0.461  1.00  0.00     0.178 HD
BRANCH  10  12
HETATM   12  C5  UNL     1       1.634  -1.076  -0.379  1.00  0.00     0.099 C 
HETATM   13  C6  UNL     1       2.346  -0.725   0.928  1.00  0.00     0.026 C 
HETATM   14  C7  UNL     1       3.507  -1.734   0.986  1.00  0.00     0.011 C 
HETATM   15  C8  UNL     1       4.470  -1.295  -0.086  1.00  0.00    -0.048 C 
HETATM   16  C9  UNL     1       5.572  -2.342  -0.148  1.00  0.00     0.015 C 
HETATM   17  C10 UNL     1       5.125  -0.011   0.406  1.00  0.00     0.015 C 
HETATM   18  C11 UNL     1       3.902  -1.135  -1.441  1.00  0.00     0.011 C 
HETATM   19  C12 UNL     1       2.489  -0.681  -1.550  1.00  0.00     0.026 C 
ENDBRANCH  10  12
ENDBRANCH   6  10
BRANCH   9  20
HETATM   20  N4  UNL     1      -3.675   1.430  -0.357  1.00  0.00    -0.349 N 
ATOM     21  H4  UNL     1      -4.166   2.323  -0.306  1.00  0.00     0.163 HD
BRANCH  20  22
HETATM   22  C14 UNL     1      -4.507   0.282  -0.467  1.00  0.00     0.224 C 
HETATM   23  C15 UNL     1      -4.682  -0.482   0.809  1.00  0.00     0.088 C 
HETATM   24  C16 UNL     1      -6.033  -1.136   0.583  1.00  0.00     0.101 C 
HETATM   25 BR1  UNL     1      -5.819  -2.719  -0.465  1.00  0.00    -0.070 Br
HETATM   26 BR2  UNL     1      -6.959  -1.465   2.239  1.00  0.00    -0.070 Br
HETATM   27  C17 UNL     1      -6.719  -0.026  -0.220  1.00  0.00     0.203 C 
HETATM   28  O1  UNL     1      -5.752   0.534  -1.008  1.00  0.00    -0.364 OA
ENDBRANCH  20  22
ENDBRANCH   9  20
TORSDOF 4
