REMARK  4 active torsions:
REMARK  status: ('A' for Active; 'I' for Inactive)
REMARK    1  A    between atoms: C7_7  and  O1_8 
REMARK    2  A    between atoms: C9_12  and  O2_13 
REMARK    3  A    between atoms: O2_13  and  C10_14 
REMARK    4  A    between atoms: C10_14  and  N1_15 
ROOT
HETATM    1  C1  UNL     1      -3.959   2.492   0.146  1.00  0.00     0.020 C 
HETATM    2  C2  UNL     1      -3.178   1.454   0.150  1.00  0.00    -0.047 C 
HETATM    3  C3  UNL     1      -2.049   1.279  -0.779  1.00  0.00    -0.056 C 
HETATM    4  C4  UNL     1      -1.504   2.328  -1.350  1.00  0.00     0.020 C 
HETATM    5  C5  UNL     1      -1.622  -0.131  -0.972  1.00  0.00     0.029 C 
HETATM    6  C6  UNL     1      -0.652  -0.281  -2.078  1.00  0.00     0.043 C 
HETATM    7  C7  UNL     1       0.797  -0.173  -1.690  1.00  0.00     0.141 C 
HETATM    8  C8  UNL     1       1.157  -1.037  -0.529  1.00  0.00     0.081 C 
HETATM    9 BR1  UNL     1       1.028  -2.918  -0.960  1.00  0.00    -0.079 Br
HETATM   10  C9  UNL     1       2.559  -0.684  -0.081  1.00  0.00     0.215 C 
HETATM   11  C11 UNL     1       2.883  -1.346   1.226  1.00  0.00     0.157 C 
HETATM   12  O3  UNL     1       3.909  -1.953   1.361  1.00  0.00    -0.295 OA
HETATM   13  C12 UNL     1       1.905  -1.225   2.327  1.00  0.00     0.081 C 
HETATM   14  C13 UNL     1       0.570  -1.705   1.736  1.00  0.00     0.014 C 
HETATM   15  C14 UNL     1       0.238  -0.739   0.618  1.00  0.00     0.019 C 
HETATM   16  C15 UNL     1      -1.224  -0.804   0.311  1.00  0.00    -0.030 C 
HETATM   17  C16 UNL     1      -1.738  -2.242   0.302  1.00  0.00     0.016 C 
HETATM   18  C17 UNL     1      -1.941  -0.117   1.455  1.00  0.00     0.030 C 
HETATM   19  C18 UNL     1      -3.343   0.307   1.111  1.00  0.00     0.091 C 
HETATM   20 BR2  UNL     1      -4.188   0.915   2.744  1.00  0.00    -0.086 Br
ENDROOT
BRANCH  10  21
HETATM   21  O2  UNL     1       2.618   0.682   0.178  1.00  0.00    -0.350 OA
BRANCH  21  22
HETATM   22  C10 UNL     1       3.630   1.277  -0.542  1.00  0.00     0.397 C 
BRANCH  22  23
HETATM   23  N1  UNL     1       3.723   2.701  -0.308  1.00  0.00    -0.058 N 
ATOM     24  H13 UNL     1       2.830   3.159  -0.487  1.00  0.00     0.276 HD
ATOM     25  H12 UNL     1       3.816   2.902   0.688  1.00  0.00     0.276 HD
ATOM     26  H11 UNL     1       4.473   3.142  -0.841  1.00  0.00     0.276 HD
ENDBRANCH  22  23
ENDBRANCH  21  22
ENDBRANCH  10  21
BRANCH   7  27
HETATM   27  O1  UNL     1       1.513  -0.679  -2.802  1.00  0.00    -0.394 OA
ATOM     28  H1  UNL     1       2.428  -0.611  -2.557  1.00  0.00     0.210 HD
ENDBRANCH   7  27
TORSDOF 4
