REMARK  0 active torsions:
REMARK  status: ('A' for Active; 'I' for Inactive)
ROOT
HETATM    1  N1  UNL     1      -2.351  -0.795   0.989  1.00  0.00    -0.403 N 
ATOM      2  H11 UNL     1      -2.505  -1.773   1.235  1.00  0.00     0.155 HD
ATOM      3  H12 UNL     1      -3.158  -0.275   1.334  1.00  0.00     0.155 HD
HETATM    4  C1  UNL     1      -1.357  -0.330   0.379  1.00  0.00     0.025 C 
HETATM    5  C2  UNL     1      -1.135   1.080   0.025  1.00  0.00     0.080 C 
HETATM    6  C3  UNL     1       0.356   1.236   0.306  1.00  0.00     0.122 C 
HETATM    7 CL1  UNL     1       1.000   2.614  -0.579  1.00  0.00    -0.120 Cl
HETATM    8  C4  UNL     1       0.892  -0.062  -0.158  1.00  0.00     0.016 C 
HETATM    9  C5  UNL     1       2.127  -0.286  -0.544  1.00  0.00     0.110 C 
HETATM   10 CL2  UNL     1       3.308   0.999  -0.544  1.00  0.00    -0.070 Cl
HETATM   11 CL3  UNL     1       2.669  -1.883  -1.084  1.00  0.00    -0.070 Cl
HETATM   12  C6  UNL     1      -0.189  -1.082  -0.120  1.00  0.00     0.178 C 
HETATM   13 CL4  UNL     1      -0.506  -1.599  -1.800  1.00  0.00    -0.090 Cl
HETATM   14 CL5  UNL     1       0.230  -2.459   0.910  1.00  0.00    -0.090 Cl
ENDROOT
TORSDOF 0
