REMARK  0 active torsions:
REMARK  status: ('A' for Active; 'I' for Inactive)
ROOT
HETATM    1  C1  UNL     1      -1.460   1.380  -1.135  1.00  0.00     0.178 C 
HETATM    2  N1  UNL     1      -0.382   0.700  -0.450  1.00  0.00    -0.293 N 
HETATM    3  N2  UNL     1       0.910   1.215  -0.255  1.00  0.00    -0.284 N 
ATOM      4  H2  UNL     1       1.237   2.129  -0.570  1.00  0.00     0.188 HD
HETATM    5  C2  UNL     1       1.690   0.258   0.452  1.00  0.00     0.136 C 
HETATM    6  N3  UNL     1       2.851   0.426   0.973  1.00  0.00    -0.385 N 
ATOM      7  H31 UNL     1       3.410  -0.260   1.480  1.00  0.00     0.157 HD
ATOM      8  H32 UNL     1       3.366   1.306   0.934  1.00  0.00     0.157 HD
HETATM    9  C3  UNL     1       0.942  -1.020   0.509  1.00  0.00     0.217 C 
HETATM   10 CL1  UNL     1       1.543  -2.219  -0.643  1.00  0.00    -0.086 Cl
HETATM   11 CL2  UNL     1       0.874  -1.659   2.171  1.00  0.00    -0.086 Cl
HETATM   12  C4  UNL     1      -0.453  -0.590   0.126  1.00  0.00     0.107 C 
HETATM   13  C5  UNL     1      -1.493  -1.372   0.345  1.00  0.00     0.131 C 
HETATM   14 CL3  UNL     1      -3.075  -0.790  -0.125  1.00  0.00    -0.069 Cl
HETATM   15 CL4  UNL     1      -1.288  -2.942   1.079  1.00  0.00    -0.069 Cl
ENDROOT
TORSDOF 0
