REMARK  2 active torsions:
REMARK  status: ('A' for Active; 'I' for Inactive)
REMARK    1  A    between atoms: C2_2  and  O1_3 
REMARK    2  A    between atoms: C7_13  and  O2_14 
ROOT
HETATM    1  C1  UNL     1      -2.169   0.542   0.706  1.00  0.00     0.049 C 
HETATM    2  C2  UNL     1      -0.957  -0.288   0.311  1.00  0.00     0.084 C 
HETATM    3  C3  UNL     1       0.091  -0.073   1.360  1.00  0.00     0.063 C 
HETATM    4  C4  UNL     1       1.244   0.734   0.804  1.00  0.00     0.127 C 
HETATM    5 CL1  UNL     1       2.381   1.034   2.121  1.00  0.00    -0.122 Cl
HETATM    6  C5  UNL     1       1.878  -0.155  -0.270  1.00  0.00     0.163 C 
HETATM    7 CL2  UNL     1       3.238   0.735  -0.960  1.00  0.00    -0.097 Cl
HETATM    8 CL3  UNL     1       2.526  -1.567   0.640  1.00  0.00    -0.097 Cl
HETATM    9  C6  UNL     1       0.877  -0.597  -1.275  1.00  0.00     0.241 C 
HETATM   10  F1  UNL     1       1.359  -0.366  -2.558  1.00  0.00    -0.243 F 
HETATM   11  C7  UNL     1      -0.498  -0.029  -1.082  1.00  0.00     0.189 C 
ENDROOT
BRANCH   2  12
HETATM   12  O1  UNL     1      -1.389  -1.633   0.362  1.00  0.00    -0.387 OA
ATOM     13  H1  UNL     1      -0.632  -2.151   0.115  1.00  0.00     0.210 HD
ENDBRANCH   2  12
BRANCH  11  14
HETATM   14  O2  UNL     1      -0.615   1.292  -1.485  1.00  0.00    -0.390 OA
ATOM     15  H2  UNL     1      -0.322   1.457  -2.374  1.00  0.00     0.210 HD
ENDBRANCH  11  14
TORSDOF 2
