REMARK  4 active torsions:
REMARK  status: ('A' for Active; 'I' for Inactive)
REMARK    1  A    between atoms: C3_3  and  O1_4 
REMARK    2  A    between atoms: O1_4  and  C4_5 
REMARK    3  A    between atoms: C12_18  and  C13_19 
REMARK    4  A    between atoms: C13_19  and  C14_20 
ROOT
HETATM    1  C1  UNL     1      -2.194  -2.760  -1.129  1.00  0.00     0.071 C 
HETATM    2  C2  UNL     1      -1.240  -1.638  -0.939  1.00  0.00     0.043 C 
HETATM    3  C3  UNL     1      -1.679  -0.349  -1.153  1.00  0.00     0.119 C 
HETATM    4  C10 UNL     1      -0.874   0.627  -1.782  1.00  0.00     0.097 C 
HETATM    5 BR1  UNL     1      -1.792   1.886  -2.859  1.00  0.00    -0.044 Br
HETATM    6  C11 UNL     1       0.492   0.782  -1.729  1.00  0.00     0.200 C 
HETATM    7  O2  UNL     1       0.961   1.906  -1.983  1.00  0.00    -0.286 OA
HETATM    8  C12 UNL     1       1.478  -0.170  -1.422  1.00  0.00     0.021 C 
HETATM    9  C19 UNL     1       1.209  -1.379  -0.831  1.00  0.00     0.018 C 
HETATM   10  C20 UNL     1       2.343  -2.162  -0.376  1.00  0.00     0.069 C 
HETATM   11  N3  UNL     1       0.018  -2.017  -0.572  1.00  0.00    -0.356 N 
HETATM   12  C21 UNL     1       0.064  -3.240   0.166  1.00  0.00     0.156 C 
ENDROOT
BRANCH   3  13
HETATM   13  O1  UNL     1      -2.911   0.011  -0.760  1.00  0.00    -0.304 OA
BRANCH  13  14
HETATM   14  C4  UNL     1      -3.474   0.306   0.426  1.00  0.00     0.122 A 
HETATM   15  C5  UNL     1      -2.944   1.274   1.263  1.00  0.00     0.083 A 
HETATM   16  N1  UNL     1      -1.778   2.027   0.979  1.00  0.00    -0.099 NA
HETATM   17  C6  UNL     1      -3.538   1.578   2.492  1.00  0.00     0.053 A 
HETATM   18  C7  UNL     1      -4.662   0.933   2.914  1.00  0.00     0.037 A 
HETATM   19 CL1  UNL     1      -5.423   1.300   4.455  1.00  0.00    -0.084 Cl
HETATM   20  C8  UNL     1      -5.199  -0.024   2.100  1.00  0.00     0.050 A 
HETATM   21  C9  UNL     1      -4.602  -0.317   0.883  1.00  0.00     0.071 A 
HETATM   22 CL2  UNL     1      -5.482  -1.513  -0.082  1.00  0.00    -0.081 Cl
ENDBRANCH  13  14
ENDBRANCH   3  13
BRANCH   8  23
HETATM   23  C13 UNL     1       2.869   0.125  -1.739  1.00  0.00     0.101 C 
BRANCH  23  24
HETATM   24  C14 UNL     1       3.549   1.049  -0.771  1.00  0.00     0.016 A 
HETATM   25  C15 UNL     1       3.866   2.343  -1.108  1.00  0.00     0.070 A 
HETATM   26  C16 UNL     1       4.477   3.226  -0.237  1.00  0.00     0.158 A 
HETATM   27  F1  UNL     1       4.774   4.509  -0.614  1.00  0.00    -0.203 F 
HETATM   28  C17 UNL     1       4.762   2.743   1.012  1.00  0.00     0.170 A 
HETATM   29  F2  UNL     1       5.359   3.554   1.914  1.00  0.00    -0.201 F 
HETATM   30  C18 UNL     1       4.450   1.450   1.358  1.00  0.00     0.133 A 
HETATM   31  N2  UNL     1       3.863   0.657   0.469  1.00  0.00    -0.366 N 
ATOM     32  H2  UNL     1       3.640  -0.299   0.746  1.00  0.00     0.165 HD
ENDBRANCH  23  24
ENDBRANCH   8  23
TORSDOF 4
