REMARK  6 active torsions:
REMARK  status: ('A' for Active; 'I' for Inactive)
REMARK    1  A    between atoms: C4_4  and  C5_5 
REMARK    2  A    between atoms: C5_5  and  C6_6 
REMARK    3  A    between atoms: C6_6  and  C7_8 
REMARK    4  A    between atoms: C13_18  and  C14_19 
REMARK    5  A    between atoms: C18_24  and  O2_25 
REMARK    6  A    between atoms: C18_24  and  C19_27 
ROOT
HETATM    1  C5  UNL     1       0.162   0.201  -0.513  1.00  0.00     0.089 C 
ENDROOT
BRANCH   1   2
HETATM    2  C4  UNL     1      -1.075  -0.624  -0.645  1.00  0.00     0.002 C 
HETATM    3  C2  UNL     1      -1.987  -0.847   0.473  1.00  0.00    -0.027 C 
HETATM    4  C1  UNL     1      -1.521  -1.123   1.834  1.00  0.00     0.016 C 
HETATM    5  C3  UNL     1      -2.855  -2.090   0.107  1.00  0.00     0.016 C 
HETATM    6  C20 UNL     1      -2.928   0.355   0.567  1.00  0.00     0.109 C 
HETATM    7  C18 UNL     1      -3.744   0.559  -0.658  1.00  0.00     0.169 C 
HETATM    8 BR2  UNL     1      -4.042   0.297   2.147  1.00  0.00    -0.087 Br
HETATM    9  C17 UNL     1      -3.168   0.076  -1.935  1.00  0.00     0.049 C 
HETATM   10  C16 UNL     1      -1.759  -0.298  -1.950  1.00  0.00     0.009 C 
BRANCH   7  11
HETATM   11  O2  UNL     1      -5.034  -0.018  -0.548  1.00  0.00    -0.380 OA
ATOM     12  H2  UNL     1      -5.403   0.292   0.271  1.00  0.00     0.211 HD
ENDBRANCH   7  11
BRANCH   7  13
HETATM   13  C19 UNL     1      -4.050   2.069  -0.714  1.00  0.00     0.419 C 
HETATM   14  F1  UNL     1      -4.583   2.411   0.516  1.00  0.00    -0.168 F 
HETATM   15  F2  UNL     1      -5.034   2.321  -1.665  1.00  0.00    -0.168 F 
HETATM   16  F3  UNL     1      -2.907   2.792  -0.926  1.00  0.00    -0.168 F 
ENDBRANCH   7  13
ENDBRANCH   1   2
BRANCH   1  17
HETATM   17  C6  UNL     1       1.254  -0.223   0.348  1.00  0.00     0.162 C 
HETATM   18  O1  UNL     1       1.266  -1.338   0.857  1.00  0.00    -0.292 OA
BRANCH  17  19
HETATM   19  C7  UNL     1       2.355   0.671   0.636  1.00  0.00     0.038 A 
HETATM   20  C8  UNL     1       1.965   1.792   1.432  1.00  0.00     0.103 A 
HETATM   21  N1  UNL     1       2.907   2.564   1.966  1.00  0.00    -0.372 N 
HETATM   22  C9  UNL     1       4.210   2.323   1.779  1.00  0.00     0.117 A 
ATOM     23  H1  UNL     1       2.628   3.363   2.535  1.00  0.00     0.164 HD
HETATM   24  C10 UNL     1       4.640   1.275   1.028  1.00  0.00     0.059 A 
HETATM   25  N2  UNL     1       5.930   1.054   0.861  1.00  0.00    -0.364 N 
HETATM   26  C15 UNL     1       3.672   0.420   0.430  1.00  0.00     0.014 A 
HETATM   27  C11 UNL     1       6.407   0.048   0.139  1.00  0.00     0.089 A 
ATOM     28  H2  UNL     1       6.593   1.687   1.309  1.00  0.00     0.165 HD
HETATM   29  C12 UNL     1       5.502  -0.774  -0.450  1.00  0.00     0.026 A 
HETATM   30  C13 UNL     1       4.095  -0.632  -0.343  1.00  0.00    -0.033 A 
BRANCH  30  31
HETATM   31  C14 UNL     1       3.230  -1.396  -1.203  1.00  0.00     0.124 C 
HETATM   32 BR1  UNL     1       3.075  -0.570  -3.002  1.00  0.00    -0.091 Br
ENDBRANCH  30  31
ENDBRANCH  17  19
ENDBRANCH   1  17
TORSDOF 6
