REMARK  7 active torsions:
REMARK  status: ('A' for Active; 'I' for Inactive)
REMARK    1  A    between atoms: O1_2  and  C2_3 
REMARK    2  A    between atoms: C2_3  and  C3_5 
REMARK    3  A    between atoms: C6_8  and  N1_9 
REMARK    4  A    between atoms: C9_12  and  N2_13 
REMARK       I    between atoms: N2_13  and  C10_14 
REMARK    5  A    between atoms: N2_13  and  C15_22 
REMARK       I    between atoms: C10_14  and  N3_16 
REMARK    6  A    between atoms: N3_16  and  C11_18 
REMARK    7  A    between atoms: C18_25  and  C20_27 
ROOT
HETATM    1  N2  UNL     1      -1.835  -0.412   0.413  1.00  0.00    -0.317 N 
HETATM    2  C10 UNL     1      -2.736  -1.434   0.027  1.00  0.00     0.319 C 
HETATM    3  O3  UNL     1      -3.895  -1.130  -0.338  1.00  0.00    -0.247 OA
HETATM    4  N3  UNL     1      -2.443  -2.797   0.017  1.00  0.00    -0.335 N 
ATOM      5  H3  UNL     1      -1.513  -3.096   0.309  1.00  0.00     0.165 HD
ENDROOT
BRANCH   1   6
HETATM    6  C9  UNL     1      -0.528  -0.776   0.792  1.00  0.00     0.119 C 
HETATM    7  C8  UNL     1      -0.238  -0.795   2.294  1.00  0.00     0.057 C 
HETATM    8  C7  UNL     1       1.278  -0.727   2.289  1.00  0.00     0.275 C 
HETATM    9  N1  UNL     1       1.676  -1.031   0.927  1.00  0.00     0.095 N 
HETATM   10  C23 UNL     1       0.680  -0.179   0.193  1.00  0.00     0.298 C 
BRANCH   9  11
HETATM   11  C6  UNL     1       3.004  -0.634   0.607  1.00  0.00     0.223 C 
HETATM   12  C5  UNL     1       3.315  -1.101  -0.797  1.00  0.00     0.036 C 
HETATM   13  C4  UNL     1       4.834  -0.950  -0.964  1.00  0.00     0.017 C 
HETATM   14  C3  UNL     1       5.244   0.489  -0.809  1.00  0.00     0.085 C 
HETATM   15  C25 UNL     1       4.805   1.000   0.565  1.00  0.00     0.017 C 
HETATM   16  C24 UNL     1       3.284   0.826   0.676  1.00  0.00     0.036 C 
BRANCH  14  17
HETATM   17  C2  UNL     1       6.717   0.560  -0.897  1.00  0.00     0.262 C 
HETATM   18  O2  UNL     1       7.244   1.244  -1.795  1.00  0.00    -0.265 OA
BRANCH  17  19
HETATM   19  O1  UNL     1       7.464  -0.143   0.030  1.00  0.00    -0.326 OA
HETATM   20  C1  UNL     1       8.880  -0.058  -0.077  1.00  0.00     0.213 C 
ENDBRANCH  17  19
ENDBRANCH  14  17
ENDBRANCH   9  11
ENDBRANCH   1   6
BRANCH   1  21
HETATM   21  C15 UNL     1      -2.422   0.895   0.362  1.00  0.00     0.161 C 
HETATM   22  C16 UNL     1      -2.312   1.903   1.370  1.00  0.00     0.032 C 
HETATM   23  C17 UNL     1      -2.365   3.347   0.922  1.00  0.00     0.020 C 
HETATM   24  C18 UNL     1      -3.210   3.675  -0.239  1.00  0.00     0.059 C 
HETATM   25  C19 UNL     1      -2.699   4.947  -0.955  1.00  0.00     0.025 C 
HETATM   26  C21 UNL     1      -3.214   2.585  -1.246  1.00  0.00     0.099 C 
HETATM   27  C22 UNL     1      -2.056   1.587  -0.987  1.00  0.00     0.265 C 
HETATM   28  F4  UNL     1      -2.108   0.710  -2.035  1.00  0.00    -0.204 F 
HETATM   29  F5  UNL     1      -0.873   2.222  -0.970  1.00  0.00    -0.204 F 
BRANCH  24  30
HETATM   30  C20 UNL     1      -4.663   3.987   0.142  1.00  0.00     0.395 C 
HETATM   31  F1  UNL     1      -4.701   5.080   1.004  1.00  0.00    -0.170 F 
HETATM   32  F2  UNL     1      -5.279   2.936   0.778  1.00  0.00    -0.170 F 
HETATM   33  F3  UNL     1      -5.391   4.317  -0.969  1.00  0.00    -0.170 F 
ENDBRANCH  24  30
ENDBRANCH   1  21
BRANCH   4  34
HETATM   34  C11 UNL     1      -3.405  -3.817  -0.392  1.00  0.00     0.023 C 
HETATM   35  C12 UNL     1      -3.794  -3.523  -1.828  1.00  0.00     0.037 C 
HETATM   36  C13 UNL     1      -2.751  -5.166  -0.247  1.00  0.00     0.037 C 
HETATM   37  C14 UNL     1      -4.644  -3.803   0.441  1.00  0.00     0.037 C 
ENDBRANCH   4  34
TORSDOF 7
