REMARK  5 active torsions:
REMARK  status: ('A' for Active; 'I' for Inactive)
REMARK    1  A    between atoms: C5_5  and  N1_6 
REMARK    2  A    between atoms: N2_12  and  C11_13 
REMARK    3  A    between atoms: C14_16  and  N3_17 
REMARK       I    between atoms: N3_17  and  C15_19 
REMARK    4  A    between atoms: C15_19  and  C16_21 
REMARK    5  A    between atoms: C19_24  and  C20_25 
ROOT
HETATM    1  C11 UNL     1       1.683  -0.951   0.229  1.00  0.00     0.086 C 
HETATM    2  C12 UNL     1       2.635  -1.707   1.089  1.00  0.00     0.027 C 
HETATM    3  C13 UNL     1       4.091  -1.425   0.659  1.00  0.00     0.030 C 
HETATM    4  C14 UNL     1       4.223   0.074   0.520  1.00  0.00     0.118 C 
HETATM    5  C21 UNL     1       3.440   0.474  -0.702  1.00  0.00     0.194 C 
HETATM    6  F4  UNL     1       4.340   0.523  -1.761  1.00  0.00    -0.247 F 
HETATM    7  C22 UNL     1       2.259  -0.419  -1.016  1.00  0.00     0.064 C 
ENDROOT
BRANCH   1   8
HETATM    8  N2  UNL     1       0.452  -1.662   0.090  1.00  0.00    -0.386 N 
HETATM    9  C10 UNL     1      -0.469  -1.529   1.172  1.00  0.00     0.123 C 
HETATM   10  C9  UNL     1      -1.694  -0.720   0.723  1.00  0.00     0.034 C 
HETATM   11  C8  UNL     1      -2.401  -1.308  -0.466  1.00  0.00     0.017 C 
HETATM   12  C7  UNL     1      -2.776  -0.289  -1.502  1.00  0.00     0.058 C 
HETATM   13  C24 UNL     1      -1.496  -2.320  -1.106  1.00  0.00     0.218 C 
HETATM   14  C25 UNL     1      -3.751  -1.897  -0.074  1.00  0.00     0.135 C 
HETATM   15  C6  UNL     1      -4.045  -0.890  -2.067  1.00  0.00     0.059 C 
HETATM   16  N1  UNL     1      -4.740  -1.367  -0.968  1.00  0.00    -0.388 N 
HETATM   17  C23 UNL     1      -0.115  -1.677  -1.198  1.00  0.00     0.096 C 
HETATM   18  F5  UNL     1      -1.468  -3.527  -0.462  1.00  0.00    -0.243 F 
BRANCH  16  19
HETATM   19  C5  UNL     1      -5.847  -0.743  -0.417  1.00  0.00     0.083 C 
HETATM   20  C4  UNL     1      -5.638  -0.381   1.049  1.00  0.00     0.026 C 
HETATM   21  C3  UNL     1      -6.731   0.587   1.485  1.00  0.00     0.006 C 
HETATM   22  C2  UNL     1      -6.290   1.938   0.984  1.00  0.00    -0.019 C 
HETATM   23  C1  UNL     1      -7.313   3.015   1.196  1.00  0.00     0.010 C 
HETATM   24  C27 UNL     1      -5.859   1.784  -0.444  1.00  0.00     0.006 C 
HETATM   25  C26 UNL     1      -6.380   0.495  -1.072  1.00  0.00     0.026 C 
ENDBRANCH  16  19
ENDBRANCH   1   8
BRANCH   4  26
HETATM   26  N3  UNL     1       5.599   0.508   0.394  1.00  0.00    -0.348 N 
HETATM   27  C15 UNL     1       6.734  -0.428   0.175  1.00  0.00     0.275 C 
HETATM   28  O1  UNL     1       6.668  -1.499   0.098  1.00  0.00    -0.265 OA
ATOM     29  H3  UNL     1       5.800   1.506   0.459  1.00  0.00     0.163 HD
BRANCH  27  30
HETATM   30  C16 UNL     1       8.011   0.513   0.118  1.00  0.00     0.143 A 
HETATM   31  C17 UNL     1       8.773   0.364  -0.960  1.00  0.00     0.046 A 
HETATM   32  C18 UNL     1       9.772   1.310  -0.825  1.00  0.00     0.045 A 
HETATM   33  C19 UNL     1       9.435   1.887   0.394  1.00  0.00     0.159 A 
HETATM   34  O2  UNL     1       8.357   1.343   0.930  1.00  0.00    -0.300 OA
BRANCH  33  35
HETATM   35  C20 UNL     1      10.284   2.924   1.146  1.00  0.00     0.439 C 
HETATM   36  F1  UNL     1      11.292   3.438   0.449  1.00  0.00    -0.164 F 
HETATM   37  F2  UNL     1      10.263   2.941   2.407  1.00  0.00    -0.164 F 
HETATM   38  F3  UNL     1       9.189   4.065   0.801  1.00  0.00    -0.164 F 
ENDBRANCH  33  35
ENDBRANCH  27  30
ENDBRANCH   4  26
TORSDOF 5
