REMARK  7 active torsions:
REMARK  status: ('A' for Active; 'I' for Inactive)
REMARK    1  A    between atoms: N1_2  and  C2_4 
REMARK    2  A    between atoms: C4_10  and  N4_11 
REMARK    3  A    between atoms: N4_11  and  C5_13 
REMARK    4  A    between atoms: C5_13  and  C6_14 
REMARK    5  A    between atoms: C6_14  and  O1_15 
REMARK    6  A    between atoms: C7_19  and  N6_20 
REMARK    7  A    between atoms: C9_26  and  N8_27 
ROOT
HETATM    1  C2  UNL     1      -2.199  -0.019  -0.653  1.00  0.00     0.147 A 
HETATM    2  N2  UNL     1      -1.481   1.080  -0.958  1.00  0.00    -0.283 N 
ATOM      3  H2  UNL     1      -1.902   1.808  -1.535  1.00  0.00     0.188 HD
HETATM    4  N3  UNL     1      -0.237   1.234  -0.523  1.00  0.00    -0.293 N 
ATOM      5  H3  UNL     1       0.257   2.087  -0.784  1.00  0.00     0.187 HD
HETATM    6  C3  UNL     1       0.402   0.359   0.223  1.00  0.00     0.122 A 
HETATM    7  C4  UNL     1       1.707   0.556   0.665  1.00  0.00     0.147 A 
HETATM    8  N5  UNL     1       2.209  -0.469   1.443  1.00  0.00    -0.175 N 
ATOM      9  H5  UNL     1       3.163  -0.372   1.791  1.00  0.00     0.186 HD
HETATM   10  C7  UNL     1       1.556  -1.552   1.767  1.00  0.00     0.678 A 
HETATM   11  N7  UNL     1       0.311  -1.757   1.353  1.00  0.00    -0.187 N 
ATOM     12  H7  UNL     1      -0.193  -2.607   1.608  1.00  0.00     0.184 HD
HETATM   13  C8  UNL     1      -0.267  -0.814   0.589  1.00  0.00     0.113 A 
HETATM   14  C9  UNL     1      -1.573  -0.964   0.126  1.00  0.00     0.133 A 
ENDROOT
BRANCH  14  15
HETATM   15  N8  UNL     1      -2.231  -2.183   0.524  1.00  0.00    -0.229 N 
HETATM   16  C10 UNL     1      -2.223  -3.357  -0.087  1.00  0.00     0.226 A 
HETATM   17  N9  UNL     1      -2.979  -4.184   0.649  1.00  0.00    -0.279 N 
HETATM   18  N10 UNL     1      -3.427  -3.463   1.707  1.00  0.00    -0.227 N 
ATOM     19  H9  UNL     1      -3.179  -5.165   0.452  1.00  0.00     0.189 HD
HETATM   20  N11 UNL     1      -2.965  -2.234   1.624  1.00  0.00    -0.220 N 
ATOM     21  H10 UNL     1      -4.028  -3.818   2.451  1.00  0.00     0.210 HD
ATOM     22  H11 UNL     1      -3.138  -1.471   2.278  1.00  0.00     0.210 HD
ENDBRANCH  14  15
BRANCH   1  23
HETATM   23  N1  UNL     1      -3.390  -0.240  -1.015  1.00  0.00    -0.378 N 
HETATM   24  C1  UNL     1      -4.253   0.578  -1.803  1.00  0.00     0.148 C 
ATOM     25  H1  UNL     1      -3.789  -1.125  -0.700  1.00  0.00     0.160 HD
ENDBRANCH   1  23
BRANCH   7  26
HETATM   26  N4  UNL     1       2.372   1.550   0.422  1.00  0.00    -0.372 N 
ATOM     27  H4  UNL     1       3.280   1.414   0.867  1.00  0.00     0.161 HD
BRANCH  26  28
HETATM   28  C5  UNL     1       2.411   2.754  -0.188  1.00  0.00     0.147 C 
BRANCH  28  29
HETATM   29  C6  UNL     1       3.639   2.787  -1.125  1.00  0.00     0.183 C 
BRANCH  29  30
HETATM   30  O1  UNL     1       4.751   2.568  -0.290  1.00  0.00    -0.399 OA
ATOM     31  H1  UNL     1       5.506   2.588  -0.866  1.00  0.00     0.209 HD
ENDBRANCH  29  30
ENDBRANCH  28  29
ENDBRANCH  26  28
ENDBRANCH   7  26
BRANCH  10  32
HETATM   32  N6  UNL     1       2.072  -2.497   2.527  1.00  0.00    -0.234 N 
ATOM     33  H62 UNL     1       3.028  -2.340   2.845  1.00  0.00     0.174 HD
ATOM     34  H61 UNL     1       1.562  -3.343   2.780  1.00  0.00     0.174 HD
ENDBRANCH  10  32
TORSDOF 7
