REMARK  7 active torsions:
REMARK  status: ('A' for Active; 'I' for Inactive)
REMARK    1  A    between atoms: C5_6  and  O2_7 
REMARK    2  A    between atoms: C6_9  and  C7_10 
REMARK    3  A    between atoms: C7_10  and  O3_11 
REMARK    4  A    between atoms: C7_10  and  C8_13 
REMARK    5  A    between atoms: C8_13  and  O4_14 
REMARK    6  A    between atoms: C8_13  and  N1_16 
REMARK    7  A    between atoms: N1_16  and  C9_18 
ROOT
HETATM    1  C8  UNL     1       0.257   0.025  -1.210  1.00  0.00     0.280 C 
ENDROOT
BRANCH   1   2
HETATM    2  C7  UNL     1      -0.229  -0.207   0.202  1.00  0.00     0.128 C 
BRANCH   2   3
HETATM    3  C6  UNL     1      -1.638  -0.539   0.333  1.00  0.00     0.146 A 
HETATM    4  C5  UNL     1      -2.055  -1.340   1.436  1.00  0.00     0.153 A 
HETATM    5  C4  UNL     1      -3.401  -1.594   1.474  1.00  0.00     0.210 A 
HETATM    6  C3  UNL     1      -4.241  -1.079   0.488  1.00  0.00     0.090 A 
HETATM    7  O1  UNL     1      -3.869  -2.306   2.411  1.00  0.00    -0.285 OA
HETATM    8  C2  UNL     1      -3.775  -0.311  -0.548  1.00  0.00     0.054 A 
HETATM    9  C1  UNL     1      -4.652   0.264  -1.626  1.00  0.00     0.077 C 
HETATM   10  O7  UNL     1      -2.489  -0.097  -0.548  1.00  0.00    -0.310 OA
BRANCH   4  11
HETATM   11  O2  UNL     1      -1.123  -1.791   2.351  1.00  0.00    -0.355 OA
ATOM     12  H2  UNL     1      -0.190  -1.615   2.325  1.00  0.00     0.218 HD
ENDBRANCH   4  11
ENDBRANCH   2   3
BRANCH   2  13
HETATM   13  O3  UNL     1       0.604  -0.757   1.093  1.00  0.00    -0.358 OA
ATOM     14  H3  UNL     1       1.525  -0.540   1.007  1.00  0.00     0.217 HD
ENDBRANCH   2  13
ENDBRANCH   1   2
BRANCH   1  15
HETATM   15  O4  UNL     1      -0.732   0.312  -2.110  1.00  0.00    -0.370 OA
ATOM     16  H4  UNL     1      -0.426   0.458  -2.998  1.00  0.00     0.212 HD
ENDBRANCH   1  15
BRANCH   1  17
HETATM   17  N1  UNL     1       1.318   0.976  -1.281  1.00  0.00    -0.340 N 
ATOM     18  H1  UNL     1       1.170   1.796  -1.869  1.00  0.00     0.164 HD
BRANCH  17  19
HETATM   19  C9  UNL     1       2.560   0.879  -0.605  1.00  0.00     0.169 A 
HETATM   20  N2  UNL     1       3.422  -0.014  -0.893  1.00  0.00    -0.363 N 
HETATM   21  C10 UNL     1       4.701  -0.223  -0.295  1.00  0.00     0.224 A 
ATOM     22  H2  UNL     1       3.167  -0.658  -1.642  1.00  0.00     0.161 HD
HETATM   23  C11 UNL     1       5.059   0.760   0.740  1.00  0.00     0.242 A 
HETATM   24  O5  UNL     1       6.163   0.721   1.304  1.00  0.00    -0.271 OA
HETATM   25  N3  UNL     1       4.111   1.780   1.102  1.00  0.00    -0.289 N 
HETATM   26  C12 UNL     1       2.866   1.848   0.436  1.00  0.00     0.291 A 
ATOM     27  H3  UNL     1       4.336   2.451   1.836  1.00  0.00     0.172 HD
HETATM   28  O6  UNL     1       2.008   2.735   0.725  1.00  0.00    -0.264 OA
ENDBRANCH  17  19
ENDBRANCH   1  17
TORSDOF 7
