REMARK  5 active torsions:
REMARK  status: ('A' for Active; 'I' for Inactive)
REMARK    1  A    between atoms: O1_2  and  C2_3 
REMARK    2  A    between atoms: C2_3  and  N1_4 
REMARK    3  A    between atoms: C2_3  and  C3_8 
REMARK    4  A    between atoms: C3_8  and  O2_9 
REMARK    5  A    between atoms: C9_20  and  N3_21 
ROOT
HETATM    1  C3  UNL     1      -1.143   0.535   0.955  1.00  0.00     0.147 C 
HETATM    2  C5  UNL     1      -1.814  -0.364   2.031  1.00  0.00     0.129 C 
HETATM    3  C6  UNL     1      -2.088  -1.711   1.472  1.00  0.00     0.115 C 
HETATM    4  N2  UNL     1      -3.208  -2.276   1.752  1.00  0.00    -0.383 N 
ATOM      5  H21 UNL     1      -3.396  -3.202   1.368  1.00  0.00     0.157 HD
ATOM      6  H22 UNL     1      -3.892  -1.807   2.346  1.00  0.00     0.157 HD
HETATM    7  O3  UNL     1      -1.149  -2.354   0.657  1.00  0.00    -0.329 OA
HETATM    8  C7  UNL     1      -0.306  -1.601  -0.147  1.00  0.00     0.186 C 
HETATM    9  C8  UNL     1       1.051  -2.336  -0.128  1.00  0.00     0.208 C 
HETATM   10  O4  UNL     1       2.016  -1.366   0.011  1.00  0.00    -0.341 OA
HETATM   11  C9  UNL     1       1.863  -0.286  -0.822  1.00  0.00     0.372 C 
HETATM   12  O5  UNL     1       0.684   0.428  -0.618  1.00  0.00    -0.333 OA
HETATM   13  C11 UNL     1      -0.037  -0.236   0.382  1.00  0.00     0.197 C 
ENDROOT
BRANCH   1  14
HETATM   14  C2  UNL     1      -2.258   0.956   0.050  1.00  0.00     0.356 C 
BRANCH  14  15
HETATM   15  O1  UNL     1      -2.883  -0.092  -0.619  1.00  0.00    -0.362 OA
HETATM   16  C1  UNL     1      -3.050   0.179  -1.975  1.00  0.00     0.204 C 
ENDBRANCH  14  15
BRANCH  14  17
HETATM   17  N1  UNL     1      -3.308   1.490   0.930  1.00  0.00    -0.050 N 
ATOM     18  H13 UNL     1      -4.167   1.753   0.447  1.00  0.00     0.277 HD
ATOM     19  H12 UNL     1      -3.735   0.796   1.543  1.00  0.00     0.277 HD
ATOM     20  H11 UNL     1      -2.850   2.258   1.420  1.00  0.00     0.277 HD
ENDBRANCH  14  17
ENDBRANCH   1  14
BRANCH   1  21
HETATM   21  O2  UNL     1      -0.684   1.614   1.673  1.00  0.00    -0.377 OA
HETATM   22  C4  UNL     1      -0.222   2.698   1.008  1.00  0.00     0.202 C 
ENDBRANCH   1  21
BRANCH  11  23
HETATM   23  N3  UNL     1       2.980   0.621  -0.569  1.00  0.00    -0.319 N 
HETATM   24  C10 UNL     1       4.202   0.264  -0.696  1.00  0.00     0.200 C 
HETATM   25  N4  UNL     1       5.204   1.230  -0.423  1.00  0.00    -0.067 NA
HETATM   26  N5  UNL     1       4.622  -1.035  -1.092  1.00  0.00    -0.067 NA
ATOM     27  H3  UNL     1       2.777   1.578  -0.279  1.00  0.00     0.166 HD
ENDBRANCH  11  23
TORSDOF 5
