REMARK  10 active torsions:
REMARK  status: ('A' for Active; 'I' for Inactive)
REMARK    1  A    between atoms: N2_7  and  C6_8 
REMARK    2  A    between atoms: C6_8  and  O1_9 
REMARK    3  A    between atoms: C6_8  and  C7_11 
REMARK    4  A    between atoms: C7_11  and  N3_12 
REMARK    5  A    between atoms: C7_11  and  C16_30 
REMARK       I    between atoms: N3_12  and  C8_14 
REMARK    6  A    between atoms: C8_14  and  C9_16 
REMARK    7  A    between atoms: C10_18  and  N4_19 
REMARK    8  A    between atoms: C15_27  and  O4_28 
REMARK    9  A    between atoms: C16_30  and  O5_31 
REMARK   10  A    between atoms: N6_33  and  O6_35 
ROOT
HETATM    1  N1  UNL     1      -7.367  -1.015   1.297  1.00  0.00    -0.195 NA
HETATM    2  C1  UNL     1      -6.516  -0.533   0.682  1.00  0.00     0.084 C 
HETATM    3  C2  UNL     1      -5.397   0.072  -0.107  1.00  0.00     0.189 C 
HETATM    4  C3  UNL     1      -5.880   1.515  -0.410  1.00  0.00     0.041 C 
HETATM    5  C4  UNL     1      -5.776   2.159   0.953  1.00  0.00     0.022 C 
HETATM    6  C5  UNL     1      -4.803   1.297   1.701  1.00  0.00     0.121 C 
HETATM    7  N2  UNL     1      -4.327   0.315   0.754  1.00  0.00    -0.369 N 
ENDROOT
BRANCH   7   8
HETATM    8  C6  UNL     1      -3.008   0.454   0.369  1.00  0.00     0.247 C 
BRANCH   8   9
HETATM    9  O1  UNL     1      -2.240   0.770   1.562  1.00  0.00    -0.374 OA
ATOM     10  H1  UNL     1      -1.333   0.866   1.297  1.00  0.00     0.212 HD
ENDBRANCH   8   9
BRANCH   8  11
HETATM   11  C7  UNL     1      -2.286  -0.724  -0.204  1.00  0.00     0.209 C 
BRANCH  11  12
HETATM   12  N3  UNL     1      -0.867  -0.350  -0.455  1.00  0.00    -0.340 N 
HETATM   13  C8  UNL     1       0.179  -0.980   0.199  1.00  0.00     0.263 C 
HETATM   14  O2  UNL     1      -0.055  -1.907   1.038  1.00  0.00    -0.267 OA
ATOM     15  H3  UNL     1      -0.660   0.390  -1.126  1.00  0.00     0.163 HD
BRANCH  13  16
HETATM   16  C9  UNL     1       1.575  -0.633  -0.023  1.00  0.00     0.126 A 
HETATM   17  S1  UNL     1       2.964  -1.350   0.751  1.00  0.00    -0.044 SA
HETATM   18  C10 UNL     1       4.187  -0.432  -0.008  1.00  0.00     0.149 A 
HETATM   19  N5  UNL     1       3.482   0.361  -0.800  1.00  0.00    -0.316 N 
HETATM   20  C15 UNL     1       2.191   0.282  -0.827  1.00  0.00     0.165 A 
ATOM     21  H5  UNL     1       3.960   1.039  -1.393  1.00  0.00     0.170 HD
BRANCH  18  22
HETATM   22  N4  UNL     1       5.606  -0.490   0.161  1.00  0.00    -0.357 N 
HETATM   23  C11 UNL     1       6.185  -1.425   1.098  1.00  0.00     0.151 C 
HETATM   24  C12 UNL     1       7.514  -0.812   1.561  1.00  0.00     0.187 C 
HETATM   25  O3  UNL     1       7.444   0.557   1.560  1.00  0.00    -0.388 OA
HETATM   26  C13 UNL     1       7.299   1.184   0.364  1.00  0.00     0.187 C 
HETATM   27  C14 UNL     1       6.462   0.366  -0.583  1.00  0.00     0.151 C 
ENDBRANCH  18  22
BRANCH  20  28
HETATM   28  O4  UNL     1       1.431   1.139  -1.683  1.00  0.00    -0.345 OA
ATOM     29  H4  UNL     1       1.860   1.776  -2.243  1.00  0.00     0.219 HD
ENDBRANCH  20  28
ENDBRANCH  13  16
ENDBRANCH  11  12
BRANCH  11  30
HETATM   30  C16 UNL     1      -2.789  -1.186  -1.502  1.00  0.00     0.163 C 
HETATM   31  N6  UNL     1      -3.155  -2.432  -1.653  1.00  0.00    -0.249 N 
ATOM     32  H6  UNL     1      -3.503  -2.743  -2.560  1.00  0.00     0.196 HD
BRANCH  30  33
HETATM   33  O5  UNL     1      -2.897  -0.357  -2.603  1.00  0.00    -0.346 OA
ATOM     34  H5  UNL     1      -3.223  -0.656  -3.444  1.00  0.00     0.219 HD
ENDBRANCH  30  33
BRANCH  31  35
HETATM   35  O6  UNL     1      -3.081  -3.338  -0.610  1.00  0.00    -0.288 OA
ATOM     36  H6  UNL     1      -3.347  -4.243  -0.720  1.00  0.00     0.244 HD
ENDBRANCH  31  35
ENDBRANCH  11  30
ENDBRANCH   8  11
ENDBRANCH   7   8
TORSDOF 10
