REMARK  7 active torsions:
REMARK  status: ('A' for Active; 'I' for Inactive)
REMARK    1  A    between atoms: O1_2  and  C2_3 
REMARK    2  A    between atoms: C3_5  and  C4_6 
REMARK    3  A    between atoms: C5_9  and  O3_10 
REMARK    4  A    between atoms: N4_21  and  O4_22 
REMARK    5  A    between atoms: O4_22  and  C12_23 
REMARK    6  A    between atoms: C14_30  and  N7_31 
REMARK    7  A    between atoms: C15_34  and  O8_35 
ROOT
HETATM    1  C4  UNL     1       0.527   0.743   0.584  1.00  0.00     0.098 A 
HETATM    2  N1  UNL     1      -0.092   1.809   1.113  1.00  0.00    -0.332 N 
ATOM      3  H1  UNL     1       0.344   2.716   1.278  1.00  0.00     0.168 HD
HETATM    4  C5  UNL     1      -1.393   1.502   1.399  1.00  0.00     0.151 A 
HETATM    5  C6  UNL     1      -1.608   0.184   1.033  1.00  0.00     0.047 A 
HETATM    6  C7  UNL     1      -0.416  -0.278   0.531  1.00  0.00     0.072 A 
HETATM    7  N2  UNL     1      -0.360  -1.626   0.077  1.00  0.00    -0.358 N 
ATOM      8  H2  UNL     1       0.518  -2.130  -0.052  1.00  0.00     0.162 HD
HETATM    9  C8  UNL     1      -1.673  -2.232  -0.190  1.00  0.00     0.206 C 
HETATM   10  C9  UNL     1      -1.595  -3.599  -0.624  1.00  0.00     0.101 C 
HETATM   11  N3  UNL     1      -1.510  -4.690  -0.970  1.00  0.00    -0.194 NA
HETATM   12  C10 UNL     1      -2.400  -2.114   1.159  1.00  0.00     0.090 C 
HETATM   13  C11 UNL     1      -2.850  -0.676   1.097  1.00  0.00     0.162 C 
HETATM   14  N4  UNL     1      -3.442  -0.632  -0.232  1.00  0.00    -0.205 N 
HETATM   15  C13 UNL     1      -2.516  -1.367  -1.052  1.00  0.00     0.287 C 
HETATM   16  O5  UNL     1      -2.418  -1.299  -2.320  1.00  0.00    -0.267 OA
ENDROOT
BRANCH  14  17
HETATM   17  O4  UNL     1      -4.582  -0.057  -0.689  1.00  0.00    -0.199 OA
BRANCH  17  18
HETATM   18  C12 UNL     1      -5.776  -0.063   0.028  1.00  0.00     0.249 C 
HETATM   19  N5  UNL     1      -6.100  -1.140   0.614  1.00  0.00    -0.366 N 
ATOM     20  H52 UNL     1      -5.491  -1.955   0.546  1.00  0.00     0.159 HD
ATOM     21  H51 UNL     1      -6.974  -1.144   1.139  1.00  0.00     0.159 HD
HETATM   22  N6  UNL     1      -6.622   1.069   0.123  1.00  0.00    -0.055 NA
ENDBRANCH  17  18
ENDBRANCH  14  17
BRANCH   1  23
HETATM   23  C3  UNL     1       1.894   0.568   0.103  1.00  0.00     0.143 A 
HETATM   24  O2  UNL     1       2.385  -0.540  -0.451  1.00  0.00    -0.281 OA
HETATM   25  C2  UNL     1       3.632  -0.377  -0.777  1.00  0.00     0.223 A 
HETATM   26  C15 UNL     1       4.032   0.892  -0.439  1.00  0.00     0.163 A 
HETATM   27  C14 UNL     1       2.888   1.493   0.133  1.00  0.00     0.177 A 
BRANCH  25  28
HETATM   28  O1  UNL     1       4.468  -1.334  -1.385  1.00  0.00    -0.333 OA
HETATM   29  C1  UNL     1       4.658  -1.386  -2.790  1.00  0.00     0.212 C 
ENDBRANCH  25  28
BRANCH  26  30
HETATM   30  O8  UNL     1       5.251   1.507  -0.592  1.00  0.00    -0.349 OA
HETATM   31  C16 UNL     1       6.249   1.454   0.395  1.00  0.00     0.210 C 
ENDBRANCH  26  30
BRANCH  27  32
HETATM   32  N7  UNL     1       2.887   2.830   0.612  1.00  0.00    -0.110 N 
HETATM   33  O6  UNL     1       3.029   3.049   1.815  1.00  0.00    -0.532 OA
HETATM   34  O7  UNL     1       2.760   3.851  -0.276  1.00  0.00    -0.532 OA
ENDBRANCH  27  32
ENDBRANCH   1  23
BRANCH   4  35
HETATM   35  O3  UNL     1      -2.347   2.342   1.956  1.00  0.00    -0.346 OA
ATOM     36  H3  UNL     1      -3.251   2.129   2.155  1.00  0.00     0.219 HD
ENDBRANCH   4  35
TORSDOF 7
