REMARK  8 active torsions:
REMARK  status: ('A' for Active; 'I' for Inactive)
REMARK    1  A    between atoms: O1_2  and  C2_3 
REMARK    2  A    between atoms: C7_9  and  O3_10 
REMARK    3  A    between atoms: O3_10  and  C8_11 
REMARK       I    between atoms: C8_11  and  N1_13 
REMARK    4  A    between atoms: N1_13  and  C9_15 
REMARK    5  A    between atoms: C9_15  and  C10_16 
REMARK    6  A    between atoms: C9_15  and  C11_23 
REMARK    7  A    between atoms: C10_16  and  O5_17 
REMARK    8  A    between atoms: N2_19  and  O6_21 
ROOT
HETATM    1  C8  UNL     1       0.843   0.274   1.461  1.00  0.00     0.366 C 
HETATM    2  O4  UNL     1       0.382  -0.909   1.593  1.00  0.00    -0.238 OA
HETATM    3  N1  UNL     1       2.228   0.515   1.333  1.00  0.00    -0.317 N 
ATOM      4  H1  UNL     1       2.536   1.482   1.227  1.00  0.00     0.166 HD
ENDROOT
BRANCH   3   5
HETATM    5  C9  UNL     1       3.233  -0.513   1.342  1.00  0.00     0.232 C 
BRANCH   5   6
HETATM    6  C10 UNL     1       4.053  -0.473   2.585  1.00  0.00     0.166 C 
HETATM    7  N2  UNL     1       4.136  -1.453   3.418  1.00  0.00    -0.249 N 
ATOM      8  H2  UNL     1       3.614  -2.307   3.222  1.00  0.00     0.196 HD
BRANCH   6   9
HETATM    9  O5  UNL     1       4.779   0.675   2.888  1.00  0.00    -0.346 OA
ATOM     10  H5  UNL     1       5.302   0.701   3.681  1.00  0.00     0.219 HD
ENDBRANCH   6   9
BRANCH   7  11
HETATM   11  O6  UNL     1       4.894  -1.395   4.552  1.00  0.00    -0.288 OA
ATOM     12  H6  UNL     1       4.955  -2.117   5.166  1.00  0.00     0.244 HD
ENDBRANCH   7  11
ENDBRANCH   5   6
BRANCH   5  13
HETATM   13  C11 UNL     1       4.134  -0.539   0.188  1.00  0.00     0.131 A 
HETATM   14  N3  UNL     1       5.470  -0.655   0.298  1.00  0.00    -0.284 N 
HETATM   15  N4  UNL     1       6.015  -0.655  -0.882  1.00  0.00    -0.275 N 
ATOM     16  H3  UNL     1       5.980  -0.732   1.178  1.00  0.00     0.188 HD
HETATM   17  C12 UNL     1       5.025  -0.536  -1.782  1.00  0.00     0.194 A 
ATOM     18  H4  UNL     1       7.011  -0.731  -1.087  1.00  0.00     0.189 HD
HETATM   19  S1  UNL     1       5.198  -0.485  -3.424  1.00  0.00    -0.039 SA
HETATM   20  N5  UNL     1       3.871  -0.465  -1.123  1.00  0.00    -0.314 N 
HETATM   21  C13 UNL     1       2.548  -0.334  -1.687  1.00  0.00     0.160 C 
ENDBRANCH   5  13
ENDBRANCH   3   5
BRANCH   1  22
HETATM   22  O3  UNL     1      -0.086   1.301   1.455  1.00  0.00    -0.273 OA
BRANCH  22  23
HETATM   23  C7  UNL     1      -1.448   1.137   1.584  1.00  0.00     0.167 C 
HETATM   24  C6  UNL     1      -2.316   0.986   0.618  1.00  0.00     0.091 A 
HETATM   25  C5  UNL     1      -3.752   0.818   0.871  1.00  0.00     0.196 A 
HETATM   26  C14 UNL     1      -1.910   0.983  -0.779  1.00  0.00     0.240 A 
HETATM   27  C3  UNL     1      -4.717   0.656  -0.228  1.00  0.00     0.027 A 
HETATM   28  O2  UNL     1      -4.121   0.819   2.069  1.00  0.00    -0.287 OA
HETATM   29  C2  UNL     1      -4.339   0.653  -1.494  1.00  0.00     0.132 A 
HETATM   30  C4  UNL     1      -6.164   0.488   0.079  1.00  0.00     0.056 C 
HETATM   31  C15 UNL     1      -2.929   0.815  -1.826  1.00  0.00     0.256 A 
HETATM   32  O8  UNL     1      -2.543   0.816  -3.026  1.00  0.00    -0.281 OA
HETATM   33  O7  UNL     1      -0.708   1.120  -1.088  1.00  0.00    -0.283 OA
BRANCH  29  34
HETATM   34  O1  UNL     1      -5.312   0.494  -2.466  1.00  0.00    -0.351 OA
HETATM   35  C1  UNL     1      -5.759  -0.768  -2.914  1.00  0.00     0.210 C 
ENDBRANCH  29  34
ENDBRANCH  22  23
ENDBRANCH   1  22
TORSDOF 8
