REMARK  9 active torsions:
REMARK  status: ('A' for Active; 'I' for Inactive)
REMARK    1  A    between atoms: S1_2  and  C2_3 
REMARK    2  A    between atoms: N3_9  and  C4_11 
REMARK    3  A    between atoms: C4_11  and  C6_17 
REMARK    4  A    between atoms: N4_12  and  O1_14 
REMARK    5  A    between atoms: C6_17  and  O2_18 
REMARK    6  A    between atoms: C6_17  and  C9_22 
REMARK    7  A    between atoms: O2_18  and  C7_19 
REMARK    8  A    between atoms: C9_22  and  C10_24 
REMARK    9  A    between atoms: C12_31  and  O5_32 
ROOT
HETATM    1  O1  UNL     1       0.618   2.759   2.372  1.00  0.00    -0.158 OA
HETATM    2  C5  UNL     1       1.256   3.925   2.052  1.00  0.00     0.253 C 
HETATM    3  N5  UNL     1       1.809   4.912   1.781  1.00  0.00    -0.162 NA
ENDROOT
BRANCH   1   4
HETATM    4  N4  UNL     1      -0.129   2.144   1.401  1.00  0.00    -0.234 N 
HETATM    5  C4  UNL     1       0.062   0.928   1.085  1.00  0.00     0.142 C 
ATOM      6  H4  UNL     1      -0.855   2.675   0.921  1.00  0.00     0.197 HD
BRANCH   5   7
HETATM    7  N3  UNL     1       1.067   0.185   1.747  1.00  0.00    -0.321 N 
HETATM    8  C3  UNL     1       2.253   0.158   1.181  1.00  0.00     0.167 A 
HETATM    9  N2  UNL     1       2.648   0.745   0.046  1.00  0.00    -0.278 N 
HETATM   10  S3  UNL     1       3.686  -0.624   1.685  1.00  0.00    -0.026 SA
HETATM   11  N1  UNL     1       3.851   0.592  -0.330  1.00  0.00    -0.286 N 
ATOM     12  H2  UNL     1       1.997   1.304  -0.506  1.00  0.00     0.189 HD
HETATM   13  C2  UNL     1       4.689  -0.135   0.392  1.00  0.00     0.129 A 
ATOM     14  H1  UNL     1       4.173   1.031  -1.192  1.00  0.00     0.188 HD
ATOM     15  H3  UNL     1       0.880  -0.306   2.621  1.00  0.00     0.169 HD
BRANCH  13  16
HETATM   16  S1  UNL     1       6.430  -0.481   0.046  1.00  0.00    -0.108 SA
HETATM   17  C1  UNL     1       6.468  -1.992  -0.956  1.00  0.00     0.097 C 
ENDBRANCH  13  16
ENDBRANCH   5   7
BRANCH   5  18
HETATM   18  C6  UNL     1      -0.743   0.218   0.020  1.00  0.00     0.277 C 
BRANCH  18  19
HETATM   19  O2  UNL     1      -1.647   1.144  -0.470  1.00  0.00    -0.300 OA
BRANCH  19  20
HETATM   20  C7  UNL     1      -1.638   1.631  -1.775  1.00  0.00     0.256 C 
HETATM   21  C8  UNL     1      -2.640   2.626  -2.237  1.00  0.00     0.126 C 
HETATM   22  O3  UNL     1      -0.759   1.208  -2.562  1.00  0.00    -0.266 OA
ENDBRANCH  19  20
ENDBRANCH  18  19
BRANCH  18  23
HETATM   23  C9  UNL     1      -1.283  -1.003   0.626  1.00  0.00     0.217 C 
HETATM   24  O4  UNL     1      -0.380  -1.832   1.026  1.00  0.00    -0.287 OA
BRANCH  23  25
HETATM   25  C10 UNL     1      -2.667  -1.359   0.813  1.00  0.00     0.135 A 
HETATM   26  N6  UNL     1      -3.735  -0.623   0.470  1.00  0.00    -0.326 N 
HETATM   27  C11 UNL     1      -4.826  -1.354   0.840  1.00  0.00     0.178 A 
ATOM     28  H6  UNL     1      -3.732   0.294   0.024  1.00  0.00     0.168 HD
HETATM   29  S2  UNL     1      -6.386  -0.866   0.625  1.00  0.00    -0.040 SA
HETATM   30  N7  UNL     1      -4.427  -2.504   1.395  1.00  0.00    -0.312 N 
HETATM   31  C12 UNL     1      -3.099  -2.563   1.405  1.00  0.00     0.173 A 
ATOM     32  H7  UNL     1      -5.049  -3.227   1.756  1.00  0.00     0.170 HD
BRANCH  31  33
HETATM   33  O5  UNL     1      -2.257  -3.563   1.880  1.00  0.00    -0.344 OA
ATOM     34  H5  UNL     1      -2.548  -4.374   2.279  1.00  0.00     0.219 HD
ENDBRANCH  31  33
ENDBRANCH  23  25
ENDBRANCH  18  23
ENDBRANCH   5  18
ENDBRANCH   1   4
TORSDOF 9
