REMARK  1 active torsions:
REMARK  status: ('A' for Active; 'I' for Inactive)
REMARK       I    between atoms: C1_4  and  N3_6 
REMARK    1  A    between atoms: N3_6  and  C2_8 
ROOT
HETATM    1  C2  UNL     1       0.799  -0.420   0.230  1.00  0.00     0.123 A 
HETATM    2  C3  UNL     1       1.174   0.724  -0.451  1.00  0.00     0.068 A 
HETATM    3  C4  UNL     1       2.537   0.907  -0.345  1.00  0.00     0.111 A 
HETATM    4  N4  UNL     1       2.974  -0.120   0.394  1.00  0.00    -0.310 N 
ATOM      5  H4  UNL     1       3.946  -0.280   0.658  1.00  0.00     0.186 HD
HETATM    6  N5  UNL     1       1.946  -0.907   0.736  1.00  0.00    -0.286 N 
ATOM      7  H5  UNL     1       2.022  -1.754   1.299  1.00  0.00     0.188 HD
ENDROOT
BRANCH   1   8
HETATM    8  N3  UNL     1      -0.500  -0.979   0.378  1.00  0.00    -0.316 N 
HETATM    9  C1  UNL     1      -1.626  -0.364  -0.207  1.00  0.00     0.187 C 
HETATM   10  N1  UNL     1      -2.009  -0.755  -1.359  1.00  0.00    -0.373 N 
HETATM   11  N2  UNL     1      -2.320   0.660   0.459  1.00  0.00    -0.064 NA
ATOM     12  H12 UNL     1      -2.824  -0.310  -1.782  1.00  0.00     0.158 HD
ATOM     13  H11 UNL     1      -1.505  -1.498  -1.843  1.00  0.00     0.158 HD
ATOM     14  H3  UNL     1      -0.619  -1.838   0.915  1.00  0.00     0.170 HD
ENDBRANCH   1   8
TORSDOF 1
