REMARK  3 active torsions:
REMARK  status: ('A' for Active; 'I' for Inactive)
REMARK    1  A    between atoms: C1_4  and  C2_6 
REMARK    2  A    between atoms: C2_6  and  N3_7 
REMARK    3  A    between atoms: C2_6  and  C3_11 
ROOT
HETATM    1  C2  UNL     1       0.331  -0.362   0.888  1.00  0.00     0.277 C 
ENDROOT
BRANCH   1   2
HETATM    2  C1  UNL     1      -0.823  -1.286   1.096  1.00  0.00     0.119 C 
HETATM    3  N1  UNL     1      -0.623  -2.553   1.057  1.00  0.00    -0.389 N 
ATOM      4  H12 UNL     1      -1.411  -3.184   1.199  1.00  0.00     0.157 HD
ATOM      5  H11 UNL     1       0.318  -2.906   0.885  1.00  0.00     0.157 HD
HETATM    6  N2  UNL     1      -2.130  -0.796   1.335  1.00  0.00    -0.086 NA
ENDBRANCH   1   2
BRANCH   1   7
HETATM    7  N3  UNL     1       0.464   0.441   2.070  1.00  0.00    -0.067 N 
ATOM      8  H33 UNL     1      -0.397   0.930   2.316  1.00  0.00     0.275 HD
ATOM      9  H32 UNL     1       0.550  -0.116   2.920  1.00  0.00     0.275 HD
ATOM     10  H31 UNL     1       1.252   1.072   1.928  1.00  0.00     0.275 HD
ENDBRANCH   1   7
BRANCH   1  11
HETATM   11  C3  UNL     1      -0.011   0.487  -0.339  1.00  0.00     0.224 C 
HETATM   12  C4  UNL     1       1.034   1.488  -0.717  1.00  0.00     0.063 C 
HETATM   13  C5  UNL     1       1.462   0.544  -1.793  1.00  0.00     0.235 C 
HETATM   14  N4  UNL     1       0.323  -0.268  -1.518  1.00  0.00    -0.068 N 
ATOM     15  H42 UNL     1       0.445  -1.278  -1.439  1.00  0.00     0.277 HD
ATOM     16  H41 UNL     1      -0.384  -0.388  -2.243  1.00  0.00     0.277 HD
ENDBRANCH   1  11
TORSDOF 3
