REMARK  2 active torsions:
REMARK  status: ('A' for Active; 'I' for Inactive)
REMARK    1  A    between atoms: C3_4  and  N1_5 
REMARK    2  A    between atoms: N1_5  and  N2_7 
REMARK       I    between atoms: N2_7  and  C4_9 
ROOT
HETATM    1  N2  UNL     1      -0.671  -0.110   0.232  1.00  0.00    -0.276 N 
ATOM      2  H2  UNL     1      -0.359   0.764   0.655  1.00  0.00     0.189 HD
HETATM    3  C4  UNL     1      -2.056  -0.373   0.126  1.00  0.00     0.200 C 
HETATM    4  N3  UNL     1      -2.560  -1.560   0.043  1.00  0.00    -0.372 N 
ATOM      5  H31 UNL     1      -3.559  -1.750  -0.033  1.00  0.00     0.158 HD
ATOM      6  H32 UNL     1      -1.880  -2.320   0.058  1.00  0.00     0.158 HD
HETATM    7  N4  UNL     1      -3.018   0.703   0.105  1.00  0.00    -0.062 NA
ENDROOT
BRANCH   1   8
HETATM    8  N1  UNL     1       0.255  -1.002  -0.220  1.00  0.00    -0.299 N 
ATOM      9  H1  UNL     1       0.074  -2.005  -0.264  1.00  0.00     0.183 HD
BRANCH   8  10
HETATM   10  C3  UNL     1       1.511  -0.423  -0.631  1.00  0.00     0.299 A 
HETATM   11  C2  UNL     1       2.366   0.321   0.203  1.00  0.00     0.090 A 
HETATM   12  C1  UNL     1       2.853   1.386   0.813  1.00  0.00     0.051 C 
HETATM   13  O1  UNL     1       2.611  -1.114   0.098  1.00  0.00    -0.319 OA
ENDBRANCH   8  10
ENDBRANCH   1   8
TORSDOF 2
