REMARK  2 active torsions:
REMARK  status: ('A' for Active; 'I' for Inactive)
REMARK    1  A    between atoms: N1_1  and  C1_4 
REMARK    2  A    between atoms: C3_9  and  C4_10 
ROOT
HETATM    1  C1  UNL     1       1.632  -0.020   0.304  1.00  0.00     0.677 A 
HETATM    2  N2  UNL     1       0.781   1.017   0.315  1.00  0.00    -0.177 N 
ATOM      3  H2  UNL     1       1.040   1.981   0.526  1.00  0.00     0.185 HD
HETATM    4  C2  UNL     1      -0.464   0.605   0.008  1.00  0.00     0.162 A 
HETATM    5  N3  UNL     1      -1.610   1.443  -0.071  1.00  0.00    -0.080 NA
HETATM    6  C3  UNL     1      -0.374  -0.758  -0.203  1.00  0.00     0.128 A 
HETATM    7  N4  UNL     1       0.907  -1.104  -0.016  1.00  0.00    -0.186 N 
ATOM      8  H4  UNL     1       1.277  -2.051  -0.104  1.00  0.00     0.184 HD
ENDROOT
BRANCH   1   9
HETATM    9  N1  UNL     1       2.919   0.002   0.554  1.00  0.00    -0.234 N 
ATOM     10  H12 UNL     1       3.470   0.825   0.797  1.00  0.00     0.174 HD
ATOM     11  H11 UNL     1       3.566  -0.786   0.546  1.00  0.00     0.174 HD
ENDBRANCH   1   9
BRANCH   6  12
HETATM   12  C4  UNL     1      -1.497  -1.637  -0.565  1.00  0.00     0.292 C 
HETATM   13  O1  UNL     1      -2.649  -1.212  -0.714  1.00  0.00    -0.300 OA
ENDBRANCH   6  12
TORSDOF 2
