REMARK  2 active torsions:
REMARK  status: ('A' for Active; 'I' for Inactive)
REMARK    1  A    between atoms: N1_2  and  N2_4 
REMARK    2  A    between atoms: N2_4  and  C2_6 
ROOT
HETATM    1  C2  UNL     1      -0.553  -0.408  -0.272  1.00  0.00     0.134 A 
HETATM    2  C3  UNL     1      -1.469   0.009  -1.215  1.00  0.00     0.143 A 
HETATM    3  N3  UNL     1      -2.681   0.121  -0.608  1.00  0.00    -0.307 N 
ATOM      4  H3  UNL     1      -3.539   0.412  -1.076  1.00  0.00     0.186 HD
HETATM    5  N4  UNL     1      -2.594  -0.198   0.667  1.00  0.00    -0.265 N 
ATOM      6  H4  UNL     1      -3.353  -0.198   1.348  1.00  0.00     0.190 HD
HETATM    7  C4  UNL     1      -1.298  -0.527   0.897  1.00  0.00     0.289 A 
HETATM    8  O1  UNL     1      -0.772  -0.894   1.976  1.00  0.00    -0.264 OA
ENDROOT
BRANCH   1   9
HETATM    9  N2  UNL     1       0.846  -0.656  -0.420  1.00  0.00    -0.299 N 
ATOM     10  H2  UNL     1       1.183  -1.392  -1.040  1.00  0.00     0.186 HD
BRANCH   9  11
HETATM   11  N1  UNL     1       1.711   0.107   0.280  1.00  0.00    -0.340 N 
HETATM   12  C1  UNL     1       2.853   0.642  -0.317  1.00  0.00     0.167 C 
ATOM     13  H1  UNL     1       1.526   0.296   1.265  1.00  0.00     0.179 HD
ENDBRANCH   9  11
ENDBRANCH   1   9
TORSDOF 2
