REMARK  2 active torsions:
REMARK  status: ('A' for Active; 'I' for Inactive)
REMARK       I    between atoms: N1_2  and  C2_4 
REMARK       I    between atoms: C2_4  and  N3_8 
REMARK    1  A    between atoms: N3_8  and  S1_10 
REMARK    2  A    between atoms: S1_10  and  C3_11 
ROOT
HETATM    1  C1  UNL     1      -2.217   0.369  -1.087  1.00  0.00     0.165 C 
HETATM    2  N1  UNL     1      -1.518  -0.729  -0.508  1.00  0.00    -0.230 N 
ATOM      3  H1  UNL     1      -1.555  -1.642  -0.962  1.00  0.00     0.177 HD
HETATM    4  C2  UNL     1      -0.773  -0.576   0.687  1.00  0.00     0.677 C 
HETATM    5  N2  UNL     1      -1.401  -0.248   1.774  1.00  0.00    -0.234 N 
ATOM      6  H21 UNL     1      -0.865  -0.138   2.635  1.00  0.00     0.174 HD
ATOM      7  H22 UNL     1      -2.411  -0.108   1.745  1.00  0.00     0.174 HD
HETATM    8  N3  UNL     1       0.629  -0.770   0.727  1.00  0.00    -0.160 N 
ATOM      9  H3  UNL     1       1.018  -1.638   0.358  1.00  0.00     0.193 HD
ENDROOT
BRANCH   8  10
HETATM   10  S1  UNL     1       1.722   0.439   1.394  1.00  0.00     0.006 SA
BRANCH  10  11
HETATM   11  C3  UNL     1       2.664   1.095   0.038  1.00  0.00     0.150 C 
HETATM   12  N4  UNL     1       3.441   0.363  -0.640  1.00  0.00    -0.402 N 
ATOM     13  H42 UNL     1       3.517  -0.623  -0.390  1.00  0.00     0.156 HD
ATOM     14  H41 UNL     1       3.982   0.740  -1.419  1.00  0.00     0.156 HD
ENDBRANCH  10  11
ENDBRANCH   8  10
TORSDOF 2
