REMARK  9 active torsions:
REMARK  status: ('A' for Active; 'I' for Inactive)
REMARK    1  A    between atoms: C5_6  and  C6_7 
REMARK    2  A    between atoms: C6_7  and  C7_8 
REMARK    3  A    between atoms: C7_8  and  O1_9 
REMARK    4  A    between atoms: C7_8  and  O2_11 
REMARK    5  A    between atoms: O2_11  and  N2_12 
REMARK    6  A    between atoms: C8_14  and  C9_15 
REMARK    7  A    between atoms: C16_22  and  O3_23 
REMARK    8  A    between atoms: O3_23  and  C17_24 
REMARK    9  A    between atoms: C17_24  and  C18_26 
ROOT
HETATM    1  C1  UNL     1       2.605  -0.454   1.588  1.00  0.00     0.116 C 
HETATM    2  N1  UNL     1       1.893  -0.456   0.451  1.00  0.00    -0.390 N 
HETATM    3  C2  UNL     1       1.899  -1.590  -0.436  1.00  0.00     0.085 C 
HETATM    4  C3  UNL     1       0.920  -2.524   0.077  1.00  0.00     0.026 C 
HETATM    5  C4  UNL     1      -0.434  -1.920  -0.259  1.00  0.00     0.007 C 
HETATM    6  C5  UNL     1      -0.534  -0.426   0.043  1.00  0.00    -0.008 C 
HETATM    7  C13 UNL     1       0.241   0.444  -0.845  1.00  0.00     0.030 C 
HETATM    8  C14 UNL     1       1.716   0.658  -0.387  1.00  0.00     0.086 C 
HETATM    9  C15 UNL     1       2.678   0.470  -1.541  1.00  0.00     0.057 C 
HETATM   10  C16 UNL     1       3.796  -0.511  -1.285  1.00  0.00     0.136 C 
HETATM   11  C22 UNL     1       3.303  -1.863  -0.728  1.00  0.00     0.057 C 
ENDROOT
BRANCH   6  12
HETATM   12  C6  UNL     1      -1.998  -0.171   0.078  1.00  0.00     0.067 C 
BRANCH  12  13
HETATM   13  C7  UNL     1      -2.541   1.158   0.362  1.00  0.00     0.285 C 
BRANCH  13  14
HETATM   14  O1  UNL     1      -2.211   2.150  -0.534  1.00  0.00    -0.369 OA
ATOM     15  H1  UNL     1      -2.563   3.013  -0.350  1.00  0.00     0.212 HD
ENDBRANCH  13  14
BRANCH  13  16
HETATM   16  O2  UNL     1      -3.979   1.056   0.279  1.00  0.00    -0.249 OA
BRANCH  16  17
HETATM   17  N2  UNL     1      -4.802   1.338   1.318  1.00  0.00    -0.278 N 
HETATM   18  C8  UNL     1      -6.030   1.024   1.351  1.00  0.00     0.095 C 
ATOM     19  H2  UNL     1      -4.411   1.832   2.120  1.00  0.00     0.193 HD
BRANCH  18  20
HETATM   20  C9  UNL     1      -6.745   0.305   0.262  1.00  0.00    -0.017 C 
HETATM   21  C10 UNL     1      -6.412  -1.161   0.280  1.00  0.00     0.020 C 
HETATM   22  C11 UNL     1      -6.356   0.866  -1.099  1.00  0.00     0.020 C 
HETATM   23  C12 UNL     1      -8.231   0.534   0.428  1.00  0.00     0.020 C 
ENDBRANCH  18  20
ENDBRANCH  16  17
ENDBRANCH  13  16
ENDBRANCH  12  13
ENDBRANCH   6  12
BRANCH  10  24
HETATM   24  O3  UNL     1       4.838   0.016  -0.512  1.00  0.00    -0.311 OA
BRANCH  24  25
HETATM   25  C17 UNL     1       6.123   0.199  -0.930  1.00  0.00     0.300 C 
HETATM   26  O4  UNL     1       6.421  -0.124  -2.106  1.00  0.00    -0.259 OA
BRANCH  25  27
HETATM   27  C18 UNL     1       7.180   0.764  -0.058  1.00  0.00     0.080 A 
HETATM   28  C19 UNL     1       7.061   1.175   1.244  1.00  0.00     0.025 A 
HETATM   29  C20 UNL     1       8.159   1.656   1.838  1.00  0.00     0.009 A 
HETATM   30  C21 UNL     1       9.310   1.697   1.096  1.00  0.00     0.050 A 
HETATM   31  S1  UNL     1       8.820   1.062  -0.408  1.00  0.00    -0.096 SA
ENDBRANCH  25  27
ENDBRANCH  24  25
ENDBRANCH  10  24
TORSDOF 9
