REMARK  7 active torsions:
REMARK  status: ('A' for Active; 'I' for Inactive)
REMARK    1  A    between atoms: O1_1  and  C1_3 
REMARK    2  A    between atoms: C1_3  and  C2_4 
REMARK    3  A    between atoms: C2_4  and  S1_5 
REMARK    4  A    between atoms: S1_5  and  C3_6 
REMARK    5  A    between atoms: C8_17  and  C9_18 
REMARK    6  A    between atoms: C9_18  and  C10_19 
REMARK    7  A    between atoms: N4_27  and  C17_29 
ROOT
HETATM    1  C3  UNL     1       2.568  -0.163   1.036  1.00  0.00     0.159 A 
HETATM    2  N1  UNL     1       2.586  -0.823  -0.098  1.00  0.00    -0.278 N 
ATOM      3  H1  UNL     1       3.418  -1.377  -0.300  1.00  0.00     0.189 HD
HETATM    4  N2  UNL     1       1.607  -0.834  -1.016  1.00  0.00    -0.276 N 
ATOM      5  H2  UNL     1       1.697  -1.375  -1.876  1.00  0.00     0.189 HD
HETATM    6  C4  UNL     1       0.510  -0.112  -0.764  1.00  0.00     0.180 A 
HETATM    7  C5  UNL     1       0.416   0.617   0.426  1.00  0.00     0.064 A 
HETATM    8  N3  UNL     1       1.411   0.581   1.277  1.00  0.00    -0.336 N 
ATOM      9  H3  UNL     1       1.338   1.114   2.144  1.00  0.00     0.168 HD
HETATM   10  C6  UNL     1      -0.753   1.473   0.848  1.00  0.00     0.062 C 
HETATM   11  C7  UNL     1      -1.385   2.043  -0.353  1.00  0.00     0.013 C 
HETATM   12  C8  UNL     1      -2.476   1.235  -1.021  1.00  0.00     0.011 C 
HETATM   13  C16 UNL     1      -1.893  -0.037  -1.621  1.00  0.00     0.182 C 
HETATM   14  O2  UNL     1      -0.503  -0.109  -1.700  1.00  0.00    -0.333 OA
ENDROOT
BRANCH   1  15
HETATM   15  S1  UNL     1       3.782  -0.091   2.312  1.00  0.00    -0.085 SA
BRANCH  15  16
HETATM   16  C2  UNL     1       4.966   1.206   2.074  1.00  0.00     0.166 C 
BRANCH  16  17
HETATM   17  C1  UNL     1       6.209   0.779   1.398  1.00  0.00     0.126 C 
HETATM   18  N4  UNL     1       6.303  -0.009   0.291  1.00  0.00    -0.334 N 
ATOM     19  H4  UNL     1       5.443  -0.336  -0.149  1.00  0.00     0.168 HD
BRANCH  17  20
HETATM   20  O1  UNL     1       7.270   1.260   2.001  1.00  0.00    -0.349 OA
ATOM     21  H1  UNL     1       8.069   0.986   1.566  1.00  0.00     0.219 HD
ENDBRANCH  17  20
BRANCH  18  22
HETATM   22  C17 UNL     1       7.572  -0.405  -0.291  1.00  0.00     0.075 A 
HETATM   23  C18 UNL     1       8.855  -0.160   0.095  1.00  0.00     0.038 A 
HETATM   24  C19 UNL     1       9.845  -0.641  -0.662  1.00  0.00     0.010 A 
HETATM   25  C20 UNL     1       9.514  -1.348  -1.782  1.00  0.00     0.052 A 
HETATM   26  S2  UNL     1       7.805  -1.316  -1.734  1.00  0.00    -0.084 SA
ENDBRANCH  18  22
ENDBRANCH  16  17
ENDBRANCH  15  16
ENDBRANCH   1  15
BRANCH  12  27
HETATM   27  C9  UNL     1      -3.584   0.973  -0.061  1.00  0.00     0.011 C 
BRANCH  27  28
HETATM   28  C10 UNL     1      -4.822   0.320  -0.503  1.00  0.00    -0.014 C 
HETATM   29  C11 UNL     1      -4.887  -0.989  -1.131  1.00  0.00     0.005 C 
HETATM   30  C12 UNL     1      -4.992  -2.198  -0.214  1.00  0.00     0.000 C 
HETATM   31  C13 UNL     1      -6.283  -2.170   0.578  1.00  0.00     0.000 C 
HETATM   32  C14 UNL     1      -6.778  -0.763   0.691  1.00  0.00     0.000 C 
HETATM   33  C15 UNL     1      -5.695   0.253   0.779  1.00  0.00     0.005 C 
ENDBRANCH  27  28
ENDBRANCH  12  27
TORSDOF 7
