REMARK  7 active torsions:
REMARK  status: ('A' for Active; 'I' for Inactive)
REMARK    1  A    between atoms: C5_5  and  C6_6 
REMARK    2  A    between atoms: C6_6  and  S1_8 
REMARK    3  A    between atoms: S1_8  and  C8_9 
REMARK    4  A    between atoms: C9_14  and  N3_15 
REMARK    5  A    between atoms: C11_17  and  C12_18 
REMARK    6  A    between atoms: C12_18  and  C13_19 
REMARK    7  A    between atoms: C13_19  and  O1_20 
ROOT
HETATM    1  C8  UNL     1      -0.142  -0.146  -0.522  1.00  0.00     0.130 A 
HETATM    2  N1  UNL     1       0.341  -1.011   0.359  1.00  0.00    -0.286 N 
ATOM      3  H1  UNL     1      -0.297  -1.591   0.903  1.00  0.00     0.188 HD
HETATM    4  N2  UNL     1       1.586  -1.120   0.527  1.00  0.00    -0.278 N 
ATOM      5  H2  UNL     1       1.952  -1.787   1.206  1.00  0.00     0.189 HD
HETATM    6  C9  UNL     1       2.422  -0.367  -0.179  1.00  0.00     0.165 A 
HETATM    7  S2  UNL     1       1.297   0.538  -1.131  1.00  0.00    -0.026 SA
ENDROOT
BRANCH   6   8
HETATM    8  N3  UNL     1       3.847  -0.323  -0.157  1.00  0.00    -0.328 N 
HETATM    9  C10 UNL     1       4.672  -1.151   0.687  1.00  0.00     0.163 C 
HETATM   10  C11 UNL     1       5.842  -0.236   0.976  1.00  0.00     0.245 C 
HETATM   11  N4  UNL     1       6.029   0.390  -0.320  1.00  0.00     0.117 N 
HETATM   12  C14 UNL     1       6.587   1.691  -0.139  1.00  0.00     0.276 C 
HETATM   13  C17 UNL     1       4.745   0.502  -0.920  1.00  0.00     0.326 C 
HETATM   14  C15 UNL     1       5.460   2.689  -0.223  1.00  0.00     0.034 C 
HETATM   15  C16 UNL     1       4.364   1.953  -0.959  1.00  0.00     0.059 C 
BRANCH  10  16
HETATM   16  C12 UNL     1       7.053  -0.957   1.461  1.00  0.00     0.063 C 
BRANCH  16  17
HETATM   17  C13 UNL     1       7.574  -1.975   0.472  1.00  0.00     0.166 C 
BRANCH  17  18
HETATM   18  O1  UNL     1       8.711  -2.560   1.079  1.00  0.00    -0.401 OA
ATOM     19  H1  UNL     1       9.038  -3.200   0.458  1.00  0.00     0.209 HD
ENDBRANCH  17  18
ENDBRANCH  16  17
ENDBRANCH  10  16
ENDBRANCH   6   8
BRANCH   1  20
HETATM   20  S1  UNL     1      -1.781   0.293  -1.037  1.00  0.00    -0.099 SA
BRANCH  20  21
HETATM   21  C6  UNL     1      -3.056  -0.619  -0.196  1.00  0.00     0.055 C 
HETATM   22  C7  UNL     1      -3.022  -0.486   1.304  1.00  0.00     0.022 C 
BRANCH  21  23
HETATM   23  C5  UNL     1      -4.404  -0.152  -0.724  1.00  0.00     0.003 C 
HETATM   24  C4  UNL     1      -4.582   1.269  -0.335  1.00  0.00     0.006 C 
HETATM   25  C3  UNL     1      -6.000   1.752  -0.343  1.00  0.00     0.005 C 
HETATM   26  C2  UNL     1      -6.797   0.791   0.545  1.00  0.00    -0.018 C 
HETATM   27  C1  UNL     1      -8.161   1.353   0.794  1.00  0.00     0.010 C 
HETATM   28  C20 UNL     1      -6.834  -0.527  -0.195  1.00  0.00     0.009 C 
HETATM   29  C18 UNL     1      -5.448  -1.089  -0.242  1.00  0.00    -0.013 C 
HETATM   30  C19 UNL     1      -5.489  -2.271  -1.220  1.00  0.00     0.010 C 
ENDBRANCH  21  23
ENDBRANCH  20  21
ENDBRANCH   1  20
TORSDOF 7
