REMARK  7 active torsions:
REMARK  status: ('A' for Active; 'I' for Inactive)
REMARK    1  A    between atoms: C2_2  and  C3_3 
REMARK    2  A    between atoms: C3_3  and  C4_4 
REMARK    3  A    between atoms: C4_4  and  C5_5 
REMARK    4  A    between atoms: C5_5  and  N1_6 
REMARK    5  A    between atoms: C10_14  and  C11_15 
REMARK    6  A    between atoms: C11_15  and  N3_17 
REMARK    7  A    between atoms: N5_24  and  C14_25 
ROOT
HETATM    1  N1  UNL     1       2.304  -1.064  -1.183  1.00  0.00    -0.264 N 
HETATM    2  C6  UNL     1       2.933   0.055  -0.845  1.00  0.00     0.282 A 
HETATM    3  O1  UNL     1       4.156   0.284  -0.999  1.00  0.00    -0.265 OA
HETATM    4  C7  UNL     1       2.194   1.078  -0.273  1.00  0.00     0.146 A 
HETATM    5  N2  UNL     1       2.807   2.219   0.079  1.00  0.00    -0.351 N 
ATOM      6  H2  UNL     1       3.809   2.330  -0.074  1.00  0.00     0.166 HD
HETATM    7  C8  UNL     1       2.096   3.214   0.633  1.00  0.00     0.030 A 
HETATM    8  C9  UNL     1       2.705   4.510   1.050  1.00  0.00     0.070 C 
HETATM    9  C10 UNL     1       0.741   3.040   0.831  1.00  0.00     0.063 A 
HETATM   10  N4  UNL     1       0.140   1.893   0.475  1.00  0.00    -0.340 N 
ATOM     11  H4  UNL     1      -0.862   1.774   0.626  1.00  0.00     0.167 HD
HETATM   12  C13 UNL     1       0.861   0.898  -0.082  1.00  0.00     0.145 A 
HETATM   13  N5  UNL     1       0.221  -0.214  -0.417  1.00  0.00    -0.275 N 
HETATM   14  C24 UNL     1       0.951  -1.191  -0.967  1.00  0.00     0.334 A 
HETATM   15  O2  UNL     1       0.419  -2.284  -1.316  1.00  0.00    -0.246 OA
ENDROOT
BRANCH  13  16
HETATM   16  C14 UNL     1      -1.240  -0.432  -0.217  1.00  0.00     0.118 C 
HETATM   17  C15 UNL     1      -1.901  -0.636  -1.528  1.00  0.00    -0.005 C 
HETATM   18  C16 UNL     1      -2.884   0.308  -2.055  1.00  0.00    -0.029 C 
HETATM   19  C17 UNL     1      -4.136   0.706  -1.415  1.00  0.00     0.027 C 
HETATM   20  C18 UNL     1      -5.104  -0.291  -0.906  1.00  0.00     0.004 C 
HETATM   21  C19 UNL     1      -5.608  -0.150   0.486  1.00  0.00     0.000 C 
HETATM   22  C20 UNL     1      -4.921  -1.012   1.566  1.00  0.00     0.000 C 
HETATM   23  C21 UNL     1      -3.522  -1.025   1.137  1.00  0.00     0.000 C 
HETATM   24  C22 UNL     1      -2.352  -1.519   1.844  1.00  0.00     0.002 C 
HETATM   25  C23 UNL     1      -1.259  -1.569   0.754  1.00  0.00     0.030 C 
ENDBRANCH  13  16
BRANCH   1  26
HETATM   26  C5  UNL     1       2.982  -2.199  -1.744  1.00  0.00     0.137 C 
BRANCH  26  27
HETATM   27  C4  UNL     1       3.331  -3.259  -0.775  1.00  0.00     0.020 C 
BRANCH  27  28
HETATM   28  C3  UNL     1       4.308  -2.998   0.294  1.00  0.00     0.001 C 
BRANCH  28  29
HETATM   29  C2  UNL     1       5.722  -2.754  -0.120  1.00  0.00    -0.004 C 
HETATM   30  C1  UNL     1       6.285  -3.967  -0.858  1.00  0.00     0.005 C 
ENDBRANCH  28  29
ENDBRANCH  27  28
ENDBRANCH  26  27
ENDBRANCH   1  26
BRANCH   9  31
HETATM   31  C11 UNL     1      -0.060   4.124   1.440  1.00  0.00     0.231 C 
HETATM   32  C12 UNL     1      -1.474   3.685   1.595  1.00  0.00     0.046 C 
BRANCH  31  33
HETATM   33  N3  UNL     1       0.042   5.368   0.711  1.00  0.00    -0.070 N 
ATOM     34  H33 UNL     1       1.016   5.650   0.602  1.00  0.00     0.275 HD
ATOM     35  H32 UNL     1      -0.203   5.239  -0.271  1.00  0.00     0.275 HD
ATOM     36  H31 UNL     1      -0.510   6.116   1.131  1.00  0.00     0.275 HD
ENDBRANCH  31  33
ENDBRANCH   9  31
TORSDOF 7
