REMARK  7 active torsions:
REMARK  status: ('A' for Active; 'I' for Inactive)
REMARK    1  A    between atoms: C2_2  and  C3_3 
REMARK    2  A    between atoms: C3_3  and  C4_4 
REMARK    3  A    between atoms: C4_4  and  C6_6 
REMARK       I    between atoms: C6_6  and  N1_8 
REMARK    4  A    between atoms: N1_8  and  C7_10 
REMARK    5  A    between atoms: C8_11  and  N2_12 
REMARK       I    between atoms: N2_12  and  C9_13 
REMARK    6  A    between atoms: N2_12  and  C12_22 
REMARK    7  A    between atoms: C9_13  and  C10_15 
ROOT
HETATM    1  C7  UNL     1      -0.946   0.620  -1.095  1.00  0.00     0.084 A 
HETATM    2  C8  UNL     1      -1.680   0.877   0.037  1.00  0.00     0.068 A 
HETATM    3  C17 UNL     1      -3.072   1.070  -0.046  1.00  0.00     0.056 A 
HETATM    4  C18 UNL     1      -3.710   0.995  -1.260  1.00  0.00     0.007 A 
HETATM    5  C19 UNL     1      -5.198   1.202  -1.362  1.00  0.00     0.068 C 
HETATM    6  N5  UNL     1      -3.002   0.750  -2.331  1.00  0.00    -0.362 N 
ATOM      7  H5  UNL     1      -3.482   0.698  -3.230  1.00  0.00     0.165 HD
HETATM    8  C20 UNL     1      -1.682   0.565  -2.304  1.00  0.00     0.035 A 
HETATM    9  C21 UNL     1      -0.949   0.284  -3.566  1.00  0.00     0.070 C 
ENDROOT
BRANCH   2  10
HETATM   10  N2  UNL     1      -1.090   0.961   1.333  1.00  0.00    -0.305 N 
HETATM   11  C9  UNL     1      -0.515   2.216   1.614  1.00  0.00     0.277 C 
HETATM   12  O2  UNL     1      -0.839   3.171   0.828  1.00  0.00    -0.265 OA
BRANCH  11  13
HETATM   13  C10 UNL     1       0.415   2.559   2.710  1.00  0.00     0.124 A 
HETATM   14  C11 UNL     1       0.845   3.863   2.888  1.00  0.00     0.106 A 
HETATM   15  S1  UNL     1       1.858   3.711   4.273  1.00  0.00    -0.008 SA
HETATM   16  N3  UNL     1       1.672   2.067   4.519  1.00  0.00    -0.269 N 
HETATM   17  N4  UNL     1       0.880   1.708   3.580  1.00  0.00    -0.289 N 
ATOM     18  H3  UNL     1       2.091   1.487   5.246  1.00  0.00     0.195 HD
ATOM     19  H4  UNL     1       0.605   0.728   3.511  1.00  0.00     0.188 HD
ENDBRANCH  11  13
BRANCH  10  20
HETATM   20  C12 UNL     1      -1.211  -0.050   2.335  1.00  0.00     0.093 C 
HETATM   21  C13 UNL     1      -0.241  -1.217   2.194  1.00  0.00     0.026 C 
HETATM   22  C14 UNL     1      -1.121  -2.339   1.660  1.00  0.00     0.002 C 
HETATM   23  C15 UNL     1      -2.283  -2.214   2.616  1.00  0.00     0.002 C 
HETATM   24  C16 UNL     1      -2.529  -0.688   2.531  1.00  0.00     0.026 C 
ENDBRANCH  10  20
ENDBRANCH   2  10
BRANCH   1  25
HETATM   25  N1  UNL     1       0.418   0.541  -1.259  1.00  0.00    -0.319 N 
HETATM   26  C6  UNL     1       1.412  -0.427  -1.270  1.00  0.00     0.259 C 
HETATM   27  O1  UNL     1       1.160  -1.623  -1.025  1.00  0.00    -0.267 OA
ATOM     28  H1  UNL     1       0.815   1.467  -1.420  1.00  0.00     0.169 HD
BRANCH  26  29
HETATM   29  C4  UNL     1       2.847  -0.122  -1.564  1.00  0.00     0.047 C 
HETATM   30  C5  UNL     1       3.137   1.154  -2.178  1.00  0.00     0.063 C 
BRANCH  29  31
HETATM   31  C3  UNL     1       3.726  -1.133  -1.370  1.00  0.00    -0.144 C 
BRANCH  31  32
HETATM   32  C2  UNL     1       4.688  -2.034  -1.248  1.00  0.00     0.081 C 
HETATM   33  C1  UNL     1       4.277  -3.454  -1.777  1.00  0.00     0.017 C 
ENDBRANCH  31  32
ENDBRANCH  29  31
ENDBRANCH  26  29
ENDBRANCH   1  25
TORSDOF 7
