REMARK  4 active torsions:
REMARK  status: ('A' for Active; 'I' for Inactive)
REMARK    1  A    between atoms: C4_4  and  O1_5 
REMARK    2  A    between atoms: O1_5  and  C5_6 
REMARK    3  A    between atoms: C5_6  and  C6_8 
REMARK    4  A    between atoms: C19_22  and  O4_23 
ROOT
HETATM    1  C1  UNL     1      -0.051  -0.616   2.069  1.00  0.00     0.020 C 
HETATM    2  C2  UNL     1      -0.329  -1.073   0.672  1.00  0.00     0.006 C 
HETATM    3  C3  UNL     1       0.346  -2.428   0.480  1.00  0.00     0.020 C 
HETATM    4  C4  UNL     1       0.239  -0.155  -0.381  1.00  0.00     0.145 C 
HETATM    5  C11 UNL     1      -0.606   1.079  -0.428  1.00  0.00     0.074 C 
HETATM    6  C12 UNL     1      -2.022   0.662  -0.769  1.00  0.00     0.091 C 
HETATM    7  C13 UNL     1      -2.524   1.289  -2.031  1.00  0.00     0.049 C 
HETATM    8  O3  UNL     1      -2.118  -0.742  -0.914  1.00  0.00    -0.371 OA
HETATM    9  C14 UNL     1      -1.808  -1.209   0.372  1.00  0.00     0.140 C 
HETATM   10  C15 UNL     1      -2.668  -0.355   1.243  1.00  0.00     0.053 C 
HETATM   11  C16 UNL     1      -4.014  -1.042   1.396  1.00  0.00     0.010 C 
HETATM   12  C17 UNL     1      -4.825  -0.628   0.189  1.00  0.00     0.004 C 
HETATM   13  C18 UNL     1      -4.382   0.787  -0.039  1.00  0.00     0.041 C 
HETATM   14  C19 UNL     1      -2.955   0.877   0.409  1.00  0.00     0.095 C 
ENDROOT
BRANCH   4  15
HETATM   15  O1  UNL     1       1.607   0.090  -0.231  1.00  0.00    -0.315 OA
BRANCH  15  16
HETATM   16  C5  UNL     1       2.523  -0.305  -1.206  1.00  0.00     0.263 C 
HETATM   17  O2  UNL     1       2.038  -0.887  -2.211  1.00  0.00    -0.265 OA
BRANCH  16  18
HETATM   18  C6  UNL     1       3.971  -0.071  -1.098  1.00  0.00     0.085 C 
HETATM   19  C7  UNL     1       4.580  -0.732   0.114  1.00  0.00     0.014 C 
HETATM   20  C8  UNL     1       4.964   0.429   1.003  1.00  0.00     0.001 C 
HETATM   21  C9  UNL     1       5.471   1.430  -0.043  1.00  0.00     0.001 C 
HETATM   22  C10 UNL     1       4.329   1.393  -1.037  1.00  0.00     0.014 C 
ENDBRANCH  16  18
ENDBRANCH  15  16
ENDBRANCH   4  15
BRANCH  14  23
HETATM   23  O4  UNL     1      -2.675   2.049   1.066  1.00  0.00    -0.386 OA
ATOM     24  H4  UNL     1      -3.259   2.184   1.803  1.00  0.00     0.210 HD
ENDBRANCH  14  23
TORSDOF 4
