REMARK  5 active torsions:
REMARK  status: ('A' for Active; 'I' for Inactive)
REMARK    1  A    between atoms: C3_3  and  O1_5 
REMARK    2  A    between atoms: C3_3  and  C5_7 
REMARK    3  A    between atoms: C7_10  and  C8_11 
REMARK    4  A    between atoms: C8_11  and  C9_12 
REMARK    5  A    between atoms: C10_13  and  C11_14 
ROOT
HETATM    1  C1  UNL     1      -2.554   2.346  -3.017  1.00  0.00     0.015 C 
HETATM    2  C2  UNL     1      -3.047   1.823  -2.060  1.00  0.00    -0.074 C 
HETATM    3  C3  UNL     1      -3.639   1.180  -0.927  1.00  0.00     0.174 C 
HETATM    4  C4  UNL     1      -4.630   0.124  -1.336  1.00  0.00     0.066 C 
ENDROOT
BRANCH   3   5
HETATM    5  O1  UNL     1      -4.490   2.169  -0.325  1.00  0.00    -0.372 OA
ATOM      6  H1  UNL     1      -4.883   1.742   0.427  1.00  0.00     0.212 HD
ENDBRANCH   3   5
BRANCH   3   7
HETATM    7  C5  UNL     1      -2.748   0.769   0.180  1.00  0.00     0.225 C 
HETATM    8  O2  UNL     1      -2.072   1.868   0.672  1.00  0.00    -0.349 OA
HETATM    9  C6  UNL     1      -0.808   1.880   0.272  1.00  0.00     0.189 C 
HETATM   10  C7  UNL     1      -0.442   0.386   0.173  1.00  0.00     0.095 C 
HETATM   11  C15 UNL     1      -1.774  -0.284   0.073  1.00  0.00     0.045 C 
HETATM   12  C16 UNL     1      -1.844  -1.174  -1.135  1.00  0.00     0.023 C 
HETATM   13  C17 UNL     1      -1.952  -1.084   1.338  1.00  0.00     0.096 C 
HETATM   14  C18 UNL     1      -1.686  -2.545   1.256  1.00  0.00     0.021 C 
HETATM   15  C19 UNL     1      -3.414  -0.876   1.635  1.00  0.00     0.266 C 
HETATM   16  O3  UNL     1      -4.191  -1.745   2.112  1.00  0.00    -0.265 OA
HETATM   17  O4  UNL     1      -3.646   0.424   1.267  1.00  0.00    -0.278 OA
BRANCH  10  18
HETATM   18  C8  UNL     1       0.727   0.042   0.176  1.00  0.00    -0.148 C 
BRANCH  18  19
HETATM   19  C9  UNL     1       2.097  -0.362   0.180  1.00  0.00     0.048 C 
HETATM   20  C10 UNL     1       3.087   0.544   0.273  1.00  0.00    -0.011 C 
BRANCH  20  21
HETATM   21  C11 UNL     1       4.516   0.166   0.283  1.00  0.00    -0.033 C 
HETATM   22  C12 UNL     1       5.182   0.976   1.384  1.00  0.00     0.018 C 
HETATM   23  C13 UNL     1       4.721  -1.304   0.607  1.00  0.00     0.018 C 
HETATM   24  C14 UNL     1       5.188   0.499  -1.029  1.00  0.00     0.018 C 
ENDBRANCH  20  21
ENDBRANCH  18  19
ENDBRANCH  10  18
ENDBRANCH   3   7
TORSDOF 5
