REMARK  3 active torsions:
REMARK  status: ('A' for Active; 'I' for Inactive)
REMARK    1  A    between atoms: C5_8  and  S1_9 
REMARK    2  A    between atoms: S1_9  and  N2_12 
REMARK    3  A    between atoms: N2_12  and  C6_14 
ROOT
HETATM    1  N2  UNL     1       1.138   0.870  -1.136  1.00  0.00    -0.310 N 
ATOM      2  H2  UNL     1       1.104   1.861  -1.377  1.00  0.00     0.172 HD
ENDROOT
BRANCH   1   3
HETATM    3  S1  UNL     1       2.457  -0.103  -1.508  1.00  0.00     0.263 S 
HETATM    4  O2  UNL     1       3.501   0.629  -2.351  1.00  0.00    -0.200 OA
HETATM    5  O3  UNL     1       1.959  -1.206  -2.441  1.00  0.00    -0.200 OA
BRANCH   3   6
HETATM    6  C5  UNL     1       3.275  -0.801  -0.142  1.00  0.00     0.134 A 
HETATM    7  C2  UNL     1       4.247  -0.153   0.633  1.00  0.00     0.054 A 
HETATM    8  C1  UNL     1       4.687   1.242   0.397  1.00  0.00     0.072 C 
HETATM    9  N1  UNL     1       4.652  -1.027   1.566  1.00  0.00    -0.264 N 
HETATM   10  O1  UNL     1       4.014  -2.145   1.427  1.00  0.00    -0.241 OA
ATOM     11  H1  UNL     1       5.357  -0.839   2.279  1.00  0.00     0.194 HD
HETATM   12  C3  UNL     1       3.166  -2.055   0.401  1.00  0.00     0.098 A 
HETATM   13  C4  UNL     1       2.289  -3.149  -0.032  1.00  0.00     0.081 C 
ENDBRANCH   3   6
ENDBRANCH   1   3
BRANCH   1  14
HETATM   14  C6  UNL     1       0.097   0.229  -0.477  1.00  0.00     0.098 C 
HETATM   15  C7  UNL     1      -0.370   0.890   0.803  1.00  0.00     0.036 C 
HETATM   16  C8  UNL     1      -1.837   0.543   0.954  1.00  0.00    -0.035 C 
HETATM   17  C9  UNL     1      -2.128  -0.046   2.292  1.00  0.00     0.016 C 
HETATM   18  C10 UNL     1      -2.706   1.752   0.664  1.00  0.00     0.010 C 
HETATM   19  C14 UNL     1      -2.104  -0.412  -0.193  1.00  0.00    -0.035 C 
HETATM   20  C11 UNL     1      -2.208   2.440  -0.551  1.00  0.00     0.001 C 
HETATM   21  C12 UNL     1      -1.622   1.599  -1.606  1.00  0.00     0.007 C 
HETATM   22  C13 UNL     1      -1.228   0.224  -1.264  1.00  0.00     0.017 C 
HETATM   23  C15 UNL     1      -3.536  -0.416  -0.630  1.00  0.00     0.016 C 
HETATM   24  C16 UNL     1      -1.674  -1.786   0.166  1.00  0.00     0.016 C 
ENDBRANCH   1  14
TORSDOF 3
