REMARK  4 active torsions:
REMARK  status: ('A' for Active; 'I' for Inactive)
REMARK    1  A    between atoms: C2_2  and  O2_4 
REMARK    2  A    between atoms: O2_4  and  C3_5 
REMARK    3  A    between atoms: C3_5  and  C4_6 
REMARK    4  A    between atoms: C4_6  and  O3_7 
ROOT
HETATM    1  C4  UNL     1       2.135  -0.764   0.602  1.00  0.00     0.115 C 
HETATM    2  C5  UNL     1       1.641  -0.349   1.948  1.00  0.00     0.100 C 
HETATM    3  N1  UNL     1       0.463   0.411   1.980  1.00  0.00    -0.372 N 
ATOM      4  H1  UNL     1       0.537   1.204   2.617  1.00  0.00     0.164 HD
HETATM    5  C6  UNL     1      -0.657   0.360   1.422  1.00  0.00    -0.005 C 
HETATM    6  C7  UNL     1      -1.585   1.480   1.845  1.00  0.00     0.053 C 
HETATM    7  C8  UNL     1      -2.056   2.308   0.693  1.00  0.00     0.010 C 
HETATM    8  C9  UNL     1      -1.875   1.545  -0.575  1.00  0.00    -0.014 C 
HETATM    9  C10 UNL     1      -2.807   2.101  -1.621  1.00  0.00     0.010 C 
HETATM   10  C11 UNL     1      -2.186   0.075  -0.424  1.00  0.00    -0.001 C 
HETATM   11  C12 UNL     1      -3.589  -0.089   0.048  1.00  0.00     0.011 C 
HETATM   12  C13 UNL     1      -1.150  -0.633   0.441  1.00  0.00     0.003 C 
HETATM   13  C14 UNL     1      -1.799  -1.739   1.217  1.00  0.00     0.022 C 
HETATM   14  C15 UNL     1      -0.089  -1.091  -0.506  1.00  0.00     0.011 C 
HETATM   15  C16 UNL     1      -0.289  -2.454  -1.162  1.00  0.00    -0.013 C 
HETATM   16  C17 UNL     1      -0.821  -2.413  -2.561  1.00  0.00     0.010 C 
HETATM   17  C18 UNL     1       1.261  -2.498  -1.115  1.00  0.00     0.013 C 
HETATM   18  C19 UNL     1       1.077  -1.743   0.141  1.00  0.00     0.033 C 
ENDROOT
BRANCH   1  19
HETATM   19  C3  UNL     1       2.476   0.250  -0.399  1.00  0.00     0.222 C 
BRANCH  19  20
HETATM   20  O2  UNL     1       3.544   1.083  -0.241  1.00  0.00    -0.318 OA
BRANCH  20  21
HETATM   21  C2  UNL     1       3.929   2.081   0.546  1.00  0.00     0.254 C 
HETATM   22  C1  UNL     1       5.272   2.785   0.415  1.00  0.00     0.126 C 
HETATM   23  O1  UNL     1       3.165   2.481   1.447  1.00  0.00    -0.266 OA
ENDBRANCH  20  21
ENDBRANCH  19  20
ENDBRANCH   1  19
BRANCH   1  24
HETATM   24  O3  UNL     1       3.287  -1.577   0.784  1.00  0.00    -0.382 OA
ATOM     25  H3  UNL     1       3.066  -2.235   1.433  1.00  0.00     0.211 HD
ENDBRANCH   1  24
TORSDOF 4
