REMARK  3 active torsions:
REMARK  status: ('A' for Active; 'I' for Inactive)
REMARK    1  A    between atoms: C2_2  and  C4_4 
REMARK    2  A    between atoms: C15_16  and  C16_17 
REMARK    3  A    between atoms: C16_17  and  O2_18 
ROOT
HETATM    1  C4  UNL     1       1.714  -0.350  -0.452  1.00  0.00     0.062 C 
HETATM    2  C5  UNL     1       0.750   0.406   0.006  1.00  0.00     0.021 C 
HETATM    3  C6  UNL     1      -0.243   0.325   1.180  1.00  0.00     0.061 C 
HETATM    4  C7  UNL     1      -0.802  -1.036   1.228  1.00  0.00     0.006 A 
HETATM    5  C8  UNL     1      -2.084  -1.560   1.606  1.00  0.00     0.015 A 
HETATM    6  C9  UNL     1      -1.550  -1.597   0.134  1.00  0.00    -0.039 A 
HETATM    7  C10 UNL     1      -1.302  -3.035  -0.375  1.00  0.00     0.015 C 
HETATM    8  C11 UNL     1      -2.360  -0.770  -0.776  1.00  0.00     0.019 C 
HETATM    9  C12 UNL     1      -1.621   0.066  -1.739  1.00  0.00     0.054 A 
HETATM   10  C13 UNL     1      -2.278   1.288  -2.313  1.00  0.00     0.079 A 
HETATM   11  C14 UNL     1      -1.183   1.336  -1.202  1.00  0.00     0.173 A 
HETATM   12  O1  UNL     1       0.002   1.873  -1.727  1.00  0.00    -0.312 OA
HETATM   13  C15 UNL     1       1.052   1.442  -0.927  1.00  0.00     0.221 C 
HETATM   14  O3  UNL     1       1.944   0.513  -1.504  1.00  0.00    -0.311 OA
HETATM   15  O4  UNL     1      -1.637   1.833  -0.059  1.00  0.00    -0.344 OA
HETATM   16  C17 UNL     1      -1.155   1.485   1.155  1.00  0.00     0.065 C 
HETATM   17  C18 UNL     1      -2.321   1.331   2.154  1.00  0.00     0.046 C 
HETATM   18  C19 UNL     1      -0.399   2.685   1.756  1.00  0.00     0.046 C 
ENDROOT
BRANCH   1  19
HETATM   19  C2  UNL     1       2.449  -1.649  -0.186  1.00  0.00     0.035 C 
HETATM   20  C1  UNL     1       3.940  -1.313   0.045  1.00  0.00     0.016 C 
HETATM   21  C3  UNL     1       2.330  -2.547  -1.373  1.00  0.00     0.016 C 
ENDBRANCH   1  19
BRANCH  13  22
HETATM   22  C16 UNL     1       1.942   2.632  -0.622  1.00  0.00     0.238 C 
BRANCH  22  23
HETATM   23  O2  UNL     1       2.976   2.389   0.226  1.00  0.00    -0.395 OA
ATOM     24  H2  UNL     1       3.533   3.134   0.417  1.00  0.00     0.209 HD
ENDBRANCH  22  23
ENDBRANCH  13  22
TORSDOF 3
