REMARK  3 active torsions:
REMARK  status: ('A' for Active; 'I' for Inactive)
REMARK    1  A    between atoms: C3_5  and  N2_6 
REMARK    2  A    between atoms: C7_10  and  C8_11 
REMARK    3  A    between atoms: C8_11  and  O1_12 
ROOT
HETATM    1  C1  UNL     1      -3.005   1.874   1.183  1.00  0.00     0.069 C 
HETATM    2  C2  UNL     1      -2.356   0.652   0.682  1.00  0.00     0.032 A 
HETATM    3  N1  UNL     1      -1.042   0.510   0.670  1.00  0.00    -0.195 N 
ATOM      4  H1  UNL     1      -0.479   1.284   1.024  1.00  0.00     0.184 HD
HETATM    5  C3  UNL     1      -0.394  -0.581   0.225  1.00  0.00     0.681 A 
HETATM    6  N3  UNL     1      -1.162  -1.582  -0.234  1.00  0.00    -0.185 N 
ATOM      7  H3  UNL     1      -0.722  -2.433  -0.584  1.00  0.00     0.185 HD
HETATM    8  C10 UNL     1      -2.490  -1.481  -0.240  1.00  0.00     0.094 A 
HETATM    9  C11 UNL     1      -3.179  -0.389   0.204  1.00  0.00    -0.001 A 
HETATM   10  C12 UNL     1      -4.648  -0.492   0.126  1.00  0.00     0.054 C 
HETATM   11  C13 UNL     1      -5.045  -1.358  -1.042  1.00  0.00     0.085 C 
HETATM   12  S1  UNL     1      -3.739  -2.652  -0.824  1.00  0.00    -0.111 SA
ENDROOT
BRANCH   5  13
HETATM   13  N2  UNL     1       1.017  -0.663   0.243  1.00  0.00    -0.217 N 
HETATM   14  C4  UNL     1       1.682  -1.819  -0.229  1.00  0.00     0.141 C 
HETATM   15  C5  UNL     1       2.999  -1.603  -0.871  1.00  0.00     0.021 C 
HETATM   16  C6  UNL     1       3.667  -0.312  -0.558  1.00  0.00     0.010 C 
HETATM   17  C7  UNL     1       2.745   0.841  -0.366  1.00  0.00     0.028 C 
HETATM   18  C9  UNL     1       1.767   0.455   0.752  1.00  0.00     0.148 C 
BRANCH  17  19
HETATM   19  C8  UNL     1       3.535   2.025   0.166  1.00  0.00     0.170 C 
BRANCH  19  20
HETATM   20  O1  UNL     1       4.510   2.350  -0.743  1.00  0.00    -0.400 OA
ATOM     21  H1  UNL     1       5.004   3.090  -0.410  1.00  0.00     0.209 HD
ENDBRANCH  19  20
ENDBRANCH  17  19
ENDBRANCH   5  13
TORSDOF 3
