REMARK  3 active torsions:
REMARK  status: ('A' for Active; 'I' for Inactive)
REMARK    1  A    between atoms: C2_3  and  O1_4 
REMARK    2  A    between atoms: N2_7  and  C4_8 
REMARK    3  A    between atoms: C4_8  and  C5_9 
ROOT
HETATM    1  C5  UNL     1      -0.381   1.027  -0.326  1.00  0.00     0.066 C 
HETATM    2  C6  UNL     1       0.037   1.409   1.012  1.00  0.00     0.071 C 
HETATM    3  N3  UNL     1       0.346   1.716   2.109  1.00  0.00    -0.196 NA
HETATM    4  C7  UNL     1      -1.416   2.073  -0.749  1.00  0.00     0.026 C 
HETATM    5  C8  UNL     1      -2.508   1.983   0.295  1.00  0.00     0.002 C 
HETATM    6  C9  UNL     1      -3.237   0.685  -0.025  1.00  0.00     0.009 C 
HETATM    7  C10 UNL     1      -2.348  -0.510   0.100  1.00  0.00    -0.046 C 
HETATM    8  C11 UNL     1      -2.412  -0.948   1.561  1.00  0.00     0.015 C 
HETATM    9  C12 UNL     1      -3.007  -1.646  -0.695  1.00  0.00     0.015 C 
HETATM   10  C13 UNL     1      -0.960  -0.356  -0.329  1.00  0.00     0.035 C 
ENDROOT
BRANCH   1  11
HETATM   11  C4  UNL     1       0.780   1.151  -1.274  1.00  0.00     0.158 C 
BRANCH  11  12
HETATM   12  N2  UNL     1       1.914   0.323  -0.944  1.00  0.00    -0.304 N 
HETATM   13  C3  UNL     1       2.028  -0.979  -1.318  1.00  0.00     0.151 A 
HETATM   14  C2  UNL     1       3.209  -1.481  -0.829  1.00  0.00     0.161 A 
HETATM   15  N1  UNL     1       3.796  -0.480  -0.166  1.00  0.00    -0.283 N 
HETATM   16  C1  UNL     1       5.077  -0.576   0.514  1.00  0.00     0.163 C 
HETATM   17  C14 UNL     1       3.012   0.601  -0.241  1.00  0.00     0.330 A 
HETATM   18  O2  UNL     1       3.284   1.740   0.289  1.00  0.00    -0.246 OA
BRANCH  14  19
HETATM   19  O1  UNL     1       3.690  -2.794  -1.002  1.00  0.00    -0.345 OA
ATOM     20  H1  UNL     1       3.273  -3.506  -1.473  1.00  0.00     0.219 HD
ENDBRANCH  14  19
ENDBRANCH  11  12
ENDBRANCH   1  11
TORSDOF 3
