REMARK  15 active torsions:
REMARK  status: ('A' for Active; 'I' for Inactive)
REMARK    1  A    between atoms: S1_2  and  N1_5 
REMARK    2  A    between atoms: N1_5  and  C2_7 
REMARK    3  A    between atoms: C2_7  and  C3_8 
REMARK    4  A    between atoms: C3_8  and  N2_9 
REMARK       I    between atoms: N2_9  and  C4_11 
REMARK    5  A    between atoms: C4_11  and  C5_13 
REMARK    6  A    between atoms: C6_16  and  S2_17 
REMARK    7  A    between atoms: S2_17  and  C7_20 
REMARK    8  A    between atoms: N6_25  and  C8_26 
REMARK    9  A    between atoms: C10_31  and  O6_32 
REMARK   10  A    between atoms: C11_34  and  O7_35 
REMARK   11  A    between atoms: C12_37  and  O8_38 
REMARK   12  A    between atoms: C14_43  and  N8_44 
REMARK   13  A    between atoms: N8_44  and  C15_46 
REMARK   14  A    between atoms: C15_46  and  C16_47 
REMARK   15  A    between atoms: C17_52  and  N11_53 
ROOT
HETATM    1  C5  UNL     1       2.899   0.802   0.848  1.00  0.00     0.136 A 
HETATM    2  N3  UNL     1       1.970   0.470   1.696  1.00  0.00    -0.334 N 
ATOM      3  H3  UNL     1       2.214  -0.092   2.511  1.00  0.00     0.167 HD
HETATM    4  C6  UNL     1       0.727   0.844   1.522  1.00  0.00     0.180 A 
HETATM    5  S3  UNL     1       0.834   1.729   0.069  1.00  0.00    -0.040 SA
HETATM    6  C14 UNL     1       2.541   1.552  -0.230  1.00  0.00     0.105 A 
ENDROOT
BRANCH   4   7
HETATM    7  S2  UNL     1      -0.908   0.479   2.637  1.00  0.00     0.250 S 
HETATM    8  O4  UNL     1      -1.254  -0.697   3.517  1.00  0.00    -0.214 OA
HETATM    9  O5  UNL     1      -1.879   2.321   2.552  1.00  0.00    -0.214 OA
BRANCH   7  10
HETATM   10  C7  UNL     1      -2.125   0.030   1.186  1.00  0.00     0.209 A 
HETATM   11  N4  UNL     1      -1.823  -0.211  -0.085  1.00  0.00    -0.271 N 
HETATM   12  N5  UNL     1      -2.874  -0.515  -0.759  1.00  0.00    -0.235 N 
ATOM     13  H4  UNL     1      -0.882  -0.161  -0.474  1.00  0.00     0.189 HD
HETATM   14  N6  UNL     1      -3.926  -0.500  -0.017  1.00  0.00    -0.215 N 
ATOM     15  H5  UNL     1      -2.875  -0.739  -1.754  1.00  0.00     0.208 HD
HETATM   16  C13 UNL     1      -3.524  -0.167   1.201  1.00  0.00     0.248 A 
HETATM   17  F1  UNL     1      -4.260  -0.012   2.351  1.00  0.00    -0.181 F 
BRANCH  14  18
HETATM   18  C8  UNL     1      -5.287  -0.786  -0.407  1.00  0.00     0.341 C 
HETATM   19  N7  UNL     1      -5.180  -1.706  -1.528  1.00  0.00    -0.047 N 
HETATM   20  C9  UNL     1      -6.407  -1.838  -2.245  1.00  0.00     0.269 C 
ATOM     21  H72 UNL     1      -4.418  -1.439  -2.151  1.00  0.00     0.279 HD
ATOM     22  H71 UNL     1      -4.832  -2.616  -1.225  1.00  0.00     0.279 HD
HETATM   23  C10 UNL     1      -7.581  -1.845  -1.289  1.00  0.00     0.175 C 
HETATM   24  C11 UNL     1      -7.150  -2.328   0.067  1.00  0.00     0.181 C 
HETATM   25  C12 UNL     1      -6.145  -1.342   0.682  1.00  0.00     0.201 C 
BRANCH  23  26
HETATM   26  O6  UNL     1      -8.048  -0.549  -1.176  1.00  0.00    -0.391 OA
ATOM     27  H6  UNL     1      -8.785  -0.553  -0.576  1.00  0.00     0.210 HD
ENDBRANCH  23  26
BRANCH  24  28
HETATM   28  O7  UNL     1      -6.600  -3.609   0.017  1.00  0.00    -0.390 OA
ATOM     29  H7  UNL     1      -6.328  -3.914   0.874  1.00  0.00     0.210 HD
ENDBRANCH  24  28
BRANCH  25  30
HETATM   30  O8  UNL     1      -6.946  -0.361   1.298  1.00  0.00    -0.389 OA
ATOM     31  H8  UNL     1      -7.492  -0.715   1.991  1.00  0.00     0.210 HD
ENDBRANCH  25  30
ENDBRANCH  14  18
ENDBRANCH   7  10
ENDBRANCH   4   7
BRANCH   1  32
HETATM   32  C4  UNL     1       4.309   0.355   1.087  1.00  0.00     0.271 C 
HETATM   33  N2  UNL     1       4.598  -0.422   2.229  1.00  0.00    -0.354 N 
ATOM     34  H2  UNL     1       3.848  -0.665   2.877  1.00  0.00     0.162 HD
HETATM   35  O3  UNL     1       5.227   0.645   0.315  1.00  0.00    -0.266 OA
BRANCH  33  36
HETATM   36  C3  UNL     1       5.935  -0.875   2.490  1.00  0.00     0.143 C 
BRANCH  36  37
HETATM   37  C2  UNL     1       6.478  -1.781   1.421  1.00  0.00     0.151 C 
BRANCH  37  38
HETATM   38  N1  UNL     1       5.619  -2.963   1.296  1.00  0.00    -0.318 N 
ATOM     39  H1  UNL     1       4.780  -3.155   1.843  1.00  0.00     0.172 HD
BRANCH  38  40
HETATM   40  S1  UNL     1       6.284  -3.980   0.051  1.00  0.00     0.222 S 
HETATM   41  C1  UNL     1       6.294  -3.128  -1.486  1.00  0.00     0.185 C 
HETATM   42  O1  UNL     1       7.695  -4.322   0.465  1.00  0.00    -0.206 OA
HETATM   43  O2  UNL     1       5.504  -5.261  -0.009  1.00  0.00    -0.206 OA
ENDBRANCH  38  40
ENDBRANCH  37  38
ENDBRANCH  36  37
ENDBRANCH  33  36
ENDBRANCH   1  32
BRANCH   6  44
HETATM   44  N8  UNL     1       3.283   2.071  -1.325  1.00  0.00    -0.375 N 
ATOM     45  H8  UNL     1       4.284   1.886  -1.393  1.00  0.00     0.160 HD
BRANCH  44  46
HETATM   46  C15 UNL     1       2.618   2.870  -2.355  1.00  0.00     0.198 C 
BRANCH  46  47
HETATM   47  C16 UNL     1       2.046   4.108  -1.801  1.00  0.00     0.130 A 
HETATM   48  N9  UNL     1       1.235   4.947  -2.458  1.00  0.00    -0.273 N 
HETATM   49  N10 UNL     1       0.914   5.957  -1.666  1.00  0.00    -0.131 N 
ATOM     50  H9  UNL     1       0.915   4.826  -3.419  1.00  0.00     0.189 HD
HETATM   51  C17 UNL     1       1.520   5.770  -0.495  1.00  0.00     0.691 A 
ATOM     52  H10 UNL     1       0.309   6.741  -1.910  1.00  0.00     0.205 HD
HETATM   53  N12 UNL     1       2.229   4.610  -0.583  1.00  0.00    -0.177 N 
ATOM     54  H12 UNL     1       2.800   4.199   0.155  1.00  0.00     0.185 HD
BRANCH  51  55
HETATM   55  N11 UNL     1       1.438   6.550   0.518  1.00  0.00    -0.233 N 
ATOM     56 2H11 UNL     1       0.907   7.418   0.584  1.00  0.00     0.174 HD
ATOM     57 1H11 UNL     1       1.902   6.407   1.415  1.00  0.00     0.174 HD
ENDBRANCH  51  55
ENDBRANCH  46  47
ENDBRANCH  44  46
ENDBRANCH   6  44
TORSDOF 15
