REMARK  21 active torsions:
REMARK  status: ('A' for Active; 'I' for Inactive)
REMARK    1  A    between atoms: C2_2  and  O1_3 
REMARK    2  A    between atoms: O1_3  and  C3_4 
REMARK    3  A    between atoms: C6_9  and  O2_10 
REMARK    4  A    between atoms: O2_10  and  C7_11 
REMARK    5  A    between atoms: C9_13  and  O3_14 
REMARK    6  A    between atoms: O3_14  and  C10_15 
REMARK    7  A    between atoms: C11_17  and  C12_18 
REMARK    8  A    between atoms: C12_18  and  N1_19 
REMARK    9  A    between atoms: C13_23  and  O5_24 
REMARK   10  A    between atoms: O5_24  and  C14_25 
REMARK   11  A    between atoms: C15_26  and  O6_27 
REMARK   12  A    between atoms: C16_29  and  O7_30 
REMARK   13  A    between atoms: C17_32  and  N2_33 
REMARK   14  A    between atoms: C18_37  and  O8_38 
REMARK   15  A    between atoms: C19_40  and  O9_41 
REMARK   16  A    between atoms: C20_43  and  C21_44 
REMARK   17  A    between atoms: C21_44  and  N3_45 
REMARK   18  A    between atoms: C22_50  and  N4_51 
REMARK   19  A    between atoms: C24_56  and  N5_57 
REMARK   20  A    between atoms: C25_62  and  C26_63 
REMARK   21  A    between atoms: C26_63  and  O12_64 
ROOT
HETATM    1  C10 UNL     1      -1.039  -0.044   0.089  1.00  0.00     0.414 C 
HETATM    2  O4  UNL     1      -2.048   0.577   0.813  1.00  0.00    -0.329 OA
HETATM    3  C11 UNL     1      -3.094   1.028   0.050  1.00  0.00     0.183 C 
HETATM    4  C13 UNL     1      -3.683  -0.150  -0.752  1.00  0.00     0.183 C 
HETATM    5  C20 UNL     1      -2.817  -1.371  -0.643  1.00  0.00     0.183 C 
HETATM    6  O10 UNL     1      -1.491  -0.980  -0.787  1.00  0.00    -0.329 OA
ENDROOT
BRANCH   1   7
HETATM    7  O3  UNL     1      -0.161  -0.647   1.001  1.00  0.00    -0.331 OA
BRANCH   7   8
HETATM    8  C9  UNL     1       1.053   0.003   1.134  1.00  0.00     0.160 C 
HETATM    9  C8  UNL     1       2.230  -0.848   0.714  1.00  0.00     0.068 C 
HETATM   10  C7  UNL     1       3.541  -0.197   1.031  1.00  0.00     0.157 C 
HETATM   11  C24 UNL     1       3.594   0.306   2.462  1.00  0.00     0.214 C 
HETATM   12  C23 UNL     1       2.421   1.175   2.787  1.00  0.00     0.070 C 
HETATM   13  C22 UNL     1       1.158   0.381   2.594  1.00  0.00     0.214 C 
BRANCH  10  14
HETATM   14  O2  UNL     1       4.629  -0.977   0.689  1.00  0.00    -0.348 OA
BRANCH  14  15
HETATM   15  C6  UNL     1       5.445  -0.351  -0.249  1.00  0.00     0.333 C 
HETATM   16  C5  UNL     1       5.445  -1.144  -1.504  1.00  0.00     0.294 C 
HETATM   17  C4  UNL     1       6.710  -1.084  -2.281  1.00  0.00     0.119 C 
HETATM   18  F1  UNL     1       4.363  -0.763  -2.296  1.00  0.00    -0.201 F 
HETATM   19  F2  UNL     1       5.188  -2.498  -1.211  1.00  0.00    -0.201 F 
HETATM   20  C3  UNL     1       7.380   0.247  -1.945  1.00  0.00     0.158 C 
HETATM   21  C25 UNL     1       7.674   0.267  -0.488  1.00  0.00     0.177 C 
HETATM   22  O11 UNL     1       6.661  -0.134   0.329  1.00  0.00    -0.345 OA
BRANCH  20  23
HETATM   23  O1  UNL     1       6.587   1.295  -2.333  1.00  0.00    -0.383 OA
BRANCH  23  24
HETATM   24  C2  UNL     1       7.117   2.081  -3.345  1.00  0.00     0.163 C 
HETATM   25  C1  UNL     1       8.413   2.673  -2.897  1.00  0.00     0.033 C 
ENDBRANCH  23  24
ENDBRANCH  20  23
BRANCH  21  26
HETATM   26  C26 UNL     1       8.907  -0.570  -0.223  1.00  0.00     0.198 C 
BRANCH  26  27
HETATM   27  O12 UNL     1       9.273  -0.388   1.122  1.00  0.00    -0.398 OA
ATOM     28  H12 UNL     1      10.047  -0.913   1.288  1.00  0.00     0.209 HD
ENDBRANCH  26  27
ENDBRANCH  21  26
ENDBRANCH  14  15
ENDBRANCH  10  14
BRANCH  11  29
HETATM   29  N5  UNL     1       3.623  -0.822   3.349  1.00  0.00    -0.072 N 
ATOM     30  H53 UNL     1       2.845  -1.463   3.190  1.00  0.00     0.274 HD
ATOM     31  H52 UNL     1       4.384  -1.467   3.134  1.00  0.00     0.274 HD
ATOM     32  H51 UNL     1       3.659  -0.484   4.311  1.00  0.00     0.274 HD
ENDBRANCH  11  29
BRANCH  13  33
HETATM   33  N4  UNL     1       0.030   1.265   2.884  1.00  0.00    -0.072 N 
ATOM     34  H43 UNL     1      -0.018   2.072   2.262  1.00  0.00     0.274 HD
ATOM     35  H42 UNL     1      -0.873   0.859   2.638  1.00  0.00     0.274 HD
ATOM     36  H41 UNL     1       0.101   1.520   3.869  1.00  0.00     0.274 HD
ENDBRANCH  13  33
ENDBRANCH   7   8
ENDBRANCH   1   7
BRANCH   3  37
HETATM   37  C12 UNL     1      -2.567   2.104  -0.871  1.00  0.00     0.264 C 
BRANCH  37  38
HETATM   38  N1  UNL     1      -3.584   2.691  -1.721  1.00  0.00    -0.077 N 
ATOM     39  H13 UNL     1      -4.070   1.969  -2.252  1.00  0.00     0.274 HD
ATOM     40  H12 UNL     1      -4.361   3.044  -1.162  1.00  0.00     0.274 HD
ATOM     41  H11 UNL     1      -3.228   3.417  -2.343  1.00  0.00     0.274 HD
ENDBRANCH  37  38
ENDBRANCH   3  37
BRANCH   5  42
HETATM   42  C21 UNL     1      -2.991  -2.351   0.403  1.00  0.00     0.264 C 
BRANCH  42  43
HETATM   43  N3  UNL     1      -2.650  -2.110   1.751  1.00  0.00    -0.077 N 
ATOM     44  H33 UNL     1      -1.674  -1.815   1.770  1.00  0.00     0.274 HD
ATOM     45  H32 UNL     1      -3.140  -1.264   2.042  1.00  0.00     0.274 HD
ATOM     46  H31 UNL     1      -2.773  -2.802   2.490  1.00  0.00     0.274 HD
ENDBRANCH  42  43
ENDBRANCH   5  42
BRANCH   4  47
HETATM   47  O5  UNL     1      -4.933  -0.213  -0.858  1.00  0.00    -0.370 OA
BRANCH  47  48
HETATM   48  C14 UNL     1      -6.147  -0.248  -1.067  1.00  0.00     0.184 C 
HETATM   49  C15 UNL     1      -6.853   0.875  -0.258  1.00  0.00     0.180 C 
HETATM   50  C16 UNL     1      -8.255   0.520   0.125  1.00  0.00     0.182 C 
HETATM   51  C17 UNL     1      -8.347  -0.685   1.008  1.00  0.00     0.245 C 
HETATM   52  C18 UNL     1      -7.207  -1.650   0.753  1.00  0.00     0.182 C 
HETATM   53  C19 UNL     1      -6.787  -1.597  -0.683  1.00  0.00     0.180 C 
BRANCH  49  54
HETATM   54  O6  UNL     1      -6.953   2.039  -1.041  1.00  0.00    -0.390 OA
ATOM     55  H6  UNL     1      -7.385   2.726  -0.546  1.00  0.00     0.210 HD
ENDBRANCH  49  54
BRANCH  50  56
HETATM   56  O7  UNL     1      -9.127   0.512  -0.958  1.00  0.00    -0.391 OA
ATOM     57  H7  UNL     1     -10.017   0.287  -0.715  1.00  0.00     0.210 HD
ENDBRANCH  50  56
BRANCH  51  58
HETATM   58  N2  UNL     1      -8.218  -0.280   2.405  1.00  0.00    -0.070 N 
ATOM     59  H23 UNL     1      -7.367   0.256   2.573  1.00  0.00     0.274 HD
ATOM     60  H22 UNL     1      -8.896   0.438   2.662  1.00  0.00     0.274 HD
ATOM     61  H21 UNL     1      -8.281  -1.101   3.007  1.00  0.00     0.274 HD
ENDBRANCH  51  58
BRANCH  52  62
HETATM   62  O8  UNL     1      -7.633  -2.948   1.008  1.00  0.00    -0.391 OA
ATOM     63  H8  UNL     1      -6.918  -3.553   0.848  1.00  0.00     0.210 HD
ENDBRANCH  52  62
BRANCH  53  64
HETATM   64  O9  UNL     1      -7.803  -1.965  -1.558  1.00  0.00    -0.390 OA
ATOM     65  H9  UNL     1      -8.197  -2.796  -1.321  1.00  0.00     0.210 HD
ENDBRANCH  53  64
ENDBRANCH  47  48
ENDBRANCH   4  47
TORSDOF 21
