REMARK  20 active torsions:
REMARK  status: ('A' for Active; 'I' for Inactive)
REMARK    1  A    between atoms: C2_2  and  O1_3 
REMARK    2  A    between atoms: O1_3  and  N1_4 
REMARK    3  A    between atoms: N1_4  and  C3_5 
REMARK    4  A    between atoms: N1_4  and  C4_7 
REMARK    5  A    between atoms: C4_7  and  C5_8 
REMARK    6  A    between atoms: C6_12  and  O3_13 
REMARK    7  A    between atoms: O3_13  and  C7_14 
REMARK    8  A    between atoms: C8_16  and  O5_17 
REMARK    9  A    between atoms: O5_17  and  C9_18 
REMARK   10  A    between atoms: C10_19  and  N3_20 
REMARK   11  A    between atoms: C13_26  and  C14_27 
REMARK   12  A    between atoms: C14_27  and  O6_28 
REMARK   13  A    between atoms: O6_28  and  C15_29 
REMARK   14  A    between atoms: C17_32  and  N4_33 
REMARK   15  A    between atoms: C19_38  and  N5_39 
REMARK   16  A    between atoms: C20_43  and  O8_44 
REMARK   17  A    between atoms: C21_46  and  N6_47 
REMARK   18  A    between atoms: C23_52  and  N7_53 
REMARK   19  A    between atoms: C24_57  and  N8_58 
REMARK   20  A    between atoms: C26_64  and  O9_65 
ROOT
HETATM    1  C7  UNL     1      -1.629   0.703   0.996  1.00  0.00     0.296 C 
HETATM    2  O4  UNL     1      -0.590   0.006   0.454  1.00  0.00    -0.327 OA
HETATM    3  C8  UNL     1       0.165   0.785  -0.426  1.00  0.00     0.294 C 
HETATM    4  C21 UNL     1      -0.800   1.758  -1.083  1.00  0.00     0.240 C 
HETATM    5  C22 UNL     1      -1.085   2.829  -0.010  1.00  0.00     0.075 C 
HETATM    6  C23 UNL     1      -1.073   2.093   1.345  1.00  0.00     0.240 C 
ENDROOT
BRANCH   3   7
HETATM    7  O5  UNL     1       0.871  -0.007  -1.292  1.00  0.00    -0.349 OA
BRANCH   7   8
HETATM    8  C9  UNL     1       2.249   0.327  -1.396  1.00  0.00     0.184 C 
HETATM    9  C10 UNL     1       2.576   0.535  -2.813  1.00  0.00     0.215 C 
HETATM   10  C11 UNL     1       3.987   0.404  -3.238  1.00  0.00     0.036 C 
HETATM   11  C12 UNL     1       4.895  -0.297  -2.263  1.00  0.00     0.011 C 
HETATM   12  C13 UNL     1       4.128  -1.362  -1.574  1.00  0.00     0.041 C 
HETATM   13  C20 UNL     1       3.066  -0.714  -0.701  1.00  0.00     0.155 C 
BRANCH   9  14
HETATM   14  N3  UNL     1       1.767  -0.422  -3.591  1.00  0.00    -0.072 N 
ATOM     15  H33 UNL     1       1.892  -1.388  -3.290  1.00  0.00     0.274 HD
ATOM     16  H32 UNL     1       0.768  -0.352  -3.397  1.00  0.00     0.274 HD
ATOM     17  H31 UNL     1       1.994  -0.278  -4.575  1.00  0.00     0.274 HD
ENDBRANCH   9  14
BRANCH  12  18
HETATM   18  C14 UNL     1       4.894  -2.435  -0.887  1.00  0.00     0.178 C 
BRANCH  18  19
HETATM   19  O6  UNL     1       5.737  -2.117   0.079  1.00  0.00    -0.359 OA
BRANCH  19  20
HETATM   20  C15 UNL     1       6.860  -1.410  -0.008  1.00  0.00     0.289 C 
HETATM   21  O7  UNL     1       7.981  -2.231   0.377  1.00  0.00    -0.357 OA
HETATM   22  C16 UNL     1       9.134  -1.633  -0.126  1.00  0.00     0.203 C 
HETATM   23  C17 UNL     1       9.386  -0.289   0.511  1.00  0.00     0.209 C 
HETATM   24  C18 UNL     1       8.263   0.157   1.388  1.00  0.00     0.072 C 
HETATM   25  C19 UNL     1       6.903  -0.276   0.968  1.00  0.00     0.240 C 
BRANCH  23  26
HETATM   26  N4  UNL     1       9.799   0.704  -0.471  1.00  0.00    -0.073 N 
ATOM     27  H43 UNL     1      10.610   0.387  -1.002  1.00  0.00     0.274 HD
ATOM     28  H42 UNL     1       9.126   0.775  -1.234  1.00  0.00     0.274 HD
ATOM     29  H41 UNL     1       9.969   1.613  -0.040  1.00  0.00     0.274 HD
ENDBRANCH  23  26
BRANCH  25  30
HETATM   30  N5  UNL     1       6.159  -0.725   2.158  1.00  0.00    -0.070 N 
ATOM     31  H53 UNL     1       5.213  -1.043   1.948  1.00  0.00     0.274 HD
ATOM     32  H52 UNL     1       6.504  -1.604   2.543  1.00  0.00     0.274 HD
ATOM     33  H51 UNL     1       6.188   0.048   2.823  1.00  0.00     0.274 HD
ENDBRANCH  25  30
ENDBRANCH  19  20
ENDBRANCH  18  19
ENDBRANCH  12  18
BRANCH  13  34
HETATM   34  O8  UNL     1       2.310  -1.709  -0.107  1.00  0.00    -0.392 OA
ATOM     35  H8  UNL     1       2.829  -2.371   0.335  1.00  0.00     0.210 HD
ENDBRANCH  13  34
ENDBRANCH   7   8
ENDBRANCH   3   7
BRANCH   4  36
HETATM   36  N6  UNL     1      -0.245   2.448  -2.219  1.00  0.00    -0.070 N 
ATOM     37  H63 UNL     1       0.623   2.919  -1.964  1.00  0.00     0.274 HD
ATOM     38  H62 UNL     1       0.116   1.783  -2.903  1.00  0.00     0.274 HD
ATOM     39  H61 UNL     1      -0.893   3.101  -2.660  1.00  0.00     0.274 HD
ENDBRANCH   4  36
BRANCH   1  40
HETATM   40  O3  UNL     1      -2.312   0.093   2.032  1.00  0.00    -0.324 OA
BRANCH  40  41
HETATM   41  C6  UNL     1      -3.685   0.154   1.847  1.00  0.00     0.357 C 
HETATM   42  N2  UNL     1      -4.288  -1.144   1.450  1.00  0.00    -0.038 N 
HETATM   43  C5  UNL     1      -5.489  -0.706   0.698  1.00  0.00     0.240 C 
ATOM     44  H22 UNL     1      -4.470  -1.789   2.219  1.00  0.00     0.281 HD
ATOM     45  H21 UNL     1      -3.666  -1.773   0.943  1.00  0.00     0.281 HD
HETATM   46  C26 UNL     1      -6.490  -0.318   1.794  1.00  0.00     0.186 C 
HETATM   47  C25 UNL     1      -5.847   0.100   3.068  1.00  0.00     0.235 C 
HETATM   48  C24 UNL     1      -4.454   0.668   2.982  1.00  0.00     0.275 C 
HETATM   49  F1  UNL     1      -5.898  -0.949   3.978  1.00  0.00    -0.244 F 
BRANCH  43  50
HETATM   50  C4  UNL     1      -6.049  -1.742  -0.205  1.00  0.00     0.194 C 
BRANCH  50  51
HETATM   51  N1  UNL     1      -7.183  -1.127  -0.962  1.00  0.00    -0.232 N 
BRANCH  51  52
HETATM   52  O1  UNL     1      -8.372  -1.063  -0.730  1.00  0.00    -0.276 OA
BRANCH  52  53
HETATM   53  C2  UNL     1      -9.591  -1.077  -0.473  1.00  0.00     0.197 C 
HETATM   54  C1  UNL     1     -10.362   0.251  -0.646  1.00  0.00     0.036 C 
ENDBRANCH  52  53
ENDBRANCH  51  52
BRANCH  51  55
HETATM   55  C3  UNL     1      -6.634  -0.515  -2.215  1.00  0.00     0.376 C 
HETATM   56  O2  UNL     1      -7.381   0.048  -3.013  1.00  0.00    -0.281 OA
ENDBRANCH  51  55
ENDBRANCH  50  51
ENDBRANCH  43  50
BRANCH  46  57
HETATM   57  O9  UNL     1      -7.256  -1.470   2.116  1.00  0.00    -0.390 OA
ATOM     58  H9  UNL     1      -7.876  -1.230   2.795  1.00  0.00     0.210 HD
ENDBRANCH  46  57
BRANCH  48  59
HETATM   59  N8  UNL     1      -3.776   0.393   4.273  1.00  0.00    -0.068 N 
ATOM     60  H83 UNL     1      -3.571  -0.600   4.382  1.00  0.00     0.275 HD
ATOM     61  H82 UNL     1      -2.822   0.753   4.276  1.00  0.00     0.275 HD
ATOM     62  H81 UNL     1      -4.312   0.751   5.064  1.00  0.00     0.275 HD
ENDBRANCH  48  59
ENDBRANCH  40  41
ENDBRANCH   1  40
BRANCH   6  63
HETATM   63  N7  UNL     1      -1.857   2.796   2.304  1.00  0.00    -0.070 N 
ATOM     64  H73 UNL     1      -2.828   2.862   1.997  1.00  0.00     0.274 HD
ATOM     65  H72 UNL     1      -1.983   2.236   3.147  1.00  0.00     0.274 HD
ATOM     66  H71 UNL     1      -1.488   3.718   2.536  1.00  0.00     0.274 HD
ENDBRANCH   6  63
TORSDOF 20
