REMARK  21 active torsions:
REMARK  status: ('A' for Active; 'I' for Inactive)
REMARK    1  A    between atoms: N1_1  and  C1_5 
REMARK    2  A    between atoms: C1_5  and  C2_6 
REMARK    3  A    between atoms: C3_8  and  O2_9 
REMARK    4  A    between atoms: O2_9  and  C4_10 
REMARK    5  A    between atoms: C5_12  and  O4_13 
REMARK    6  A    between atoms: O4_13  and  C6_14 
REMARK    7  A    between atoms: C7_16  and  C8_17 
REMARK    8  A    between atoms: C8_17  and  O7_19 
REMARK    9  A    between atoms: O7_19  and  C9_20 
REMARK   10  A    between atoms: C9_20  and  C10_21 
REMARK   11  A    between atoms: C10_21  and  C11_22 
REMARK   12  A    between atoms: C11_22  and  C12_23 
REMARK   13  A    between atoms: C13_25  and  O8_26 
REMARK   14  A    between atoms: C14_28  and  O9_29 
REMARK   15  A    between atoms: C15_31  and  N2_32 
REMARK   16  A    between atoms: C16_36  and  N3_37 
REMARK   17  A    between atoms: C18_42  and  N4_43 
REMARK   18  A    between atoms: C19_47  and  O10_48 
REMARK   19  A    between atoms: O10_48  and  C20_49 
REMARK   20  A    between atoms: C23_55  and  N6_56 
REMARK   21  A    between atoms: C24_61  and  O12_62 
ROOT
HETATM    1  C4  UNL     1      -1.353  -1.204   1.833  1.00  0.00     0.296 C 
HETATM    2  O3  UNL     1       0.001  -0.869   1.923  1.00  0.00    -0.327 OA
HETATM    3  C5  UNL     1       0.829  -2.021   2.029  1.00  0.00     0.296 C 
HETATM    4  C16 UNL     1       0.070  -2.982   2.877  1.00  0.00     0.240 C 
HETATM    5  C17 UNL     1      -0.982  -3.616   1.963  1.00  0.00     0.075 C 
HETATM    6  C18 UNL     1      -1.625  -2.509   1.168  1.00  0.00     0.240 C 
ENDROOT
BRANCH   1   7
HETATM    7  O2  UNL     1      -1.933  -0.108   1.152  1.00  0.00    -0.324 OA
BRANCH   7   8
HETATM    8  C3  UNL     1      -2.821   0.600   1.971  1.00  0.00     0.318 C 
HETATM    9  O1  UNL     1      -2.307   1.872   2.254  1.00  0.00    -0.344 OA
HETATM   10  C2  UNL     1      -2.921   2.867   1.513  1.00  0.00     0.205 C 
HETATM   11  C24 UNL     1      -4.416   2.878   1.674  1.00  0.00     0.290 C 
HETATM   12  O11 UNL     1      -4.892   1.661   2.166  1.00  0.00    -0.324 OA
HETATM   13  C19 UNL     1      -4.227   0.627   1.452  1.00  0.00     0.321 C 
BRANCH  10  14
HETATM   14  C1  UNL     1      -2.384   4.195   1.980  1.00  0.00     0.266 C 
BRANCH  14  15
HETATM   15  N1  UNL     1      -2.645   4.415   3.388  1.00  0.00    -0.077 N 
ATOM     16  H13 UNL     1      -3.638   4.320   3.601  1.00  0.00     0.274 HD
ATOM     17  H12 UNL     1      -2.286   3.648   3.957  1.00  0.00     0.274 HD
ATOM     18  H11 UNL     1      -2.281   5.314   3.704  1.00  0.00     0.274 HD
ENDBRANCH  14  15
ENDBRANCH  10  14
BRANCH  11  19
HETATM   19  O12 UNL     1      -4.880   3.919   2.469  1.00  0.00    -0.368 OA
ATOM     20  H12 UNL     1      -5.825   3.926   2.571  1.00  0.00     0.212 HD
ENDBRANCH  11  19
BRANCH  13  21
HETATM   21  O10 UNL     1      -4.322   0.983   0.110  1.00  0.00    -0.322 OA
BRANCH  21  22
HETATM   22  C20 UNL     1      -5.044   0.061  -0.605  1.00  0.00     0.353 C 
HETATM   23  N5  UNL     1      -4.340  -0.515  -1.704  1.00  0.00    -0.047 N 
HETATM   24  C21 UNL     1      -5.365  -1.172  -2.491  1.00  0.00     0.237 C 
ATOM     25  H52 UNL     1      -3.775   0.151  -2.231  1.00  0.00     0.280 HD
ATOM     26  H51 UNL     1      -3.571  -1.126  -1.430  1.00  0.00     0.280 HD
HETATM   27  C22 UNL     1      -6.684  -0.524  -2.153  1.00  0.00     0.065 C 
HETATM   28  C23 UNL     1      -6.259   0.666  -1.282  1.00  0.00     0.241 C 
BRANCH  28  29
HETATM   29  N6  UNL     1      -5.867   1.752  -2.132  1.00  0.00    -0.071 N 
ATOM     30  H63 UNL     1      -5.325   2.453  -1.627  1.00  0.00     0.274 HD
ATOM     31  H62 UNL     1      -5.157   1.469  -2.807  1.00  0.00     0.274 HD
ATOM     32  H61 UNL     1      -6.684   2.159  -2.587  1.00  0.00     0.274 HD
ENDBRANCH  28  29
ENDBRANCH  21  22
ENDBRANCH  13  21
ENDBRANCH   7   8
ENDBRANCH   1   7
BRANCH   6  33
HETATM   33  N4  UNL     1      -3.047  -2.768   1.173  1.00  0.00    -0.070 N 
ATOM     34  H43 UNL     1      -3.443  -2.725   2.112  1.00  0.00     0.274 HD
ATOM     35  H42 UNL     1      -3.579  -2.005   0.755  1.00  0.00     0.274 HD
ATOM     36  H41 UNL     1      -3.233  -3.662   0.718  1.00  0.00     0.274 HD
ENDBRANCH   6  33
BRANCH   3  37
HETATM   37  O4  UNL     1       1.046  -2.405   0.716  1.00  0.00    -0.327 OA
BRANCH  37  38
HETATM   38  C6  UNL     1       2.331  -2.152   0.283  1.00  0.00     0.297 C 
HETATM   39  O5  UNL     1       2.327  -1.175  -0.741  1.00  0.00    -0.341 OA
HETATM   40  C7  UNL     1       3.565  -1.007  -1.299  1.00  0.00     0.255 C 
HETATM   41  C13 UNL     1       4.699  -1.703  -0.634  1.00  0.00     0.188 C 
HETATM   42  C14 UNL     1       4.450  -3.139  -0.341  1.00  0.00     0.185 C 
HETATM   43  C15 UNL     1       2.939  -3.384  -0.313  1.00  0.00     0.269 C 
BRANCH  40  44
HETATM   44  C8  UNL     1       3.891   0.434  -1.514  1.00  0.00     0.290 C 
HETATM   45  O6  UNL     1       3.007   1.271  -1.197  1.00  0.00    -0.262 OA
BRANCH  44  46
HETATM   46  O7  UNL     1       5.065   0.910  -2.023  1.00  0.00    -0.319 OA
BRANCH  46  47
HETATM   47  C9  UNL     1       5.329   2.300  -2.209  1.00  0.00     0.178 C 
BRANCH  47  48
HETATM   48  C10 UNL     1       6.719   2.430  -2.772  1.00  0.00     0.028 C 
BRANCH  48  49
HETATM   49  C11 UNL     1       7.118   3.853  -3.012  1.00  0.00     0.017 C 
BRANCH  49  50
HETATM   50  C12 UNL     1       7.090   4.683  -1.747  1.00  0.00     0.115 C 
HETATM   51 CL1  UNL     1       7.576   6.350  -2.137  1.00  0.00    -0.130 Cl
ENDBRANCH  49  50
ENDBRANCH  48  49
ENDBRANCH  47  48
ENDBRANCH  46  47
ENDBRANCH  44  46
ENDBRANCH  40  44
BRANCH  41  52
HETATM   52  O8  UNL     1       5.235  -0.996   0.448  1.00  0.00    -0.390 OA
ATOM     53  H8  UNL     1       5.959  -1.441   0.873  1.00  0.00     0.210 HD
ENDBRANCH  41  52
BRANCH  42  54
HETATM   54  O9  UNL     1       5.086  -4.019  -1.208  1.00  0.00    -0.391 OA
ATOM     55  H9  UNL     1       4.927  -4.937  -1.021  1.00  0.00     0.210 HD
ENDBRANCH  42  54
BRANCH  43  56
HETATM   56  N2  UNL     1       2.740  -4.563   0.499  1.00  0.00    -0.068 N 
ATOM     57  H23 UNL     1       3.080  -4.412   1.449  1.00  0.00     0.275 HD
ATOM     58  H22 UNL     1       1.750  -4.705   0.697  1.00  0.00     0.275 HD
ATOM     59  H21 UNL     1       3.154  -5.402   0.093  1.00  0.00     0.275 HD
ENDBRANCH  43  56
ENDBRANCH  37  38
ENDBRANCH   3  37
BRANCH   4  60
HETATM   60  N3  UNL     1       0.868  -3.969   3.561  1.00  0.00    -0.070 N 
ATOM     61  H33 UNL     1       1.447  -4.476   2.891  1.00  0.00     0.274 HD
ATOM     62  H32 UNL     1       1.592  -3.511   4.115  1.00  0.00     0.274 HD
ATOM     63  H31 UNL     1       0.348  -4.627   4.142  1.00  0.00     0.274 HD
ENDBRANCH   4  60
TORSDOF 21
