REMARK  5 active torsions:
REMARK  status: ('A' for Active; 'I' for Inactive)
REMARK       I    between atoms: C1_2  and  N1_3 
REMARK    1  A    between atoms: C1_2  and  C10_14 
REMARK    2  A    between atoms: N1_3  and  C2_5 
REMARK    3  A    between atoms: C2_5  and  C3_6 
REMARK    4  A    between atoms: C3_6  and  S1_7 
REMARK    5  A    between atoms: S1_7  and  C4_8 
ROOT
HETATM    1  O1  UNL     1       2.502  -0.407   1.382  1.00  0.00    -0.273 OA
HETATM    2  C1  UNL     1       2.595   0.139   0.265  1.00  0.00     0.221 C 
HETATM    3  N1  UNL     1       1.529   0.063  -0.650  1.00  0.00    -0.360 N 
ATOM      4  H1  UNL     1       1.626   0.509  -1.562  1.00  0.00     0.162 HD
ENDROOT
BRANCH   3   5
HETATM    5  C2  UNL     1       0.312  -0.623  -0.335  1.00  0.00     0.132 C 
BRANCH   5   6
HETATM    6  C3  UNL     1      -0.378   0.041   0.824  1.00  0.00     0.094 C 
BRANCH   6   7
HETATM    7  S1  UNL     1      -1.940  -0.801   1.233  1.00  0.00    -0.163 SA
BRANCH   7   8
HETATM    8  C4  UNL     1      -3.087  -0.560  -0.179  1.00  0.00     0.047 C 
HETATM    9  C5  UNL     1      -3.462   0.883  -0.327  1.00  0.00     0.015 C 
HETATM   10  C6  UNL     1      -4.619   1.311   0.511  1.00  0.00     0.001 C 
HETATM   11  C7  UNL     1      -5.804   0.431   0.130  1.00  0.00     0.000 C 
HETATM   12  C8  UNL     1      -5.436  -0.972   0.633  1.00  0.00     0.001 C 
HETATM   13  C9  UNL     1      -4.247  -1.497  -0.101  1.00  0.00     0.015 C 
ENDBRANCH   7   8
ENDBRANCH   6   7
ENDBRANCH   5   6
ENDBRANCH   3   5
BRANCH   2  14
HETATM   14  C10 UNL     1       3.860   0.863  -0.057  1.00  0.00     0.078 C 
HETATM   15  C11 UNL     1       4.565   0.315  -1.256  1.00  0.00     0.014 C 
HETATM   16  C12 UNL     1       5.445  -0.770  -0.671  1.00  0.00     0.001 C 
HETATM   17  C13 UNL     1       6.023  -0.032   0.544  1.00  0.00     0.001 C 
HETATM   18  C14 UNL     1       4.810   0.691   1.100  1.00  0.00     0.014 C 
ENDBRANCH   2  14
TORSDOF 5
