REMARK  7 active torsions:
REMARK  status: ('A' for Active; 'I' for Inactive)
REMARK    1  A    between atoms: O1_1  and  C1_3 
REMARK    2  A    between atoms: N1_7  and  C5_8 
REMARK    3  A    between atoms: C5_8  and  C6_9 
REMARK    4  A    between atoms: C6_9  and  C7_10 
REMARK    5  A    between atoms: C7_10  and  C8_11 
REMARK    6  A    between atoms: C8_11  and  C9_12 
REMARK    7  A    between atoms: C9_12  and  C10_13 
ROOT
HETATM    1  C6  UNL     1      -1.013   1.347   0.678  1.00  0.00     0.020 C 
ENDROOT
BRANCH   1   2
HETATM    2  C5  UNL     1      -1.770   0.731  -0.449  1.00  0.00     0.122 C 
BRANCH   2   3
HETATM    3  N1  UNL     1      -2.676  -0.304  -0.122  1.00  0.00    -0.391 N 
HETATM    4  C4  UNL     1      -3.352  -0.879  -1.250  1.00  0.00     0.122 C 
HETATM    5  C3  UNL     1      -4.776  -0.486  -1.409  1.00  0.00     0.023 C 
HETATM    6  C2  UNL     1      -5.535  -0.628  -0.119  1.00  0.00     0.039 C 
HETATM    7  C1  UNL     1      -4.837   0.288   0.894  1.00  0.00     0.156 C 
HETATM    8  C16 UNL     1      -3.427  -0.214   1.060  1.00  0.00     0.089 C 
BRANCH   7   9
HETATM    9  O1  UNL     1      -5.499   0.092   2.105  1.00  0.00    -0.390 OA
ATOM     10  H1  UNL     1      -5.067   0.659   2.732  1.00  0.00     0.210 HD
ENDBRANCH   7   9
ENDBRANCH   2   3
ENDBRANCH   1   2
BRANCH   1  11
HETATM   11  C7  UNL     1      -0.163   0.372   1.434  1.00  0.00     0.002 C 
BRANCH  11  12
HETATM   12  C8  UNL     1       0.871  -0.295   0.579  1.00  0.00     0.000 C 
BRANCH  12  13
HETATM   13  C9  UNL     1       1.848   0.656  -0.060  1.00  0.00     0.004 C 
BRANCH  13  14
HETATM   14  C10 UNL     1       2.838  -0.143  -0.894  1.00  0.00    -0.014 C 
HETATM   15  C11 UNL     1       3.844   0.763  -1.559  1.00  0.00     0.004 C 
HETATM   16  C12 UNL     1       5.029   1.043  -0.631  1.00  0.00     0.000 C 
HETATM   17  C13 UNL     1       5.766  -0.203  -0.265  1.00  0.00     0.000 C 
HETATM   18  C14 UNL     1       4.941  -1.440  -0.548  1.00  0.00     0.000 C 
HETATM   19  C15 UNL     1       3.527  -1.177  -0.037  1.00  0.00     0.004 C 
ENDBRANCH  13  14
ENDBRANCH  12  13
ENDBRANCH  11  12
ENDBRANCH   1  11
TORSDOF 7
