REMARK  6 active torsions:
REMARK  status: ('A' for Active; 'I' for Inactive)
REMARK    1  A    between atoms: C6_7  and  C7_8 
REMARK    2  A    between atoms: C7_8  and  C8_9 
REMARK    3  A    between atoms: C8_9  and  C9_10 
REMARK    4  A    between atoms: C9_10  and  C10_11 
REMARK    5  A    between atoms: C10_11  and  N2_12 
REMARK    6  A    between atoms: N2_12  and  C11_15 
ROOT
HETATM    1  C9  UNL     1       0.018   1.796   0.067  1.00  0.00     0.027 C 
ENDROOT
BRANCH   1   2
HETATM    2  C8  UNL     1      -1.333   1.382  -0.438  1.00  0.00     0.004 C 
BRANCH   2   3
HETATM    3  C7  UNL     1      -1.657   0.010   0.047  1.00  0.00     0.025 C 
BRANCH   3   4
HETATM    4  C6  UNL     1      -3.043  -0.442  -0.444  1.00  0.00     0.083 C 
HETATM    5  N1  UNL     1      -4.090   0.387  -0.014  1.00  0.00    -0.393 N 
HETATM    6  C1  UNL     1      -4.683   1.212  -1.036  1.00  0.00     0.149 C 
HETATM    7  C2  UNL     1      -4.947  -0.043   1.002  1.00  0.00     0.058 C 
HETATM    8  C3  UNL     1      -5.180  -1.521   1.100  1.00  0.00     0.044 C 
HETATM    9  C4  UNL     1      -3.800  -2.173   1.165  1.00  0.00     0.007 C 
HETATM   10  C5  UNL     1      -3.156  -1.900  -0.176  1.00  0.00     0.025 C 
ENDBRANCH   3   4
ENDBRANCH   2   3
ENDBRANCH   1   2
BRANCH   1  11
HETATM   11  C10 UNL     1       1.142   0.877  -0.399  1.00  0.00     0.232 C 
BRANCH  11  12
HETATM   12  N2  UNL     1       2.373   1.406   0.141  1.00  0.00    -0.071 N 
ATOM     13  H22 UNL     1       2.475   2.394  -0.090  1.00  0.00     0.277 HD
ATOM     14  H21 UNL     1       2.323   1.475   1.157  1.00  0.00     0.277 HD
BRANCH  12  15
HETATM   15  C11 UNL     1       3.527   0.670  -0.261  1.00  0.00     0.185 C 
HETATM   16  C12 UNL     1       3.518  -0.744   0.237  1.00  0.00     0.033 C 
HETATM   17  C13 UNL     1       4.637  -1.527  -0.426  1.00  0.00     0.002 C 
HETATM   18  C14 UNL     1       5.699  -0.560  -0.884  1.00  0.00     0.000 C 
HETATM   19  C15 UNL     1       5.936   0.512   0.137  1.00  0.00     0.002 C 
HETATM   20  C16 UNL     1       4.749   1.422   0.255  1.00  0.00     0.033 C 
ENDBRANCH  12  15
ENDBRANCH  11  12
ENDBRANCH   1  11
TORSDOF 6
