REMARK  7 active torsions:
REMARK  status: ('A' for Active; 'I' for Inactive)
REMARK    1  A    between atoms: N1_7  and  C7_8 
REMARK    2  A    between atoms: C7_8  and  C8_9 
REMARK    3  A    between atoms: C8_9  and  C9_10 
REMARK    4  A    between atoms: C9_10  and  C10_11 
REMARK    5  A    between atoms: C10_11  and  C11_12 
REMARK    6  A    between atoms: C14_15  and  C15_16 
REMARK    7  A    between atoms: C15_16  and  N2_17 
ROOT
HETATM    1  C10 UNL     1      -1.415   0.004   0.848  1.00  0.00     0.005 C 
ENDROOT
BRANCH   1   2
HETATM    2  C9  UNL     1      -0.301  -0.839   0.289  1.00  0.00     0.002 C 
BRANCH   2   3
HETATM    3  C8  UNL     1       1.045  -0.142   0.419  1.00  0.00     0.020 C 
BRANCH   3   4
HETATM    4  C7  UNL     1       2.130  -1.003  -0.143  1.00  0.00     0.122 C 
BRANCH   4   5
HETATM    5  N1  UNL     1       3.437  -0.409  -0.054  1.00  0.00    -0.385 N 
HETATM    6  C2  UNL     1       4.186   0.023  -1.185  1.00  0.00    -0.003 C 
HETATM    7  C1  UNL     1       3.496   0.353  -2.275  1.00  0.00     0.038 C 
HETATM    8  C3  UNL     1       5.673   0.109  -1.168  1.00  0.00     0.056 C 
HETATM    9  C4  UNL     1       6.198   0.519   0.185  1.00  0.00     0.007 C 
HETATM   10  C5  UNL     1       5.051   0.929   1.083  1.00  0.00     0.020 C 
HETATM   11  C6  UNL     1       4.062  -0.223   1.243  1.00  0.00     0.122 C 
ENDBRANCH   4   5
ENDBRANCH   3   4
ENDBRANCH   2   3
ENDBRANCH   1   2
BRANCH   1  12
HETATM   12  C11 UNL     1      -2.715  -0.755   0.685  1.00  0.00    -0.014 C 
HETATM   13  C12 UNL     1      -2.984  -1.036  -0.764  1.00  0.00     0.005 C 
HETATM   14  C13 UNL     1      -4.418  -0.535  -1.001  1.00  0.00     0.007 C 
HETATM   15  C14 UNL     1      -4.542   0.595  -0.009  1.00  0.00     0.011 C 
HETATM   16  C16 UNL     1      -3.839   0.075   1.212  1.00  0.00     0.011 C 
BRANCH  15  17
HETATM   17  C15 UNL     1      -5.991   0.821   0.389  1.00  0.00     0.234 C 
BRANCH  17  18
HETATM   18  N2  UNL     1      -6.726   1.147  -0.817  1.00  0.00    -0.079 N 
ATOM     19  H23 UNL     1      -6.326   1.934  -1.327  1.00  0.00     0.274 HD
ATOM     20  H22 UNL     1      -6.619   0.446  -1.550  1.00  0.00     0.274 HD
ATOM     21  H21 UNL     1      -7.699   1.299  -0.550  1.00  0.00     0.274 HD
ENDBRANCH  17  18
ENDBRANCH  15  17
ENDBRANCH   1  12
TORSDOF 7
