REMARK  5 active torsions:
REMARK  status: ('A' for Active; 'I' for Inactive)
REMARK    1  A    between atoms: N1_1  and  C1_4 
REMARK    2  A    between atoms: N3_8  and  N4_10 
REMARK    3  A    between atoms: C3_12  and  C4_13 
REMARK    4  A    between atoms: C5_14  and  C6_15 
REMARK    5  A    between atoms: C6_15  and  N5_16 
ROOT
HETATM    1  C1  UNL     1       5.758   0.967   1.730  1.00  0.00     0.679 A 
HETATM    2  N2  UNL     1       4.478   0.795   1.804  1.00  0.00    -0.173 N 
ATOM      3  H2  UNL     1       4.216   1.186   2.709  1.00  0.00     0.186 HD
HETATM    4  C2  UNL     1       3.390   0.380   1.306  1.00  0.00     0.166 A 
HETATM    5  N3  UNL     1       2.373  -0.005   0.834  1.00  0.00    -0.283 N 
ATOM      6  H3  UNL     1       1.825  -0.508   1.531  1.00  0.00     0.188 HD
HETATM    7  C11 UNL     1       4.204  -0.153  -0.090  1.00  0.00     0.124 A 
HETATM    8  N7  UNL     1       3.625  -0.802  -1.060  1.00  0.00    -0.346 N 
ATOM      9  H7  UNL     1       2.632  -1.023  -1.132  1.00  0.00     0.167 HD
HETATM   10  C12 UNL     1       4.614  -1.137  -1.979  1.00  0.00     0.182 A 
HETATM   11  N8  UNL     1       5.771  -0.645  -1.468  1.00  0.00    -0.336 N 
ATOM     12  H8  UNL     1       6.694  -0.717  -1.895  1.00  0.00     0.168 HD
HETATM   13  C13 UNL     1       5.478  -0.033  -0.272  1.00  0.00     0.152 A 
HETATM   14  N9  UNL     1       6.347   0.515   0.573  1.00  0.00    -0.174 N 
ATOM     15  H9  UNL     1       7.346   0.592   0.382  1.00  0.00     0.186 HD
ENDROOT
BRANCH   5  16
HETATM   16  N4  UNL     1       1.720   0.022  -0.352  1.00  0.00    -0.310 N 
HETATM   17  C3  UNL     1       0.421  -0.193  -0.374  1.00  0.00     0.107 C 
ATOM     18  H4  UNL     1       2.228   0.206  -1.217  1.00  0.00     0.186 HD
BRANCH  17  19
HETATM   19  C4  UNL     1      -0.268  -0.460   0.835  1.00  0.00     0.016 C 
HETATM   20  C5  UNL     1      -1.565  -0.618   0.891  1.00  0.00     0.004 C 
BRANCH  20  21
HETATM   21  C6  UNL     1      -2.398  -0.501  -0.331  1.00  0.00     0.300 C 
BRANCH  21  22
HETATM   22  N5  UNL     1      -3.459   0.473   0.049  1.00  0.00     0.095 N 
HETATM   23  C7  UNL     1      -4.117   0.995  -1.120  1.00  0.00     0.300 C 
HETATM   24  C8  UNL     1      -5.653   0.951  -0.928  1.00  0.00     0.262 C 
HETATM   25  N6  UNL     1      -5.980  -0.466  -1.107  1.00  0.00    -0.072 N 
HETATM   26  C9  UNL     1      -5.333  -1.202  -0.038  1.00  0.00     0.262 C 
ATOM     27  H62 UNL     1      -6.984  -0.639  -1.158  1.00  0.00     0.277 HD
ATOM     28  H61 UNL     1      -5.737  -0.816  -2.034  1.00  0.00     0.277 HD
HETATM   29  C10 UNL     1      -4.444  -0.321   0.825  1.00  0.00     0.300 C 
ENDBRANCH  21  22
ENDBRANCH  20  21
ENDBRANCH  17  19
ENDBRANCH   5  16
BRANCH   1  30
HETATM   30  N1  UNL     1       6.442   1.564   2.643  1.00  0.00    -0.234 N 
ATOM     31  H12 UNL     1       6.005   1.899   3.501  1.00  0.00     0.174 HD
ATOM     32  H11 UNL     1       7.451   1.700   2.585  1.00  0.00     0.174 HD
ENDBRANCH   1  30
TORSDOF 5
