REMARK  8 active torsions:
REMARK  status: ('A' for Active; 'I' for Inactive)
REMARK    1  A    between atoms: C2_3  and  C3_4 
REMARK    2  A    between atoms: C3_4  and  C4_5 
REMARK    3  A    between atoms: C4_5  and  C5_6 
REMARK    4  A    between atoms: C5_6  and  N2_7 
REMARK    5  A    between atoms: C9_19  and  N5_20 
REMARK    6  A    between atoms: N7_26  and  C11_27 
REMARK    7  A    between atoms: C11_27  and  C12_28 
REMARK    8  A    between atoms: C13_29  and  N8_30 
ROOT
HETATM    1  C1  UNL     1      -0.589  -0.737  -2.624  1.00  0.00     0.159 C 
HETATM    2  N1  UNL     1      -0.726   0.120  -1.452  1.00  0.00    -0.325 N 
HETATM    3  C2  UNL     1      -1.850   0.621  -0.910  1.00  0.00     0.085 A 
HETATM    4  N3  UNL     1      -1.515   1.365   0.170  1.00  0.00    -0.342 N 
ATOM      5  H3  UNL     1      -2.175   1.861   0.769  1.00  0.00     0.167 HD
HETATM    6  C6  UNL     1      -0.187   1.351   0.332  1.00  0.00     0.098 A 
HETATM    7  C7  UNL     1       0.878   1.793   1.092  1.00  0.00     0.108 A 
HETATM    8  C8  UNL     1       1.000   2.590   2.216  1.00  0.00     0.276 A 
HETATM    9  O1  UNL     1      -0.092   3.040   2.691  1.00  0.00    -0.267 OA
HETATM   10  N4  UNL     1       2.190   2.878   2.779  1.00  0.00    -0.155 N 
ATOM     11  H4  UNL     1       2.254   3.469   3.608  1.00  0.00     0.187 HD
HETATM   12  C9  UNL     1       3.289   2.357   2.207  1.00  0.00     0.680 A 
HETATM   13  N6  UNL     1       3.210   1.578   1.114  1.00  0.00    -0.175 N 
ATOM     14  H6  UNL     1       4.067   1.201   0.709  1.00  0.00     0.186 HD
HETATM   15  C10 UNL     1       2.019   1.280   0.535  1.00  0.00     0.144 A 
HETATM   16  N7  UNL     1       1.642   0.554  -0.525  1.00  0.00    -0.304 N 
HETATM   17  C14 UNL     1       0.308   0.561  -0.697  1.00  0.00     0.141 A 
ENDROOT
BRANCH   3  18
HETATM   18  C3  UNL     1      -3.230   0.414  -1.388  1.00  0.00     0.078 C 
BRANCH  18  19
HETATM   19  C4  UNL     1      -3.871  -0.811  -0.746  1.00  0.00     0.034 C 
BRANCH  19  20
HETATM   20  C5  UNL     1      -3.932  -0.679   0.761  1.00  0.00     0.230 C 
BRANCH  20  21
HETATM   21  N2  UNL     1      -4.552  -1.885   1.268  1.00  0.00    -0.079 N 
ATOM     22  H23 UNL     1      -5.461  -2.076   0.846  1.00  0.00     0.274 HD
ATOM     23  H22 UNL     1      -4.083  -2.737   0.959  1.00  0.00     0.274 HD
ATOM     24  H21 UNL     1      -4.593  -1.796   2.283  1.00  0.00     0.274 HD
ENDBRANCH  20  21
ENDBRANCH  19  20
ENDBRANCH  18  19
ENDBRANCH   3  18
BRANCH  16  25
HETATM   25  C11 UNL     1       2.561  -0.159  -1.388  1.00  0.00     0.227 C 
BRANCH  25  26
HETATM   26  C12 UNL     1       2.759  -1.511  -0.876  1.00  0.00    -0.064 C 
HETATM   27  C13 UNL     1       2.940  -2.644  -0.455  1.00  0.00     0.005 C 
BRANCH  27  28
HETATM   28  N8  UNL     1       3.148  -3.923   0.045  1.00  0.00    -0.359 N 
ATOM     29  H82 UNL     1       3.097  -2.961   0.381  1.00  0.00     0.166 HD
ATOM     30  H81 UNL     1       3.299  -4.869   0.396  1.00  0.00     0.166 HD
ENDBRANCH  27  28
ENDBRANCH  25  26
ENDBRANCH  16  25
BRANCH  12  31
HETATM   31  N5  UNL     1       4.424   2.653   2.773  1.00  0.00    -0.234 N 
ATOM     32  H52 UNL     1       4.484   3.244   3.602  1.00  0.00     0.174 HD
ATOM     33  H51 UNL     1       5.258   2.258   2.339  1.00  0.00     0.174 HD
ENDBRANCH  12  31
TORSDOF 8
