REMARK  7 active torsions:
REMARK  status: ('A' for Active; 'I' for Inactive)
REMARK    1  A    between atoms: C2_3  and  C3_4 
REMARK    2  A    between atoms: C3_4  and  C4_5 
REMARK    3  A    between atoms: C4_5  and  N2_6 
REMARK    4  A    between atoms: N3_9  and  C7_10 
REMARK    5  A    between atoms: C9_16  and  N6_17 
REMARK    6  A    between atoms: N6_17  and  N7_19 
REMARK    7  A    between atoms: C11_27  and  N10_28 
ROOT
HETATM    1  N1  UNL     1      -4.429   2.876   0.394  1.00  0.00    -0.197 NA
HETATM    2  C1  UNL     1      -4.973   1.890   0.698  1.00  0.00     0.062 C 
HETATM    3  C2  UNL     1      -5.691   0.690   1.077  1.00  0.00     0.152 C 
ENDROOT
BRANCH   3   4
HETATM    4  C3  UNL     1      -5.396  -0.481   0.255  1.00  0.00    -0.001 C 
BRANCH   4   5
HETATM    5  C4  UNL     1      -4.111  -1.157   0.194  1.00  0.00     0.056 C 
BRANCH   5   6
HETATM    6  N2  UNL     1      -2.909  -0.476  -0.182  1.00  0.00    -0.290 NA
HETATM    7  C5  UNL     1      -1.984  -1.538  -0.685  1.00  0.00     0.114 C 
HETATM    8  C6  UNL     1      -0.743  -0.858  -1.208  1.00  0.00     0.139 C 
HETATM    9  N3  UNL     1      -0.030  -0.447   0.018  1.00  0.00    -0.362 N 
HETATM   10  C12 UNL     1      -0.833  -0.550   1.212  1.00  0.00     0.139 C 
HETATM   11  C13 UNL     1      -2.214   0.008   1.017  1.00  0.00     0.114 C 
BRANCH   9  12
HETATM   12  C7  UNL     1       1.283  -0.002  -0.087  1.00  0.00     0.149 A 
HETATM   13  N4  UNL     1       2.338  -0.845   0.141  1.00  0.00    -0.322 N 
HETATM   14  C8  UNL     1       3.603  -0.473  -0.017  1.00  0.00     0.167 A 
ATOM     15  H4  UNL     1       2.144  -1.799   0.445  1.00  0.00     0.169 HD
HETATM   16  N5  UNL     1       4.805  -1.095   0.127  1.00  0.00    -0.171 N 
HETATM   17  C10 UNL     1       3.882   0.811  -0.424  1.00  0.00     0.167 A 
HETATM   18  C9  UNL     1       5.799  -0.249  -0.173  1.00  0.00     0.699 A 
ATOM     19  H5  UNL     1       4.930  -2.064   0.420  1.00  0.00     0.186 HD
HETATM   20  N8  UNL     1       5.220   0.909  -0.507  1.00  0.00    -0.171 N 
ATOM     21  H8  UNL     1       5.724   1.751  -0.786  1.00  0.00     0.186 HD
HETATM   22  N9  UNL     1       2.867   1.670  -0.655  1.00  0.00    -0.322 N 
HETATM   23  C11 UNL     1       1.574   1.277  -0.490  1.00  0.00     0.145 A 
ATOM     24  H9  UNL     1       3.071   2.623  -0.956  1.00  0.00     0.169 HD
BRANCH  18  25
HETATM   25  N6  UNL     1       7.083  -0.511  -0.147  1.00  0.00    -0.138 N 
ATOM     26  H6  UNL     1       7.434  -1.431   0.119  1.00  0.00     0.205 HD
BRANCH  25  27
HETATM   27  N7  UNL     1       7.941   0.519  -0.498  1.00  0.00    -0.331 N 
ATOM     28  H72 UNL     1       7.574   1.433  -0.762  1.00  0.00     0.177 HD
ATOM     29  H71 UNL     1       8.940   0.315  -0.478  1.00  0.00     0.177 HD
ENDBRANCH  25  27
ENDBRANCH  18  25
BRANCH  23  30
HETATM   30  N10 UNL     1       0.659   2.137  -0.701  1.00  0.00    -0.382 N 
ATOM     31 2H10 UNL     1      -0.310   1.843  -0.577  1.00  0.00     0.157 HD
ATOM     32 1H10 UNL     1       0.875   3.088  -1.001  1.00  0.00     0.157 HD
ENDBRANCH  23  30
ENDBRANCH   9  12
ENDBRANCH   5   6
ENDBRANCH   4   5
ENDBRANCH   3   4
TORSDOF 7
