REMARK  5 active torsions:
REMARK  status: ('A' for Active; 'I' for Inactive)
REMARK    1  A    between atoms: N1_1  and  C1_4 
REMARK    2  A    between atoms: N3_8  and  C3_10 
REMARK    3  A    between atoms: C3_10  and  C4_11 
REMARK    4  A    between atoms: C4_11  and  C5_12 
REMARK    5  A    between atoms: C5_12  and  C6_13 
ROOT
HETATM    1  C1  UNL     1       3.365  -0.363   0.499  1.00  0.00     0.131 A 
HETATM    2  N2  UNL     1       2.099   0.004   0.361  1.00  0.00    -0.321 N 
ATOM      3  H2  UNL     1       1.414  -0.751   0.394  1.00  0.00     0.169 HD
HETATM    4  C2  UNL     1       1.602   1.225   0.185  1.00  0.00     0.148 A 
HETATM    5  N3  UNL     1       0.369   1.494   0.064  1.00  0.00    -0.370 N 
ATOM      6  H3  UNL     1       0.091   2.467  -0.067  1.00  0.00     0.161 HD
HETATM    7  S1  UNL     1       2.846   2.437   0.143  1.00  0.00    -0.034 SA
HETATM    8  C9  UNL     1       4.418   1.818   0.333  1.00  0.00     0.109 A 
HETATM    9  N7  UNL     1       5.688   2.280   0.378  1.00  0.00    -0.345 N 
ATOM     10  H7  UNL     1       5.960   3.259   0.288  1.00  0.00     0.167 HD
HETATM   11  C10 UNL     1       6.540   1.252   0.559  1.00  0.00     0.182 A 
HETATM   12  N8  UNL     1       5.805   0.128   0.629  1.00  0.00    -0.347 N 
ATOM     13  H8  UNL     1       6.174  -0.813   0.762  1.00  0.00     0.167 HD
HETATM   14  C11 UNL     1       4.476   0.452   0.492  1.00  0.00     0.111 A 
ENDROOT
BRANCH   5  15
HETATM   15  C3  UNL     1      -0.649   0.489   0.103  1.00  0.00     0.122 C 
BRANCH  15  16
HETATM   16  C4  UNL     1      -0.929  -0.151  -1.193  1.00  0.00     0.026 C 
BRANCH  16  17
HETATM   17  C5  UNL     1      -1.972  -1.214  -1.129  1.00  0.00     0.066 C 
BRANCH  17  18
HETATM   18  C6  UNL     1      -3.305  -0.791  -0.658  1.00  0.00     0.094 A 
HETATM   19  N4  UNL     1      -4.210  -0.355  -1.600  1.00  0.00    -0.295 N 
HETATM   20  N5  UNL     1      -5.391   0.076  -1.240  1.00  0.00    -0.251 N 
ATOM     21  H4  UNL     1      -3.957  -0.368  -2.588  1.00  0.00     0.187 HD
HETATM   22  C7  UNL     1      -5.777   0.113   0.048  1.00  0.00     0.341 A 
ATOM     23  H5  UNL     1      -6.040   0.394  -1.959  1.00  0.00     0.191 HD
HETATM   24  O1  UNL     1      -6.912   0.531   0.353  1.00  0.00    -0.245 OA
HETATM   25  N6  UNL     1      -4.942  -0.299   1.015  1.00  0.00    -0.273 N 
HETATM   26  C8  UNL     1      -3.717  -0.745   0.632  1.00  0.00     0.273 A 
ATOM     27  H6  UNL     1      -5.216  -0.278   1.997  1.00  0.00     0.173 HD
HETATM   28  O2  UNL     1      -2.956  -1.134   1.564  1.00  0.00    -0.266 OA
ENDBRANCH  17  18
ENDBRANCH  16  17
ENDBRANCH  15  16
ENDBRANCH   5  15
BRANCH   1  29
HETATM   29  N1  UNL     1       3.611  -1.645   0.663  1.00  0.00    -0.383 N 
ATOM     30  H12 UNL     1       2.789  -2.248   0.668  1.00  0.00     0.157 HD
ATOM     31  H11 UNL     1       4.585  -1.927   0.769  1.00  0.00     0.157 HD
ENDBRANCH   1  29
TORSDOF 5
