REMARK  6 active torsions:
REMARK  status: ('A' for Active; 'I' for Inactive)
REMARK    1  A    between atoms: C3_3  and  C4_4 
REMARK    2  A    between atoms: C4_4  and  C5_5 
REMARK    3  A    between atoms: C5_5  and  C6_6 
REMARK    4  A    between atoms: C6_6  and  N1_7 
REMARK    5  A    between atoms: C9_17  and  N5_18 
REMARK    6  A    between atoms: C11_26  and  N8_27 
ROOT
HETATM    1  N1  UNL     1       1.739  -1.771   0.133  1.00  0.00    -0.260 N 
HETATM    2  N2  UNL     1       2.459  -2.808   0.439  1.00  0.00    -0.238 N 
ATOM      3  H2  UNL     1       2.070  -3.701   0.743  1.00  0.00     0.208 HD
HETATM    4  N3  UNL     1       3.748  -2.574   0.311  1.00  0.00    -0.278 N 
ATOM      5  H3  UNL     1       4.507  -3.231   0.493  1.00  0.00     0.189 HD
HETATM    6  C7  UNL     1       3.872  -1.296  -0.107  1.00  0.00     0.164 A 
HETATM    7  C8  UNL     1       4.922  -0.462  -0.418  1.00  0.00     0.291 A 
HETATM    8  O1  UNL     1       6.095  -0.863  -0.336  1.00  0.00    -0.265 OA
HETATM    9  N4  UNL     1       4.696   0.818  -0.821  1.00  0.00    -0.154 N 
ATOM     10  H4  UNL     1       5.470   1.441  -1.052  1.00  0.00     0.187 HD
HETATM   11  C9  UNL     1       3.424   1.235  -0.905  1.00  0.00     0.680 A 
HETATM   12  N6  UNL     1       2.355   0.478  -0.618  1.00  0.00    -0.173 N 
ATOM     13  H6  UNL     1       1.406   0.842  -0.697  1.00  0.00     0.186 HD
HETATM   14  C10 UNL     1       2.597  -0.799  -0.216  1.00  0.00     0.172 A 
ENDROOT
BRANCH   1  15
HETATM   15  C6  UNL     1       0.259  -1.644   0.152  1.00  0.00     0.153 C 
BRANCH  15  16
HETATM   16  C5  UNL     1      -0.086  -1.167   1.505  1.00  0.00     0.028 C 
BRANCH  16  17
HETATM   17  C4  UNL     1      -1.498  -0.930   1.861  1.00  0.00     0.060 C 
BRANCH  17  18
HETATM   18  C3  UNL     1      -2.250   0.046   1.092  1.00  0.00     0.038 A 
HETATM   19  C2  UNL     1      -2.888  -0.191  -0.093  1.00  0.00     0.030 A 
HETATM   20  C1  UNL     1      -2.958  -1.566  -0.700  1.00  0.00     0.056 C 
HETATM   21  C12 UNL     1      -3.529   0.870  -0.736  1.00  0.00     0.267 A 
HETATM   22  N9  UNL     1      -3.549   2.115  -0.246  1.00  0.00    -0.156 N 
HETATM   23  O2  UNL     1      -4.119   0.630  -1.842  1.00  0.00    -0.267 OA
HETATM   24  C11 UNL     1      -2.916   2.324   0.920  1.00  0.00     0.679 A 
ATOM     25  H9  UNL     1      -4.024   2.872  -0.737  1.00  0.00     0.187 HD
HETATM   26  N7  UNL     1      -2.289   1.326   1.566  1.00  0.00    -0.195 N 
ATOM     27  H7  UNL     1      -1.822   1.534   2.449  1.00  0.00     0.184 HD
BRANCH  24  28
HETATM   28  N8  UNL     1      -2.935   3.535   1.397  1.00  0.00    -0.234 N 
ATOM     29  H82 UNL     1      -2.454   3.694   2.283  1.00  0.00     0.174 HD
ATOM     30  H81 UNL     1      -3.411   4.292   0.907  1.00  0.00     0.174 HD
ENDBRANCH  24  28
ENDBRANCH  17  18
ENDBRANCH  16  17
ENDBRANCH  15  16
ENDBRANCH   1  15
BRANCH  11  31
HETATM   31  N5  UNL     1       3.213   2.439  -1.284  1.00  0.00    -0.234 N 
ATOM     32  H52 UNL     1       4.026   3.015  -1.502  1.00  0.00     0.174 HD
ATOM     33  H51 UNL     1       2.246   2.756  -1.348  1.00  0.00     0.174 HD
ENDBRANCH  11  31
TORSDOF 6
