REMARK  13 active torsions:
REMARK  status: ('A' for Active; 'I' for Inactive)
REMARK    1  A    between atoms: C2_2  and  C3_3 
REMARK    2  A    between atoms: C3_3  and  C5_5 
REMARK    3  A    between atoms: C8_8  and  C9_9 
REMARK       I    between atoms: C9_9  and  N1_11 
REMARK    4  A    between atoms: C10_13  and  C11_14 
REMARK    5  A    between atoms: C10_13  and  C22_30 
REMARK    6  A    between atoms: C11_14  and  C12_15 
REMARK    7  A    between atoms: C12_15  and  C13_16 
REMARK       I    between atoms: C13_16  and  N2_18 
REMARK    8  A    between atoms: C17_22  and  C18_23 
REMARK       I    between atoms: C18_23  and  N3_25 
REMARK       I    between atoms: C22_30  and  N4_32 
REMARK    9  A    between atoms: N4_32  and  C23_34 
REMARK   10  A    between atoms: C23_34  and  C24_35 
REMARK   11  A    between atoms: C23_34  and  C27_40 
REMARK   12  A    between atoms: C24_35  and  C25_36 
REMARK   13  A    between atoms: C25_36  and  C26_37 
ROOT
HETATM    1  C9  UNL     1      -0.827  -2.010  -0.613  1.00  0.00     0.251 C 
HETATM    2  O1  UNL     1       0.031  -2.651   0.027  1.00  0.00    -0.270 OA
HETATM    3  N1  UNL     1      -1.237  -0.759  -0.116  1.00  0.00    -0.324 N 
ATOM      4  H1  UNL     1      -2.224  -0.671   0.128  1.00  0.00     0.169 HD
HETATM    5  C10 UNL     1      -0.506   0.291   0.067  1.00  0.00     0.080 C 
ENDROOT
BRANCH   5   6
HETATM    6  C11 UNL     1       0.923   0.275  -0.254  1.00  0.00     0.072 C 
BRANCH   6   7
HETATM    7  C12 UNL     1       1.779   0.378   0.990  1.00  0.00     0.109 C 
BRANCH   7   8
HETATM    8  C13 UNL     1       3.171   0.396   0.569  1.00  0.00     0.220 C 
HETATM    9  O2  UNL     1       3.459   0.843  -0.602  1.00  0.00    -0.273 OA
HETATM   10  N2  UNL     1       4.224  -0.051   1.401  1.00  0.00    -0.339 N 
HETATM   11  C14 UNL     1       4.078  -0.587   2.744  1.00  0.00     0.127 C 
HETATM   12  C17 UNL     1       5.626  -0.045   1.032  1.00  0.00     0.179 C 
HETATM   13  C15 UNL     1       5.185  -1.654   2.714  1.00  0.00     0.022 C 
HETATM   14  C16 UNL     1       6.318  -0.822   2.160  1.00  0.00     0.037 C 
BRANCH  12  15
HETATM   15  C18 UNL     1       5.761  -0.897  -0.209  1.00  0.00     0.243 C 
HETATM   16  O3  UNL     1       4.834  -1.635  -0.591  1.00  0.00    -0.271 OA
HETATM   17  N3  UNL     1       7.000  -0.803  -0.904  1.00  0.00    -0.341 N 
HETATM   18  C19 UNL     1       8.151   0.006  -0.601  1.00  0.00     0.137 C 
HETATM   19  C21 UNL     1       7.262  -1.592  -2.122  1.00  0.00     0.200 C 
HETATM   20  C20 UNL     1       9.347  -0.908  -0.431  1.00  0.00     0.095 C 
HETATM   21  S1  UNL     1       8.934  -2.210  -1.659  1.00  0.00    -0.148 SA
ENDBRANCH  12  15
ENDBRANCH   7   8
ENDBRANCH   6   7
ENDBRANCH   5   6
BRANCH   5  22
HETATM   22  C22 UNL     1      -1.158   1.468   0.607  1.00  0.00     0.264 C 
HETATM   23  O4  UNL     1      -0.435   2.514   0.800  1.00  0.00    -0.266 OA
HETATM   24  N4  UNL     1      -2.517   1.550   0.936  1.00  0.00    -0.343 N 
ATOM     25  H4  UNL     1      -3.103   0.729   0.787  1.00  0.00     0.163 HD
BRANCH  24  26
HETATM   26  C23 UNL     1      -3.135   2.754   1.482  1.00  0.00     0.174 C 
BRANCH  26  27
HETATM   27  C24 UNL     1      -3.743   2.412   2.792  1.00  0.00     0.045 C 
BRANCH  27  28
HETATM   28  C25 UNL     1      -4.432   3.500   3.531  1.00  0.00     0.116 C 
BRANCH  28  29
HETATM   29  C26 UNL     1      -3.608   4.654   3.905  1.00  0.00     0.172 C 
HETATM   30  O5  UNL     1      -2.334   4.674   3.691  1.00  0.00    -0.648 OA
HETATM   31  O6  UNL     1      -4.096   5.794   4.500  1.00  0.00    -0.648 OA
ENDBRANCH  28  29
ENDBRANCH  27  28
ENDBRANCH  26  27
BRANCH  26  32
HETATM   32  C27 UNL     1      -4.038   3.374   0.499  1.00  0.00     0.254 C 
HETATM   33  N5  UNL     1      -4.784   4.553   0.719  1.00  0.00    -0.060 NA
HETATM   34  O7  UNL     1      -4.137   2.779  -0.635  1.00  0.00    -0.275 OA
ENDBRANCH  26  32
ENDBRANCH  24  26
ENDBRANCH   5  22
BRANCH   1  35
HETATM   35  C8  UNL     1      -1.429  -2.550  -1.889  1.00  0.00     0.214 C 
HETATM   36  C7  UNL     1      -2.303  -3.754  -1.533  1.00  0.00     0.044 C 
HETATM   37  C6  UNL     1      -3.689  -3.106  -1.756  1.00  0.00     0.035 C 
HETATM   38  C5  UNL     1      -3.297  -2.316  -3.018  1.00  0.00     0.126 C 
HETATM   39  O8  UNL     1      -2.235  -1.599  -2.487  1.00  0.00    -0.371 OA
BRANCH  38  40
HETATM   40  C3  UNL     1      -4.410  -1.442  -3.494  1.00  0.00     0.010 C 
HETATM   41  C4  UNL     1      -4.631  -0.256  -2.586  1.00  0.00     0.012 C 
BRANCH  40  42
HETATM   42  C2  UNL     1      -5.674  -2.156  -3.841  1.00  0.00     0.002 C 
HETATM   43  C1  UNL     1      -6.586  -1.189  -4.565  1.00  0.00     0.005 C 
ENDBRANCH  40  42
ENDBRANCH  38  40
ENDBRANCH   1  35
TORSDOF 13
