REMARK  15 active torsions:
REMARK  status: ('A' for Active; 'I' for Inactive)
REMARK    1  A    between atoms: C2_2  and  O1_5 
REMARK    2  A    between atoms: O1_5  and  C5_6 
REMARK       I    between atoms: C5_6  and  N1_8 
REMARK    3  A    between atoms: C7_10  and  C8_11 
REMARK       I    between atoms: C8_11  and  N2_13 
REMARK    4  A    between atoms: C13_19  and  C14_20 
REMARK       I    between atoms: C14_20  and  N3_22 
REMARK    5  A    between atoms: N3_22  and  C15_24 
REMARK    6  A    between atoms: C15_24  and  C16_25 
REMARK    7  A    between atoms: C15_24  and  C17_27 
REMARK    8  A    between atoms: C17_27  and  C18_28 
REMARK    9  A    between atoms: C18_28  and  C19_29 
REMARK       I    between atoms: C19_29  and  N4_31 
REMARK   10  A    between atoms: N4_31  and  C20_33 
REMARK   11  A    between atoms: C20_33  and  C21_34 
REMARK   12  A    between atoms: C21_34  and  C22_35 
REMARK   13  A    between atoms: C22_35  and  C23_36 
REMARK   14  A    between atoms: C23_36  and  C24_37 
REMARK   15  A    between atoms: C24_37  and  N5_38 
ROOT
HETATM    1  C14 UNL     1      -1.219  -0.974  -0.222  1.00  0.00     0.232 C 
HETATM    2  O5  UNL     1      -0.339  -0.152  -0.577  1.00  0.00    -0.273 OA
HETATM    3  N3  UNL     1      -0.819  -2.133   0.470  1.00  0.00    -0.355 N 
ATOM      4  H3  UNL     1      -1.536  -2.801   0.752  1.00  0.00     0.162 HD
ENDROOT
BRANCH   1   5
HETATM    5  C13 UNL     1      -2.617  -0.740  -0.514  1.00  0.00     0.185 C 
HETATM    6  C7  UNL     1      -3.520  -0.389   0.602  1.00  0.00     0.118 C 
HETATM    7  C6  UNL     1      -4.683   0.303  -0.011  1.00  0.00     0.152 C 
HETATM    8  N1  UNL     1      -4.260   0.729  -1.319  1.00  0.00    -0.262 N 
HETATM    9  C5  UNL     1      -5.104   1.336  -2.302  1.00  0.00     0.370 C 
HETATM   10  C28 UNL     1      -2.879   0.421  -1.434  1.00  0.00     0.242 C 
HETATM   11  O2  UNL     1      -4.581   1.650  -3.417  1.00  0.00    -0.238 OA
HETATM   12  O7  UNL     1      -2.050   0.987  -2.145  1.00  0.00    -0.272 OA
BRANCH   6  13
HETATM   13  C8  UNL     1      -2.903   0.377   1.713  1.00  0.00     0.227 C 
HETATM   14  O3  UNL     1      -1.754   0.857   1.677  1.00  0.00    -0.273 OA
HETATM   15  N2  UNL     1      -3.667   0.574   2.881  1.00  0.00    -0.348 N 
HETATM   16  C9  UNL     1      -5.012   0.059   3.059  1.00  0.00     0.152 C 
HETATM   17  C12 UNL     1      -3.137   1.326   4.006  1.00  0.00     0.152 C 
HETATM   18  C10 UNL     1      -5.168  -0.177   4.570  1.00  0.00     0.187 C 
HETATM   19  O4  UNL     1      -5.246   1.043   5.182  1.00  0.00    -0.388 OA
HETATM   20  C11 UNL     1      -4.266   1.927   4.825  1.00  0.00     0.187 C 
ENDBRANCH   6  13
BRANCH   9  21
HETATM   21  O1  UNL     1      -6.438   1.604  -2.131  1.00  0.00    -0.293 OA
BRANCH  21  22
HETATM   22  C2  UNL     1      -7.236   2.202  -3.162  1.00  0.00     0.061 C 
HETATM   23  C1  UNL     1      -8.632   2.348  -2.590  1.00  0.00     0.046 C 
HETATM   24  C3  UNL     1      -6.710   3.515  -3.623  1.00  0.00     0.046 C 
HETATM   25  C4  UNL     1      -7.351   1.211  -4.326  1.00  0.00     0.046 C 
ENDBRANCH  21  22
ENDBRANCH   9  21
ENDBRANCH   1   5
BRANCH   3  26
HETATM   26  C15 UNL     1       0.584  -2.429   0.807  1.00  0.00     0.095 C 
BRANCH  26  27
HETATM   27  C16 UNL     1       0.611  -2.789   2.254  1.00  0.00     0.111 C 
HETATM   28  S1  UNL     1       2.234  -3.181   2.911  1.00  0.00    -0.096 SA
ENDBRANCH  26  27
BRANCH  26  29
HETATM   29  C17 UNL     1       1.004  -3.483  -0.152  1.00  0.00     0.035 C 
BRANCH  29  30
HETATM   30  C18 UNL     1       2.362  -4.029  -0.091  1.00  0.00     0.105 C 
BRANCH  30  31
HETATM   31  C19 UNL     1       3.474  -3.036  -0.292  1.00  0.00     0.221 C 
HETATM   32  O6  UNL     1       3.129  -1.870  -0.456  1.00  0.00    -0.273 OA
HETATM   33  N4  UNL     1       4.805  -3.457  -0.283  1.00  0.00    -0.341 N 
ATOM     34  H4  UNL     1       4.895  -4.461  -0.128  1.00  0.00     0.167 HD
BRANCH  33  35
HETATM   35  C20 UNL     1       6.042  -2.828  -0.436  1.00  0.00     0.064 C 
BRANCH  35  36
HETATM   36  C21 UNL     1       6.477  -2.159  -1.678  1.00  0.00     0.044 C 
BRANCH  36  37
HETATM   37  C22 UNL     1       5.795  -0.960  -2.196  1.00  0.00     0.007 C 
BRANCH  37  38
HETATM   38  C23 UNL     1       5.837   0.226  -1.237  1.00  0.00     0.028 C 
BRANCH  38  39
HETATM   39  C24 UNL     1       7.234   0.673  -0.940  1.00  0.00     0.236 C 
BRANCH  39  40
HETATM   40  N5  UNL     1       7.199   1.775  -0.020  1.00  0.00    -0.079 N 
HETATM   41  C25 UNL     1       7.415   1.310   1.349  1.00  0.00     0.271 C 
HETATM   42  C26 UNL     1       5.924   2.455  -0.105  1.00  0.00     0.271 C 
HETATM   43  C27 UNL     1       8.225   2.770  -0.325  1.00  0.00     0.271 C 
ENDBRANCH  39  40
ENDBRANCH  38  39
ENDBRANCH  37  38
ENDBRANCH  36  37
ENDBRANCH  35  36
ENDBRANCH  33  35
ENDBRANCH  30  31
ENDBRANCH  29  30
ENDBRANCH  26  29
ENDBRANCH   3  26
TORSDOF 15
