REMARK  13 active torsions:
REMARK  status: ('A' for Active; 'I' for Inactive)
REMARK    1  A    between atoms: C2_2  and  C3_3 
REMARK    2  A    between atoms: C3_3  and  C4_4 
REMARK    3  A    between atoms: C4_4  and  C5_5 
REMARK    4  A    between atoms: C4_4  and  O8_42 
REMARK    5  A    between atoms: C5_5  and  C6_6 
REMARK    6  A    between atoms: C6_6  and  C7_7 
REMARK       I    between atoms: C7_7  and  N1_9 
REMARK    7  A    between atoms: N1_9  and  C8_11 
REMARK    8  A    between atoms: C8_11  and  C9_12 
REMARK    9  A    between atoms: C9_12  and  C10_14 
REMARK   10  A    between atoms: C17_22  and  C18_23 
REMARK   11  A    between atoms: C18_23  and  C19_24 
REMARK       I    between atoms: C19_24  and  N2_26 
REMARK   12  A    between atoms: C23_30  and  C24_31 
REMARK       I    between atoms: C24_31  and  N3_33 
REMARK   13  A    between atoms: C28_37  and  C29_38 
ROOT
HETATM    1  C10 UNL     1       0.895   1.060  -0.378  1.00  0.00     0.332 C 
HETATM    2  O3  UNL     1       0.856   0.962  -1.732  1.00  0.00    -0.348 OA
HETATM    3  C11 UNL     1      -0.248   1.490  -2.362  1.00  0.00     0.131 C 
HETATM    4  C12 UNL     1      -0.573   0.740  -3.627  1.00  0.00     0.032 C 
HETATM    5  C13 UNL     1      -1.585  -0.355  -3.454  1.00  0.00     0.002 C 
HETATM    6  C14 UNL     1      -2.867   0.161  -2.865  1.00  0.00     0.001 C 
HETATM    7  C15 UNL     1      -2.703   1.544  -2.287  1.00  0.00     0.010 C 
HETATM    8  C16 UNL     1      -1.440   1.685  -1.467  1.00  0.00     0.044 C 
HETATM    9  C17 UNL     1      -1.398   0.696  -0.345  1.00  0.00     0.140 C 
HETATM   10  O7  UNL     1      -0.203   0.627   0.308  1.00  0.00    -0.348 OA
ENDROOT
BRANCH   9  11
HETATM   11  C18 UNL     1      -2.487   1.034   0.648  1.00  0.00     0.135 C 
BRANCH  11  12
HETATM   12  C19 UNL     1      -2.389   0.015   1.725  1.00  0.00     0.223 C 
HETATM   13  O4  UNL     1      -1.464   0.072   2.577  1.00  0.00    -0.273 OA
HETATM   14  N2  UNL     1      -3.319  -1.064   1.848  1.00  0.00    -0.333 N 
HETATM   15  C20 UNL     1      -3.531  -2.194   2.702  1.00  0.00     0.095 A 
HETATM   16  C23 UNL     1      -4.496  -1.400   1.044  1.00  0.00     0.186 A 
HETATM   17  C21 UNL     1      -3.597  -3.563   2.087  1.00  0.00     0.035 A 
HETATM   18  C22 UNL     1      -4.699  -2.610   1.927  1.00  0.00     0.043 A 
BRANCH  16  19
HETATM   19  C24 UNL     1      -5.615  -0.442   1.258  1.00  0.00     0.244 C 
HETATM   20  O5  UNL     1      -5.505   0.414   2.174  1.00  0.00    -0.271 OA
HETATM   21  N3  UNL     1      -6.749  -0.521   0.438  1.00  0.00    -0.337 N 
HETATM   22  C25 UNL     1      -6.962  -1.448  -0.645  1.00  0.00     0.127 C 
HETATM   23  C28 UNL     1      -7.934   0.297   0.491  1.00  0.00     0.176 C 
HETATM   24  C26 UNL     1      -7.393  -0.477  -1.752  1.00  0.00     0.022 C 
HETATM   25  C27 UNL     1      -8.210   0.537  -0.976  1.00  0.00     0.036 C 
BRANCH  23  26
HETATM   26  C29 UNL     1      -9.013  -0.430   1.183  1.00  0.00     0.254 C 
HETATM   27  N4  UNL     1     -10.271   0.223   1.311  1.00  0.00    -0.060 NA
HETATM   28  O6  UNL     1      -8.892  -1.578   1.660  1.00  0.00    -0.275 OA
ENDBRANCH  23  26
ENDBRANCH  16  19
ENDBRANCH  11  12
ENDBRANCH   9  11
BRANCH   1  29
HETATM   29  C9  UNL     1       2.069   0.291   0.122  1.00  0.00     0.198 C 
HETATM   30  O2  UNL     1       2.330   0.273   1.335  1.00  0.00    -0.291 OA
BRANCH  29  31
HETATM   31  C8  UNL     1       2.966  -0.475  -0.767  1.00  0.00     0.206 C 
BRANCH  31  32
HETATM   32  N1  UNL     1       4.068  -1.098  -0.117  1.00  0.00    -0.354 N 
HETATM   33  C7  UNL     1       5.093  -0.401   0.578  1.00  0.00     0.217 C 
HETATM   34  O1  UNL     1       5.012   0.845   0.604  1.00  0.00    -0.274 OA
ATOM     35  H1  UNL     1       4.126  -2.116  -0.152  1.00  0.00     0.162 HD
BRANCH  33  36
HETATM   36  C6  UNL     1       6.213  -1.083   1.246  1.00  0.00     0.105 C 
BRANCH  36  37
HETATM   37  C5  UNL     1       7.297  -0.121   1.692  1.00  0.00     0.041 C 
BRANCH  37  38
HETATM   38  C4  UNL     1       7.975   0.598   0.575  1.00  0.00     0.121 C 
BRANCH  38  39
HETATM   39  C3  UNL     1       9.017   1.542   1.090  1.00  0.00     0.031 C 
BRANCH  39  40
HETATM   40  C2  UNL     1      10.072   0.794   1.854  1.00  0.00    -0.002 C 
HETATM   41  C1  UNL     1      11.160   1.750   2.350  1.00  0.00     0.005 C 
ENDBRANCH  39  40
ENDBRANCH  38  39
BRANCH  38  42
HETATM   42  O8  UNL     1       8.662  -0.298  -0.268  1.00  0.00    -0.391 OA
HETATM   43  C30 UNL     1       8.258  -0.238  -1.579  1.00  0.00     0.202 C 
ENDBRANCH  38  42
ENDBRANCH  37  38
ENDBRANCH  36  37
ENDBRANCH  33  36
ENDBRANCH  31  32
ENDBRANCH  29  31
ENDBRANCH   1  29
TORSDOF 13
