REMARK  14 active torsions:
REMARK  status: ('A' for Active; 'I' for Inactive)
REMARK    1  A    between atoms: C2_2  and  C3_3 
REMARK    2  A    between atoms: C3_3  and  N1_4 
REMARK       I    between atoms: N1_4  and  C4_6 
REMARK    3  A    between atoms: C4_6  and  C5_8 
REMARK    4  A    between atoms: C5_8  and  C6_9 
REMARK    5  A    between atoms: C5_8  and  N2_12 
REMARK    6  A    between atoms: C6_9  and  S1_10 
REMARK       I    between atoms: N2_12  and  C8_14 
REMARK       I    between atoms: C8_14  and  N3_15 
REMARK       I    between atoms: C8_14  and  N10_42 
REMARK    7  A    between atoms: N3_15  and  C9_17 
REMARK    8  A    between atoms: C10_22  and  C11_23 
REMARK    9  A    between atoms: C11_23  and  C12_24 
REMARK   10  A    between atoms: C12_24  and  S2_25 
REMARK   11  A    between atoms: S2_25  and  C13_26 
REMARK   12  A    between atoms: C13_26  and  C14_27 
REMARK   13  A    between atoms: C14_27  and  C15_28 
REMARK   14  A    between atoms: C16_33  and  N8_34 
REMARK       I    between atoms: N8_34  and  C17_36 
ROOT
HETATM    1  C9  UNL     1      -1.830  -1.327   1.377  1.00  0.00     0.180 A 
HETATM    2  N4  UNL     1      -1.348  -2.276   0.568  1.00  0.00    -0.279 N 
ATOM      3  H4  UNL     1      -1.973  -2.821  -0.026  1.00  0.00     0.189 HD
HETATM    4  N5  UNL     1      -0.096  -2.485   0.555  1.00  0.00    -0.296 N 
ATOM      5  H5  UNL     1       0.293  -3.204  -0.056  1.00  0.00     0.187 HD
HETATM    6  C10 UNL     1       0.708  -1.774   1.331  1.00  0.00     0.070 A 
HETATM    7  S3  UNL     1      -0.407  -0.747   2.121  1.00  0.00    -0.037 SA
ENDROOT
BRANCH   1   8
HETATM    8  N3  UNL     1      -3.081  -0.961   1.535  1.00  0.00    -0.169 N 
HETATM    9  C8  UNL     1      -4.116  -1.582   0.810  1.00  0.00     0.685 C 
HETATM   10  N2  UNL     1      -4.642  -0.988  -0.189  1.00  0.00    -0.212 N 
HETATM   11  N10 UNL     1      -4.576  -2.862   1.184  1.00  0.00    -0.151 N 
ATOM     12  H2  UNL     1      -5.392  -1.447  -0.706  1.00  0.00     0.178 HD
HETATM   13  C19 UNL     1      -4.080  -3.667   2.291  1.00  0.00     0.151 C 
HETATM   14  C22 UNL     1      -5.607  -3.655   0.588  1.00  0.00     0.238 C 
HETATM   15  C20 UNL     1      -5.378  -4.261   2.826  1.00  0.00     0.030 C 
HETATM   16  C21 UNL     1      -6.067  -4.690   1.540  1.00  0.00     0.105 C 
HETATM   17  O3  UNL     1      -6.011  -3.434  -0.598  1.00  0.00    -0.273 OA
ATOM     18  H3  UNL     1      -3.307  -0.215   2.193  1.00  0.00     0.186 HD
BRANCH  10  19
HETATM   19  C5  UNL     1      -4.189   0.344  -0.609  1.00  0.00     0.200 C 
BRANCH  19  20
HETATM   20  C4  UNL     1      -4.862   1.363   0.217  1.00  0.00     0.242 C 
HETATM   21  N1  UNL     1      -4.492   2.722   0.246  1.00  0.00    -0.356 N 
ATOM     22  H1  UNL     1      -3.714   3.045  -0.329  1.00  0.00     0.162 HD
HETATM   23  O1  UNL     1      -5.841   0.973   0.949  1.00  0.00    -0.271 OA
BRANCH  21  24
HETATM   24  C3  UNL     1      -5.200   3.663   1.079  1.00  0.00     0.149 C 
BRANCH  24  25
HETATM   25  C2  UNL     1      -4.630   5.028   0.941  1.00  0.00    -0.018 C 
HETATM   26  C1  UNL     1      -5.394   6.019   0.507  1.00  0.00     0.008 C 
ENDBRANCH  24  25
ENDBRANCH  21  24
ENDBRANCH  19  20
BRANCH  19  27
HETATM   27  C6  UNL     1      -4.433   0.518  -2.084  1.00  0.00     0.108 C 
BRANCH  27  28
HETATM   28  S1  UNL     1      -3.854   2.053  -2.767  1.00  0.00    -0.171 SA
HETATM   29  C7  UNL     1      -2.035   2.140  -2.754  1.00  0.00     0.089 C 
ENDBRANCH  27  28
ENDBRANCH  19  27
ENDBRANCH  10  19
ENDBRANCH   1   8
BRANCH   6  30
HETATM   30  C11 UNL     1       2.209  -1.882   1.449  1.00  0.00     0.076 C 
BRANCH  30  31
HETATM   31  C12 UNL     1       2.666  -2.969   0.510  1.00  0.00     0.080 C 
BRANCH  31  32
HETATM   32  S2  UNL     1       4.486  -3.071   0.678  1.00  0.00    -0.168 SA
BRANCH  32  33
HETATM   33  C13 UNL     1       5.183  -1.526   0.047  1.00  0.00     0.081 C 
BRANCH  33  34
HETATM   34  C14 UNL     1       6.693  -1.543   0.161  1.00  0.00     0.088 C 
BRANCH  34  35
HETATM   35  C15 UNL     1       7.278  -0.279  -0.356  1.00  0.00     0.113 A 
HETATM   36  N6  UNL     1       8.601  -0.045  -0.365  1.00  0.00    -0.274 N 
HETATM   37  N7  UNL     1       8.806   1.158  -0.883  1.00  0.00    -0.130 N 
ATOM     38  H6  UNL     1       9.323  -0.683  -0.031  1.00  0.00     0.189 HD
HETATM   39  C16 UNL     1       7.640   1.732  -1.221  1.00  0.00     0.700 A 
ATOM     40  H7  UNL     1       9.722   1.588  -1.008  1.00  0.00     0.205 HD
HETATM   41  N9  UNL     1       6.703   0.800  -0.876  1.00  0.00    -0.178 N 
ATOM     42  H9  UNL     1       5.697   0.917  -1.001  1.00  0.00     0.185 HD
BRANCH  39  43
HETATM   43  N8  UNL     1       7.415   2.887  -1.748  1.00  0.00    -0.159 N 
HETATM   44  C17 UNL     1       8.532   3.728  -2.040  1.00  0.00     0.232 C 
HETATM   45  C18 UNL     1       9.453   3.453  -3.173  1.00  0.00     0.118 C 
HETATM   46  O2  UNL     1       8.756   4.738  -1.324  1.00  0.00    -0.273 OA
ATOM     47  H8  UNL     1       6.463   3.192  -1.951  1.00  0.00     0.187 HD
ENDBRANCH  39  43
ENDBRANCH  34  35
ENDBRANCH  33  34
ENDBRANCH  32  33
ENDBRANCH  31  32
ENDBRANCH  30  31
ENDBRANCH   6  30
TORSDOF 14
