REMARK  14 active torsions:
REMARK  status: ('A' for Active; 'I' for Inactive)
REMARK    1  A    between atoms: C2_2  and  O1_3 
REMARK    2  A    between atoms: O1_3  and  C3_4 
REMARK       I    between atoms: C3_4  and  N1_6 
REMARK       I    between atoms: N2_9  and  C6_10 
REMARK    3  A    between atoms: C6_10  and  C7_12 
REMARK    4  A    between atoms: C7_12  and  C8_13 
REMARK    5  A    between atoms: C7_12  and  N4_18 
REMARK    6  A    between atoms: C8_13  and  N3_14 
REMARK       I    between atoms: N4_18  and  C9_20 
REMARK    7  A    between atoms: C9_20  and  C10_22 
REMARK    8  A    between atoms: C10_22  and  C11_23 
REMARK    9  A    between atoms: C10_22  and  N6_32 
REMARK   10  A    between atoms: C11_23  and  C12_24 
REMARK   11  A    between atoms: C12_24  and  C13_25 
REMARK       I    between atoms: N6_32  and  C17_34 
REMARK   12  A    between atoms: C17_34  and  C18_36 
REMARK   13  A    between atoms: C18_36  and  N7_37 
REMARK   14  A    between atoms: C18_36  and  C24_43 
ROOT
HETATM    1  C10 UNL     1      -1.432  -0.614  -1.058  1.00  0.00     0.177 C 
ENDROOT
BRANCH   1   2
HETATM    2  C9  UNL     1      -0.153   0.082  -0.821  1.00  0.00     0.241 C 
HETATM    3  N4  UNL     1       1.071  -0.401  -1.324  1.00  0.00    -0.344 N 
ATOM      4  H4  UNL     1       1.065  -1.266  -1.864  1.00  0.00     0.163 HD
HETATM    5  O4  UNL     1      -0.161   1.138  -0.155  1.00  0.00    -0.271 OA
BRANCH   3   6
HETATM    6  C7  UNL     1       2.364   0.283  -1.109  1.00  0.00     0.202 C 
BRANCH   6   7
HETATM    7  C6  UNL     1       3.267  -0.711  -0.518  1.00  0.00     0.244 C 
HETATM    8  N2  UNL     1       4.509  -0.366   0.029  1.00  0.00    -0.347 N 
HETATM    9  C5  UNL     1       5.356  -1.449   0.559  1.00  0.00     0.146 C 
HETATM   10  C28 UNL     1       4.982   0.974   0.139  1.00  0.00     0.146 C 
HETATM   11  C4  UNL     1       6.641  -1.372  -0.239  1.00  0.00     0.148 C 
HETATM   12  N1  UNL     1       7.141  -0.020  -0.174  1.00  0.00    -0.325 N 
HETATM   13  C3  UNL     1       8.424   0.275   0.319  1.00  0.00     0.362 C 
HETATM   14  C29 UNL     1       6.303   1.062  -0.639  1.00  0.00     0.148 C 
HETATM   15  O2  UNL     1       9.173  -0.652   0.733  1.00  0.00    -0.238 OA
HETATM   16  O3  UNL     1       2.874  -1.935  -0.514  1.00  0.00    -0.271 OA
BRANCH  13  17
HETATM   17  O1  UNL     1       8.914   1.571   0.371  1.00  0.00    -0.304 OA
BRANCH  17  18
HETATM   18  C2  UNL     1      10.233   1.803   0.884  1.00  0.00     0.176 C 
HETATM   19  C1  UNL     1      10.508   3.278   0.809  1.00  0.00     0.034 C 
ENDBRANCH  17  18
ENDBRANCH  13  17
ENDBRANCH   6   7
BRANCH   6  20
HETATM   20  C8  UNL     1       2.843   0.781  -2.463  1.00  0.00     0.264 C 
BRANCH  20  21
HETATM   21  N3  UNL     1       1.904   1.770  -2.979  1.00  0.00    -0.077 N 
ATOM     22  H33 UNL     1       0.950   1.412  -3.016  1.00  0.00     0.274 HD
ATOM     23  H32 UNL     1       1.749   2.534  -2.321  1.00  0.00     0.274 HD
ATOM     24  H31 UNL     1       2.225   2.104  -3.888  1.00  0.00     0.274 HD
ENDBRANCH  20  21
ENDBRANCH   6  20
ENDBRANCH   3   6
ENDBRANCH   1   2
BRANCH   1  25
HETATM   25  C11 UNL     1      -1.369  -2.075  -0.646  1.00  0.00     0.035 C 
BRANCH  25  26
HETATM   26  C12 UNL     1      -1.025  -2.134   0.804  1.00  0.00     0.009 C 
BRANCH  26  27
HETATM   27  C13 UNL     1      -0.927  -3.460   1.435  1.00  0.00     0.013 C 
HETATM   28  C14 UNL     1      -2.170  -4.289   1.417  1.00  0.00     0.034 C 
HETATM   29  C15 UNL     1      -1.839  -5.406   0.468  1.00  0.00     0.232 C 
HETATM   30  N5  UNL     1      -0.403  -5.620   0.696  1.00  0.00    -0.075 N 
HETATM   31  C16 UNL     1       0.178  -4.325   0.877  1.00  0.00     0.237 C 
ATOM     32  H52 UNL     1      -0.208  -6.261   1.465  1.00  0.00     0.277 HD
ATOM     33  H51 UNL     1       0.046  -6.164  -0.041  1.00  0.00     0.277 HD
ENDBRANCH  26  27
ENDBRANCH  25  26
ENDBRANCH   1  25
BRANCH   1  34
HETATM   34  N6  UNL     1      -2.558   0.069  -0.501  1.00  0.00    -0.343 N 
HETATM   35  C17 UNL     1      -3.482   0.880  -1.245  1.00  0.00     0.265 C 
HETATM   36  O5  UNL     1      -3.198   0.963  -2.470  1.00  0.00    -0.266 OA
ATOM     37  H6  UNL     1      -2.718  -0.027   0.502  1.00  0.00     0.163 HD
BRANCH  35  38
HETATM   38  C18 UNL     1      -4.646   1.566  -0.717  1.00  0.00     0.087 C 
BRANCH  38  39
HETATM   39  N7  UNL     1      -5.538   0.857   0.125  1.00  0.00    -0.359 N 
HETATM   40  C19 UNL     1      -5.192   0.316   1.348  1.00  0.00     0.064 C 
HETATM   41  C20 UNL     1      -6.398   0.325   2.289  1.00  0.00     0.045 C 
HETATM   42  C21 UNL     1      -7.654   0.032   1.555  1.00  0.00     0.007 C 
HETATM   43  C22 UNL     1      -7.475  -0.599   0.221  1.00  0.00     0.021 C 
HETATM   44  C23 UNL     1      -6.396  -0.048  -0.624  1.00  0.00     0.128 C 
ENDBRANCH  38  39
BRANCH  38  45
HETATM   45  C24 UNL     1      -4.435   2.971  -0.224  1.00  0.00    -0.003 C 
HETATM   46  C25 UNL     1      -5.767   3.477   0.300  1.00  0.00     0.021 C 
HETATM   47  C26 UNL     1      -4.148   3.915  -1.417  1.00  0.00     0.021 C 
HETATM   48  C27 UNL     1      -3.416   3.153   0.843  1.00  0.00     0.021 C 
ENDBRANCH  38  45
ENDBRANCH  35  38
ENDBRANCH   1  34
TORSDOF 14
