REMARK  16 active torsions:
REMARK  status: ('A' for Active; 'I' for Inactive)
REMARK    1  A    between atoms: N1_1  and  C1_5 
REMARK    2  A    between atoms: C1_5  and  C2_6 
REMARK    3  A    between atoms: C2_6  and  C3_7 
REMARK    4  A    between atoms: C3_7  and  C4_8 
REMARK    5  A    between atoms: C4_8  and  C5_9 
REMARK    6  A    between atoms: C5_9  and  N2_10 
REMARK    7  A    between atoms: C5_9  and  C16_26 
REMARK       I    between atoms: N2_10  and  C6_12 
REMARK    8  A    between atoms: C6_12  and  C7_14 
REMARK       I    between atoms: C7_14  and  N3_16 
REMARK    9  A    between atoms: C16_26  and  O4_27 
REMARK   10  A    between atoms: C16_26  and  N4_29 
REMARK   11  A    between atoms: N5_33  and  C20_34 
REMARK   12  A    between atoms: C20_34  and  C21_35 
REMARK   13  A    between atoms: C21_35  and  O5_36 
REMARK   14  A    between atoms: O5_36  and  C22_37 
REMARK   15  A    between atoms: C22_37  and  C23_38 
REMARK   16  A    between atoms: C23_38  and  O6_39 
ROOT
HETATM    1  C5  UNL     1       1.637  -0.648  -0.064  1.00  0.00     0.159 C 
ENDROOT
BRANCH   1   2
HETATM    2  C4  UNL     1       1.561  -2.091  -0.439  1.00  0.00     0.034 C 
BRANCH   2   3
HETATM    3  C3  UNL     1       2.801  -2.843   0.082  1.00  0.00     0.004 C 
BRANCH   3   4
HETATM    4  C2  UNL     1       2.614  -4.279  -0.358  1.00  0.00     0.027 C 
BRANCH   4   5
HETATM    5  C1  UNL     1       3.795  -5.105   0.113  1.00  0.00     0.229 C 
BRANCH   5   6
HETATM    6  N1  UNL     1       3.609  -6.483  -0.316  1.00  0.00    -0.079 N 
ATOM      7  H13 UNL     1       2.717  -6.869  -0.007  1.00  0.00     0.274 HD
ATOM      8  H12 UNL     1       3.457  -6.560  -1.322  1.00  0.00     0.274 HD
ATOM      9  H11 UNL     1       4.403  -7.039   0.001  1.00  0.00     0.274 HD
ENDBRANCH   5   6
ENDBRANCH   4   5
ENDBRANCH   3   4
ENDBRANCH   2   3
ENDBRANCH   1   2
BRANCH   1  10
HETATM   10  N2  UNL     1       2.867  -0.043  -0.589  1.00  0.00    -0.341 N 
HETATM   11  C6  UNL     1       3.878   0.440   0.323  1.00  0.00     0.310 C 
HETATM   12  O1  UNL     1       3.633   0.318   1.542  1.00  0.00    -0.262 OA
ATOM     13  H2  UNL     1       3.008   0.036  -1.596  1.00  0.00     0.163 HD
BRANCH  11  14
HETATM   14  C7  UNL     1       5.096   1.025  -0.139  1.00  0.00     0.316 C 
HETATM   15  O2  UNL     1       5.183   1.049  -1.432  1.00  0.00    -0.262 OA
HETATM   16  N3  UNL     1       6.172   1.558   0.606  1.00  0.00    -0.309 N 
HETATM   17  C8  UNL     1       7.457   2.145   0.457  1.00  0.00     0.012 C 
HETATM   18  C13 UNL     1       6.247   1.708   2.113  1.00  0.00     0.100 C 
HETATM   19  C9  UNL     1       7.923   3.369   0.296  1.00  0.00     0.006 C 
HETATM   20  C15 UNL     1       8.375   1.094   1.003  1.00  0.00     0.059 C 
HETATM   21  C10 UNL     1       7.015   4.628   0.253  1.00  0.00     0.107 C 
HETATM   22  C11 UNL     1       6.038   4.142   1.359  1.00  0.00     0.132 C 
HETATM   23  O3  UNL     1       4.957   4.670   1.275  1.00  0.00    -0.298 OA
HETATM   24  C12 UNL     1       6.260   3.164   2.445  1.00  0.00     0.104 C 
HETATM   25  C14 UNL     1       7.605   1.002   2.368  1.00  0.00     0.032 C 
ENDBRANCH  11  14
ENDBRANCH   1  10
BRANCH   1  26
HETATM   26  C16 UNL     1       0.484   0.211  -0.357  1.00  0.00     0.137 C 
BRANCH  26  27
HETATM   27  O4  UNL     1       0.830   1.495  -0.437  1.00  0.00    -0.348 OA
ATOM     28  H4  UNL     1       0.084   2.051  -0.627  1.00  0.00     0.219 HD
ENDBRANCH  26  27
BRANCH  26  29
HETATM   29  N4  UNL     1      -0.870  -0.047  -0.561  1.00  0.00    -0.359 N 
HETATM   30  C17 UNL     1      -1.508  -1.308  -0.622  1.00  0.00     0.126 C 
HETATM   31  C18 UNL     1      -2.155  -1.689   0.696  1.00  0.00     0.040 C 
HETATM   32  C19 UNL     1      -3.165  -0.618   1.026  1.00  0.00     0.124 C 
HETATM   33  N5  UNL     1      -3.722  -0.074  -0.152  1.00  0.00    -0.380 N 
HETATM   34  C29 UNL     1      -3.111   1.023  -0.768  1.00  0.00     0.079 C 
HETATM   35  C30 UNL     1      -1.653   1.216  -0.668  1.00  0.00     0.168 C 
BRANCH  33  36
HETATM   36  C20 UNL     1      -5.128  -0.269  -0.308  1.00  0.00     0.053 C 
HETATM   37  C24 UNL     1      -5.782   0.217   0.978  1.00  0.00     0.033 C 
HETATM   38  C25 UNL     1      -6.686  -0.786   1.606  1.00  0.00     0.002 C 
HETATM   39  C26 UNL     1      -7.616  -1.461   0.624  1.00  0.00     0.000 C 
HETATM   40  C27 UNL     1      -6.890  -2.047  -0.546  1.00  0.00     0.002 C 
HETATM   41  C28 UNL     1      -5.408  -1.747  -0.523  1.00  0.00     0.033 C 
BRANCH  36  42
HETATM   42  C21 UNL     1      -5.699   0.438  -1.501  1.00  0.00     0.198 C 
BRANCH  42  43
HETATM   43  O5  UNL     1      -5.599   1.809  -1.497  1.00  0.00    -0.387 OA
BRANCH  43  44
HETATM   44  C22 UNL     1      -6.136   2.415  -2.603  1.00  0.00     0.193 C 
BRANCH  44  45
HETATM   45  C23 UNL     1      -5.955   3.912  -2.466  1.00  0.00     0.190 C 
BRANCH  45  46
HETATM   46  O6  UNL     1      -4.614   4.273  -2.369  1.00  0.00    -0.399 OA
ATOM     47  H6  UNL     1      -4.500   5.212  -2.283  1.00  0.00     0.209 HD
ENDBRANCH  45  46
ENDBRANCH  44  45
ENDBRANCH  43  44
ENDBRANCH  42  43
ENDBRANCH  36  42
ENDBRANCH  33  36
ENDBRANCH  26  29
ENDBRANCH   1  26
TORSDOF 16
