REMARK  14 active torsions:
REMARK  status: ('A' for Active; 'I' for Inactive)
REMARK    1  A    between atoms: O1_2  and  C2_3 
REMARK    2  A    between atoms: C2_3  and  C3_5 
REMARK    3  A    between atoms: C3_5  and  N1_6 
REMARK    4  A    between atoms: C3_5  and  C24_38 
REMARK       I    between atoms: N1_6  and  C4_8 
REMARK    5  A    between atoms: C4_8  and  C5_10 
REMARK    6  A    between atoms: C5_10  and  C6_11 
REMARK    7  A    between atoms: C5_10  and  N2_18 
REMARK    8  A    between atoms: C6_11  and  C7_12 
REMARK       I    between atoms: N2_18  and  C13_20 
REMARK    9  A    between atoms: C13_20  and  C14_22 
REMARK   10  A    between atoms: C14_22  and  N3_23 
REMARK   11  A    between atoms: C14_22  and  C21_35 
REMARK       I    between atoms: N3_23  and  C15_25 
REMARK   12  A    between atoms: C15_25  and  C16_27 
REMARK       I    between atoms: C16_27  and  N4_29 
REMARK   13  A    between atoms: N4_29  and  C17_31 
REMARK   14  A    between atoms: C24_38  and  N5_40 
ROOT
HETATM    1  C5  UNL     1      -0.759   1.435   0.321  1.00  0.00     0.177 C 
ENDROOT
BRANCH   1   2
HETATM    2  C4  UNL     1      -1.756   0.565   1.064  1.00  0.00     0.241 C 
HETATM    3  N1  UNL     1      -3.004   0.223   0.563  1.00  0.00    -0.343 N 
ATOM      4  H1  UNL     1      -3.247   0.593  -0.356  1.00  0.00     0.163 HD
HETATM    5  O3  UNL     1      -1.425   0.124   2.204  1.00  0.00    -0.271 OA
BRANCH   3   6
HETATM    6  C3  UNL     1      -3.994  -0.605   1.213  1.00  0.00     0.217 C 
BRANCH   6   7
HETATM    7  C2  UNL     1      -5.287   0.038   1.382  1.00  0.00     0.283 C 
HETATM    8  O2  UNL     1      -5.593   1.195   0.997  1.00  0.00    -0.263 OA
BRANCH   7   9
HETATM    9  O1  UNL     1      -6.285  -0.687   2.030  1.00  0.00    -0.325 OA
HETATM   10  C1  UNL     1      -7.587  -0.197   2.267  1.00  0.00     0.213 C 
ENDBRANCH   7   9
ENDBRANCH   6   7
BRANCH   6  11
HETATM   11  C24 UNL     1      -4.168  -1.914   0.445  1.00  0.00     0.251 C 
HETATM   12  C25 UNL     1      -2.733  -2.475   0.375  1.00  0.00     0.045 C 
BRANCH  11  13
HETATM   13  N5  UNL     1      -4.621  -1.749  -0.879  1.00  0.00     0.099 N 
HETATM   14  C26 UNL     1      -4.159  -2.876  -1.703  1.00  0.00     0.299 C 
HETATM   15  C27 UNL     1      -4.903  -4.149  -1.393  1.00  0.00     0.198 C 
HETATM   16  O7  UNL     1      -6.268  -3.970  -1.670  1.00  0.00    -0.388 OA
HETATM   17  C28 UNL     1      -6.703  -3.032  -0.722  1.00  0.00     0.198 C 
HETATM   18  C29 UNL     1      -6.040  -1.713  -1.106  1.00  0.00     0.299 C 
ENDBRANCH  11  13
ENDBRANCH   6  11
ENDBRANCH   3   6
ENDBRANCH   1   2
BRANCH   1  19
HETATM   19  C6  UNL     1      -1.327   2.766   0.012  1.00  0.00     0.039 C 
BRANCH  19  20
HETATM   20  C7  UNL     1      -0.444   3.717  -0.717  1.00  0.00    -0.012 C 
HETATM   21  C8  UNL     1       0.013   3.245  -2.068  1.00  0.00     0.005 C 
HETATM   22  C9  UNL     1      -0.879   3.804  -3.177  1.00  0.00     0.000 C 
HETATM   23  C10 UNL     1      -0.804   5.291  -3.281  1.00  0.00     0.000 C 
HETATM   24  C11 UNL     1      -0.452   5.843  -1.901  1.00  0.00     0.000 C 
HETATM   25  C12 UNL     1      -1.271   4.998  -0.923  1.00  0.00     0.005 C 
ENDBRANCH  19  20
ENDBRANCH   1  19
BRANCH   1  26
HETATM   26  N2  UNL     1       0.456   1.549   1.109  1.00  0.00    -0.346 N 
HETATM   27  C13 UNL     1       1.575   0.708   0.931  1.00  0.00     0.241 C 
HETATM   28  O4  UNL     1       1.429  -0.175   0.007  1.00  0.00    -0.271 OA
ATOM     29  H2  UNL     1       0.503   2.273   1.826  1.00  0.00     0.163 HD
BRANCH  27  30
HETATM   30  C14 UNL     1       2.836   0.748   1.677  1.00  0.00     0.180 C 
BRANCH  30  31
HETATM   31  N3  UNL     1       3.668  -0.341   1.214  1.00  0.00    -0.339 N 
HETATM   32  C15 UNL     1       4.916  -0.214   0.566  1.00  0.00     0.310 C 
HETATM   33  O5  UNL     1       5.424   0.908   0.332  1.00  0.00    -0.262 OA
ATOM     34  H3  UNL     1       3.321  -1.287   1.370  1.00  0.00     0.163 HD
BRANCH  32  35
HETATM   35  C16 UNL     1       5.670  -1.394   0.139  1.00  0.00     0.309 C 
HETATM   36  O6  UNL     1       5.170  -2.548   0.366  1.00  0.00    -0.262 OA
HETATM   37  N4  UNL     1       6.913  -1.302  -0.508  1.00  0.00    -0.345 N 
ATOM     38  H4  UNL     1       7.322  -0.386  -0.692  1.00  0.00     0.163 HD
BRANCH  37  39
HETATM   39  C17 UNL     1       7.627  -2.516  -0.921  1.00  0.00     0.022 C 
HETATM   40  C18 UNL     1       7.906  -3.385   0.310  1.00  0.00     0.037 C 
HETATM   41  C19 UNL     1       8.925  -2.184  -1.573  1.00  0.00     0.037 C 
HETATM   42  C20 UNL     1       6.772  -3.279  -1.916  1.00  0.00     0.037 C 
ENDBRANCH  37  39
ENDBRANCH  32  35
ENDBRANCH  30  31
BRANCH  30  43
HETATM   43  C21 UNL     1       2.727   0.621   3.159  1.00  0.00     0.009 C 
HETATM   44  C22 UNL     1       2.075  -0.667   3.594  1.00  0.00     0.012 C 
HETATM   45  C23 UNL     1       2.203   1.831   3.879  1.00  0.00     0.012 C 
ENDBRANCH  30  43
ENDBRANCH  27  30
ENDBRANCH   1  26
TORSDOF 14
