REMARK  5 active torsions:
REMARK  status: ('A' for Active; 'I' for Inactive)
REMARK    1  A    between atoms: S1_2  and  C2_3 
REMARK    2  A    between atoms: C5_10  and  N3_11 
REMARK    3  A    between atoms: N3_11  and  C6_13 
REMARK    4  A    between atoms: C7_16  and  N5_17 
REMARK    5  A    between atoms: N8_27  and  O1_28 
ROOT
HETATM    1  C6  UNL     1      -1.098   1.000   0.124  1.00  0.00     0.714 A 
HETATM    2  N4  UNL     1      -0.874  -0.055   0.931  1.00  0.00    -0.174 N 
ATOM      3  H4  UNL     1      -0.186  -0.757   0.657  1.00  0.00     0.186 HD
HETATM    4  C7  UNL     1      -1.546  -0.204   2.104  1.00  0.00     0.130 A 
HETATM    5  C8  UNL     1      -2.458   0.785   2.403  1.00  0.00     0.073 A 
HETATM    6  C9  UNL     1      -3.319   0.981   3.483  1.00  0.00     0.126 A 
HETATM    7  N6  UNL     1      -3.991   2.125   3.252  1.00  0.00    -0.307 N 
ATOM      8  H6  UNL     1      -4.692   2.519   3.879  1.00  0.00     0.186 HD
HETATM    9  N7  UNL     1      -3.625   2.667   2.113  1.00  0.00    -0.278 N 
HETATM   10  C10 UNL     1      -4.153   3.888   1.582  1.00  0.00     0.179 C 
HETATM   11  C11 UNL     1      -2.685   1.860   1.577  1.00  0.00     0.183 A 
HETATM   12  N8  UNL     1      -2.000   1.952   0.447  1.00  0.00    -0.033 N 
ENDROOT
BRANCH   1  13
HETATM   13  N3  UNL     1      -0.481   1.174  -0.992  1.00  0.00    -0.169 N 
ATOM     14  H3  UNL     1      -0.729   2.009  -1.524  1.00  0.00     0.186 HD
BRANCH  13  15
HETATM   15  C5  UNL     1       0.495   0.340  -1.556  1.00  0.00     0.183 C 
HETATM   16  N2  UNL     1       0.277  -0.161  -2.740  1.00  0.00    -0.286 N 
HETATM   17  N1  UNL     1       1.239  -0.994  -3.318  1.00  0.00    -0.333 N 
ATOM     18  H2  UNL     1      -0.586   0.053  -3.239  1.00  0.00     0.188 HD
HETATM   19  C4  UNL     1       1.939  -1.918  -2.445  1.00  0.00     0.168 C 
ATOM     20  H1  UNL     1       1.442  -0.954  -4.317  1.00  0.00     0.180 HD
HETATM   21  C2  UNL     1       2.550  -1.208  -1.280  1.00  0.00     0.089 C 
HETATM   22  C3  UNL     1       3.994  -0.793  -1.576  1.00  0.00     0.037 C 
HETATM   23  C12 UNL     1       1.767  -0.025  -0.919  1.00  0.00     0.214 C 
HETATM   24  O2  UNL     1       2.186   0.745  -0.009  1.00  0.00    -0.287 OA
BRANCH  21  25
HETATM   25  S1  UNL     1       2.533  -2.371   0.130  1.00  0.00    -0.154 SA
HETATM   26  C1  UNL     1       3.368  -3.888  -0.411  1.00  0.00     0.091 C 
ENDBRANCH  21  25
ENDBRANCH  13  15
ENDBRANCH   1  13
BRANCH  12  27
HETATM   27  O1  UNL     1      -2.237   3.036  -0.373  1.00  0.00    -0.268 OA
ATOM     28  H1  UNL     1      -2.871   3.706  -0.146  1.00  0.00     0.246 HD
ENDBRANCH  12  27
BRANCH   4  29
HETATM   29  N5  UNL     1      -1.358  -1.199   2.903  1.00  0.00    -0.384 N 
ATOM     30  H52 UNL     1      -0.683  -1.931   2.682  1.00  0.00     0.157 HD
ATOM     31  H51 UNL     1      -1.862  -1.311   3.783  1.00  0.00     0.157 HD
ENDBRANCH   4  29
TORSDOF 5
