REMARK  3 active torsions:
REMARK  status: ('A' for Active; 'I' for Inactive)
REMARK    1  A    between atoms: C2_3  and  O1_4 
REMARK    2  A    between atoms: N2_9  and  O2_10 
REMARK    3  A    between atoms: C8_15  and  N3_16 
ROOT
HETATM    1  C1  UNL     1      -3.340   2.017   0.309  1.00  0.00     0.161 C 
HETATM    2  N1  UNL     1      -2.360   0.923   0.123  1.00  0.00    -0.296 N 
HETATM    3  C2  UNL     1      -1.026   1.235   0.169  1.00  0.00     0.158 A 
HETATM    4  C3  UNL     1      -0.114   0.240  -0.000  1.00  0.00     0.062 A 
HETATM    5  C4  UNL     1       1.248   0.525   0.032  1.00  0.00     0.080 A 
HETATM    6  C5  UNL     1       2.159  -0.521  -0.156  1.00  0.00     0.096 A 
HETATM    7  N2  UNL     1       1.711  -1.787  -0.364  1.00  0.00    -0.187 N 
HETATM    8  C6  UNL     1       0.410  -2.072  -0.397  1.00  0.00     0.285 A 
HETATM    9  O3  UNL     1       0.014  -3.258  -0.595  1.00  0.00    -0.265 OA
HETATM   10  C7  UNL     1      -0.530  -1.091  -0.219  1.00  0.00     0.090 A 
HETATM   11  C8  UNL     1      -1.873  -1.377  -0.259  1.00  0.00     0.187 A 
HETATM   12  C9  UNL     1      -2.752  -0.324  -0.081  1.00  0.00     0.283 A 
HETATM   13  O6  UNL     1      -3.985  -0.565  -0.116  1.00  0.00    -0.265 OA
HETATM   14  C10 UNL     1       3.605  -0.281  -0.128  1.00  0.00     0.242 A 
HETATM   15  O7  UNL     1       4.008   1.033   0.075  1.00  0.00    -0.298 OA
HETATM   16  C11 UNL     1       3.120   2.059   0.260  1.00  0.00     0.365 A 
HETATM   17  O8  UNL     1       3.540   3.221   0.448  1.00  0.00    -0.238 OA
HETATM   18  N4  UNL     1       1.691   1.839   0.244  1.00  0.00    -0.300 N 
ATOM     19  H4  UNL     1       1.033   2.606   0.381  1.00  0.00     0.171 HD
ENDROOT
BRANCH  11  20
HETATM   20  N3  UNL     1      -2.395  -2.696  -0.477  1.00  0.00    -0.109 N 
HETATM   21  O4  UNL     1      -2.491  -3.487   0.468  1.00  0.00    -0.532 OA
HETATM   22  O5  UNL     1      -2.834  -3.097  -1.711  1.00  0.00    -0.532 OA
ENDBRANCH  11  20
BRANCH   3  23
HETATM   23  O1  UNL     1      -0.727   2.555   0.387  1.00  0.00    -0.345 OA
ATOM     24  H1  UNL     1       0.198   2.771   0.419  1.00  0.00     0.219 HD
ENDBRANCH   3  23
BRANCH   7  25
HETATM   25  O2  UNL     1       2.629  -2.791  -0.546  1.00  0.00    -0.280 OA
ATOM     26  H2  UNL     1       2.316  -3.676  -0.691  1.00  0.00     0.245 HD
ENDBRANCH   7  25
TORSDOF 3
