REMARK  4 active torsions:
REMARK  status: ('A' for Active; 'I' for Inactive)
REMARK    1  A    between atoms: C8_15  and  O5_16 
REMARK    2  A    between atoms: C9_18  and  O6_19 
REMARK    3  A    between atoms: C10_21  and  O7_22 
REMARK    4  A    between atoms: C11_24  and  N2_25 
ROOT
HETATM    1  N1  UNL     1       0.970   2.515  -0.750  1.00  0.00    -0.395 N 
ATOM      2  H11 UNL     1       1.760   1.932  -1.027  1.00  0.00     0.156 HD
ATOM      3  H12 UNL     1       0.718   3.502  -0.809  1.00  0.00     0.156 HD
HETATM    4  C1  UNL     1       0.074   1.830  -0.193  1.00  0.00     0.094 C 
HETATM    5  C2  UNL     1      -1.070   2.675   0.209  1.00  0.00     0.253 C 
HETATM    6  O1  UNL     1      -0.799   3.850   0.470  1.00  0.00    -0.281 OA
HETATM    7  C3  UNL     1      -2.495   2.317   0.346  1.00  0.00     0.277 C 
HETATM    8  O2  UNL     1      -3.177   3.201   0.884  1.00  0.00    -0.280 OA
HETATM    9  C4  UNL     1      -3.304   1.141  -0.013  1.00  0.00     0.275 C 
HETATM   10  O3  UNL     1      -4.539   1.356   0.042  1.00  0.00    -0.280 OA
HETATM   11  C5  UNL     1      -2.880  -0.191  -0.409  1.00  0.00     0.226 C 
HETATM   12  O4  UNL     1      -3.884  -0.749  -0.993  1.00  0.00    -0.284 OA
HETATM   13  C6  UNL     1      -1.776  -1.103  -0.394  1.00  0.00     0.074 C 
HETATM   14  C7  UNL     1      -0.417  -0.684  -0.191  1.00  0.00     0.019 A 
HETATM   15  C8  UNL     1       0.221  -1.927  -0.015  1.00  0.00     0.113 A 
HETATM   16  C9  UNL     1       1.555  -2.047   0.217  1.00  0.00     0.136 A 
HETATM   17  C10 UNL     1       2.324  -0.943   0.285  1.00  0.00     0.136 A 
HETATM   18  C11 UNL     1       1.777   0.364   0.120  1.00  0.00     0.152 A 
HETATM   19  C12 UNL     1       0.433   0.426  -0.109  1.00  0.00     0.043 A 
ENDROOT
BRANCH  18  20
HETATM   20  N2  UNL     1       2.642   1.439   0.158  1.00  0.00    -0.112 N 
HETATM   21  O8  UNL     1       2.886   2.042   1.194  1.00  0.00    -0.532 OA
HETATM   22  O9  UNL     1       3.317   1.867  -0.921  1.00  0.00    -0.532 OA
ENDBRANCH  18  20
BRANCH  15  23
HETATM   23  O5  UNL     1      -0.557  -3.082  -0.082  1.00  0.00    -0.357 OA
ATOM     24  H5  UNL     1      -0.127  -3.921   0.037  1.00  0.00     0.217 HD
ENDBRANCH  15  23
BRANCH  17  25
HETATM   25  O7  UNL     1       3.692  -0.974   0.518  1.00  0.00    -0.356 OA
ATOM     26  H7  UNL     1       4.234  -0.195   0.566  1.00  0.00     0.218 HD
ENDBRANCH  17  25
BRANCH  16  27
HETATM   27  O6  UNL     1       2.214  -3.284   0.396  1.00  0.00    -0.356 OA
ATOM     28  H6  UNL     1       3.146  -3.368   0.558  1.00  0.00     0.218 HD
ENDBRANCH  16  27
TORSDOF 4
