REMARK  3 active torsions:
REMARK  status: ('A' for Active; 'I' for Inactive)
REMARK    1  A    between atoms: O1_2  and  C2_3 
REMARK    2  A    between atoms: C2_3  and  O2_4 
REMARK    3  A    between atoms: N8_29  and  O4_30 
ROOT
HETATM    1  C2  UNL     1      -3.151   0.237   0.330  1.00  0.00     0.311 C 
HETATM    2  C4  UNL     1      -1.610   0.189   0.195  1.00  0.00     0.111 A 
HETATM    3  N1  UNL     1      -0.693   0.927   0.582  1.00  0.00    -0.337 N 
ATOM      4  H1  UNL     1      -0.908   1.775   1.106  1.00  0.00     0.167 HD
HETATM    5  C5  UNL     1       0.674   0.588   0.293  1.00  0.00     0.151 A 
HETATM    6  N2  UNL     1       1.654   1.328   0.678  1.00  0.00    -0.332 N 
ATOM      7  H2  UNL     1       1.458   2.180   1.203  1.00  0.00     0.168 HD
HETATM    8  C6  UNL     1       2.994   0.989   0.391  1.00  0.00     0.147 A 
HETATM    9  C7  UNL     1       3.284  -0.155  -0.317  1.00  0.00     0.141 A 
HETATM   10  N3  UNL     1       4.574  -0.431  -0.563  1.00  0.00    -0.330 N 
ATOM     11  H3  UNL     1       4.800  -1.276  -1.087  1.00  0.00     0.168 HD
HETATM   12  C8  UNL     1       5.581   0.356  -0.150  1.00  0.00     0.081 A 
HETATM   13  C9  UNL     1       7.008   0.014  -0.444  1.00  0.00     0.089 C 
HETATM   14  N4  UNL     1       5.275   1.471   0.541  1.00  0.00    -0.311 N 
ATOM     15  H4  UNL     1       6.039   2.070   0.855  1.00  0.00     0.170 HD
HETATM   16  C10 UNL     1       4.016   1.836   0.839  1.00  0.00     0.277 A 
HETATM   17  O3  UNL     1       3.749   2.886   1.488  1.00  0.00    -0.266 OA
HETATM   18  N5  UNL     1       2.218  -0.984  -0.751  1.00  0.00    -0.324 N 
ATOM     19  H5  UNL     1       2.424  -1.834  -1.276  1.00  0.00     0.169 HD
HETATM   20  C11 UNL     1       0.855  -0.645  -0.463  1.00  0.00     0.149 A 
HETATM   21  N6  UNL     1      -0.128  -1.370  -0.848  1.00  0.00    -0.349 N 
ATOM     22  H6  UNL     1       0.077  -2.224  -1.367  1.00  0.00     0.163 HD
HETATM   23  C12 UNL     1      -1.464  -1.057  -0.597  1.00  0.00     0.248 A 
HETATM   24  N7  UNL     1      -2.247  -1.925   0.254  1.00  0.00    -0.102 NA
HETATM   25  N8  UNL     1      -3.440  -1.202   0.312  1.00  0.00    -0.039 NA
ENDROOT
BRANCH   1  26
HETATM   26  O1  UNL     1      -3.534   0.859  -0.807  1.00  0.00    -0.340 OA
HETATM   27  C1  UNL     1      -4.782   1.208  -1.106  1.00  0.00     0.207 C 
ENDBRANCH   1  26
BRANCH   1  28
HETATM   28  O2  UNL     1      -3.349   0.785   1.537  1.00  0.00    -0.340 OA
HETATM   29  C3  UNL     1      -4.523   1.105   2.064  1.00  0.00     0.207 C 
ENDBRANCH   1  28
BRANCH  25  30
HETATM   30  O4  UNL     1      -4.281  -1.556  -0.667  1.00  0.00    -0.292 OA
ATOM     31  H4  UNL     1      -4.468  -2.487  -0.679  1.00  0.00     0.239 HD
ENDBRANCH  25  30
TORSDOF 3
