REMARK  2 active torsions:
REMARK  status: ('A' for Active; 'I' for Inactive)
REMARK    1  A    between atoms: N2_12  and  C11_13 
REMARK    2  A    between atoms: C17_20  and  N3_21 
ROOT
HETATM    1  C1  UNL     1      -3.139  -2.366   1.565  1.00  0.00     0.070 C 
HETATM    2  C2  UNL     1      -3.447  -1.083   0.891  1.00  0.00     0.035 A 
HETATM    3  C3  UNL     1      -4.704  -0.498   0.850  1.00  0.00     0.079 A 
HETATM    4  C4  UNL     1      -5.934  -0.959   1.410  1.00  0.00     0.102 C 
HETATM    5  N1  UNL     1      -6.924  -1.339   1.883  1.00  0.00    -0.191 NA
HETATM    6  C5  UNL     1      -4.561   0.693   0.122  1.00  0.00     0.014 A 
HETATM    7  C6  UNL     1      -5.472   1.673  -0.231  1.00  0.00     0.015 A 
HETATM    8  C7  UNL     1      -5.066   2.765  -0.963  1.00  0.00     0.001 A 
HETATM    9  C8  UNL     1      -3.742   2.858  -1.332  1.00  0.00     0.002 A 
HETATM   10  C9  UNL     1      -2.834   1.884  -0.981  1.00  0.00     0.031 A 
HETATM   11  C10 UNL     1      -3.235   0.785  -0.246  1.00  0.00     0.051 A 
HETATM   12  N2  UNL     1      -2.575  -0.304   0.230  1.00  0.00    -0.314 N 
ENDROOT
BRANCH  12  13
HETATM   13  C11 UNL     1      -1.160  -0.512   0.015  1.00  0.00     0.042 A 
HETATM   14  C12 UNL     1      -0.717  -1.615  -0.678  1.00  0.00     0.031 A 
HETATM   15  C13 UNL     1       0.627  -1.826  -0.890  1.00  0.00     0.020 A 
HETATM   16  C14 UNL     1       1.560  -0.931  -0.411  1.00  0.00     0.042 A 
HETATM   17  C15 UNL     1       2.868  -1.240  -0.681  1.00  0.00     0.199 C 
HETATM   18  C22 UNL     1       1.098   0.165   0.278  1.00  0.00     0.051 A 
HETATM   19  O1  UNL     1       3.048  -2.372  -1.172  1.00  0.00    -0.286 OA
HETATM   20  C16 UNL     1       4.032  -0.507  -0.502  1.00  0.00     0.074 A 
HETATM   21  C17 UNL     1       5.169  -1.105  -0.992  1.00  0.00     0.114 A 
HETATM   22  C20 UNL     1       4.123   0.720   0.105  1.00  0.00     0.051 A 
HETATM   23  N4  UNL     1       6.379  -0.517  -0.894  1.00  0.00    -0.352 N 
HETATM   24  C18 UNL     1       6.503   0.675  -0.310  1.00  0.00     0.090 A 
ATOM     25  H4  UNL     1       7.203  -0.987  -1.269  1.00  0.00     0.166 HD
HETATM   26  C19 UNL     1       5.374   1.298   0.192  1.00  0.00     0.035 A 
HETATM   27  C21 UNL     1       3.121   1.471   0.651  1.00  0.00     0.257 C 
HETATM   28  O2  UNL     1       3.466   2.609   1.030  1.00  0.00    -0.267 OA
HETATM   29  N5  UNL     1       1.835   1.170   0.837  1.00  0.00    -0.322 N 
ATOM     30  H5  UNL     1       1.332   1.774   1.487  1.00  0.00     0.169 HD
HETATM   31  C23 UNL     1      -0.237   0.379   0.492  1.00  0.00     0.060 A 
BRANCH  21  32
HETATM   32  N3  UNL     1       5.026  -2.260  -1.553  1.00  0.00    -0.385 N 
ATOM     33  H32 UNL     1       4.111  -2.705  -1.627  1.00  0.00     0.157 HD
ATOM     34  H31 UNL     1       5.869  -2.704  -1.917  1.00  0.00     0.157 HD
ENDBRANCH  21  32
ENDBRANCH  12  13
TORSDOF 2
