REMARK  6 active torsions:
REMARK  status: ('A' for Active; 'I' for Inactive)
REMARK    1  A    between atoms: C1_2  and  C2_3 
REMARK       I    between atoms: C1_2  and  N2_12 
REMARK    2  A    between atoms: C3_4  and  C4_5 
REMARK    3  A    between atoms: N2_12  and  N3_14 
REMARK    4  A    between atoms: N3_14  and  C9_15 
REMARK    5  A    between atoms: C9_15  and  O2_16 
REMARK    6  A    between atoms: C9_15  and  C10_18 
ROOT
HETATM    1  C9  UNL     1      -0.272   0.960   1.102  1.00  0.00     0.248 C 
ENDROOT
BRANCH   1   2
HETATM    2  N3  UNL     1      -1.435   0.356   0.878  1.00  0.00    -0.296 NA
BRANCH   2   3
HETATM    3  N2  UNL     1      -2.597  -0.228   0.652  1.00  0.00    -0.189 N 
HETATM    4  C1  UNL     1      -3.369   0.277  -0.481  1.00  0.00     0.325 C 
HETATM    5  O1  UNL     1      -2.852   1.229  -1.158  1.00  0.00    -0.255 OA
ATOM      6  H2  UNL     1      -2.938  -0.991   1.237  1.00  0.00     0.206 HD
BRANCH   4   7
HETATM    7  C2  UNL     1      -4.633  -0.177  -0.902  1.00  0.00     0.003 C 
HETATM    8  C3  UNL     1      -5.729  -0.495  -1.295  1.00  0.00    -0.055 C 
BRANCH   8   9
HETATM    9  C4  UNL     1      -7.025  -0.799  -1.801  1.00  0.00     0.033 A 
HETATM   10  C5  UNL     1      -7.435  -1.959  -2.407  1.00  0.00     0.023 A 
HETATM   11  C6  UNL     1      -8.696  -2.168  -2.929  1.00  0.00     0.019 A 
HETATM   12  C7  UNL     1      -9.597  -1.135  -2.829  1.00  0.00     0.087 A 
HETATM   13  N1  UNL     1      -9.214   0.000  -2.241  1.00  0.00    -0.374 N 
HETATM   14  C8  UNL     1      -8.004   0.211  -1.736  1.00  0.00     0.108 A 
ATOM     15  H1  UNL     1      -9.896   0.756  -2.175  1.00  0.00     0.164 HD
ENDBRANCH   8   9
ENDBRANCH   4   7
ENDBRANCH   2   3
ENDBRANCH   1   2
BRANCH   1  16
HETATM   16  O2  UNL     1      -0.279   2.358   0.893  1.00  0.00    -0.333 OA
ATOM     17  H2  UNL     1       0.552   2.790   1.053  1.00  0.00     0.220 HD
ENDBRANCH   1  16
BRANCH   1  18
HETATM   18  C10 UNL     1       1.059   0.649   1.519  1.00  0.00     0.034 A 
HETATM   19  C11 UNL     1       1.348   0.696   2.896  1.00  0.00     0.018 A 
HETATM   20  C12 UNL     1       2.691   0.526   3.271  1.00  0.00     0.022 A 
HETATM   21  C13 UNL     1       3.661   0.335   2.384  1.00  0.00     0.032 A 
HETATM   22  C14 UNL     1       3.434   0.280   1.033  1.00  0.00     0.051 A 
HETATM   23  S1  UNL     1       5.350   0.145   2.962  1.00  0.00    -0.086 SA
HETATM   24  C15 UNL     1       2.097   0.440   0.639  1.00  0.00     0.048 A 
HETATM   25  N4  UNL     1       4.463   0.185   0.077  1.00  0.00    -0.354 N 
HETATM   26  C16 UNL     1       5.855   0.133   0.283  1.00  0.00     0.050 A 
ATOM     27  H4  UNL     1       4.159   0.149  -0.896  1.00  0.00     0.166 HD
HETATM   28  C17 UNL     1       6.726   0.132  -0.796  1.00  0.00     0.031 A 
HETATM   29  C21 UNL     1       6.414   0.166   1.532  1.00  0.00     0.032 A 
HETATM   30  C18 UNL     1       8.119   0.168  -0.645  1.00  0.00     0.002 A 
HETATM   31  C19 UNL     1       8.681   0.205   0.623  1.00  0.00     0.002 A 
HETATM   32  C20 UNL     1       7.774   0.200   1.672  1.00  0.00     0.021 A 
ENDBRANCH   1  18
TORSDOF 6
