REMARK  11 active torsions:
REMARK  status: ('A' for Active; 'I' for Inactive)
REMARK    1  A    between atoms: O1_2  and  C2_3 
REMARK    2  A    between atoms: C4_5  and  O2_6 
REMARK    3  A    between atoms: C6_8  and  O3_9 
REMARK    4  A    between atoms: C8_11  and  O4_12 
REMARK    5  A    between atoms: C10_14  and  N1_15 
REMARK    6  A    between atoms: N1_15  and  C11_17 
REMARK    7  A    between atoms: C11_17  and  C12_18 
REMARK    8  A    between atoms: C11_17  and  C16_24 
REMARK    9  A    between atoms: C12_18  and  C13_19 
REMARK   10  A    between atoms: C13_19  and  C14_20 
REMARK   11  A    between atoms: C14_20  and  O5_22 
ROOT
HETATM    1  C2  UNL     1       1.775   1.004   1.179  1.00  0.00     0.100 A 
HETATM    2  C3  UNL     1       2.957   0.353   1.456  1.00  0.00     0.079 A 
HETATM    3  C4  UNL     1       3.402  -0.712   0.664  1.00  0.00     0.107 A 
HETATM    4  C6  UNL     1       2.647  -1.123  -0.416  1.00  0.00     0.137 A 
HETATM    5  C8  UNL     1       1.464  -0.476  -0.699  1.00  0.00     0.133 A 
HETATM    6  C10 UNL     1       1.021   0.581   0.086  1.00  0.00     0.099 A 
ENDROOT
BRANCH   6   7
HETATM    7  N1  UNL     1      -0.186   1.255  -0.203  1.00  0.00    -0.380 N 
ATOM      8  H1  UNL     1      -0.146   2.023  -0.873  1.00  0.00     0.160 HD
BRANCH   7   9
HETATM    9  C11 UNL     1      -1.477   0.943   0.377  1.00  0.00     0.085 C 
BRANCH   9  10
HETATM   10  C12 UNL     1      -1.903  -0.471   0.078  1.00  0.00     0.028 C 
BRANCH  10  11
HETATM   11  C13 UNL     1      -3.230  -0.856   0.653  1.00  0.00     0.033 C 
BRANCH  11  12
HETATM   12  C14 UNL     1      -3.512  -2.309   0.281  1.00  0.00     0.114 C 
HETATM   13  C15 UNL     1      -4.826  -2.768   0.823  1.00  0.00     0.039 C 
BRANCH  12  14
HETATM   14  O5  UNL     1      -3.500  -2.497  -1.098  1.00  0.00    -0.396 OA
ATOM     15  H5  UNL     1      -3.676  -3.401  -1.330  1.00  0.00     0.210 HD
ENDBRANCH  12  14
ENDBRANCH  11  12
ENDBRANCH  10  11
ENDBRANCH   9  10
BRANCH   9  16
HETATM   16  C16 UNL     1      -2.540   1.892  -0.090  1.00  0.00    -0.000 C 
HETATM   17  C17 UNL     1      -2.736   1.872  -1.574  1.00  0.00     0.011 C 
HETATM   18  C18 UNL     1      -2.219   3.303   0.381  1.00  0.00     0.011 C 
ENDBRANCH   9  16
ENDBRANCH   7   9
ENDBRANCH   6   7
BRANCH   1  19
HETATM   19  O1  UNL     1       1.340   2.064   1.974  1.00  0.00    -0.353 OA
HETATM   20  C1  UNL     1       2.138   2.460   3.074  1.00  0.00     0.210 C 
ENDBRANCH   1  19
BRANCH   5  21
HETATM   21  O4  UNL     1       0.749  -0.929  -1.795  1.00  0.00    -0.351 OA
HETATM   22  C9  UNL     1       1.013  -0.347  -3.051  1.00  0.00     0.210 C 
ENDBRANCH   5  21
BRANCH   4  23
HETATM   23  O3  UNL     1       3.053  -2.155  -1.204  1.00  0.00    -0.351 OA
HETATM   24  C7  UNL     1       3.846  -2.113  -2.341  1.00  0.00     0.210 C 
ENDBRANCH   4  23
BRANCH   3  25
HETATM   25  O2  UNL     1       4.590  -1.367   0.942  1.00  0.00    -0.353 OA
HETATM   26  C5  UNL     1       5.406  -0.998   2.027  1.00  0.00     0.210 C 
ENDBRANCH   3  25
TORSDOF 11
