REMARK  1 active torsions:
REMARK  status: ('A' for Active; 'I' for Inactive)
REMARK    1  A    between atoms: C4_13  and  C5_14 
ROOT
HETATM    1  N1  UNL     1       0.434  -2.237   0.752  1.00  0.00    -0.384 N 
ATOM      2  H11 UNL     1       1.441  -2.192   0.597  1.00  0.00     0.157 HD
ATOM      3  H12 UNL     1       0.082  -3.120   1.121  1.00  0.00     0.157 HD
HETATM    4  C1  UNL     1      -0.201  -1.197   0.463  1.00  0.00     0.121 A 
HETATM    5  N2  UNL     1      -1.558  -1.258   0.672  1.00  0.00    -0.294 N 
ATOM      6  H2  UNL     1      -1.957  -2.122   1.040  1.00  0.00     0.172 HD
HETATM    7  C2  UNL     1      -2.380  -0.230   0.413  1.00  0.00     0.327 A 
HETATM    8  O1  UNL     1      -3.625  -0.321   0.617  1.00  0.00    -0.247 OA
HETATM    9  N3  UNL     1      -1.905   0.933  -0.074  1.00  0.00    -0.296 N 
ATOM     10  H3  UNL     1      -2.539   1.708  -0.267  1.00  0.00     0.171 HD
HETATM   11  C3  UNL     1      -0.592   1.061  -0.302  1.00  0.00     0.139 A 
HETATM   12  N4  UNL     1      -0.089   2.298  -0.819  1.00  0.00    -0.081 NA
HETATM   13  C4  UNL     1       0.273  -0.009  -0.033  1.00  0.00     0.114 A 
ENDROOT
BRANCH  13  14
HETATM   14  C5  UNL     1       1.683   0.162  -0.289  1.00  0.00     0.272 C 
HETATM   15  N5  UNL     1       2.711  -0.770  -0.093  1.00  0.00    -0.057 NA
HETATM   16  O2  UNL     1       2.045   1.303  -0.753  1.00  0.00    -0.271 OA
ENDBRANCH  13  14
TORSDOF 1
