REMARK  4 active torsions:
REMARK  status: ('A' for Active; 'I' for Inactive)
REMARK    1  A    between atoms: N1_1  and  C1_4 
REMARK    2  A    between atoms: C3_8  and  C4_9 
REMARK       I    between atoms: C4_9  and  N3_11 
REMARK    3  A    between atoms: N3_11  and  N4_13 
REMARK    4  A    between atoms: N4_13  and  N5_15 
ROOT
HETATM    1  C1  UNL     1      -3.162  -0.010   0.005  1.00  0.00     0.675 A 
HETATM    2  N2  UNL     1      -2.590   0.148  -1.217  1.00  0.00    -0.201 N 
ATOM      3  H2  UNL     1      -3.145   0.227  -2.069  1.00  0.00     0.183 HD
HETATM    4  C2  UNL     1      -1.247   0.193  -1.233  1.00  0.00     0.124 A 
HETATM    5  C3  UNL     1      -0.461   0.089  -0.102  1.00  0.00     0.065 A 
HETATM    6  C5  UNL     1      -1.097  -0.069   1.106  1.00  0.00     0.124 A 
HETATM    7  N6  UNL     1      -2.444  -0.115   1.128  1.00  0.00    -0.201 N 
ATOM      8  H6  UNL     1      -2.925  -0.232   2.020  1.00  0.00     0.183 HD
ENDROOT
BRANCH   5   9
HETATM    9  C4  UNL     1       0.999   0.143  -0.170  1.00  0.00     0.273 C 
HETATM   10  O1  UNL     1       1.525   0.604  -1.233  1.00  0.00    -0.266 OA
HETATM   11  N3  UNL     1       1.802  -0.302   0.904  1.00  0.00    -0.252 N 
ATOM     12  H3  UNL     1       1.328  -0.660   1.733  1.00  0.00     0.191 HD
BRANCH  11  13
HETATM   13  N4  UNL     1       3.183  -0.287   0.912  1.00  0.00    -0.246 N 
ATOM     14  H4  UNL     1       3.733  -0.749   1.636  1.00  0.00     0.207 HD
BRANCH  13  15
HETATM   15  N5  UNL     1       3.766   0.407  -0.145  1.00  0.00    -0.331 N 
ATOM     16  H52 UNL     1       3.202   0.864  -0.862  1.00  0.00     0.178 HD
ATOM     17  H51 UNL     1       4.786   0.418  -0.139  1.00  0.00     0.178 HD
ENDBRANCH  13  15
ENDBRANCH  11  13
ENDBRANCH   5   9
BRANCH   1  18
HETATM   18  N1  UNL     1      -4.465  -0.060   0.031  1.00  0.00    -0.234 N 
ATOM     19  H12 UNL     1      -5.013   0.020  -0.826  1.00  0.00     0.174 HD
ATOM     20  H11 UNL     1      -4.894  -0.179   0.949  1.00  0.00     0.174 HD
ENDBRANCH   1  18
TORSDOF 4
