REMARK  6 active torsions:
REMARK  status: ('A' for Active; 'I' for Inactive)
REMARK    1  A    between atoms: C2_2  and  C4_4 
REMARK    2  A    between atoms: C4_4  and  C5_5 
REMARK    3  A    between atoms: N3_12  and  C7_13 
REMARK    4  A    between atoms: C9_15  and  C10_16 
REMARK    5  A    between atoms: C10_16  and  O1_18 
REMARK    6  A    between atoms: C13_22  and  O3_23 
ROOT
HETATM    1  C5  UNL     1       2.090   0.288   0.319  1.00  0.00     0.078 A 
HETATM    2  N1  UNL     1       1.938  -0.851  -0.359  1.00  0.00    -0.191 N 
ATOM      3  H1  UNL     1       2.637  -1.302  -0.949  1.00  0.00     0.184 HD
HETATM    4  C6  UNL     1       0.688  -1.294  -0.119  1.00  0.00     0.682 A 
HETATM    5  N2  UNL     1       0.231  -2.392  -0.642  1.00  0.00    -0.234 N 
ATOM      6  H21 UNL     1      -0.715  -2.727  -0.460  1.00  0.00     0.174 HD
ATOM      7  H22 UNL     1       0.717  -3.035  -1.267  1.00  0.00     0.174 HD
HETATM    8  N3  UNL     1       0.050  -0.449   0.702  1.00  0.00    -0.133 N 
HETATM    9  C13 UNL     1       0.895   0.553   0.998  1.00  0.00     0.184 A 
ENDROOT
BRANCH   8  10
HETATM   10  C7  UNL     1      -1.288  -0.585   1.179  1.00  0.00     0.248 C 
HETATM   11  C8  UNL     1      -2.280  -0.960   0.085  1.00  0.00     0.064 C 
HETATM   12  C9  UNL     1      -3.591  -0.608   0.755  1.00  0.00     0.042 C 
HETATM   13  C12 UNL     1      -3.185   0.456   1.720  1.00  0.00     0.177 C 
HETATM   14  O2  UNL     1      -1.822   0.620   1.630  1.00  0.00    -0.365 OA
BRANCH  12  15
HETATM   15  C10 UNL     1      -4.633  -0.135  -0.232  1.00  0.00     0.120 C 
HETATM   16  C11 UNL     1      -4.193   1.095  -0.983  1.00  0.00     0.040 C 
BRANCH  15  17
HETATM   17  O1  UNL     1      -5.035  -1.156  -1.087  1.00  0.00    -0.396 OA
ATOM     18  H1  UNL     1      -5.690  -0.859  -1.707  1.00  0.00     0.210 HD
ENDBRANCH  15  17
ENDBRANCH  12  15
ENDBRANCH   8  10
BRANCH   9  19
HETATM   19  O3  UNL     1       0.616   1.635   1.821  1.00  0.00    -0.344 OA
ATOM     20  H3  UNL     1      -0.195   1.815   2.282  1.00  0.00     0.219 HD
ENDBRANCH   9  19
BRANCH   1  21
HETATM   21  C4  UNL     1       3.243   1.192   0.420  1.00  0.00     0.066 C 
BRANCH  21  22
HETATM   22  C2  UNL     1       4.446   0.763  -0.343  1.00  0.00    -0.017 C 
HETATM   23  C1  UNL     1       4.990  -0.569   0.080  1.00  0.00     0.010 C 
HETATM   24  C3  UNL     1       4.192   0.825  -1.841  1.00  0.00     0.010 C 
ENDBRANCH  21  22
ENDBRANCH   1  21
TORSDOF 6
