REMARK  8 active torsions:
REMARK  status: ('A' for Active; 'I' for Inactive)
REMARK    1  A    between atoms: C4_4  and  C5_5 
REMARK    2  A    between atoms: C5_5  and  C6_6 
REMARK    3  A    between atoms: C7_7  and  C8_8 
REMARK    4  A    between atoms: C9_10  and  C10_11 
REMARK    5  A    between atoms: C10_11  and  O2_12 
REMARK    6  A    between atoms: C11_14  and  O3_15 
REMARK    7  A    between atoms: C12_17  and  O4_18 
REMARK    8  A    between atoms: C14_22  and  O6_23 
ROOT
HETATM    1  C6  UNL     1       1.161  -1.395   0.007  1.00  0.00     0.014 A 
HETATM    2  C7  UNL     1      -0.137  -1.440  -0.400  1.00  0.00     0.007 A 
HETATM    3  C13 UNL     1      -0.275  -2.616  -1.106  1.00  0.00     0.155 A 
HETATM    4  O5  UNL     1       0.883  -3.228  -1.111  1.00  0.00    -0.299 OA
HETATM    5  C14 UNL     1       1.796  -2.553  -0.461  1.00  0.00     0.190 A 
ENDROOT
BRANCH   2   6
HETATM    6  C8  UNL     1      -1.196  -0.469  -0.162  1.00  0.00     0.189 C 
HETATM    7  O1  UNL     1      -1.382  -0.126   1.165  1.00  0.00    -0.368 OA
HETATM    8  C9  UNL     1      -2.568   0.637   1.075  1.00  0.00     0.177 C 
HETATM    9  C11 UNL     1      -3.502  -0.179   0.213  1.00  0.00     0.180 C 
HETATM   10  C12 UNL     1      -2.526  -0.860  -0.731  1.00  0.00     0.183 C 
BRANCH   8  11
HETATM   11  C10 UNL     1      -3.176   0.878   2.431  1.00  0.00     0.198 C 
BRANCH  11  12
HETATM   12  O2  UNL     1      -4.324   1.627   2.257  1.00  0.00    -0.398 OA
ATOM     13  H2  UNL     1      -4.708   1.779   3.113  1.00  0.00     0.209 HD
ENDBRANCH  11  12
ENDBRANCH   8  11
BRANCH   9  14
HETATM   14  O3  UNL     1      -4.385   0.651  -0.436  1.00  0.00    -0.390 OA
ATOM     15  H3  UNL     1      -4.972   0.138  -0.978  1.00  0.00     0.210 HD
ENDBRANCH   9  14
BRANCH  10  16
HETATM   16  O4  UNL     1      -2.751  -0.317  -1.995  1.00  0.00    -0.390 OA
ATOM     17  H4  UNL     1      -3.594  -0.565  -2.356  1.00  0.00     0.210 HD
ENDBRANCH  10  16
ENDBRANCH   2   6
BRANCH   1  18
HETATM   18  C5  UNL     1       1.775  -0.321   0.793  1.00  0.00     0.071 C 
BRANCH  18  19
HETATM   19  C4  UNL     1       2.075   0.904  -0.011  1.00  0.00    -0.020 C 
HETATM   20  C2  UNL     1       3.307   1.379  -0.141  1.00  0.00    -0.091 C 
HETATM   21  C1  UNL     1       3.592   2.596  -0.941  1.00  0.00     0.042 C 
HETATM   22  C3  UNL     1       4.431   0.673   0.533  1.00  0.00     0.042 C 
ENDBRANCH  18  19
ENDBRANCH   1  18
BRANCH   5  23
HETATM   23  O6  UNL     1       3.133  -2.872  -0.247  1.00  0.00    -0.340 OA
ATOM     24  H6  UNL     1       3.564  -3.657  -0.564  1.00  0.00     0.220 HD
ENDBRANCH   5  23
TORSDOF 8
