REMARK  9 active torsions:
REMARK  status: ('A' for Active; 'I' for Inactive)
REMARK    1  A    between atoms: C2_2  and  C3_3 
REMARK    2  A    between atoms: C3_3  and  O1_4 
REMARK    3  A    between atoms: C3_3  and  C4_6 
REMARK    4  A    between atoms: C4_6  and  O2_7 
REMARK    5  A    between atoms: C4_6  and  N4_16 
REMARK    6  A    between atoms: O2_7  and  C5_8 
REMARK    7  A    between atoms: C5_8  and  N1_9 
REMARK    8  A    between atoms: C5_8  and  N2_12 
REMARK    9  A    between atoms: C8_20  and  C9_21 
ROOT
HETATM    1  N2  UNL     1      -2.099   3.326  -0.618  1.00  0.00    -0.259 N 
ATOM      2  H2  UNL     1      -1.448   3.442  -1.395  1.00  0.00     0.181 HD
HETATM    3  C6  UNL     1      -2.704   4.422  -0.036  1.00  0.00     0.185 C 
HETATM    4  N3  UNL     1      -3.220   5.358   0.440  1.00  0.00    -0.172 NA
ENDROOT
BRANCH   1   5
HETATM    5  C5  UNL     1      -2.410   1.998  -0.098  1.00  0.00     0.232 C 
BRANCH   5   6
HETATM    6  O2  UNL     1      -2.000   0.876  -0.731  1.00  0.00    -0.263 OA
BRANCH   6   7
HETATM    7  C4  UNL     1      -1.521  -0.319  -0.310  1.00  0.00     0.163 C 
BRANCH   7   8
HETATM    8  C3  UNL     1      -2.309  -1.256   0.520  1.00  0.00     0.193 C 
BRANCH   8   9
HETATM    9  C2  UNL     1      -3.395  -1.980  -0.296  1.00  0.00     0.036 C 
HETATM   10  C1  UNL     1      -4.495  -1.101  -0.752  1.00  0.00     0.008 C 
ENDBRANCH   8   9
BRANCH   8  11
HETATM   11  O1  UNL     1      -1.419  -2.370   0.795  1.00  0.00    -0.387 OA
ATOM     12  H1  UNL     1      -0.749  -1.923   1.299  1.00  0.00     0.210 HD
ENDBRANCH   8  11
ENDBRANCH   7   8
BRANCH   7  13
HETATM   13  N4  UNL     1      -0.114  -0.247   0.142  1.00  0.00    -0.298 N 
HETATM   14  C7  UNL     1       0.370   0.390   1.225  1.00  0.00     0.190 A 
HETATM   15  N5  UNL     1       1.700   0.228   1.302  1.00  0.00    -0.351 N 
HETATM   16  C8  UNL     1       2.130  -0.517   0.279  1.00  0.00     0.049 A 
ATOM     17  H5  UNL     1       2.295   0.616   2.034  1.00  0.00     0.166 HD
HETATM   18  C13 UNL     1       0.950  -0.799  -0.434  1.00  0.00     0.129 A 
BRANCH  16  19
HETATM   19  C9  UNL     1       3.436  -0.976  -0.103  1.00  0.00     0.033 C 
HETATM   20  C10 UNL     1       4.526  -0.277  -0.114  1.00  0.00    -0.085 C 
HETATM   21  C11 UNL     1       4.597   1.135   0.273  1.00  0.00     0.043 C 
HETATM   22  C12 UNL     1       5.837  -0.938  -0.556  1.00  0.00     0.043 C 
ENDBRANCH  16  19
ENDBRANCH   7  13
ENDBRANCH   6   7
ENDBRANCH   5   6
BRANCH   5  23
HETATM   23  N1  UNL     1      -3.074   1.901   0.961  1.00  0.00    -0.364 N 
ATOM     24  H12 UNL     1      -3.291   0.973   1.324  1.00  0.00     0.159 HD
ATOM     25  H11 UNL     1      -3.383   2.748   1.439  1.00  0.00     0.159 HD
ENDBRANCH   5  23
ENDBRANCH   1   5
TORSDOF 9
