REMARK  6 active torsions:
REMARK  status: ('A' for Active; 'I' for Inactive)
REMARK    1  A    between atoms: C2_2  and  C4_4 
REMARK    2  A    between atoms: C5_6  and  N1_7 
REMARK    3  A    between atoms: C6_12  and  C7_13 
REMARK    4  A    between atoms: C10_19  and  C11_20 
REMARK    5  A    between atoms: C11_20  and  C12_21 
REMARK    6  A    between atoms: C12_21  and  O1_22 
ROOT
HETATM    1  C4  UNL     1       2.063  -0.202   0.641  1.00  0.00     0.019 A 
HETATM    2  S1  UNL     1       3.180  -0.470   1.856  1.00  0.00    -0.056 SA
HETATM    3  C5  UNL     1       2.558  -1.895   2.556  1.00  0.00     0.143 A 
HETATM    4  N2  UNL     1       1.443  -2.136   1.786  1.00  0.00    -0.334 N 
ATOM      5  H2  UNL     1       0.845  -2.944   1.961  1.00  0.00     0.168 HD
HETATM    6  C6  UNL     1       1.175  -1.288   0.816  1.00  0.00     0.079 A 
ENDROOT
BRANCH   6   7
HETATM    7  C7  UNL     1      -0.121  -1.213   0.093  1.00  0.00     0.100 C 
HETATM    8  C8  UNL     1      -0.314  -1.935  -1.151  1.00  0.00     0.298 C 
HETATM    9  N3  UNL     1      -0.935  -1.086  -2.199  1.00  0.00    -0.067 N 
HETATM   10  C9  UNL     1      -2.022  -0.285  -1.706  1.00  0.00     0.265 C 
ATOM     11  H32 UNL     1      -0.234  -0.504  -2.658  1.00  0.00     0.277 HD
ATOM     12  H31 UNL     1      -1.232  -1.650  -2.995  1.00  0.00     0.277 HD
HETATM   13  C10 UNL     1      -2.044  -0.200  -0.189  1.00  0.00     0.156 C 
HETATM   14  O2  UNL     1      -0.745   0.058   0.215  1.00  0.00    -0.344 OA
BRANCH  13  15
HETATM   15  C11 UNL     1      -3.092   0.669   0.352  1.00  0.00     0.060 C 
BRANCH  15  16
HETATM   16  C12 UNL     1      -3.105   2.100  -0.101  1.00  0.00     0.166 C 
BRANCH  16  17
HETATM   17  O1  UNL     1      -4.170   2.751   0.527  1.00  0.00    -0.401 OA
ATOM     18  H1  UNL     1      -4.178   3.657   0.240  1.00  0.00     0.209 HD
ENDBRANCH  16  17
ENDBRANCH  15  16
ENDBRANCH  13  15
ENDBRANCH   6   7
BRANCH   1  19
HETATM   19  C2  UNL     1       2.099   0.693  -0.532  1.00  0.00     0.020 C 
HETATM   20  C1  UNL     1       1.655   2.098  -0.254  1.00  0.00     0.015 C 
HETATM   21  C3  UNL     1       3.657   0.936  -0.766  1.00  0.00     0.015 C 
ENDBRANCH   1  19
BRANCH   3  22
HETATM   22  N1  UNL     1       2.996  -2.622   3.532  1.00  0.00    -0.380 N 
ATOM     23  H12 UNL     1       3.822  -2.443   4.103  1.00  0.00     0.158 HD
ATOM     24  H11 UNL     1       2.624  -3.474   3.951  1.00  0.00     0.158 HD
ENDBRANCH   3  22
TORSDOF 6
