REMARK  12 active torsions:
REMARK  status: ('A' for Active; 'I' for Inactive)
REMARK    1  A    between atoms: C5_5  and  O1_6 
REMARK    2  A    between atoms: O1_6  and  C6_7 
REMARK    3  A    between atoms: C6_7  and  C7_8 
REMARK    4  A    between atoms: C7_8  and  C8_9 
REMARK    5  A    between atoms: C8_9  and  N1_10 
REMARK       I    between atoms: N1_10  and  C9_12 
REMARK    6  A    between atoms: C9_12  and  C10_14 
REMARK    7  A    between atoms: C10_14  and  S1_15 
REMARK    8  A    between atoms: S1_15  and  C11_16 
REMARK    9  A    between atoms: N5_22  and  C12_23 
REMARK   10  A    between atoms: C13_29  and  N8_30 
REMARK   11  A    between atoms: N9_33  and  N10_35 
REMARK   12  A    between atoms: N10_35  and  C14_37 
ROOT
HETATM    1  C7  UNL     1       0.503   1.196  -0.384  1.00  0.00     0.105 C 
ENDROOT
BRANCH   1   2
HETATM    2  C6  UNL     1      -0.907   0.862  -0.663  1.00  0.00     0.134 C 
HETATM    3  N9  UNL     1      -1.850   1.759  -0.658  1.00  0.00    -0.281 N 
ATOM      4  H9  UNL     1      -2.804   1.458  -0.859  1.00  0.00     0.189 HD
BRANCH   2   5
HETATM    5  O1  UNL     1      -1.346  -0.429  -0.952  1.00  0.00    -0.332 OA
BRANCH   5   6
HETATM    6  C5  UNL     1      -2.730  -0.767  -0.779  1.00  0.00     0.135 C 
HETATM    7  C4  UNL     1      -2.927  -2.199  -1.168  1.00  0.00     0.062 C 
HETATM    8  C2  UNL     1      -4.183  -2.811  -0.640  1.00  0.00     0.021 C 
HETATM    9  C1  UNL     1      -5.283  -2.756  -1.690  1.00  0.00     0.037 C 
HETATM   10  C3  UNL     1      -3.968  -4.274  -0.327  1.00  0.00     0.037 C 
HETATM   11  N13 UNL     1      -4.698  -2.185   0.539  1.00  0.00    -0.405 N 
HETATM   12  C18 UNL     1      -3.768  -1.486   1.347  1.00  0.00     0.021 C 
ATOM     13  H13 UNL     1      -5.686  -2.239   0.786  1.00  0.00     0.154 HD
HETATM   14  C17 UNL     1      -3.154  -0.374   0.576  1.00  0.00     0.062 C 
HETATM   15  C19 UNL     1      -4.615  -0.853   2.477  1.00  0.00     0.037 C 
HETATM   16  C20 UNL     1      -2.764  -2.341   2.075  1.00  0.00     0.037 C 
ENDBRANCH   5   6
ENDBRANCH   2   5
BRANCH   3  17
HETATM   17  N10 UNL     1      -1.628   3.101  -0.394  1.00  0.00    -0.270 N 
ATOM     18  H10 UNL     1      -1.434   3.405   0.560  1.00  0.00     0.190 HD
BRANCH  17  19
HETATM   19  C14 UNL     1      -1.669   4.048  -1.436  1.00  0.00     0.190 C 
HETATM   20  N11 UNL     1      -1.072   5.193  -1.416  1.00  0.00    -0.360 N 
HETATM   21  C15 UNL     1      -1.310   5.923  -2.628  1.00  0.00     0.142 C 
ATOM     22  H11 UNL     1      -0.505   5.534  -0.640  1.00  0.00     0.162 HD
HETATM   23  C16 UNL     1      -2.506   5.217  -3.230  1.00  0.00     0.142 C 
HETATM   24  N12 UNL     1      -2.370   3.895  -2.662  1.00  0.00    -0.360 N 
ATOM     25  H12 UNL     1      -2.711   3.022  -3.064  1.00  0.00     0.162 HD
ENDBRANCH  17  19
ENDBRANCH   3  17
ENDBRANCH   1   2
BRANCH   1  26
HETATM   26  C8  UNL     1       1.069   0.373   0.753  1.00  0.00     0.130 C 
BRANCH  26  27
HETATM   27  N1  UNL     1       2.448   0.738   1.006  1.00  0.00    -0.360 N 
HETATM   28  C9  UNL     1       3.157   0.069   2.034  1.00  0.00     0.227 C 
HETATM   29  O2  UNL     1       2.551  -0.842   2.717  1.00  0.00    -0.273 OA
ATOM     30  H1  UNL     1       2.901   1.465   0.453  1.00  0.00     0.162 HD
BRANCH  28  31
HETATM   31  C10 UNL     1       4.550   0.302   2.432  1.00  0.00     0.185 C 
BRANCH  31  32
HETATM   32  S1  UNL     1       5.465   1.416   1.369  1.00  0.00    -0.082 SA
BRANCH  32  33
HETATM   33  C11 UNL     1       5.825   0.713  -0.210  1.00  0.00     0.182 A 
HETATM   34  N2  UNL     1       5.119   0.754  -1.324  1.00  0.00    -0.261 N 
HETATM   35  N3  UNL     1       5.764   0.093  -2.282  1.00  0.00    -0.004 NA
ATOM     36  H2  UNL     1       4.218   1.220  -1.434  1.00  0.00     0.186 HD
HETATM   37  N4  UNL     1       6.894  -0.379  -1.784  1.00  0.00    -0.216 N 
HETATM   38  N5  UNL     1       6.937  -0.009  -0.535  1.00  0.00    -0.198 N 
ATOM     39  H4  UNL     1       7.596  -0.927  -2.281  1.00  0.00     0.206 HD
BRANCH  38  40
HETATM   40  C12 UNL     1       7.963  -0.282   0.411  1.00  0.00     0.198 A 
HETATM   41  N6  UNL     1       8.853   0.576   0.940  1.00  0.00    -0.220 N 
HETATM   42  O3  UNL     1       9.628  -0.056   1.767  1.00  0.00    -0.153 OA
ATOM     43  H6  UNL     1       8.910   1.571   0.724  1.00  0.00     0.198 HD
HETATM   44  N7  UNL     1       9.288  -1.310   1.812  1.00  0.00    -0.222 N 
HETATM   45  C13 UNL     1       8.256  -1.504   0.985  1.00  0.00     0.169 A 
ATOM     46  H7  UNL     1       9.735  -2.027   2.384  1.00  0.00     0.198 HD
BRANCH  45  47
HETATM   47  N8  UNL     1       7.625  -2.574   0.733  1.00  0.00    -0.381 N 
ATOM     48  H82 UNL     1       6.837  -2.722   0.102  1.00  0.00     0.157 HD
ATOM     49  H81 UNL     1       7.841  -3.476   1.157  1.00  0.00     0.157 HD
ENDBRANCH  45  47
ENDBRANCH  38  40
ENDBRANCH  32  33
ENDBRANCH  31  32
ENDBRANCH  28  31
ENDBRANCH  26  27
ENDBRANCH   1  26
TORSDOF 12
