REMARK  7 active torsions:
REMARK  status: ('A' for Active; 'I' for Inactive)
REMARK    1  A    between atoms: C8_8  and  C9_9 
REMARK    2  A    between atoms: C10_10  and  O1_11 
REMARK    3  A    between atoms: C13_15  and  N3_32 
REMARK    4  A    between atoms: C18_20  and  C19_21 
REMARK    5  A    between atoms: C20_22  and  C21_23 
REMARK    6  A    between atoms: C22_24  and  C23_25 
REMARK    7  A    between atoms: C23_25  and  N1_27 
REMARK       I    between atoms: N1_27  and  C25_29 
ROOT
HETATM    1  C1  UNL     1      -7.173  -0.163  -0.998  1.00  0.00     0.014 C 
HETATM    2  C2  UNL     1      -6.113   0.026  -0.445  1.00  0.00    -0.092 C 
HETATM    3  C3  UNL     1      -4.818   0.238   0.236  1.00  0.00     0.168 C 
HETATM    4  C4  UNL     1      -4.410   1.730   0.140  1.00  0.00     0.058 C 
HETATM    5  C5  UNL     1      -3.278   1.788  -0.873  1.00  0.00     0.048 C 
HETATM    6  C6  UNL     1      -3.106   3.049  -1.652  1.00  0.00     0.020 C 
HETATM    7  C7  UNL     1      -1.607   2.665  -1.685  1.00  0.00     0.008 C 
HETATM    8  C8  UNL     1      -1.917   1.936  -0.413  1.00  0.00     0.016 C 
HETATM    9  N3  UNL     1      -3.707  -0.303  -0.576  1.00  0.00    -0.328 N 
HETATM   10  C26 UNL     1      -3.620   0.566  -1.682  1.00  0.00     0.230 C 
HETATM   11  O3  UNL     1      -3.728   0.606  -2.923  1.00  0.00    -0.272 OA
ENDROOT
BRANCH   9  12
HETATM   12  C13 UNL     1      -3.031  -1.435   0.023  1.00  0.00     0.119 C 
HETATM   13  C11 UNL     1      -1.592  -1.455  -0.454  1.00  0.00    -0.037 C 
HETATM   14  C10 UNL     1      -0.690  -0.297  -0.689  1.00  0.00     0.159 C 
HETATM   15  C12 UNL     1      -1.174  -2.632  -0.710  1.00  0.00     0.019 C 
HETATM   16  C9  UNL     1      -1.045   0.907   0.099  1.00  0.00     0.014 A 
HETATM   17  C17 UNL     1      -1.012   0.648   1.551  1.00  0.00     0.015 A 
HETATM   18  C18 UNL     1       0.100   1.476   1.007  1.00  0.00     0.083 A 
HETATM   19  C16 UNL     1      -0.577  -0.700   2.021  1.00  0.00     0.007 C 
HETATM   20  C15 UNL     1      -1.674  -1.727   2.136  1.00  0.00     0.003 C 
HETATM   21  C14 UNL     1      -2.955  -1.295   1.511  1.00  0.00     0.030 C 
BRANCH  14  22
HETATM   22  O1  UNL     1      -0.511  -0.056  -2.054  1.00  0.00    -0.390 OA
ATOM     23  H1  UNL     1      -0.283  -0.828  -2.559  1.00  0.00     0.210 HD
ENDBRANCH  14  22
BRANCH  18  24
HETATM   24  C19 UNL     1       1.394   0.890   0.790  1.00  0.00    -0.086 C 
HETATM   25  C20 UNL     1       2.511   0.409   0.620  1.00  0.00    -0.015 C 
BRANCH  25  26
HETATM   26  C21 UNL     1       3.796  -0.162   0.441  1.00  0.00    -0.013 C 
HETATM   27  C22 UNL     1       4.897  -0.641   0.305  1.00  0.00    -0.067 C 
BRANCH  27  28
HETATM   28  C23 UNL     1       6.249  -1.201   0.144  1.00  0.00     0.162 C 
HETATM   29  C24 UNL     1       6.105  -2.592  -0.435  1.00  0.00     0.046 C 
BRANCH  28  30
HETATM   30  N1  UNL     1       7.094  -0.360  -0.644  1.00  0.00    -0.331 N 
HETATM   31  C25 UNL     1       8.317   0.157  -0.148  1.00  0.00     0.329 C 
HETATM   32  N2  UNL     1       9.144   0.988  -0.937  1.00  0.00    -0.040 NA
HETATM   33  O2  UNL     1       8.701  -0.119   1.034  1.00  0.00    -0.251 OA
ATOM     34  H1  UNL     1       6.808  -0.124  -1.594  1.00  0.00     0.165 HD
ENDBRANCH  28  30
ENDBRANCH  27  28
ENDBRANCH  25  26
ENDBRANCH  18  24
ENDBRANCH   9  12
TORSDOF 7
