REMARK  1 active torsions:
REMARK  status: ('A' for Active; 'I' for Inactive)
REMARK    1  A    between atoms: C1_2  and  C2_4 
ROOT
HETATM    1  C2  UNL     1      -0.153   0.027  -0.018  1.00  0.00     0.030 A 
HETATM    2  C3  UNL     1       0.994  -0.629   0.260  1.00  0.00     0.022 A 
HETATM    3  C4  UNL     1       2.156   0.094   0.177  1.00  0.00     0.052 A 
HETATM    4  S1  UNL     1       1.617   1.645  -0.279  1.00  0.00    -0.094 SA
HETATM    5  C5  UNL     1      -0.055   1.346  -0.355  1.00  0.00     0.063 A 
HETATM    6 BR1  UNL     1      -1.496   2.532  -0.799  1.00  0.00    -0.042 Br
ENDROOT
BRANCH   1   7
HETATM    7  C1  UNL     1      -1.507  -0.669   0.041  1.00  0.00     0.388 C 
HETATM    8  F1  UNL     1      -2.324  -0.064   0.954  1.00  0.00    -0.209 F 
HETATM    9  F2  UNL     1      -2.103  -0.591  -1.226  1.00  0.00    -0.209 F 
ENDBRANCH   1   7
TORSDOF 1
