REMARK  3 active torsions:
REMARK  status: ('A' for Active; 'I' for Inactive)
REMARK    1  A    between atoms: O1_2  and  C2_3 
REMARK    2  A    between atoms: C2_3  and  N3_8 
REMARK    3  A    between atoms: N3_8  and  C4_10 
ROOT
HETATM    1  C2  UNL     1       1.548   0.337  -0.266  1.00  0.00     0.232 C 
HETATM    2  N1  UNL     1       1.943   1.562  -0.194  1.00  0.00    -0.259 N 
ATOM      3  H1  UNL     1       2.486   1.977  -0.951  1.00  0.00     0.181 HD
HETATM    4  C3  UNL     1       1.616   2.310   0.934  1.00  0.00     0.185 C 
HETATM    5  N2  UNL     1       1.330   2.947   1.865  1.00  0.00    -0.172 NA
ENDROOT
BRANCH   1   6
HETATM    6  O1  UNL     1       1.897  -0.369  -1.408  1.00  0.00    -0.326 OA
HETATM    7  C1  UNL     1       3.175  -0.144  -1.999  1.00  0.00     0.213 C 
ENDBRANCH   1   6
BRANCH   1   8
HETATM    8  N3  UNL     1       0.791  -0.240   0.791  1.00  0.00    -0.319 N 
ATOM      9  H3  UNL     1       1.248  -0.560   1.645  1.00  0.00     0.169 HD
BRANCH   8  10
HETATM   10  C4  UNL     1      -0.639  -0.363   0.629  1.00  0.00     0.074 A 
HETATM   11  C5  UNL     1      -1.257   0.071  -0.528  1.00  0.00     0.033 A 
HETATM   12  C6  UNL     1      -2.619  -0.029  -0.723  1.00  0.00     0.002 A 
HETATM   13  C7  UNL     1      -3.351  -0.590   0.306  1.00  0.00     0.003 A 
HETATM   14  C8  UNL     1      -2.737  -1.028   1.472  1.00  0.00     0.044 A 
HETATM   15  C9  UNL     1      -1.376  -0.920   1.646  1.00  0.00     0.143 A 
HETATM   16  F1  UNL     1      -0.739  -1.338   2.774  1.00  0.00    -0.204 F 
ENDBRANCH   8  10
ENDBRANCH   1   8
TORSDOF 3
