REMARK  5 active torsions:
REMARK  status: ('A' for Active; 'I' for Inactive)
REMARK    1  A    between atoms: O1_1  and  C1_3 
REMARK    2  A    between atoms: C1_3  and  S1_8 
REMARK    3  A    between atoms: N1_4  and  O2_6 
REMARK    4  A    between atoms: S1_8  and  C2_9 
REMARK    5  A    between atoms: C2_9  and  C3_10 
ROOT
HETATM    1  S1  UNL     1       1.648   0.039   0.838  1.00  0.00    -0.056 SA
ENDROOT
BRANCH   1   2
HETATM    2  C1  UNL     1       3.384  -0.287   0.585  1.00  0.00     0.204 C 
HETATM    3  N1  UNL     1       3.772  -1.135  -0.289  1.00  0.00    -0.241 N 
ATOM      4  H1  UNL     1       3.078  -1.631  -0.848  1.00  0.00     0.197 HD
BRANCH   2   5
HETATM    5  O1  UNL     1       4.322   0.382   1.339  1.00  0.00    -0.339 OA
ATOM      6  H1  UNL     1       4.034   1.012   1.989  1.00  0.00     0.220 HD
ENDBRANCH   2   5
BRANCH   3   7
HETATM    7  O2  UNL     1       5.107  -1.390  -0.488  1.00  0.00    -0.287 OA
ATOM      8  H2  UNL     1       5.395  -2.020  -1.138  1.00  0.00     0.244 HD
ENDBRANCH   3   7
ENDBRANCH   1   2
BRANCH   1   9
HETATM    9  C2  UNL     1       0.530  -0.290  -0.298  1.00  0.00     0.068 C 
BRANCH   9  10
HETATM   10  C3  UNL     1      -0.885  -0.028  -0.101  1.00  0.00     0.009 A 
HETATM   11  C4  UNL     1      -1.825  -1.037  -0.020  1.00  0.00     0.015 A 
HETATM   12  C5  UNL     1      -3.154  -0.756   0.166  1.00  0.00     0.001 A 
HETATM   13  C6  UNL     1      -3.550   0.578   0.273  1.00  0.00     0.003 A 
HETATM   14  C7  UNL     1      -2.612   1.585   0.193  1.00  0.00     0.043 A 
HETATM   15  C8  UNL     1      -1.292   1.278   0.007  1.00  0.00     0.127 A 
HETATM   16  F1  UNL     1      -0.381   2.304  -0.069  1.00  0.00    -0.205 F 
ENDBRANCH   9  10
ENDBRANCH   1   9
TORSDOF 5
