REMARK  2 active torsions:
REMARK  status: ('A' for Active; 'I' for Inactive)
REMARK    1  A    between atoms: C4_6  and  C5_7 
REMARK    2  A    between atoms: C8_10  and  O1_11 
ROOT
HETATM    1  N1  UNL     1      -5.070  -0.328  -0.354  1.00  0.00    -0.191 NA
HETATM    2  C1  UNL     1      -4.013  -0.004  -0.021  1.00  0.00     0.110 C 
HETATM    3  C2  UNL     1      -2.642   0.417   0.387  1.00  0.00     0.125 C 
HETATM    4  C3  UNL     1      -2.556   1.351   1.440  1.00  0.00     0.110 C 
HETATM    5  N2  UNL     1      -2.532   2.131   2.325  1.00  0.00    -0.191 NA
HETATM    6  C4  UNL     1      -1.681  -0.123  -0.269  1.00  0.00     0.045 C 
ENDROOT
BRANCH   6   7
HETATM    7  C5  UNL     1      -0.241  -0.011  -0.213  1.00  0.00    -0.031 A 
HETATM    8  C6  UNL     1       0.514  -0.728  -1.158  1.00  0.00     0.014 A 
HETATM    9  C7  UNL     1       1.885  -0.710  -1.214  1.00  0.00     0.040 A 
HETATM   10  C8  UNL     1       2.550   0.052  -0.292  1.00  0.00     0.104 A 
HETATM   11  C9  UNL     1       1.900   0.788   0.671  1.00  0.00     0.150 A 
HETATM   12  F1  UNL     1       2.553   1.547   1.587  1.00  0.00    -0.203 F 
HETATM   13  C10 UNL     1       0.501   0.723   0.669  1.00  0.00     0.056 A 
BRANCH  10  14
HETATM   14  O1  UNL     1       3.949   0.075  -0.342  1.00  0.00    -0.358 OA
ATOM     15  H1  UNL     1       4.411   0.604   0.298  1.00  0.00     0.217 HD
ENDBRANCH  10  14
ENDBRANCH   6   7
TORSDOF 2
