REMARK  2 active torsions:
REMARK  status: ('A' for Active; 'I' for Inactive)
REMARK    1  A    between atoms: N1_1  and  C1_4 
REMARK    2  A    between atoms: N2_8  and  C4_9 
ROOT
HETATM    1  C1  UNL     1      -2.054   0.754  -0.232  1.00  0.00     0.228 A 
HETATM    2  O1  UNL     1      -3.238   0.240  -0.278  1.00  0.00    -0.290 OA
HETATM    3  C2  UNL     1      -3.190  -1.051  -0.147  1.00  0.00     0.163 A 
HETATM    4  C3  UNL     1      -1.858  -1.386  -0.005  1.00  0.00     0.125 A 
HETATM    5  N2  UNL     1      -1.154  -0.221  -0.062  1.00  0.00    -0.287 N 
ENDROOT
BRANCH   5   6
HETATM    6  C4  UNL     1       0.258  -0.066   0.038  1.00  0.00     0.042 A 
HETATM    7  C5  UNL     1       1.114  -0.942  -0.610  1.00  0.00     0.033 A 
HETATM    8  C6  UNL     1       2.487  -0.815  -0.529  1.00  0.00     0.044 A 
HETATM    9  C7  UNL     1       3.072   0.195   0.204  1.00  0.00     0.116 A 
HETATM   10  F1  UNL     1       4.408   0.359   0.313  1.00  0.00    -0.206 F 
HETATM   11  C8  UNL     1       2.234   1.072   0.854  1.00  0.00     0.044 A 
HETATM   12  C9  UNL     1       0.867   0.931   0.763  1.00  0.00     0.033 A 
ENDBRANCH   5   6
BRANCH   1  13
HETATM   13  N1  UNL     1      -1.736   2.008  -0.330  1.00  0.00    -0.365 N 
ATOM     14  H12 UNL     1      -2.422   2.751  -0.460  1.00  0.00     0.159 HD
ATOM     15  H11 UNL     1      -0.801   2.414  -0.294  1.00  0.00     0.159 HD
ENDBRANCH   1  13
TORSDOF 2
