REMARK  3 active torsions:
REMARK  status: ('A' for Active; 'I' for Inactive)
REMARK    1  A    between atoms: C1_2  and  N1_4 
REMARK    2  A    between atoms: N1_4  and  N2_6 
REMARK    3  A    between atoms: C2_8  and  C3_9 
ROOT
HETATM    1  N2  UNL     1       1.635  -0.275  -1.134  1.00  0.00    -0.307 N 
ATOM      2  H2  UNL     1       2.355  -0.554  -1.800  1.00  0.00     0.186 HD
HETATM    3  C2  UNL     1       0.492  -0.313  -1.570  1.00  0.00     0.144 C 
ENDROOT
BRANCH   1   4
HETATM    4  N1  UNL     1       2.101   0.077   0.090  1.00  0.00    -0.281 N 
ATOM      5  H1  UNL     1       2.047   1.064   0.343  1.00  0.00     0.189 HD
BRANCH   4   6
HETATM    6  C1  UNL     1       2.654  -0.805   1.044  1.00  0.00     0.186 C 
HETATM    7  S1  UNL     1       2.762  -2.380   0.695  1.00  0.00    -0.046 SA
HETATM    8 CL1  UNL     1       3.211  -0.216   2.571  1.00  0.00    -0.050 Cl
ENDBRANCH   4   6
ENDBRANCH   1   4
BRANCH   3   9
HETATM    9  C3  UNL     1      -0.714   0.027  -0.850  1.00  0.00     0.091 A 
HETATM   10  C4  UNL     1      -0.844   0.455   0.442  1.00  0.00     0.040 A 
HETATM   11  C5  UNL     1      -2.198   0.652   0.679  1.00  0.00     0.027 A 
HETATM   12  C6  UNL     1      -2.844   0.335  -0.485  1.00  0.00     0.142 A 
HETATM   13  O1  UNL     1      -1.950  -0.023  -1.347  1.00  0.00    -0.321 OA
ENDBRANCH   3   9
TORSDOF 3
