REMARK  2 active torsions:
REMARK  status: ('A' for Active; 'I' for Inactive)
REMARK    1  A    between atoms: C1_4  and  C2_5 
REMARK    2  A    between atoms: C1_4  and  N2_12 
ROOT
HETATM    1  N1  UNL     1       0.932  -2.017  -1.011  1.00  0.00    -0.384 N 
ATOM      2  H11 UNL     1       1.898  -2.313  -1.149  1.00  0.00     0.157 HD
ATOM      3  H12 UNL     1       0.189  -2.646  -1.314  1.00  0.00     0.157 HD
HETATM    4  C1  UNL     1       0.680  -0.869  -0.466  1.00  0.00     0.119 C 
ENDROOT
BRANCH   4   5
HETATM    5  C2  UNL     1      -0.689  -0.449  -0.271  1.00  0.00     0.046 A 
HETATM    6  C3  UNL     1      -1.010   0.764   0.305  1.00  0.00     0.018 A 
HETATM    7  C4  UNL     1      -2.308   1.180   0.497  1.00  0.00     0.001 A 
HETATM    8  C5  UNL     1      -3.308   0.322   0.085  1.00  0.00     0.003 A 
HETATM    9  C6  UNL     1      -3.036  -0.893  -0.492  1.00  0.00     0.043 A 
HETATM   10  C7  UNL     1      -1.734  -1.289  -0.675  1.00  0.00     0.130 A 
HETATM   11  F1  UNL     1      -1.484  -2.499  -1.250  1.00  0.00    -0.205 F 
ENDBRANCH   4   5
BRANCH   4  12
HETATM   12  N2  UNL     1       1.717   0.009  -0.044  1.00  0.00    -0.303 N 
HETATM   13  C8  UNL     1       2.515  -0.109   1.030  1.00  0.00     0.116 A 
HETATM   14  C9  UNL     1       3.381   0.957   1.069  1.00  0.00     0.106 A 
HETATM   15  N3  UNL     1       3.107   1.731   0.007  1.00  0.00    -0.360 N 
HETATM   16  C10 UNL     1       2.097   1.139  -0.654  1.00  0.00     0.189 A 
ATOM     17  H3  UNL     1       3.575   2.600  -0.249  1.00  0.00     0.166 HD
ENDBRANCH   4  12
TORSDOF 2
