REMARK  2 active torsions:
REMARK  status: ('A' for Active; 'I' for Inactive)
REMARK    1  A    between atoms: N1_1  and  C1_4 
REMARK    2  A    between atoms: N2_8  and  C4_9 
ROOT
HETATM    1  C1  UNL     1      -2.105   0.239  -0.781  1.00  0.00     0.228 A 
HETATM    2  O1  UNL     1      -3.304  -0.220  -0.451  1.00  0.00    -0.290 OA
HETATM    3  C2  UNL     1      -3.182  -0.992   0.613  1.00  0.00     0.163 A 
HETATM    4  C3  UNL     1      -1.868  -1.029   0.976  1.00  0.00     0.125 A 
HETATM    5  N2  UNL     1      -1.211  -0.256   0.095  1.00  0.00    -0.287 N 
ENDROOT
BRANCH   5   6
HETATM    6  C4  UNL     1       0.185   0.007   0.077  1.00  0.00     0.045 A 
HETATM    7  C5  UNL     1       1.062  -1.043  -0.087  1.00  0.00     0.030 A 
HETATM    8  C6  UNL     1       2.440  -0.845  -0.113  1.00  0.00     0.005 A 
HETATM    9  C7  UNL     1       2.948   0.417   0.027  1.00  0.00     0.042 A 
HETATM   10  C8  UNL     1       2.095   1.475   0.191  1.00  0.00     0.118 A 
HETATM   11  F1  UNL     1       2.649   2.711   0.325  1.00  0.00    -0.206 F 
HETATM   12  C9  UNL     1       0.732   1.264   0.214  1.00  0.00     0.072 A 
ENDBRANCH   5   6
BRANCH   1  13
HETATM   13  N1  UNL     1      -1.923   1.016  -1.779  1.00  0.00    -0.365 N 
ATOM     14  H12 UNL     1      -2.600   1.391  -2.443  1.00  0.00     0.159 HD
ATOM     15  H11 UNL     1      -1.000   1.369  -2.033  1.00  0.00     0.159 HD
ENDBRANCH   1  13
TORSDOF 2
