REMARK  1 active torsions:
REMARK  status: ('A' for Active; 'I' for Inactive)
REMARK    1  A    between atoms: C3_6  and  C4_7 
ROOT
HETATM    1  O1  UNL     1       3.423   1.176   1.425  1.00  0.00    -0.238 OA
HETATM    2  C1  UNL     1       2.504   0.645   0.750  1.00  0.00     0.369 A 
HETATM    3  N1  UNL     1       2.739  -0.133  -0.320  1.00  0.00    -0.310 N 
ATOM      4  H1  UNL     1       3.642  -0.392  -0.718  1.00  0.00     0.170 HD
HETATM    5  C2  UNL     1       1.497  -0.499  -0.756  1.00  0.00     0.131 A 
HETATM    6  C3  UNL     1       0.547   0.060   0.054  1.00  0.00     0.107 A 
HETATM    7  O2  UNL     1       1.215   0.751   0.960  1.00  0.00    -0.259 OA
ENDROOT
BRANCH   6   8
HETATM    8  C4  UNL     1      -0.934  -0.084  -0.066  1.00  0.00     0.006 A 
HETATM    9  C5  UNL     1      -1.803   0.501   0.774  1.00  0.00     0.022 A 
HETATM   10  C6  UNL     1      -3.140   0.286   0.550  1.00  0.00     0.050 A 
HETATM   11  S1  UNL     1      -3.145  -0.721  -0.820  1.00  0.00    -0.113 SA
HETATM   12  C7  UNL     1      -1.466  -0.847  -1.077  1.00  0.00     0.063 A 
ENDBRANCH   6   8
TORSDOF 1
