REMARK  2 active torsions:
REMARK  status: ('A' for Active; 'I' for Inactive)
REMARK    1  A    between atoms: C1_4  and  C2_5 
REMARK    2  A    between atoms: C1_4  and  N2_8 
ROOT
HETATM    1  N1  UNL     1      -1.487  -1.810  -0.569  1.00  0.00    -0.381 N 
ATOM      2  H11 UNL     1      -0.719  -2.380  -0.923  1.00  0.00     0.157 HD
ATOM      3  H12 UNL     1      -2.451  -2.144  -0.583  1.00  0.00     0.157 HD
HETATM    4  C1  UNL     1      -1.238  -0.648  -0.095  1.00  0.00     0.163 C 
ENDROOT
BRANCH   4   5
HETATM    5  C2  UNL     1      -2.329   0.161   0.408  1.00  0.00     0.261 C 
HETATM    6  O1  UNL     1      -3.494  -0.306   0.364  1.00  0.00    -0.276 OA
HETATM    7 BR1  UNL     1      -2.025   1.917   1.134  1.00  0.00     0.000 Br
ENDBRANCH   4   5
BRANCH   4   8
HETATM    8  N2  UNL     1       0.108  -0.181  -0.076  1.00  0.00    -0.316 N 
HETATM    9  C3  UNL     1       0.538   1.004  -0.551  1.00  0.00     0.098 A 
HETATM   10  C4  UNL     1       1.901   1.137  -0.374  1.00  0.00     0.019 A 
HETATM   11  C5  UNL     1       2.312  -0.020   0.236  1.00  0.00     0.019 A 
HETATM   12  C6  UNL     1       1.204  -0.820   0.414  1.00  0.00     0.098 A 
ENDBRANCH   4   8
TORSDOF 2
