REMARK  5 active torsions:
REMARK  status: ('A' for Active; 'I' for Inactive)
REMARK    1  A    between atoms: O1_1  and  N1_3 
REMARK    2  A    between atoms: C1_5  and  C2_7 
REMARK    3  A    between atoms: C5_10  and  N2_11 
REMARK    4  A    between atoms: C10_18  and  O2_19 
REMARK    5  A    between atoms: O2_19  and  C11_20 
ROOT
HETATM    1  C2  UNL     1      -0.273   1.560  -0.594  1.00  0.00     0.038 A 
HETATM    2  C3  UNL     1       0.516   1.857  -1.742  1.00  0.00     0.020 A 
HETATM    3  C4  UNL     1       1.693   1.200  -1.983  1.00  0.00     0.031 A 
HETATM    4  C5  UNL     1       2.163   0.234  -1.139  1.00  0.00     0.042 A 
HETATM    5  C9  UNL     1       1.402  -0.050  -0.041  1.00  0.00     0.068 A 
HETATM    6  C10 UNL     1       0.180   0.597   0.252  1.00  0.00     0.091 A 
ENDROOT
BRANCH   6   7
HETATM    7  O2  UNL     1      -0.489   0.214   1.384  1.00  0.00    -0.310 OA
BRANCH   7   8
HETATM    8  C11 UNL     1      -1.639  -0.528   1.475  1.00  0.00     0.076 A 
HETATM    9  C12 UNL     1      -2.276  -1.152   0.402  1.00  0.00     0.037 A 
HETATM   10  C13 UNL     1      -3.414  -1.880   0.548  1.00  0.00     0.003 A 
HETATM   11  C14 UNL     1      -3.985  -2.024   1.802  1.00  0.00     0.000 A 
HETATM   12  C15 UNL     1      -3.378  -1.418   2.883  1.00  0.00     0.003 A 
HETATM   13  C16 UNL     1      -2.227  -0.687   2.713  1.00  0.00     0.037 A 
ENDBRANCH   7   8
ENDBRANCH   6   7
BRANCH   1  14
HETATM   14  C1  UNL     1      -1.404   2.409  -0.348  1.00  0.00     0.136 C 
HETATM   15  N1  UNL     1      -2.080   2.430   0.713  1.00  0.00    -0.257 N 
ATOM     16  H1  UNL     1      -1.794   1.797   1.460  1.00  0.00     0.195 HD
HETATM   17 CL1  UNL     1      -1.925   3.514  -1.615  1.00  0.00    -0.062 Cl
BRANCH  15  18
HETATM   18  O1  UNL     1      -3.163   3.226   0.953  1.00  0.00    -0.289 OA
ATOM     19  H1  UNL     1      -3.673   3.242   1.754  1.00  0.00     0.244 HD
ENDBRANCH  15  18
ENDBRANCH   1  14
BRANCH   4  20
HETATM   20  N2  UNL     1       3.390  -0.448  -1.390  1.00  0.00    -0.317 N 
HETATM   21  C6  UNL     1       4.269  -0.908  -0.471  1.00  0.00     0.115 A 
HETATM   22  C7  UNL     1       5.332  -1.510  -1.092  1.00  0.00     0.106 A 
HETATM   23  N3  UNL     1       5.094  -1.414  -2.413  1.00  0.00    -0.360 N 
HETATM   24  C8  UNL     1       3.920  -0.771  -2.583  1.00  0.00     0.188 A 
ATOM     25  H3  UNL     1       5.697  -1.766  -3.157  1.00  0.00     0.166 HD
ENDBRANCH   4  20
TORSDOF 5
