REMARK  6 active torsions:
REMARK  status: ('A' for Active; 'I' for Inactive)
REMARK    1  A    between atoms: O1_1  and  N1_3 
REMARK    2  A    between atoms: C1_5  and  C2_6 
REMARK    3  A    between atoms: C1_5  and  N2_19 
REMARK    4  A    between atoms: C7_11  and  O2_12 
REMARK    5  A    between atoms: O2_12  and  C8_13 
REMARK    6  A    between atoms: C16_24  and  C17_25 
ROOT
HETATM    1  C2  UNL     1       0.193  -1.035   0.134  1.00  0.00     0.045 A 
HETATM    2  C3  UNL     1       0.857  -2.060  -0.593  1.00  0.00     0.018 A 
HETATM    3  C4  UNL     1       0.466  -3.365  -0.552  1.00  0.00     0.001 A 
HETATM    4  C5  UNL     1      -0.612  -3.685   0.228  1.00  0.00     0.003 A 
HETATM    5  C6  UNL     1      -1.300  -2.759   0.950  1.00  0.00     0.038 A 
HETATM    6  C7  UNL     1      -0.876  -1.413   0.888  1.00  0.00     0.090 A 
ENDROOT
BRANCH   1   7
HETATM    7  C1  UNL     1       0.830   0.265   0.104  1.00  0.00     0.160 C 
HETATM    8  N1  UNL     1       0.500   1.217   0.857  1.00  0.00    -0.251 N 
ATOM      9  H1  UNL     1      -0.259   1.034   1.514  1.00  0.00     0.196 HD
BRANCH   8  10
HETATM   10  O1  UNL     1       1.041   2.457   0.891  1.00  0.00    -0.288 OA
ATOM     11  H1  UNL     1       0.792   3.176   1.460  1.00  0.00     0.244 HD
ENDBRANCH   8  10
BRANCH   7  12
HETATM   12  N2  UNL     1       1.901   0.548  -0.815  1.00  0.00    -0.240 N 
HETATM   13  N3  UNL     1       1.765   1.038  -2.028  1.00  0.00    -0.303 N 
HETATM   14  C14 UNL     1       2.945   1.185  -2.627  1.00  0.00     0.110 A 
ATOM     15  H3  UNL     1       0.870   1.275  -2.455  1.00  0.00     0.186 HD
HETATM   16  C15 UNL     1       3.889   0.756  -1.722  1.00  0.00     0.048 A 
HETATM   17  C16 UNL     1       3.195   0.365  -0.600  1.00  0.00     0.066 A 
BRANCH  17  18
HETATM   18  C17 UNL     1       3.837  -0.169   0.632  1.00  0.00     0.281 C 
HETATM   19  F1  UNL     1       4.140   0.857   1.506  1.00  0.00    -0.249 F 
ENDBRANCH  17  18
ENDBRANCH   7  12
ENDBRANCH   1   7
BRANCH   6  20
HETATM   20  O2  UNL     1      -1.597  -0.496   1.627  1.00  0.00    -0.310 OA
BRANCH  20  21
HETATM   21  C8  UNL     1      -2.466   0.404   1.040  1.00  0.00     0.076 A 
HETATM   22  C9  UNL     1      -3.082   1.414   1.790  1.00  0.00     0.037 A 
HETATM   23  C10 UNL     1      -3.952   2.315   1.230  1.00  0.00     0.003 A 
HETATM   24  C11 UNL     1      -4.259   2.263  -0.101  1.00  0.00     0.000 A 
HETATM   25  C12 UNL     1      -3.686   1.300  -0.869  1.00  0.00     0.003 A 
HETATM   26  C13 UNL     1      -2.811   0.390  -0.316  1.00  0.00     0.037 A 
ENDBRANCH  20  21
ENDBRANCH   6  20
TORSDOF 6
