REMARK  6 active torsions:
REMARK  status: ('A' for Active; 'I' for Inactive)
REMARK    1  A    between atoms: C2_2  and  C3_4 
REMARK    2  A    between atoms: C3_4  and  S1_16 
REMARK    3  A    between atoms: N1_5  and  N2_7 
REMARK    4  A    between atoms: N2_7  and  C4_9 
REMARK    5  A    between atoms: S1_16  and  C10_17 
REMARK    6  A    between atoms: C10_17  and  C11_19 
ROOT
HETATM    1  C3  UNL     1      -0.585  -0.781   0.032  1.00  0.00     0.138 C 
HETATM    2  N1  UNL     1      -0.823   0.380  -0.161  1.00  0.00    -0.290 N 
ATOM      3  H1  UNL     1       0.094   0.802  -0.308  1.00  0.00     0.187 HD
ENDROOT
BRANCH   1   4
HETATM    4  C2  UNL     1      -1.488  -1.888   0.299  1.00  0.00     0.180 C 
HETATM    5  C1  UNL     1      -0.990  -3.261   0.509  1.00  0.00     0.099 C 
HETATM    6  O1  UNL     1      -2.709  -1.711   0.360  1.00  0.00    -0.291 OA
ENDBRANCH   1   4
BRANCH   1   7
HETATM    7  S1  UNL     1       1.189  -1.286   0.000  1.00  0.00    -0.025 SA
BRANCH   7   8
HETATM    8  C10 UNL     1       2.213   0.120  -0.340  1.00  0.00     0.225 C 
HETATM    9  O2  UNL     1       1.694   1.237  -0.537  1.00  0.00    -0.279 OA
BRANCH   8  10
HETATM   10  C11 UNL     1       3.651  -0.028  -0.391  1.00  0.00     0.021 A 
HETATM   11  C12 UNL     1       4.223  -1.267  -0.167  1.00  0.00     0.016 A 
HETATM   12  C13 UNL     1       5.578  -1.486  -0.198  1.00  0.00     0.001 A 
HETATM   13  C14 UNL     1       6.409  -0.420  -0.467  1.00  0.00     0.000 A 
HETATM   14  C15 UNL     1       5.855   0.808  -0.690  1.00  0.00     0.001 A 
HETATM   15  C16 UNL     1       4.496   1.036  -0.660  1.00  0.00     0.016 A 
ENDBRANCH   8  10
ENDBRANCH   7   8
ENDBRANCH   1   7
BRANCH   2  16
HETATM   16  N2  UNL     1      -1.656   1.378  -0.279  1.00  0.00    -0.300 N 
ATOM     17  H2  UNL     1      -1.250   2.237  -0.650  1.00  0.00     0.187 HD
BRANCH  16  18
HETATM   18  C4  UNL     1      -3.061   1.455   0.034  1.00  0.00     0.048 A 
HETATM   19  C5  UNL     1      -3.971   1.307  -0.985  1.00  0.00     0.034 A 
HETATM   20  C6  UNL     1      -5.323   1.398  -0.672  1.00  0.00     0.044 A 
HETATM   21  C7  UNL     1      -5.706   1.628   0.613  1.00  0.00     0.116 A 
HETATM   22  F1  UNL     1      -7.046   1.710   0.877  1.00  0.00    -0.206 F 
HETATM   23  C8  UNL     1      -4.793   1.774   1.622  1.00  0.00     0.044 A 
HETATM   24  C9  UNL     1      -3.448   1.686   1.326  1.00  0.00     0.034 A 
ENDBRANCH  16  18
ENDBRANCH   2  16
TORSDOF 6
