REMARK  5 active torsions:
REMARK  status: ('A' for Active; 'I' for Inactive)
REMARK    1  A    between atoms: C2_3  and  C10_16 
REMARK    2  A    between atoms: N2_4  and  O1_6 
REMARK    3  A    between atoms: O1_6  and  C3_7 
REMARK    4  A    between atoms: C3_7  and  C4_9 
REMARK    5  A    between atoms: C10_16  and  C11_20 
ROOT
HETATM    1  N1  UNL     1       0.062  -3.221  -0.956  1.00  0.00    -0.190 NA
HETATM    2  C1  UNL     1       0.701  -2.263  -0.765  1.00  0.00     0.122 C 
HETATM    3  C2  UNL     1       1.512  -1.092  -0.530  1.00  0.00     0.162 C 
HETATM    4  N2  UNL     1       0.916   0.012  -0.421  1.00  0.00    -0.245 N 
ATOM      5  H2  UNL     1       1.495   0.835  -0.255  1.00  0.00     0.196 HD
ENDROOT
BRANCH   3   6
HETATM    6  C10 UNL     1       2.924  -1.230  -0.433  1.00  0.00     0.083 C 
HETATM    7  N3  UNL     1       3.465  -2.425  -0.559  1.00  0.00    -0.396 N 
ATOM      8  H32 UNL     1       2.788  -3.170  -0.722  1.00  0.00     0.156 HD
ATOM      9  H31 UNL     1       4.478  -2.524  -0.489  1.00  0.00     0.156 HD
BRANCH   6  10
HETATM   10  C11 UNL     1       3.905  -0.151  -0.197  1.00  0.00     0.034 A 
HETATM   11  C12 UNL     1       3.738   1.193  -0.019  1.00  0.00     0.021 A 
HETATM   12  C13 UNL     1       4.838   1.940   0.179  1.00  0.00     0.008 A 
HETATM   13  C14 UNL     1       6.044   1.310   0.189  1.00  0.00     0.050 A 
HETATM   14  S1  UNL     1       5.627  -0.317  -0.079  1.00  0.00    -0.100 SA
ENDBRANCH   6  10
ENDBRANCH   3   6
BRANCH   4  15
HETATM   15  O1  UNL     1      -0.432   0.210  -0.504  1.00  0.00    -0.194 OA
BRANCH  15  16
HETATM   16  C3  UNL     1      -1.341  -0.200   0.456  1.00  0.00     0.315 C 
HETATM   17  O2  UNL     1      -0.882  -0.790   1.461  1.00  0.00    -0.257 OA
BRANCH  16  18
HETATM   18  C4  UNL     1      -2.785   0.049   0.300  1.00  0.00     0.043 A 
HETATM   19  C5  UNL     1      -3.693  -0.357   1.253  1.00  0.00     0.018 A 
HETATM   20  C6  UNL     1      -5.047  -0.144   1.144  1.00  0.00     0.003 A 
HETATM   21  C7  UNL     1      -5.526   0.506   0.033  1.00  0.00     0.024 A 
HETATM   22  C8  UNL     1      -4.642   0.923  -0.936  1.00  0.00     0.035 A 
HETATM   23 CL1  UNL     1      -5.297   1.753  -2.346  1.00  0.00    -0.084 Cl
HETATM   24  C9  UNL     1      -3.296   0.694  -0.796  1.00  0.00     0.041 A 
ENDBRANCH  16  18
ENDBRANCH  15  16
ENDBRANCH   4  15
TORSDOF 5
