REMARK  4 active torsions:
REMARK  status: ('A' for Active; 'I' for Inactive)
REMARK    1  A    between atoms: N1_2  and  C1_4 
REMARK    2  A    between atoms: C5_8  and  C6_9 
REMARK    3  A    between atoms: N2_11  and  O3_13 
REMARK    4  A    between atoms: O3_13  and  C7_14 
ROOT
HETATM    1  C6  UNL     1      -0.428  -1.236  -0.274  1.00  0.00     0.112 C 
HETATM    2  S1  UNL     1      -0.193  -2.167  -1.772  1.00  0.00    -0.030 SA
HETATM    3  N2  UNL     1       0.600  -0.772   0.397  1.00  0.00    -0.253 N 
ATOM      4  H2  UNL     1       0.464  -0.238   1.256  1.00  0.00     0.195 HD
ENDROOT
BRANCH   1   5
HETATM    5  C5  UNL     1      -1.782  -0.991   0.204  1.00  0.00     0.002 A 
HETATM    6  C4  UNL     1      -2.830  -1.495  -0.529  1.00  0.00     0.014 A 
HETATM    7  C3  UNL     1      -4.105  -1.277  -0.098  1.00  0.00     0.003 A 
HETATM    8  C2  UNL     1      -4.336  -0.562   1.054  1.00  0.00     0.036 A 
HETATM    9  C1  UNL     1      -3.300  -0.039   1.819  1.00  0.00     0.103 A 
HETATM   10  C13 UNL     1      -2.022  -0.270   1.367  1.00  0.00     0.050 A 
BRANCH   9  11
HETATM   11  N1  UNL     1      -3.570   0.695   3.005  1.00  0.00    -0.116 N 
HETATM   12  O1  UNL     1      -2.615   1.146   3.659  1.00  0.00    -0.532 OA
HETATM   13  O2  UNL     1      -4.877   0.872   3.373  1.00  0.00    -0.532 OA
ENDBRANCH   9  11
ENDBRANCH   1   5
BRANCH   3  14
HETATM   14  O3  UNL     1       1.843  -1.017  -0.075  1.00  0.00    -0.237 OA
BRANCH  14  15
HETATM   15  C7  UNL     1       2.759  -0.045  -0.431  1.00  0.00     0.099 A 
HETATM   16  C8  UNL     1       3.674   0.509   0.419  1.00  0.00     0.041 A 
HETATM   17  C9  UNL     1       4.575   1.478   0.032  1.00  0.00     0.026 A 
HETATM   18  C10 UNL     1       4.573   1.926  -1.270  1.00  0.00     0.034 A 
HETATM   19 CL1  UNL     1       5.706   3.166  -1.818  1.00  0.00    -0.084 Cl
HETATM   20  C11 UNL     1       3.652   1.371  -2.134  1.00  0.00     0.026 A 
HETATM   21  C12 UNL     1       2.756   0.403  -1.735  1.00  0.00     0.041 A 
ENDBRANCH  14  15
ENDBRANCH   3  14
TORSDOF 4
