REMARK  7 active torsions:
REMARK  status: ('A' for Active; 'I' for Inactive)
REMARK    1  A    between atoms: O1_2  and  C2_3 
REMARK    2  A    between atoms: C2_3  and  O3_5 
REMARK    3  A    between atoms: O3_5  and  N1_6 
REMARK    4  A    between atoms: C3_8  and  C4_9 
REMARK    5  A    between atoms: C8_13  and  O4_14 
REMARK    6  A    between atoms: C9_16  and  C10_17 
REMARK    7  A    between atoms: C11_18  and  C12_19 
ROOT
HETATM    1  C4  UNL     1       0.284  -1.707   0.780  1.00  0.00    -0.006 A 
HETATM    2  C5  UNL     1       0.787  -2.801   1.536  1.00  0.00     0.014 A 
HETATM    3  C6  UNL     1       0.312  -4.070   1.359  1.00  0.00     0.004 A 
HETATM    4  C7  UNL     1      -0.671  -4.323   0.439  1.00  0.00     0.037 A 
HETATM    5  C8  UNL     1      -1.200  -3.292  -0.321  1.00  0.00     0.076 A 
HETATM    6  C9  UNL     1      -0.694  -1.981  -0.117  1.00  0.00     0.009 A 
ENDROOT
BRANCH   1   7
HETATM    7  C3  UNL     1       1.037  -0.469   0.870  1.00  0.00     0.127 C 
HETATM    8  N1  UNL     1       0.980   0.484   0.037  1.00  0.00    -0.266 N 
ATOM      9  H1  UNL     1       0.368   0.414  -0.776  1.00  0.00     0.194 HD
BRANCH   8  10
HETATM   10  O3  UNL     1       1.736   1.604   0.226  1.00  0.00    -0.175 OA
BRANCH  10  11
HETATM   11  C2  UNL     1       2.854   1.790  -0.592  1.00  0.00     0.428 C 
HETATM   12  O2  UNL     1       3.175   0.962  -1.485  1.00  0.00    -0.227 OA
BRANCH  11  13
HETATM   13  O1  UNL     1       3.664   2.909  -0.451  1.00  0.00    -0.302 OA
HETATM   14  C1  UNL     1       4.797   3.174  -1.223  1.00  0.00     0.215 C 
ENDBRANCH  11  13
ENDBRANCH  10  11
ENDBRANCH   8  10
ENDBRANCH   1   7
BRANCH   6  15
HETATM   15  C10 UNL     1      -1.500  -0.942  -0.747  1.00  0.00     0.015 C 
HETATM   16  C11 UNL     1      -1.888   0.205  -0.262  1.00  0.00     0.002 C 
BRANCH  16  17
HETATM   17  C12 UNL     1      -2.695   1.108  -1.078  1.00  0.00     0.019 C 
HETATM   18  C13 UNL     1      -3.116   2.281  -0.643  1.00  0.00     0.008 C 
HETATM   19  C14 UNL     1      -2.771   2.722   0.718  1.00  0.00     0.062 C 
HETATM   20 CL1  UNL     1      -4.073   3.311  -1.658  1.00  0.00    -0.089 Cl
ENDBRANCH  16  17
ENDBRANCH   6  15
BRANCH   5  21
HETATM   21  O4  UNL     1      -2.189  -3.535  -1.246  1.00  0.00    -0.360 OA
ATOM     22  H4  UNL     1      -2.552  -2.828  -1.767  1.00  0.00     0.217 HD
ENDBRANCH   5  21
TORSDOF 7
