REMARK  9 active torsions:
REMARK  status: ('A' for Active; 'I' for Inactive)
REMARK    1  A    between atoms: C2_2  and  C3_3 
REMARK    2  A    between atoms: C3_3  and  O1_4 
REMARK    3  A    between atoms: O1_4  and  N1_5 
REMARK    4  A    between atoms: N1_5  and  C4_6 
REMARK    5  A    between atoms: C4_6  and  C6_8 
REMARK    6  A    between atoms: C6_8  and  S1_9 
REMARK    7  A    between atoms: S1_9  and  C7_10 
REMARK    8  A    between atoms: C8_15  and  C9_16 
REMARK    9  A    between atoms: C12_19  and  C13_20 
REMARK       I    between atoms: C13_20  and  N4_22 
ROOT
HETATM    1  C7  UNL     1       0.363  -0.561   0.176  1.00  0.00     0.204 A 
HETATM    2  N2  UNL     1       0.482  -0.258  -1.112  1.00  0.00    -0.272 N 
ATOM      3  H2  UNL     1      -0.289  -0.222  -1.779  1.00  0.00     0.189 HD
HETATM    4  N3  UNL     1       1.721  -0.016  -1.395  1.00  0.00    -0.281 N 
ATOM      5  H3  UNL     1       2.088   0.237  -2.312  1.00  0.00     0.189 HD
HETATM    6  C8  UNL     1       2.439  -0.157  -0.268  1.00  0.00     0.145 A 
HETATM    7  O3  UNL     1       1.577  -0.497   0.681  1.00  0.00    -0.272 OA
ENDROOT
BRANCH   1   8
HETATM    8  S1  UNL     1      -1.138  -0.959   1.024  1.00  0.00    -0.067 SA
BRANCH   8   9
HETATM    9  C6  UNL     1      -2.626  -0.862   0.065  1.00  0.00     0.070 C 
HETATM   10  C17 UNL     1      -2.879  -2.043  -0.857  1.00  0.00     0.028 C 
HETATM   11  C18 UNL     1      -4.322  -1.897  -1.329  1.00  0.00     0.002 C 
HETATM   12  C19 UNL     1      -4.541  -0.654  -2.131  1.00  0.00     0.000 C 
HETATM   13  C20 UNL     1      -3.824   0.558  -1.674  1.00  0.00     0.002 C 
HETATM   14  C21 UNL     1      -2.629   0.346  -0.817  1.00  0.00     0.028 C 
BRANCH   9  15
HETATM   15  C4  UNL     1      -3.803  -0.852   1.035  1.00  0.00     0.110 C 
HETATM   16  C5  UNL     1      -3.935  -2.113   1.858  1.00  0.00     0.084 C 
BRANCH  15  17
HETATM   17  N1  UNL     1      -4.579   0.024   1.167  1.00  0.00    -0.289 NA
BRANCH  17  18
HETATM   18  O1  UNL     1      -5.444   0.933   1.352  1.00  0.00    -0.209 OA
BRANCH  18  19
HETATM   19  C3  UNL     1      -6.763   1.019   0.825  1.00  0.00     0.217 C 
BRANCH  19  20
HETATM   20  C2  UNL     1      -7.504   2.273   1.199  1.00  0.00     0.025 C 
HETATM   21  C1  UNL     1      -8.889   2.274   0.562  1.00  0.00     0.007 C 
ENDBRANCH  19  20
ENDBRANCH  18  19
ENDBRANCH  17  18
ENDBRANCH  15  17
ENDBRANCH   9  15
ENDBRANCH   8   9
ENDBRANCH   1   8
BRANCH   6  22
HETATM   22  C9  UNL     1       3.887   0.070  -0.221  1.00  0.00     0.064 C 
HETATM   23  C10 UNL     1       4.297   0.799   1.044  1.00  0.00     0.014 C 
HETATM   24  C11 UNL     1       5.654   1.336   0.865  1.00  0.00     0.016 C 
HETATM   25  C12 UNL     1       6.592   0.604  -0.030  1.00  0.00     0.096 C 
HETATM   26  C15 UNL     1       6.184  -0.739  -0.494  1.00  0.00     0.096 C 
HETATM   27 CL1  UNL     1       7.202  -1.983   0.314  1.00  0.00    -0.124 Cl
HETATM   28  C16 UNL     1       4.754  -1.152  -0.285  1.00  0.00     0.034 C 
BRANCH  25  29
HETATM   29  C13 UNL     1       7.960   0.608   0.557  1.00  0.00     0.222 C 
HETATM   30  O2  UNL     1       8.099   1.065   1.714  1.00  0.00    -0.273 OA
HETATM   31  N4  UNL     1       9.108   0.129  -0.112  1.00  0.00    -0.365 N 
HETATM   32  C14 UNL     1      10.411   0.157   0.563  1.00  0.00     0.149 C 
ATOM     33  H4  UNL     1       9.032  -0.235  -1.062  1.00  0.00     0.161 HD
ENDBRANCH  25  29
ENDBRANCH   6  22
TORSDOF 9
