REMARK  8 active torsions:
REMARK  status: ('A' for Active; 'I' for Inactive)
REMARK    1  A    between atoms: O1_2  and  C2_3 
REMARK    2  A    between atoms: C4_5  and  O2_6 
REMARK    3  A    between atoms: C6_8  and  C7_9 
REMARK    4  A    between atoms: C7_9  and  C8_11 
REMARK    5  A    between atoms: C8_11  and  S1_13 
REMARK    6  A    between atoms: C12_17  and  C13_18 
REMARK       I    between atoms: C13_18  and  N2_20 
REMARK    7  A    between atoms: N2_20  and  C14_22 
REMARK    8  A    between atoms: C17_25  and  C18_26 
ROOT
HETATM    1  S1  UNL     1      -4.177   3.026  -1.172  1.00  0.00    -0.038 SA
HETATM    2  C10 UNL     1      -5.224   3.841  -0.031  1.00  0.00     0.134 C 
HETATM    3  N1  UNL     1      -5.918   4.382   0.751  1.00  0.00    -0.184 NA
ENDROOT
BRANCH   1   4
HETATM    4  C8  UNL     1      -4.994   1.558  -1.896  1.00  0.00     0.133 C 
HETATM    5  C9  UNL     1      -6.348   1.971  -2.453  1.00  0.00     0.031 C 
BRANCH   4   6
HETATM    6  C7  UNL     1      -5.192   0.583  -0.810  1.00  0.00     0.176 C 
HETATM    7  O3  UNL     1      -6.376   0.282  -0.486  1.00  0.00    -0.291 OA
BRANCH   6   8
HETATM    8  C6  UNL     1      -4.070  -0.046  -0.094  1.00  0.00     0.045 A 
HETATM    9  C4  UNL     1      -4.339  -0.927   0.942  1.00  0.00     0.084 A 
HETATM   10  C3  UNL     1      -3.315  -1.533   1.622  1.00  0.00     0.075 A 
HETATM   11  C2  UNL     1      -1.970  -1.272   1.281  1.00  0.00     0.086 A 
HETATM   12  C12 UNL     1      -1.698  -0.412   0.268  1.00  0.00     0.066 A 
HETATM   13  C11 UNL     1      -2.769   0.211  -0.431  1.00  0.00     0.038 A 
BRANCH   9  14
HETATM   14  O2  UNL     1      -5.654  -1.160   1.250  1.00  0.00    -0.355 OA
HETATM   15  C5  UNL     1      -6.134  -2.009   2.251  1.00  0.00     0.210 C 
ENDBRANCH   9  14
BRANCH  11  16
HETATM   16  O1  UNL     1      -0.979  -1.906   1.992  1.00  0.00    -0.355 OA
HETATM   17  C1  UNL     1      -1.321  -2.788   3.031  1.00  0.00     0.210 C 
ENDBRANCH  11  16
BRANCH  12  18
HETATM   18  C13 UNL     1      -0.359  -0.063  -0.158  1.00  0.00     0.259 C 
HETATM   19  O4  UNL     1      -0.319   0.760  -1.153  1.00  0.00    -0.267 OA
HETATM   20  N2  UNL     1       0.812  -0.543   0.410  1.00  0.00    -0.320 N 
ATOM     21  H2  UNL     1       0.703  -1.179   1.200  1.00  0.00     0.169 HD
BRANCH  20  22
HETATM   22  C14 UNL     1       2.156  -0.249   0.015  1.00  0.00     0.073 A 
HETATM   23  C15 UNL     1       2.479   0.442  -1.109  1.00  0.00     0.033 A 
HETATM   24  C16 UNL     1       3.835   0.678  -1.447  1.00  0.00     0.010 A 
HETATM   25  C17 UNL     1       4.873   0.230  -0.671  1.00  0.00    -0.048 A 
HETATM   26  C22 UNL     1       4.500  -0.468   0.461  1.00  0.00     0.052 A 
HETATM   27  C23 UNL     1       3.210  -0.706   0.804  1.00  0.00     0.143 A 
HETATM   28  F1  UNL     1       2.958  -1.394   1.934  1.00  0.00    -0.204 F 
BRANCH  25  29
HETATM   29  C18 UNL     1       6.263   0.500  -1.068  1.00  0.00    -0.024 C 
HETATM   30  C19 UNL     1       6.732  -0.733  -1.855  1.00  0.00     0.019 C 
HETATM   31  C20 UNL     1       6.283   1.683  -2.023  1.00  0.00     0.019 C 
HETATM   32  C21 UNL     1       7.205   0.734   0.066  1.00  0.00     0.019 C 
ENDBRANCH  25  29
ENDBRANCH  20  22
ENDBRANCH  12  18
ENDBRANCH   6   8
ENDBRANCH   4   6
ENDBRANCH   1   4
TORSDOF 8
