REMARK  8 active torsions:
REMARK  status: ('A' for Active; 'I' for Inactive)
REMARK    1  A    between atoms: C2_2  and  C3_3 
REMARK    2  A    between atoms: C3_3  and  C4_4 
REMARK    3  A    between atoms: C4_4  and  C5_5 
REMARK    4  A    between atoms: N1_9  and  C8_10 
REMARK    5  A    between atoms: C11_18  and  O1_19 
REMARK    6  A    between atoms: O1_19  and  C12_20 
REMARK    7  A    between atoms: C12_20  and  C13_21 
REMARK    8  A    between atoms: N5_30  and  C21_32 
ROOT
HETATM    1  C5  UNL     1      -2.465  -0.868   0.129  1.00  0.00     0.052 C 
HETATM    2  C6  UNL     1      -1.516  -1.771   0.856  1.00  0.00     0.074 C 
HETATM    3  C7  UNL     1      -0.090  -1.218   0.904  1.00  0.00     0.274 C 
HETATM    4  F1  UNL     1       0.682  -2.076   1.671  1.00  0.00    -0.227 F 
HETATM    5  N1  UNL     1       0.456  -1.000  -0.410  1.00  0.00    -0.332 N 
HETATM    6  C19 UNL     1      -0.016  -0.083  -1.417  1.00  0.00     0.137 C 
HETATM    7  C20 UNL     1      -0.958  -0.725  -2.416  1.00  0.00     0.094 C 
HETATM    8  S1  UNL     1      -2.465  -1.320  -1.650  1.00  0.00    -0.163 SA
ENDROOT
BRANCH   5   9
HETATM    9  C8  UNL     1       1.612  -1.761  -0.787  1.00  0.00     0.159 A 
HETATM   10  N2  UNL     1       1.514  -2.725  -1.733  1.00  0.00    -0.326 N 
HETATM   11  C9  UNL     1       2.560  -3.475  -2.111  1.00  0.00     0.133 A 
ATOM     12  H2  UNL     1       0.609  -2.887  -2.175  1.00  0.00     0.168 HD
HETATM   13  N3  UNL     1       2.438  -4.476  -3.099  1.00  0.00    -0.081 NA
HETATM   14  C10 UNL     1       3.784  -3.262  -1.519  1.00  0.00     0.135 A 
HETATM   15  N4  UNL     1       3.930  -2.321  -0.579  1.00  0.00    -0.341 N 
HETATM   16  C11 UNL     1       2.855  -1.567  -0.207  1.00  0.00     0.187 A 
ATOM     17  H4  UNL     1       4.839  -2.168  -0.143  1.00  0.00     0.167 HD
BRANCH  16  18
HETATM   18  O1  UNL     1       2.942  -0.588   0.747  1.00  0.00    -0.333 OA
BRANCH  18  19
HETATM   19  C12 UNL     1       4.053  -0.182   1.482  1.00  0.00     0.182 C 
BRANCH  19  20
HETATM   20  C13 UNL     1       5.201   0.349   0.651  1.00  0.00     0.010 C 
HETATM   21  C14 UNL     1       6.361   0.771   1.519  1.00  0.00     0.007 C 
HETATM   22  C15 UNL     1       6.260   2.162   2.038  1.00  0.00     0.000 C 
HETATM   23  C16 UNL     1       6.134   3.123   0.861  1.00  0.00     0.000 C 
HETATM   24  C17 UNL     1       4.826   2.797   0.185  1.00  0.00     0.000 C 
HETATM   25  C18 UNL     1       4.766   1.398  -0.317  1.00  0.00     0.007 C 
ENDBRANCH  19  20
ENDBRANCH  18  19
ENDBRANCH  16  18
ENDBRANCH   5   9
BRANCH   1  26
HETATM   26  C4  UNL     1      -3.891  -1.022   0.612  1.00  0.00     0.021 C 
BRANCH  26  27
HETATM   27  C3  UNL     1      -4.747  -0.063  -0.196  1.00  0.00     0.053 C 
BRANCH  27  28
HETATM   28  C2  UNL     1      -6.171  -0.114   0.167  1.00  0.00    -0.022 C 
HETATM   29  C1  UNL     1      -6.845  -1.457   0.000  1.00  0.00     0.062 C 
HETATM   30  N5  UNL     1      -6.899   0.812   0.594  1.00  0.00    -0.393 N 
ATOM     31  H5  UNL     1      -7.867   0.551   0.781  1.00  0.00     0.159 HD
BRANCH  30  32
HETATM   32  C21 UNL     1      -6.581   2.161   0.855  1.00  0.00     0.073 C 
HETATM   33  C22 UNL     1      -6.094   2.924  -0.326  1.00  0.00     0.031 C 
HETATM   34  C23 UNL     1      -5.505   2.240   1.941  1.00  0.00     0.031 C 
ENDBRANCH  30  32
ENDBRANCH  27  28
ENDBRANCH  26  27
ENDBRANCH   1  26
TORSDOF 8
