REMARK  9 active torsions:
REMARK  status: ('A' for Active; 'I' for Inactive)
REMARK    1  A    between atoms: O1_2  and  C2_3 
REMARK    2  A    between atoms: C2_3  and  C3_5 
REMARK    3  A    between atoms: C3_5  and  C4_6 
REMARK    4  A    between atoms: C3_5  and  C6_11 
REMARK    5  A    between atoms: C6_11  and  C7_13 
REMARK    6  A    between atoms: C7_13  and  S1_14 
REMARK    7  A    between atoms: S1_14  and  C8_15 
REMARK    8  A    between atoms: C11_18  and  C12_19 
REMARK    9  A    between atoms: N2_26  and  C18_27 
ROOT
HETATM    1  C8  UNL     1       0.258   0.149  -0.840  1.00  0.00     0.077 A 
HETATM    2  C9  UNL     1       0.905   1.172  -1.464  1.00  0.00     0.040 A 
HETATM    3  C10 UNL     1       0.005   2.201  -1.482  1.00  0.00     0.034 A 
HETATM    4  C11 UNL     1      -1.204   1.784  -0.855  1.00  0.00     0.050 A 
HETATM    5  N2  UNL     1      -1.017   0.510  -0.471  1.00  0.00    -0.313 N 
ENDROOT
BRANCH   1   6
HETATM    6  S1  UNL     1       1.035  -1.455  -0.554  1.00  0.00    -0.104 SA
BRANCH   6   7
HETATM    7  C7  UNL     1       2.734  -1.477  -1.172  1.00  0.00     0.160 C 
BRANCH   7   8
HETATM    8  C6  UNL     1       3.593  -0.563  -0.377  1.00  0.00     0.155 C 
HETATM    9  O3  UNL     1       3.069   0.018   0.572  1.00  0.00    -0.296 OA
BRANCH   8  10
HETATM   10  C3  UNL     1       5.023  -0.294  -0.630  1.00  0.00     0.200 C 
BRANCH  10  11
HETATM   11  C2  UNL     1       5.504   0.656   0.415  1.00  0.00     0.275 C 
HETATM   12  O2  UNL     1       5.962   1.775   0.070  1.00  0.00    -0.264 OA
BRANCH  11  13
HETATM   13  O1  UNL     1       5.479   0.379   1.758  1.00  0.00    -0.326 OA
HETATM   14  C1  UNL     1       5.926   1.251   2.778  1.00  0.00     0.213 C 
ENDBRANCH  11  13
ENDBRANCH  10  11
BRANCH  10  15
HETATM   15  C4  UNL     1       5.886  -1.466  -0.735  1.00  0.00    -0.003 C 
HETATM   16  C5  UNL     1       5.620  -2.577  -1.695  1.00  0.00     0.064 C 
HETATM   17  N1  UNL     1       6.922  -1.584  -0.016  1.00  0.00    -0.405 N 
ATOM     18  H12 UNL     1       7.104  -0.825   0.640  1.00  0.00     0.155 HD
ATOM     19  H11 UNL     1       7.525  -2.403  -0.089  1.00  0.00     0.155 HD
ENDBRANCH  10  15
ENDBRANCH   8  10
ENDBRANCH   7   8
ENDBRANCH   6   7
ENDBRANCH   1   6
BRANCH   5  20
HETATM   20  C18 UNL     1      -1.912  -0.432   0.155  1.00  0.00    -0.004 C 
HETATM   21  C19 UNL     1      -3.207  -0.599  -0.538  1.00  0.00     0.053 C 
HETATM   22  C20 UNL     1      -3.415  -2.017  -1.121  1.00  0.00     0.006 C 
HETATM   23  C21 UNL     1      -3.353  -3.073  -0.079  1.00  0.00     0.000 C 
HETATM   24  C22 UNL     1      -4.211  -2.734   1.133  1.00  0.00     0.000 C 
HETATM   25  C23 UNL     1      -3.279  -2.360   2.248  1.00  0.00     0.000 C 
HETATM   26  C24 UNL     1      -3.097  -0.846   2.346  1.00  0.00     0.006 C 
HETATM   27  C25 UNL     1      -1.869  -0.409   1.640  1.00  0.00     0.053 C 
ENDBRANCH   5  20
BRANCH   4  28
HETATM   28  C12 UNL     1      -2.340   2.660  -0.801  1.00  0.00    -0.006 A 
HETATM   29  C13 UNL     1      -2.424   3.693  -1.743  1.00  0.00     0.014 A 
HETATM   30  C14 UNL     1      -3.422   4.633  -1.725  1.00  0.00     0.004 A 
HETATM   31  C15 UNL     1      -4.404   4.602  -0.764  1.00  0.00     0.042 A 
HETATM   32  C16 UNL     1      -4.355   3.614   0.166  1.00  0.00     0.117 A 
HETATM   33  F1  UNL     1      -5.307   3.561   1.121  1.00  0.00    -0.206 F 
HETATM   34  C17 UNL     1      -3.315   2.658   0.126  1.00  0.00     0.056 A 
ENDBRANCH   4  28
TORSDOF 9
