REMARK  11 active torsions:
REMARK  status: ('A' for Active; 'I' for Inactive)
REMARK       I    between atoms: N1_2  and  C2_4 
REMARK       I    between atoms: C2_4  and  N2_6 
REMARK    1  A    between atoms: C5_12  and  C6_13 
REMARK    2  A    between atoms: C6_13  and  O2_14 
REMARK    3  A    between atoms: C6_13  and  C7_16 
REMARK    4  A    between atoms: C6_13  and  C8_23 
REMARK    5  A    between atoms: C7_16  and  O4_18 
REMARK    6  A    between atoms: O4_18  and  N5_19 
REMARK    7  A    between atoms: N5_19  and  N6_20 
REMARK    8  A    between atoms: C11_32  and  N10_33 
REMARK    9  A    between atoms: C13_37  and  N11_38 
REMARK       I    between atoms: N11_38  and  C14_40 
REMARK   10  A    between atoms: C14_40  and  C15_42 
REMARK   11  A    between atoms: C15_42  and  S1_43 
ROOT
HETATM    1  C8  UNL     1       0.021  -0.437  -0.274  1.00  0.00     0.090 A 
HETATM    2  N7  UNL     1      -0.558  -1.353  -1.077  1.00  0.00    -0.340 N 
ATOM      3  H7  UNL     1      -1.564  -1.408  -1.238  1.00  0.00     0.167 HD
HETATM    4  C9  UNL     1       0.332  -2.186  -1.642  1.00  0.00     0.123 A 
HETATM    5  N8  UNL     1       0.262  -3.230  -2.485  1.00  0.00    -0.338 N 
ATOM      6  H8  UNL     1      -0.656  -3.522  -2.822  1.00  0.00     0.168 HD
HETATM    7  C10 UNL     1       1.341  -3.907  -2.905  1.00  0.00     0.183 A 
HETATM    8  N9  UNL     1       2.547  -3.524  -2.461  1.00  0.00    -0.338 N 
ATOM      9  H9  UNL     1       3.384  -4.022  -2.764  1.00  0.00     0.168 HD
HETATM   10  C11 UNL     1       2.653  -2.485  -1.618  1.00  0.00     0.116 A 
HETATM   11  C12 UNL     1       1.549  -1.776  -1.175  1.00  0.00     0.080 A 
HETATM   12  C13 UNL     1       1.418  -0.708  -0.335  1.00  0.00     0.079 A 
ENDROOT
BRANCH   1  13
HETATM   13  C6  UNL     1      -0.534   0.793   0.252  1.00  0.00     0.239 C 
BRANCH  13  14
HETATM   14  C5  UNL     1      -1.897   1.049   0.598  1.00  0.00     0.114 A 
HETATM   15  N2  UNL     1      -2.922   0.262   1.008  1.00  0.00    -0.257 N 
HETATM   16  C2  UNL     1      -3.012  -1.115   1.294  1.00  0.00     0.327 C 
HETATM   17  C3  UNL     1      -3.938   1.140   1.360  1.00  0.00     0.194 A 
HETATM   18  N1  UNL     1      -4.239  -1.613   1.905  1.00  0.00    -0.347 N 
HETATM   19  O1  UNL     1      -2.217  -2.029   1.123  1.00  0.00    -0.246 OA
HETATM   20  C1  UNL     1      -4.363  -3.024   2.214  1.00  0.00     0.151 C 
ATOM     21  H1  UNL     1      -5.005  -0.973   2.114  1.00  0.00     0.163 HD
HETATM   22  N3  UNL     1      -3.564   2.377   1.196  1.00  0.00    -0.339 N 
HETATM   23  C4  UNL     1      -2.339   2.425   0.741  1.00  0.00     0.144 A 
ATOM     24  H3  UNL     1      -4.144   3.192   1.394  1.00  0.00     0.167 HD
HETATM   25  N4  UNL     1      -1.546   3.565   0.449  1.00  0.00    -0.080 NA
ENDBRANCH  13  14
BRANCH  13  26
HETATM   26  O2  UNL     1       0.359   1.258   1.279  1.00  0.00    -0.369 OA
ATOM     27  H2  UNL     1       1.265   1.088   1.049  1.00  0.00     0.212 HD
ENDBRANCH  13  26
BRANCH  13  28
HETATM   28  C7  UNL     1      -0.233   1.783  -0.921  1.00  0.00     0.326 C 
HETATM   29  O3  UNL     1       0.716   2.538  -0.894  1.00  0.00    -0.259 OA
BRANCH  28  30
HETATM   30  O4  UNL     1      -1.141   1.701  -1.954  1.00  0.00    -0.182 OA
BRANCH  30  31
HETATM   31  N5  UNL     1      -1.049   2.490  -3.079  1.00  0.00     0.022 NA
BRANCH  31  32
HETATM   32  N6  UNL     1      -2.166   2.165  -3.875  1.00  0.00    -0.322 N 
ATOM     33  H62 UNL     1      -2.888   1.481  -3.650  1.00  0.00     0.174 HD
ATOM     34  H61 UNL     1      -2.098   2.749  -4.708  1.00  0.00     0.174 HD
ENDBRANCH  31  32
ENDBRANCH  30  31
ENDBRANCH  28  30
ENDBRANCH  13  28
ENDBRANCH   1  13
BRANCH  12  35
HETATM   35  N11 UNL     1       2.450  -0.020   0.344  1.00  0.00    -0.324 N 
HETATM   36  C14 UNL     1       2.935  -0.380   1.621  1.00  0.00     0.238 C 
HETATM   37  O5  UNL     1       2.440  -1.369   2.221  1.00  0.00    -0.272 OA
ATOM     38  H11 UNL     1       2.871   0.787  -0.117  1.00  0.00     0.169 HD
BRANCH  36  39
HETATM   39  C15 UNL     1       4.008   0.354   2.300  1.00  0.00     0.268 C 
BRANCH  39  40
HETATM   40  S1  UNL     1       4.639   1.719   1.402  1.00  0.00     0.110 S 
HETATM   41  O6  UNL     1       5.365   1.300   0.148  1.00  0.00    -0.595 OA
HETATM   42  O7  UNL     1       5.678   2.397   2.274  1.00  0.00    -0.595 OA
HETATM   43  O8  UNL     1       3.466   2.868   1.075  1.00  0.00    -0.595 OA
ENDBRANCH  39  40
ENDBRANCH  36  39
ENDBRANCH  12  35
BRANCH  10  44
HETATM   44  N10 UNL     1       3.803  -2.098  -1.178  1.00  0.00    -0.385 N 
ATOM     45 2H10 UNL     1       4.616  -2.620  -1.504  1.00  0.00     0.157 HD
ATOM     46 1H10 UNL     1       3.884  -1.308  -0.537  1.00  0.00     0.157 HD
ENDBRANCH  10  44
TORSDOF 11
