REMARK  16 active torsions:
REMARK  status: ('A' for Active; 'I' for Inactive)
REMARK    1  A    between atoms: N1_1  and  C1_4 
REMARK    2  A    between atoms: C3_12  and  S1_13 
REMARK    3  A    between atoms: S1_13  and  C4_14 
REMARK    4  A    between atoms: C4_14  and  C5_15 
REMARK    5  A    between atoms: C5_15  and  N5_16 
REMARK    6  A    between atoms: N5_16  and  C6_18 
REMARK    7  A    between atoms: C8_20  and  C9_21 
REMARK    8  A    between atoms: C9_21  and  O1_22 
REMARK    9  A    between atoms: C9_21  and  O2_24 
REMARK   10  A    between atoms: C11_28  and  O4_29 
REMARK   11  A    between atoms: C11_28  and  C12_31 
REMARK   12  A    between atoms: C12_31  and  O5_32 
REMARK   13  A    between atoms: C12_31  and  C13_34 
REMARK   14  A    between atoms: C13_34  and  O6_35 
REMARK   15  A    between atoms: C14_37  and  O7_38 
REMARK   16  A    between atoms: N6_40  and  N7_41 
ROOT
HETATM    1  N5  UNL     1      -0.827  -1.517   0.810  1.00  0.00    -0.387 N 
ATOM      2  H5  UNL     1      -1.306  -2.408   0.679  1.00  0.00     0.159 HD
ENDROOT
BRANCH   1   3
HETATM    3  C5  UNL     1       0.508  -1.605   1.294  1.00  0.00     0.130 C 
BRANCH   3   4
HETATM    4  C4  UNL     1       1.220  -2.824   0.731  1.00  0.00     0.102 C 
BRANCH   4   5
HETATM    5  S1  UNL     1       2.922  -2.928   1.357  1.00  0.00    -0.090 SA
BRANCH   5   6
HETATM    6  C3  UNL     1       3.927  -1.584   0.776  1.00  0.00     0.168 A 
HETATM    7  N4  UNL     1       4.037  -0.415   1.448  1.00  0.00    -0.320 N 
HETATM    8  C2  UNL     1       4.811   0.590   0.976  1.00  0.00     0.139 A 
ATOM      9  H4  UNL     1       3.529  -0.289   2.324  1.00  0.00     0.169 HD
HETATM   10  N3  UNL     1       5.072   1.835   1.468  1.00  0.00    -0.283 N 
HETATM   11  C16 UNL     1       5.503   0.426  -0.212  1.00  0.00     0.094 A 
HETATM   12  N2  UNL     1       5.888   2.434   0.638  1.00  0.00    -0.283 N 
ATOM     13  H3  UNL     1       4.697   2.230   2.331  1.00  0.00     0.188 HD
HETATM   14  C1  UNL     1       6.183   1.601  -0.418  1.00  0.00     0.131 A 
ATOM     15  H2  UNL     1       6.252   3.379   0.756  1.00  0.00     0.188 HD
HETATM   16  C15 UNL     1       5.387  -0.774  -0.897  1.00  0.00     0.142 A 
HETATM   17  N6  UNL     1       4.600  -1.739  -0.377  1.00  0.00    -0.228 N 
HETATM   18  S2  UNL     1       6.176  -1.011  -2.290  1.00  0.00    -0.057 SA
BRANCH  14  19
HETATM   19  N1  UNL     1       6.944   1.889  -1.390  1.00  0.00    -0.384 N 
ATOM     20  H12 UNL     1       7.449   2.762  -1.543  1.00  0.00     0.157 HD
ATOM     21  H11 UNL     1       7.163   1.272  -2.172  1.00  0.00     0.157 HD
ENDBRANCH  14  19
BRANCH  17  22
HETATM   22  N7  UNL     1       4.493  -2.936  -1.076  1.00  0.00    -0.335 N 
ATOM     23  H72 UNL     1       3.898  -3.665  -0.683  1.00  0.00     0.177 HD
ATOM     24  H71 UNL     1       5.004  -3.054  -1.951  1.00  0.00     0.177 HD
ENDBRANCH  17  22
ENDBRANCH   5   6
ENDBRANCH   4   5
ENDBRANCH   3   4
ENDBRANCH   1   3
BRANCH   1  25
HETATM   25  C6  UNL     1      -1.504  -0.483   0.519  1.00  0.00     0.067 A 
HETATM   26  C7  UNL     1      -1.029   0.798   0.630  1.00  0.00     0.070 A 
HETATM   27  C8  UNL     1      -1.865   1.857   0.279  1.00  0.00     0.110 A 
HETATM   28  O3  UNL     1      -3.044   1.630  -0.136  1.00  0.00    -0.304 OA
HETATM   29  C10 UNL     1      -3.629   0.423  -0.290  1.00  0.00     0.142 A 
HETATM   30  C11 UNL     1      -4.980   0.371  -0.774  1.00  0.00     0.110 C 
HETATM   31  C14 UNL     1      -2.826  -0.629   0.049  1.00  0.00     0.129 A 
BRANCH  27  32
HETATM   32  C9  UNL     1      -1.330   3.242   0.406  1.00  0.00     0.312 C 
BRANCH  32  33
HETATM   33  O1  UNL     1      -2.270   4.095   1.016  1.00  0.00    -0.365 OA
ATOM     34  H1  UNL     1      -1.929   4.978   1.097  1.00  0.00     0.213 HD
ENDBRANCH  32  33
BRANCH  32  35
HETATM   35  O2  UNL     1      -0.138   3.243   1.085  1.00  0.00    -0.365 OA
ATOM     36  H2  UNL     1       0.203   4.126   1.166  1.00  0.00     0.213 HD
ENDBRANCH  32  35
ENDBRANCH  27  32
BRANCH  30  37
HETATM   37  O4  UNL     1      -5.460   1.596  -1.005  1.00  0.00    -0.359 OA
ATOM     38  H4  UNL     1      -6.354   1.562  -1.325  1.00  0.00     0.217 HD
ENDBRANCH  30  37
BRANCH  30  39
HETATM   39  C12 UNL     1      -5.921  -0.666  -1.064  1.00  0.00     0.201 C 
BRANCH  39  40
HETATM   40  O5  UNL     1      -5.601  -1.954  -0.898  1.00  0.00    -0.387 OA
ATOM     41  H5  UNL     1      -6.226  -2.643  -1.091  1.00  0.00     0.210 HD
ENDBRANCH  39  40
BRANCH  39  42
HETATM   42  C13 UNL     1      -7.241  -0.336  -0.286  1.00  0.00     0.202 C 
BRANCH  42  43
HETATM   43  O6  UNL     1      -6.947  -0.621   1.047  1.00  0.00    -0.398 OA
ATOM     44  H6  UNL     1      -7.747  -0.421   1.519  1.00  0.00     0.209 HD
ENDBRANCH  42  43
ENDBRANCH  39  42
ENDBRANCH  30  39
BRANCH  31  45
HETATM   45  O7  UNL     1      -3.293  -1.925  -0.058  1.00  0.00    -0.356 OA
ATOM     46  H7  UNL     1      -4.183  -2.023  -0.375  1.00  0.00     0.218 HD
ENDBRANCH  31  45
ENDBRANCH   1  25
TORSDOF 16
