REMARK  17 active torsions:
REMARK  status: ('A' for Active; 'I' for Inactive)
REMARK    1  A    between atoms: O1_2  and  C2_3 
REMARK    2  A    between atoms: C2_3  and  C3_4 
REMARK       I    between atoms: C3_4  and  N1_6 
REMARK    3  A    between atoms: C4_7  and  O3_8 
REMARK    4  A    between atoms: C5_10  and  N2_11 
REMARK    5  A    between atoms: C7_18  and  N5_19 
REMARK    6  A    between atoms: C8_22  and  C9_23 
REMARK    7  A    between atoms: C9_23  and  O6_24 
REMARK    8  A    between atoms: C9_23  and  N6_26 
REMARK    9  A    between atoms: N6_26  and  C10_28 
REMARK   10  A    between atoms: C10_28  and  C11_29 
REMARK   11  A    between atoms: C10_28  and  C12_34 
REMARK   12  A    between atoms: C11_29  and  N7_30 
REMARK   13  A    between atoms: C12_34  and  N8_35 
REMARK   14  A    between atoms: C12_34  and  O7_39 
REMARK   15  A    between atoms: C13_41  and  N9_42 
REMARK       I    between atoms: N9_42  and  C14_44 
REMARK   16  A    between atoms: C14_44  and  O9_46 
REMARK   17  A    between atoms: C16_48  and  N10_49 
ROOT
HETATM    1  C3  UNL     1       4.215   1.253  -0.318  1.00  0.00     0.255 C 
HETATM    2  O2  UNL     1       4.572   2.419  -0.617  1.00  0.00    -0.270 OA
HETATM    3  N1  UNL     1       2.816   0.981  -0.306  1.00  0.00    -0.242 N 
HETATM    4  C4  UNL     1       2.352  -0.223  -0.002  1.00  0.00     0.179 A 
HETATM    5  C5  UNL     1       0.956  -0.493   0.008  1.00  0.00     0.109 A 
HETATM    6  C8  UNL     1       0.028   0.465  -0.291  1.00  0.00     0.076 A 
HETATM    7  C13 UNL     1       0.562   1.732  -0.607  1.00  0.00     0.098 A 
HETATM    8  C16 UNL     1       1.925   1.932  -0.601  1.00  0.00     0.138 A 
ENDROOT
BRANCH   6   9
HETATM    9  C9  UNL     1      -1.377   0.308  -0.372  1.00  0.00     0.151 C 
BRANCH   9  10
HETATM   10  O6  UNL     1      -2.026   1.352  -0.839  1.00  0.00    -0.346 OA
ATOM     11  H6  UNL     1      -2.969   1.247  -0.893  1.00  0.00     0.219 HD
ENDBRANCH   9  10
BRANCH   9  12
HETATM   12  N6  UNL     1      -2.295  -0.679  -0.080  1.00  0.00    -0.360 N 
ATOM     13  H6  UNL     1      -1.968  -1.566   0.304  1.00  0.00     0.162 HD
BRANCH  12  14
HETATM   14  C10 UNL     1      -3.750  -0.480  -0.313  1.00  0.00     0.164 C 
BRANCH  14  15
HETATM   15  C11 UNL     1      -4.491  -0.540   0.992  1.00  0.00     0.259 C 
BRANCH  15  16
HETATM   16  N7  UNL     1      -4.327  -1.805   1.670  1.00  0.00    -0.077 N 
ATOM     17  H73 UNL     1      -4.591  -2.582   1.064  1.00  0.00     0.274 HD
ATOM     18  H72 UNL     1      -3.339  -2.025   1.800  1.00  0.00     0.274 HD
ATOM     19  H71 UNL     1      -4.830  -1.846   2.556  1.00  0.00     0.274 HD
ENDBRANCH  15  16
ENDBRANCH  14  15
BRANCH  14  20
HETATM   20  C12 UNL     1      -4.258  -1.453  -1.327  1.00  0.00     0.340 C 
BRANCH  20  21
HETATM   21  N8  UNL     1      -5.657  -1.179  -1.545  1.00  0.00    -0.051 N 
ATOM     22  H83 UNL     1      -6.200  -1.189  -0.682  1.00  0.00     0.277 HD
ATOM     23  H82 UNL     1      -5.833  -0.209  -1.806  1.00  0.00     0.277 HD
ATOM     24  H81 UNL     1      -6.004  -1.843  -2.237  1.00  0.00     0.277 HD
ENDBRANCH  20  21
BRANCH  20  25
HETATM   25  O7  UNL     1      -3.537  -1.218  -2.518  1.00  0.00    -0.368 OA
ATOM     26  H7  UNL     1      -3.860  -1.837  -3.163  1.00  0.00     0.212 HD
ENDBRANCH  20  25
ENDBRANCH  14  20
ENDBRANCH  12  14
ENDBRANCH   9  12
ENDBRANCH   6   9
BRANCH   5  27
HETATM   27  N2  UNL     1       0.598  -1.841   0.313  1.00  0.00    -0.270 N 
HETATM   28  C6  UNL     1       0.395  -2.574   1.496  1.00  0.00     0.182 C 
HETATM   29  N3  UNL     1       0.601  -2.359   2.791  1.00  0.00    -0.371 N 
HETATM   30  N4  UNL     1      -0.123  -3.649   0.751  1.00  0.00    -0.319 N 
ATOM     31  H32 UNL     1       0.977  -1.580   3.331  1.00  0.00     0.159 HD
ATOM     32  H31 UNL     1       0.454  -2.891   3.649  1.00  0.00     0.159 HD
HETATM   33  C7  UNL     1       0.370  -3.020  -0.456  1.00  0.00     0.370 C 
ATOM     34  H4  UNL     1      -0.630  -4.507   0.969  1.00  0.00     0.166 HD
BRANCH  33  35
HETATM   35  N5  UNL     1       1.521  -3.797  -0.881  1.00  0.00    -0.109 N 
HETATM   36  O4  UNL     1       1.777  -3.852  -2.085  1.00  0.00    -0.533 OA
HETATM   37  O5  UNL     1       2.320  -4.464   0.002  1.00  0.00    -0.533 OA
ENDBRANCH  33  35
ENDBRANCH   5  27
BRANCH   7  38
HETATM   38  N9  UNL     1      -0.299   2.821  -0.891  1.00  0.00    -0.298 N 
HETATM   39  C14 UNL     1      -0.623   3.690   0.213  1.00  0.00     0.364 C 
HETATM   40  O8  UNL     1      -0.175   3.507   1.373  1.00  0.00    -0.238 OA
ATOM     41  H9  UNL     1      -0.670   2.982  -1.827  1.00  0.00     0.171 HD
BRANCH  39  42
HETATM   42  O9  UNL     1      -1.464   4.791   0.034  1.00  0.00    -0.309 OA
HETATM   43  C15 UNL     1      -1.801   5.666   1.106  1.00  0.00     0.215 C 
ENDBRANCH  39  42
ENDBRANCH   7  38
BRANCH   4  44
HETATM   44  O3  UNL     1       3.174  -1.290   0.325  1.00  0.00    -0.344 OA
ATOM     45  H3  UNL     1       2.841  -2.153   0.543  1.00  0.00     0.219 HD
ENDBRANCH   4  44
BRANCH   8  46
HETATM   46  N10 UNL     1       2.375   3.109  -0.899  1.00  0.00    -0.383 N 
ATOM     47 2H10 UNL     1       3.384   3.257  -0.895  1.00  0.00     0.157 HD
ATOM     48 1H10 UNL     1       1.695   3.835  -1.124  1.00  0.00     0.157 HD
ENDBRANCH   8  46
BRANCH   1  49
HETATM   49  C2  UNL     1       5.247   0.252  -0.004  1.00  0.00     0.270 C 
BRANCH  49  50
HETATM   50  O1  UNL     1       6.515   0.851  -0.112  1.00  0.00    -0.387 OA
HETATM   51  C1  UNL     1       7.451  -0.124   0.191  1.00  0.00     0.202 C 
ENDBRANCH  49  50
ENDBRANCH   1  49
TORSDOF 17
