REMARK  13 active torsions:
REMARK  status: ('A' for Active; 'I' for Inactive)
REMARK    1  A    between atoms: C2_2  and  O1_3 
REMARK    2  A    between atoms: C2_2  and  N1_5 
REMARK    3  A    between atoms: N1_5  and  C3_7 
REMARK    4  A    between atoms: C6_14  and  N4_15 
REMARK    5  A    between atoms: N4_15  and  C7_16 
REMARK    6  A    between atoms: N4_15  and  C9_23 
REMARK    7  A    between atoms: C7_16  and  S1_17 
REMARK    8  A    between atoms: S1_17  and  C8_18 
REMARK    9  A    between atoms: C9_23  and  C10_29 
REMARK   10  A    between atoms: N7_24  and  N8_26 
REMARK   11  A    between atoms: N10_32  and  O4_33 
REMARK   12  A    between atoms: C12_36  and  N11_37 
REMARK   13  A    between atoms: N11_37  and  S2_39 
ROOT
HETATM    1  C3  UNL     1       3.263  -0.493   0.045  1.00  0.00     0.067 A 
HETATM    2  C4  UNL     1       2.869  -1.764  -0.290  1.00  0.00     0.108 A 
HETATM    3  C5  UNL     1       1.523  -2.080  -0.434  1.00  0.00     0.270 A 
HETATM    4  O2  UNL     1       1.212  -3.242  -0.739  1.00  0.00    -0.266 OA
HETATM    5  N2  UNL     1       0.594  -1.116  -0.238  1.00  0.00    -0.184 N 
HETATM    6  N3  UNL     1      -0.702  -1.224  -0.318  1.00  0.00    -0.118 N 
ATOM      7  H3  UNL     1      -1.227  -2.067  -0.552  1.00  0.00     0.206 HD
HETATM    8  C6  UNL     1      -1.216  -0.017  -0.035  1.00  0.00     0.734 A 
HETATM    9  N10 UNL     1      -0.196   0.813   0.216  1.00  0.00    -0.029 N 
HETATM   10  C11 UNL     1       0.972   0.140   0.093  1.00  0.00     0.206 A 
HETATM   11  C12 UNL     1       2.281   0.496   0.244  1.00  0.00     0.120 A 
ENDROOT
BRANCH   8  12
HETATM   12  N4  UNL     1      -2.634   0.270  -0.018  1.00  0.00    -0.126 N 
BRANCH  12  13
HETATM   13  C7  UNL     1      -3.280   0.338  -1.294  1.00  0.00     0.170 C 
BRANCH  13  14
HETATM   14  S1  UNL     1      -5.050   0.467  -1.307  1.00  0.00    -0.051 SA
BRANCH  14  15
HETATM   15  C8  UNL     1      -5.890  -1.005  -0.754  1.00  0.00     0.153 C 
HETATM   16  N5  UNL     1      -5.299  -2.069  -0.351  1.00  0.00    -0.382 N 
ATOM     17  H52 UNL     1      -4.280  -2.103  -0.332  1.00  0.00     0.157 HD
ATOM     18  H51 UNL     1      -5.780  -2.911  -0.035  1.00  0.00     0.157 HD
HETATM   19  N6  UNL     1      -7.316  -0.957  -0.780  1.00  0.00    -0.075 NA
ENDBRANCH  14  15
ENDBRANCH  13  14
ENDBRANCH  12  13
BRANCH  12  20
HETATM   20  C9  UNL     1      -3.215   0.493   1.245  1.00  0.00     0.208 C 
HETATM   21  N7  UNL     1      -3.841   1.551   1.584  1.00  0.00    -0.287 N 
ATOM     22  H7  UNL     1      -4.198   1.545   2.539  1.00  0.00     0.188 HD
BRANCH  21  23
HETATM   23  N8  UNL     1      -4.111   2.683   0.886  1.00  0.00    -0.343 N 
ATOM     24  H82 UNL     1      -3.745   2.668  -0.066  1.00  0.00     0.176 HD
ATOM     25  H81 UNL     1      -4.612   3.529   1.157  1.00  0.00     0.176 HD
ENDBRANCH  21  23
BRANCH  20  26
HETATM   26  C10 UNL     1      -3.106  -0.528   2.277  1.00  0.00     0.301 C 
HETATM   27  N9  UNL     1      -2.465  -1.774   2.139  1.00  0.00    -0.054 NA
HETATM   28  O3  UNL     1      -3.620  -0.341   3.444  1.00  0.00    -0.268 OA
ENDBRANCH  20  26
ENDBRANCH  12  20
ENDBRANCH   8  12
BRANCH   9  29
HETATM   29  O4  UNL     1      -0.317   2.139   0.563  1.00  0.00    -0.268 OA
ATOM     30  H4  UNL     1       0.407   2.728   0.741  1.00  0.00     0.246 HD
ENDBRANCH   9  29
BRANCH  11  31
HETATM   31  N11 UNL     1       2.716   1.801   0.560  1.00  0.00    -0.260 N 
ATOM     32  H11 UNL     1       2.777   2.042   1.549  1.00  0.00     0.181 HD
BRANCH  31  33
HETATM   33  S2  UNL     1       3.150   3.015  -0.564  1.00  0.00     0.209 S 
HETATM   34  O5  UNL     1       4.278   3.871  -0.004  1.00  0.00    -0.578 OA
HETATM   35  O6  UNL     1       3.739   2.367  -1.796  1.00  0.00    -0.578 OA
HETATM   36  O7  UNL     1       1.910   4.050  -0.955  1.00  0.00    -0.578 OA
ENDBRANCH  31  33
ENDBRANCH  11  31
BRANCH   1  37
HETATM   37  N1  UNL     1       4.631  -0.184   0.190  1.00  0.00    -0.362 N 
ATOM     38  H1  UNL     1       4.859   0.770   0.471  1.00  0.00     0.162 HD
BRANCH  37  39
HETATM   39  C2  UNL     1       5.736  -1.078  -0.019  1.00  0.00     0.213 C 
HETATM   40  C1  UNL     1       5.761  -1.514  -1.481  1.00  0.00     0.063 C 
BRANCH  39  41
HETATM   41  O1  UNL     1       5.662  -2.202   0.823  1.00  0.00    -0.377 OA
ATOM     42  H1  UNL     1       5.646  -1.931   1.733  1.00  0.00     0.212 HD
ENDBRANCH  39  41
ENDBRANCH  37  39
ENDBRANCH   1  37
TORSDOF 13
