REMARK  4 active torsions:
REMARK  status: ('A' for Active; 'I' for Inactive)
REMARK    1  A    between atoms: N1_2  and  C2_4 
REMARK    2  A    between atoms: C2_4  and  N2_5 
REMARK    3  A    between atoms: N2_5  and  N3_7 
REMARK    4  A    between atoms: N3_7  and  C4_9 
ROOT
HETATM    1  N3  UNL     1       0.630  -1.234  -0.290  1.00  0.00    -0.133 N 
ATOM      2  H3  UNL     1       0.901  -2.215  -0.224  1.00  0.00     0.205 HD
ENDROOT
BRANCH   1   3
HETATM    3  N2  UNL     1      -0.675  -0.870  -0.639  1.00  0.00    -0.300 N 
HETATM    4  C3  UNL     1      -0.911  -0.431  -1.985  1.00  0.00     0.173 C 
BRANCH   3   5
HETATM    5  C2  UNL     1      -1.675  -0.965   0.382  1.00  0.00     0.262 C 
BRANCH   5   6
HETATM    6  N1  UNL     1      -2.303   0.286   0.673  1.00  0.00    -0.391 N 
HETATM    7  C1  UNL     1      -3.082   0.325   1.692  1.00  0.00     0.113 C 
ATOM      8  H1  UNL     1      -2.139   1.111   0.096  1.00  0.00     0.159 HD
ENDBRANCH   5   6
ENDBRANCH   3   5
ENDBRANCH   1   3
BRANCH   1   9
HETATM    9  C4  UNL     1       1.479  -0.295  -0.055  1.00  0.00     0.696 A 
HETATM   10  N4  UNL     1       2.776  -0.515   0.292  1.00  0.00    -0.199 N 
HETATM   11  C5  UNL     1       3.314   0.700   0.445  1.00  0.00     0.123 A 
ATOM     12  H4  UNL     1       3.240  -1.416   0.410  1.00  0.00     0.183 HD
HETATM   13  C6  UNL     1       2.378   1.685   0.200  1.00  0.00     0.123 A 
HETATM   14  N5  UNL     1       1.251   1.029  -0.107  1.00  0.00    -0.199 N 
ATOM     15  H5  UNL     1       0.360   1.465  -0.343  1.00  0.00     0.183 HD
ENDBRANCH   1   9
TORSDOF 4
