REMARK  5 active torsions:
REMARK  status: ('A' for Active; 'I' for Inactive)
REMARK    1  A    between atoms: C2_2  and  N1_3 
REMARK    2  A    between atoms: N1_3  and  C3_5 
REMARK    3  A    between atoms: C3_5  and  O1_6 
REMARK    4  A    between atoms: C3_5  and  C5_8 
REMARK    5  A    between atoms: C7_10  and  N2_11 
ROOT
HETATM    1  C5  UNL     1      -0.839  -0.493  -0.384  1.00  0.00     0.066 A 
HETATM    2  C6  UNL     1      -2.230  -0.256  -0.937  1.00  0.00     0.044 A 
HETATM    3  C7  UNL     1      -1.978  -1.080   0.321  1.00  0.00     0.192 A 
ENDROOT
BRANCH   1   4
HETATM    4  C3  UNL     1      -0.054   0.686   0.106  1.00  0.00     0.221 C 
BRANCH   4   5
HETATM    5  N1  UNL     1       1.244   0.340   0.610  1.00  0.00    -0.397 N 
ATOM      6  H1  UNL     1       1.512   0.491   1.582  1.00  0.00     0.155 HD
BRANCH   5   7
HETATM    7  C2  UNL     1       2.133  -0.232  -0.351  1.00  0.00     0.112 C 
HETATM    8  C1  UNL     1       3.490  -0.562   0.233  1.00  0.00     0.026 C 
ENDBRANCH   5   7
ENDBRANCH   4   5
BRANCH   4   9
HETATM    9  O1  UNL     1      -0.794   1.444   1.000  1.00  0.00    -0.371 OA
HETATM   10  C4  UNL     1      -1.012   2.743   0.508  1.00  0.00     0.204 C 
ENDBRANCH   4   9
ENDBRANCH   1   4
BRANCH   3  11
HETATM   11  N2  UNL     1      -2.236  -2.515   0.148  1.00  0.00    -0.074 N 
ATOM     12  H23 UNL     1      -2.318  -2.721  -0.848  1.00  0.00     0.274 HD
ATOM     13  H22 UNL     1      -1.392  -3.036   0.386  1.00  0.00     0.274 HD
ATOM     14  H21 UNL     1      -3.030  -2.924   0.640  1.00  0.00     0.274 HD
ENDBRANCH   3  11
TORSDOF 5
