REMARK  3 active torsions:
REMARK  status: ('A' for Active; 'I' for Inactive)
REMARK    1  A    between atoms: N1_1  and  N2_4 
REMARK    2  A    between atoms: C1_6  and  C2_8 
REMARK    3  A    between atoms: C5_11  and  N4_12 
ROOT
HETATM    1  C2  UNL     1       0.105   0.210  -0.255  1.00  0.00     0.054 C 
HETATM    2  C3  UNL     1      -0.438  -1.131  -0.690  1.00  0.00     0.014 C 
HETATM    3  C4  UNL     1      -1.936  -0.887  -0.513  1.00  0.00     0.033 C 
HETATM    4  C5  UNL     1      -1.975  -0.254   0.840  1.00  0.00     0.184 C 
HETATM    5  C6  UNL     1      -0.654   0.489   1.001  1.00  0.00     0.044 C 
ENDROOT
BRANCH   1   6
HETATM    6  C1  UNL     1       1.561   0.223  -0.102  1.00  0.00     0.111 C 
HETATM    7  N2  UNL     1       2.318  -0.792  -0.311  1.00  0.00    -0.297 N 
ATOM      8  H2  UNL     1       1.903  -1.677  -0.603  1.00  0.00     0.187 HD
HETATM    9  N3  UNL     1       2.178   1.438   0.305  1.00  0.00    -0.086 NA
BRANCH   7  10
HETATM   10  N1  UNL     1       3.700  -0.704  -0.145  1.00  0.00    -0.344 N 
ATOM     11  H12 UNL     1       4.099   0.188   0.147  1.00  0.00     0.176 HD
ATOM     12  H11 UNL     1       4.302  -1.511  -0.311  1.00  0.00     0.176 HD
ENDBRANCH   7  10
ENDBRANCH   1   6
BRANCH   4  13
HETATM   13  N4  UNL     1      -3.103   0.612   1.053  1.00  0.00    -0.075 N 
ATOM     14  H43 UNL     1      -3.149   1.324   0.324  1.00  0.00     0.274 HD
ATOM     15  H42 UNL     1      -3.974   0.116   0.866  1.00  0.00     0.274 HD
ATOM     16  H41 UNL     1      -3.130   1.044   1.977  1.00  0.00     0.274 HD
ENDBRANCH   4  13
TORSDOF 3
