REMARK  1 active torsions:
REMARK  status: ('A' for Active; 'I' for Inactive)
REMARK       I    between atoms: C1_4  and  N3_6 
REMARK    1  A    between atoms: N3_6  and  C2_8 
ROOT
HETATM    1  N1  UNL     1      -3.192   0.831  -0.581  1.00  0.00    -0.374 N 
ATOM      2  H11 UNL     1      -2.993   1.799  -0.835  1.00  0.00     0.158 HD
ATOM      3  H12 UNL     1      -4.067   0.383  -0.851  1.00  0.00     0.158 HD
HETATM    4  C1  UNL     1      -2.294   0.198   0.096  1.00  0.00     0.182 C 
HETATM    5  N2  UNL     1      -2.571  -1.152   0.451  1.00  0.00    -0.064 NA
HETATM    6  N3  UNL     1      -1.074   0.823   0.472  1.00  0.00    -0.356 N 
ATOM      7  H3  UNL     1      -1.032   1.833   0.608  1.00  0.00     0.162 HD
ENDROOT
BRANCH   6   8
HETATM    8  C2  UNL     1       0.108   0.009   0.659  1.00  0.00     0.132 C 
HETATM    9  C3  UNL     1       1.304   0.847   1.056  1.00  0.00     0.197 C 
HETATM   10  O1  UNL     1       2.151   0.934  -0.039  1.00  0.00    -0.365 OA
HETATM   11  C4  UNL     1       2.753  -0.284  -0.339  1.00  0.00     0.337 C 
HETATM   12  O2  UNL     1       1.769  -1.268  -0.372  1.00  0.00    -0.365 OA
HETATM   13  C5  UNL     1       0.503  -0.703  -0.640  1.00  0.00     0.197 C 
ENDBRANCH   6   8
TORSDOF 1
