REMARK  1 active torsions:
REMARK  status: ('A' for Active; 'I' for Inactive)
REMARK       I    between atoms: C1_4  and  N3_6 
REMARK    1  A    between atoms: C3_9  and  N4_10 
ROOT
HETATM    1  N1  UNL     1       1.151  -1.044   1.508  1.00  0.00    -0.374 N 
ATOM      2  H11 UNL     1       0.309  -1.592   1.686  1.00  0.00     0.158 HD
ATOM      3  H12 UNL     1       1.951  -1.217   2.116  1.00  0.00     0.158 HD
HETATM    4  C1  UNL     1       1.158  -0.185   0.549  1.00  0.00     0.186 C 
HETATM    5  N2  UNL     1       2.331   0.578   0.301  1.00  0.00    -0.064 NA
HETATM    6  N3  UNL     1       0.044   0.056  -0.298  1.00  0.00    -0.310 N 
HETATM    7  C2  UNL     1      -0.356  -0.259  -1.668  1.00  0.00     0.206 C 
HETATM    8  S1  UNL     1      -1.569   1.071  -1.680  1.00  0.00    -0.096 SA
HETATM    9  C3  UNL     1      -1.179   0.798   0.042  1.00  0.00     0.352 C 
ENDROOT
BRANCH   9  10
HETATM   10  N4  UNL     1      -2.080  -0.119   0.734  1.00  0.00    -0.049 N 
ATOM     11  H43 UNL     1      -2.268  -0.968   0.200  1.00  0.00     0.277 HD
ATOM     12  H42 UNL     1      -1.648  -0.562   1.545  1.00  0.00     0.277 HD
ATOM     13  H41 UNL     1      -2.928   0.396   0.970  1.00  0.00     0.277 HD
ENDBRANCH   9  10
TORSDOF 1
