REMARK  1 active torsions:
REMARK  status: ('A' for Active; 'I' for Inactive)
REMARK    1  A    between atoms: S1_2  and  C2_3 
ROOT
HETATM    1  C2  UNL     1      -0.169  -0.622   0.199  1.00  0.00     0.155 A 
HETATM    2  N1  UNL     1      -0.950  -0.932  -0.838  1.00  0.00    -0.275 N 
ATOM      3  H1  UNL     1      -0.674  -1.538  -1.611  1.00  0.00     0.189 HD
HETATM    4  N2  UNL     1      -2.127  -0.348  -0.726  1.00  0.00    -0.239 N 
ATOM      5  H2  UNL     1      -2.906  -0.417  -1.380  1.00  0.00     0.208 HD
HETATM    6  N3  UNL     1      -2.100   0.342   0.396  1.00  0.00    -0.249 N 
ATOM      7  H3  UNL     1      -2.876   0.901   0.751  1.00  0.00     0.192 HD
HETATM    8  C3  UNL     1      -0.918   0.210   1.006  1.00  0.00     0.295 A 
HETATM    9  O1  UNL     1      -0.538   0.734   2.107  1.00  0.00    -0.264 OA
ENDROOT
BRANCH   1  10
HETATM   10  S1  UNL     1       1.508  -1.130   0.555  1.00  0.00    -0.110 SA
HETATM   11  C1  UNL     1       2.608   0.099  -0.216  1.00  0.00     0.097 C 
ENDBRANCH   1  10
TORSDOF 1
