REMARK  15 active torsions:
REMARK  status: ('A' for Active; 'I' for Inactive)
REMARK    1  A    between atoms: O1_2  and  C2_3 
REMARK    2  A    between atoms: C5_6  and  N1_7 
REMARK    3  A    between atoms: C6_12  and  N3_13 
REMARK    4  A    between atoms: N4_19  and  C11_20 
REMARK    5  A    between atoms: C11_20  and  C12_21 
REMARK    6  A    between atoms: C12_21  and  O3_23 
REMARK    7  A    between atoms: C14_25  and  N5_26 
REMARK    8  A    between atoms: N5_26  and  C15_28 
REMARK    9  A    between atoms: C15_28  and  C16_29 
REMARK   10  A    between atoms: C15_28  and  C17_32 
REMARK   11  A    between atoms: C16_29  and  O4_30 
REMARK   12  A    between atoms: C17_32  and  O5_33 
REMARK   13  A    between atoms: C17_32  and  C18_35 
REMARK   14  A    between atoms: C21_44  and  O6_45 
REMARK   15  A    between atoms: C23_47  and  O7_48 
ROOT
HETATM    1  C2  UNL     1      -0.055   4.068   1.692  1.00  0.00     0.105 A 
HETATM    2  C3  UNL     1      -1.201   3.317   1.599  1.00  0.00     0.056 A 
HETATM    3  C4  UNL     1      -1.187   1.988   1.182  1.00  0.00     0.028 A 
HETATM    4  C5  UNL     1      -2.464   1.451   1.197  1.00  0.00     0.126 C 
HETATM    5  N2  UNL     1      -2.820   0.211   0.795  1.00  0.00    -0.176 N 
ATOM      6  H2  UNL     1      -3.662  -0.195   1.203  1.00  0.00     0.186 HD
HETATM    7  C6  UNL     1      -2.126  -0.548  -0.130  1.00  0.00     0.685 C 
HETATM    8  N4  UNL     1      -0.842  -0.435  -0.519  1.00  0.00    -0.165 N 
HETATM    9  C14 UNL     1       0.193   0.115   0.242  1.00  0.00     0.138 C 
HETATM   10  C20 UNL     1       0.041   1.408   0.846  1.00  0.00     0.059 A 
HETATM   11  C21 UNL     1       1.171   2.128   0.940  1.00  0.00     0.119 A 
HETATM   12  C23 UNL     1       1.135   3.476   1.362  1.00  0.00     0.136 A 
ENDROOT
BRANCH   9  13
HETATM   13  N5  UNL     1       1.217  -0.459   0.456  1.00  0.00    -0.343 N 
ATOM     14  H5  UNL     1       1.725   0.221   1.021  1.00  0.00     0.167 HD
BRANCH  13  15
HETATM   15  C15 UNL     1       2.129  -1.514   0.388  1.00  0.00     0.048 C 
BRANCH  15  16
HETATM   16  C16 UNL     1       3.050  -1.662  -0.771  1.00  0.00     0.219 C 
BRANCH  16  17
HETATM   17  O4  UNL     1       3.957  -0.640  -0.988  1.00  0.00    -0.395 OA
ATOM     18  H4  UNL     1       4.545  -0.735  -1.728  1.00  0.00     0.209 HD
ENDBRANCH  16  17
ENDBRANCH  15  16
BRANCH  15  19
HETATM   19  C17 UNL     1       1.658  -2.876   0.860  1.00  0.00     0.234 C 
BRANCH  19  20
HETATM   20  O5  UNL     1       0.717  -3.485   0.089  1.00  0.00    -0.382 OA
ATOM     21  H5  UNL     1       0.422  -4.338   0.385  1.00  0.00     0.211 HD
ENDBRANCH  19  20
BRANCH  19  22
HETATM   22  C18 UNL     1       2.815  -3.767   1.056  1.00  0.00     0.132 A 
HETATM   23  N6  UNL     1       2.842  -5.111   0.898  1.00  0.00    -0.338 N 
HETATM   24  C19 UNL     1       4.054  -5.559   1.225  1.00  0.00     0.198 A 
ATOM     25  H6  UNL     1       2.062  -5.687   0.581  1.00  0.00     0.168 HD
HETATM   26  N7  UNL     1       4.800  -4.510   1.591  1.00  0.00    -0.295 N 
HETATM   27  N8  UNL     1       4.049  -3.433   1.488  1.00  0.00    -0.286 N 
ATOM     28  H7  UNL     1       5.773  -4.539   1.895  1.00  0.00     0.187 HD
ATOM     29  H8  UNL     1       4.356  -2.484   1.703  1.00  0.00     0.188 HD
ENDBRANCH  19  22
ENDBRANCH  15  19
ENDBRANCH  13  15
ENDBRANCH   9  13
BRANCH   8  30
HETATM   30  C11 UNL     1      -0.486  -0.828  -1.848  1.00  0.00     0.180 C 
BRANCH  30  31
HETATM   31  C12 UNL     1      -0.333   0.269  -2.844  1.00  0.00     0.133 C 
HETATM   32  C13 UNL     1      -1.479   1.146  -3.122  1.00  0.00     0.041 C 
BRANCH  31  33
HETATM   33  O3  UNL     1       0.762   1.100  -2.512  1.00  0.00    -0.394 OA
ATOM     34  H3  UNL     1       0.860   1.800  -3.147  1.00  0.00     0.210 HD
ENDBRANCH  31  33
ENDBRANCH  30  31
ENDBRANCH   8  30
BRANCH   7  35
HETATM   35  N3  UNL     1      -2.872  -1.580  -0.716  1.00  0.00    -0.213 N 
HETATM   36  C7  UNL     1      -3.975  -1.225  -1.626  1.00  0.00     0.167 C 
HETATM   37  C8  UNL     1      -5.240  -1.731  -0.981  1.00  0.00     0.188 C 
HETATM   38  O2  UNL     1      -5.096  -2.995  -0.436  1.00  0.00    -0.388 OA
HETATM   39  C9  UNL     1      -4.003  -3.676  -0.961  1.00  0.00     0.188 C 
HETATM   40  C10 UNL     1      -2.705  -3.001  -0.505  1.00  0.00     0.167 C 
ENDBRANCH   7  35
BRANCH  11  41
HETATM   41  O6  UNL     1       2.439   1.659   0.678  1.00  0.00    -0.352 OA
HETATM   42  C22 UNL     1       3.309   1.482   1.875  1.00  0.00     0.210 C 
ENDBRANCH  11  41
BRANCH   4  43
HETATM   43  N1  UNL     1      -3.370   2.253   1.650  1.00  0.00    -0.384 N 
ATOM     44  H12 UNL     1      -3.101   3.189   1.953  1.00  0.00     0.157 HD
ATOM     45  H11 UNL     1      -4.310   1.858   1.661  1.00  0.00     0.157 HD
ENDBRANCH   4  43
BRANCH  12  46
HETATM   46  O7  UNL     1       2.276   4.233   1.456  1.00  0.00    -0.351 OA
HETATM   47  C24 UNL     1       2.796   5.006   0.389  1.00  0.00     0.210 C 
ENDBRANCH  12  46
BRANCH   1  48
HETATM   48  O1  UNL     1      -0.102   5.411   2.114  1.00  0.00    -0.353 OA
HETATM   49  C1  UNL     1      -1.312   6.031   2.455  1.00  0.00     0.210 C 
ENDBRANCH   1  48
TORSDOF 15
