REMARK  14 active torsions:
REMARK  status: ('A' for Active; 'I' for Inactive)
REMARK    1  A    between atoms: O1_2  and  C2_3 
REMARK    2  A    between atoms: C2_3  and  C3_5 
REMARK    3  A    between atoms: C4_6  and  N1_7 
REMARK    4  A    between atoms: N1_7  and  C6_9 
REMARK    5  A    between atoms: C6_9  and  C7_10 
REMARK    6  A    between atoms: C7_10  and  S1_11 
REMARK    7  A    between atoms: S1_11  and  C8_12 
REMARK    8  A    between atoms: C8_12  and  C9_13 
REMARK    9  A    between atoms: C9_13  and  N2_14 
REMARK   10  A    between atoms: C9_13  and  N3_18 
REMARK   11  A    between atoms: C10_23  and  C11_24 
REMARK   12  A    between atoms: C17_36  and  O5_37 
REMARK   13  A    between atoms: C20_40  and  O6_41 
REMARK   14  A    between atoms: O6_41  and  C21_42 
ROOT
HETATM    1  C3  UNL     1       0.137   1.893   0.235  1.00  0.00     0.097 C 
HETATM    2  C4  UNL     1       0.403   0.757  -0.414  1.00  0.00     0.122 C 
HETATM    3  N4  UNL     1      -0.821   0.087  -0.682  1.00  0.00    -0.311 N 
HETATM    4  C10 UNL     1      -1.403  -0.958  -1.496  1.00  0.00     0.139 C 
HETATM    5  C16 UNL     1      -2.346  -0.150  -2.424  1.00  0.00     0.109 C 
HETATM    6  S2  UNL     1      -3.245   0.742  -1.086  1.00  0.00    -0.101 SA
HETATM    7  C17 UNL     1      -1.857   0.709   0.121  1.00  0.00     0.222 C 
HETATM    8  C19 UNL     1      -1.338   2.076   0.253  1.00  0.00     0.051 C 
HETATM    9  C20 UNL     1      -1.952   3.229   0.375  1.00  0.00     0.161 C 
ENDROOT
BRANCH   2  10
HETATM   10  N1  UNL     1       1.751   0.395  -0.697  1.00  0.00    -0.370 N 
HETATM   11  C5  UNL     1       2.404   0.932  -1.911  1.00  0.00     0.151 C 
BRANCH  10  12
HETATM   12  C6  UNL     1       2.493  -0.432   0.201  1.00  0.00     0.134 C 
BRANCH  12  13
HETATM   13  C7  UNL     1       2.945  -1.741  -0.413  1.00  0.00     0.093 C 
BRANCH  13  14
HETATM   14  S1  UNL     1       3.836  -2.668   0.856  1.00  0.00    -0.164 SA
BRANCH  14  15
HETATM   15  C8  UNL     1       5.371  -1.903   1.369  1.00  0.00     0.136 C 
BRANCH  15  16
HETATM   16  C9  UNL     1       6.437  -1.865   0.314  1.00  0.00     0.387 C 
BRANCH  16  17
HETATM   17  N2  UNL     1       6.792  -3.209  -0.132  1.00  0.00    -0.050 N 
ATOM     18  H23 UNL     1       7.062  -3.804   0.651  1.00  0.00     0.276 HD
ATOM     19  H22 UNL     1       5.972  -3.727  -0.447  1.00  0.00     0.276 HD
ATOM     20  H21 UNL     1       7.517  -3.183  -0.849  1.00  0.00     0.276 HD
ENDBRANCH  16  17
BRANCH  16  21
HETATM   21  N3  UNL     1       6.136  -0.988  -0.779  1.00  0.00    -0.050 N 
ATOM     22  H33 UNL     1       5.232  -1.222  -1.189  1.00  0.00     0.276 HD
ATOM     23  H32 UNL     1       5.932  -0.048  -0.440  1.00  0.00     0.276 HD
ATOM     24  H31 UNL     1       6.861  -0.962  -1.496  1.00  0.00     0.276 HD
ENDBRANCH  16  21
ENDBRANCH  15  16
ENDBRANCH  14  15
ENDBRANCH  13  14
ENDBRANCH  12  13
ENDBRANCH  10  12
ENDBRANCH   2  10
BRANCH   1  25
HETATM   25  C2  UNL     1       1.090   2.862   0.737  1.00  0.00     0.297 C 
HETATM   26  O2  UNL     1       2.315   2.661   0.555  1.00  0.00    -0.259 OA
BRANCH  25  27
HETATM   27  O1  UNL     1       0.776   4.022   1.420  1.00  0.00    -0.322 OA
HETATM   28  C1  UNL     1       1.792   4.921   1.881  1.00  0.00     0.213 C 
ENDBRANCH  25  27
ENDBRANCH   1  25
BRANCH   4  29
HETATM   29  C11 UNL     1      -2.137  -1.913  -0.696  1.00  0.00     0.049 A 
HETATM   30  C12 UNL     1      -3.491  -2.131  -0.912  1.00  0.00     0.110 A 
HETATM   31  N5  UNL     1      -4.199  -3.043  -0.184  1.00  0.00    -0.313 N 
HETATM   32  C13 UNL     1      -5.615  -3.258  -0.423  1.00  0.00     0.160 C 
HETATM   33  C14 UNL     1      -3.624  -3.763   0.764  1.00  0.00     0.328 A 
HETATM   34  O3  UNL     1      -4.301  -4.606   1.431  1.00  0.00    -0.246 OA
HETATM   35  N6  UNL     1      -2.317  -3.563   0.984  1.00  0.00    -0.275 N 
HETATM   36  C15 UNL     1      -1.567  -2.669   0.288  1.00  0.00     0.259 A 
ATOM     37  H6  UNL     1      -1.861  -4.111   1.713  1.00  0.00     0.173 HD
HETATM   38  O4  UNL     1      -0.357  -2.602   0.614  1.00  0.00    -0.267 OA
ENDBRANCH   4  29
BRANCH   7  39
HETATM   39  O5  UNL     1      -2.174   0.102   1.282  1.00  0.00    -0.352 OA
HETATM   40  C18 UNL     1      -3.132   0.672   2.069  1.00  0.00     0.206 C 
ENDBRANCH   7  39
BRANCH   9  41
HETATM   41  O6  UNL     1      -3.293   3.484   0.396  1.00  0.00    -0.275 OA
BRANCH  41  42
HETATM   42  C21 UNL     1      -4.035   3.971  -0.659  1.00  0.00     0.377 C 
HETATM   43  N7  UNL     1      -5.442   4.194  -0.569  1.00  0.00    -0.032 NA
HETATM   44  O7  UNL     1      -3.451   4.226  -1.739  1.00  0.00    -0.242 OA
ENDBRANCH  41  42
ENDBRANCH   9  41
TORSDOF 14
