REMARK  11 active torsions:
REMARK  status: ('A' for Active; 'I' for Inactive)
REMARK    1  A    between atoms: O1_2  and  C2_3 
REMARK    2  A    between atoms: C5_8  and  C6_9 
REMARK       I    between atoms: C6_9  and  N2_11 
REMARK    3  A    between atoms: N2_11  and  C7_13 
REMARK    4  A    between atoms: C7_13  and  C8_14 
REMARK    5  A    between atoms: N3_16  and  C10_17 
REMARK    6  A    between atoms: C10_17  and  C11_18 
REMARK    7  A    between atoms: C13_20  and  C14_21 
REMARK    8  A    between atoms: C14_21  and  N4_22 
REMARK    9  A    between atoms: C15_27  and  N8_28 
REMARK   10  A    between atoms: C16_33  and  N10_34 
REMARK   11  A    between atoms: C20_47  and  O6_48 
ROOT
HETATM    1  C8  UNL     1      -1.386   2.301  -0.093  1.00  0.00     0.062 A 
HETATM    2  C9  UNL     1      -1.599   0.918  -0.146  1.00  0.00     0.140 A 
HETATM    3  N3  UNL     1      -2.430   0.515   0.786  1.00  0.00    -0.283 N 
HETATM    4  N11 UNL     1      -2.761   1.642   1.452  1.00  0.00    -0.240 N 
ATOM      5  H11 UNL     1      -3.399   1.678   2.247  1.00  0.00     0.208 HD
HETATM    6  N12 UNL     1      -2.150   2.689   0.938  1.00  0.00    -0.287 N 
ATOM      7  H12 UNL     1      -2.244   3.648   1.273  1.00  0.00     0.188 HD
ENDROOT
BRANCH   1   8
HETATM    8  C7  UNL     1      -0.501   3.075  -1.002  1.00  0.00     0.183 C 
BRANCH   8   9
HETATM    9  N2  UNL     1       0.663   2.264  -1.285  1.00  0.00    -0.349 N 
HETATM   10  C6  UNL     1       1.676   2.122  -0.310  1.00  0.00     0.286 C 
HETATM   11  O2  UNL     1       1.562   2.709   0.814  1.00  0.00    -0.264 OA
ATOM     12  H2  UNL     1       0.752   1.796  -2.187  1.00  0.00     0.163 HD
BRANCH  10  13
HETATM   13  C5  UNL     1       2.862   1.317  -0.548  1.00  0.00     0.177 A 
HETATM   14  N1  UNL     1       3.848   1.167   0.355  1.00  0.00    -0.337 N 
HETATM   15  C4  UNL     1       4.934   0.411   0.108  1.00  0.00     0.052 A 
ATOM     16  H1  UNL     1       3.770   1.641   1.255  1.00  0.00     0.167 HD
HETATM   17  C3  UNL     1       5.947   0.257   1.038  1.00  0.00     0.070 A 
HETATM   18  C18 UNL     1       5.040  -0.224  -1.094  1.00  0.00     0.061 A 
HETATM   19  C2  UNL     1       7.048  -0.530   0.748  1.00  0.00     0.103 A 
HETATM   20  C20 UNL     1       7.140  -1.162  -0.465  1.00  0.00     0.102 A 
HETATM   21  C19 UNL     1       6.145  -1.026  -1.409  1.00  0.00     0.059 A 
HETATM   22  C17 UNL     1       4.036  -0.083  -2.037  1.00  0.00     0.259 A 
HETATM   23  N13 UNL     1       2.982   0.686  -1.724  1.00  0.00    -0.304 N 
HETATM   24  O5  UNL     1       4.151  -0.671  -3.130  1.00  0.00    -0.267 OA
ATOM     25  H13 UNL     1       2.238   0.795  -2.413  1.00  0.00     0.171 HD
BRANCH  19  26
HETATM   26  O1  UNL     1       8.033  -0.665   1.684  1.00  0.00    -0.353 OA
HETATM   27  C1  UNL     1       7.947  -0.010   2.954  1.00  0.00     0.210 C 
ENDBRANCH  19  26
BRANCH  20  28
HETATM   28  O6  UNL     1       8.251  -1.942  -0.726  1.00  0.00    -0.353 OA
HETATM   29  C21 UNL     1       8.368  -2.608  -1.976  1.00  0.00     0.210 C 
ENDBRANCH  20  28
ENDBRANCH  10  13
ENDBRANCH   8   9
ENDBRANCH   1   8
BRANCH   3  30
HETATM   30  C10 UNL     1      -2.951  -0.810   1.115  1.00  0.00     0.192 C 
BRANCH  30  31
HETATM   31  C11 UNL     1      -4.210  -1.122   0.413  1.00  0.00     0.013 A 
HETATM   32  C12 UNL     1      -5.390  -0.682   1.072  1.00  0.00     0.025 A 
HETATM   33  C13 UNL     1      -6.624  -0.798   0.501  1.00  0.00     0.007 A 
HETATM   34  C15 UNL     1      -6.709  -1.362  -0.751  1.00  0.00     0.108 A 
HETATM   35  N9  UNL     1      -5.623  -1.791  -1.404  1.00  0.00    -0.323 N 
HETATM   36  C16 UNL     1      -4.371  -1.671  -0.817  1.00  0.00     0.183 A 
ATOM     37  H9  UNL     1      -5.715  -2.205  -2.331  1.00  0.00     0.169 HD
BRANCH  33  38
HETATM   38  C14 UNL     1      -7.817  -0.324   1.211  1.00  0.00     0.210 C 
BRANCH  38  39
HETATM   39  N4  UNL     1      -8.292   0.946   0.703  1.00  0.00    -0.203 N 
HETATM   40  N5  UNL     1      -9.143   1.290  -0.242  1.00  0.00    -0.213 N 
HETATM   41  N6  UNL     1      -8.930   2.585   0.018  1.00  0.00     0.010 NA
ATOM     42  H5  UNL     1      -9.727   0.778  -0.903  1.00  0.00     0.206 HD
HETATM   43  N7  UNL     1      -8.073   2.221   0.969  1.00  0.00     0.012 NA
ENDBRANCH  38  39
ENDBRANCH  33  38
BRANCH  34  44
HETATM   44  N8  UNL     1      -7.892  -1.457  -1.269  1.00  0.00    -0.385 N 
ATOM     45  H82 UNL     1      -8.720  -1.130  -0.771  1.00  0.00     0.157 HD
ATOM     46  H81 UNL     1      -7.955  -1.875  -2.197  1.00  0.00     0.157 HD
ENDBRANCH  34  44
BRANCH  36  47
HETATM   47  N10 UNL     1      -3.283  -2.252  -1.517  1.00  0.00    -0.097 N 
HETATM   48  O3  UNL     1      -3.474  -2.706  -2.701  1.00  0.00    -0.531 OA
HETATM   49  O4  UNL     1      -2.020  -2.388  -1.078  1.00  0.00    -0.531 OA
ENDBRANCH  36  47
ENDBRANCH  30  31
ENDBRANCH   3  30
TORSDOF 11
