REMARK  17 active torsions:
REMARK  status: ('A' for Active; 'I' for Inactive)
REMARK    1  A    between atoms: C2_2  and  C3_3 
REMARK    2  A    between atoms: C3_3  and  C4_4 
REMARK    3  A    between atoms: C4_4  and  O1_5 
REMARK    4  A    between atoms: O1_5  and  C5_6 
REMARK    5  A    between atoms: C5_6  and  C6_8 
REMARK    6  A    between atoms: C6_8  and  C7_9 
REMARK    7  A    between atoms: C9_11  and  C10_12 
REMARK    8  A    between atoms: C10_12  and  O3_13 
REMARK    9  A    between atoms: O3_13  and  C11_14 
REMARK   10  A    between atoms: C12_16  and  O5_17 
REMARK   11  A    between atoms: C13_19  and  O6_21 
REMARK   12  A    between atoms: C15_23  and  O7_24 
REMARK   13  A    between atoms: C18_29  and  O10_30 
REMARK   14  A    between atoms: O10_30  and  C19_31 
REMARK   15  A    between atoms: C22_35  and  O12_36 
REMARK   16  A    between atoms: C23_38  and  O13_39 
REMARK   17  A    between atoms: C24_41  and  O14_42 
ROOT
HETATM    1  C7  UNL     1      -1.292   0.164   1.905  1.00  0.00     0.028 C 
HETATM    2  C8  UNL     1       0.112   0.721   1.598  1.00  0.00     0.042 C 
HETATM    3  C9  UNL     1       1.100  -0.315   2.021  1.00  0.00     0.145 C 
HETATM    4  O9  UNL     1       0.886  -1.411   1.146  1.00  0.00    -0.381 OA
HETATM    5  C17 UNL     1      -0.195  -2.068   1.726  1.00  0.00     0.200 C 
HETATM    6  C18 UNL     1      -1.442  -1.209   1.411  1.00  0.00     0.153 C 
ENDROOT
BRANCH   3   7
HETATM    7  C10 UNL     1       2.524   0.160   1.951  1.00  0.00     0.205 C 
BRANCH   7   8
HETATM    8  O3  UNL     1       2.852   0.589   0.666  1.00  0.00    -0.336 OA
BRANCH   8   9
HETATM    9  C11 UNL     1       4.170   1.000   0.704  1.00  0.00     0.417 C 
HETATM   10  O4  UNL     1       4.270   2.382   0.423  1.00  0.00    -0.305 OA
HETATM   11  C12 UNL     1       5.548   2.743   0.907  1.00  0.00     0.301 C 
HETATM   12  C13 UNL     1       6.618   2.024   0.153  1.00  0.00     0.153 C 
HETATM   13  C14 UNL     1       7.933   2.147   0.898  1.00  0.00     0.056 C 
HETATM   14  C15 UNL     1       6.285   0.578  -0.110  1.00  0.00     0.303 C 
HETATM   15  O8  UNL     1       4.922   0.333  -0.227  1.00  0.00    -0.305 OA
BRANCH  11  16
HETATM   16  O5  UNL     1       5.746   4.113   0.876  1.00  0.00    -0.368 OA
ATOM     17  H5  UNL     1       6.605   4.356   1.201  1.00  0.00     0.212 HD
ENDBRANCH  11  16
BRANCH  12  18
HETATM   18  O6  UNL     1       6.800   2.664  -1.073  1.00  0.00    -0.380 OA
ATOM     19  H6  UNL     1       7.481   2.207  -1.553  1.00  0.00     0.211 HD
ENDBRANCH  12  18
BRANCH  14  20
HETATM   20  O7  UNL     1       6.845   0.244  -1.343  1.00  0.00    -0.363 OA
HETATM   21  C16 UNL     1       7.762  -0.805  -1.218  1.00  0.00     0.204 C 
ENDBRANCH  14  20
ENDBRANCH   8   9
ENDBRANCH   7   8
ENDBRANCH   3   7
BRANCH   1  22
HETATM   22  C6  UNL     1      -2.309   1.147   1.430  1.00  0.00     0.118 C 
BRANCH  22  23
HETATM   23  C5  UNL     1      -2.294   1.451   0.002  1.00  0.00     0.259 C 
HETATM   24  O2  UNL     1      -2.624   0.599  -0.844  1.00  0.00    -0.265 OA
BRANCH  23  25
HETATM   25  O1  UNL     1      -1.911   2.699  -0.440  1.00  0.00    -0.321 OA
BRANCH  25  26
HETATM   26  C4  UNL     1      -1.845   3.144  -1.752  1.00  0.00     0.178 C 
BRANCH  26  27
HETATM   27  C3  UNL     1      -3.156   3.123  -2.491  1.00  0.00     0.026 C 
BRANCH  27  28
HETATM   28  C2  UNL     1      -3.007   3.623  -3.914  1.00  0.00    -0.002 C 
HETATM   29  C1  UNL     1      -2.502   5.024  -3.989  1.00  0.00     0.005 C 
ENDBRANCH  27  28
ENDBRANCH  26  27
ENDBRANCH  25  26
ENDBRANCH  23  25
ENDBRANCH  22  23
ENDBRANCH   1  22
BRANCH   6  30
HETATM   30  O10 UNL     1      -2.561  -1.866   1.885  1.00  0.00    -0.351 OA
BRANCH  30  31
HETATM   31  C19 UNL     1      -3.312  -2.506   0.886  1.00  0.00     0.292 C 
HETATM   32  O11 UNL     1      -3.079  -3.877   1.157  1.00  0.00    -0.351 OA
HETATM   33  C20 UNL     1      -3.814  -4.744   0.411  1.00  0.00     0.152 C 
HETATM   34  C21 UNL     1      -4.547  -5.666   1.401  1.00  0.00     0.042 C 
HETATM   35  C22 UNL     1      -4.864  -4.118  -0.437  1.00  0.00     0.178 C 
HETATM   36  C23 UNL     1      -5.694  -3.185   0.396  1.00  0.00     0.183 C 
HETATM   37  C24 UNL     1      -4.756  -2.234   1.114  1.00  0.00     0.204 C 
BRANCH  35  38
HETATM   38  O12 UNL     1      -5.714  -5.125  -0.932  1.00  0.00    -0.390 OA
ATOM     39  H12 UNL     1      -6.384  -4.725  -1.473  1.00  0.00     0.210 HD
ENDBRANCH  35  38
BRANCH  36  40
HETATM   40  O13 UNL     1      -6.539  -3.824   1.279  1.00  0.00    -0.390 OA
ATOM     41  H13 UNL     1      -7.064  -3.234   1.806  1.00  0.00     0.210 HD
ENDBRANCH  36  40
BRANCH  37  42
HETATM   42  O14 UNL     1      -5.189  -0.965   0.797  1.00  0.00    -0.388 OA
ATOM     43  H14 UNL     1      -6.112  -0.791   0.943  1.00  0.00     0.210 HD
ENDBRANCH  37  42
ENDBRANCH  30  31
ENDBRANCH   6  30
TORSDOF 17
