REMARK  6 active torsions:
REMARK  status: ('A' for Active; 'I' for Inactive)
REMARK    1  A    between atoms: O1_2  and  C2_3 
REMARK    2  A    between atoms: C2_3  and  C3_4 
REMARK    3  A    between atoms: C2_3  and  C4_9 
REMARK    4  A    between atoms: C3_4  and  N1_5 
REMARK    5  A    between atoms: C4_9  and  N2_10 
REMARK    6  A    between atoms: C4_9  and  C5_14 
ROOT
HETATM    1  C2  UNL     1      -1.048  -0.047  -0.087  1.00  0.00     0.176 C 
ENDROOT
BRANCH   1   2
HETATM    2  O1  UNL     1      -1.023  -0.538  -1.385  1.00  0.00    -0.387 OA
HETATM    3  C1  UNL     1      -1.952  -1.548  -1.594  1.00  0.00     0.202 C 
ENDBRANCH   1   2
BRANCH   1   4
HETATM    4  C3  UNL     1      -1.506   1.377  -0.147  1.00  0.00     0.263 C 
BRANCH   4   5
HETATM    5  N1  UNL     1      -1.585   2.030   1.121  1.00  0.00    -0.077 N 
ATOM      6  H13 UNL     1      -2.174   1.495   1.759  1.00  0.00     0.274 HD
ATOM      7  H12 UNL     1      -0.692   1.965   1.609  1.00  0.00     0.274 HD
ATOM      8  H11 UNL     1      -1.897   3.000   1.080  1.00  0.00     0.274 HD
ENDBRANCH   4   5
ENDBRANCH   1   4
BRANCH   1   9
HETATM    9  C4  UNL     1       0.234  -0.266   0.654  1.00  0.00     0.217 C 
BRANCH   9  10
HETATM   10  N2  UNL     1       0.133   0.263   1.976  1.00  0.00    -0.072 N 
ATOM     11  H23 UNL     1      -0.144   1.245   1.974  1.00  0.00     0.274 HD
ATOM     12  H22 UNL     1      -0.669  -0.118   2.479  1.00  0.00     0.274 HD
ATOM     13  H21 UNL     1       1.007   0.114   2.481  1.00  0.00     0.274 HD
ENDBRANCH   9  10
BRANCH   9  14
HETATM   14  C5  UNL     1       1.455   0.203  -0.093  1.00  0.00     0.010 C 
HETATM   15  C6  UNL     1       2.654  -0.102   0.817  1.00  0.00     0.011 C 
HETATM   16  C7  UNL     1       1.686  -0.609  -1.351  1.00  0.00     0.011 C 
ENDBRANCH   9  14
ENDBRANCH   1   9
TORSDOF 6
