REMARK  6 active torsions:
REMARK  status: ('A' for Active; 'I' for Inactive)
REMARK       I    between atoms: C1_2  and  N1_3 
REMARK    1  A    between atoms: C1_2  and  C11_16 
REMARK    2  A    between atoms: N1_3  and  C2_5 
REMARK    3  A    between atoms: C2_5  and  C3_6 
REMARK    4  A    between atoms: C3_6  and  C4_7 
REMARK       I    between atoms: C4_7  and  N2_9 
REMARK    5  A    between atoms: N3_19  and  S1_20 
REMARK    6  A    between atoms: S1_20  and  N4_23 
ROOT
HETATM    1  O1  UNL     1       0.882  -0.609   0.036  1.00  0.00    -0.273 OA
HETATM    2  C1  UNL     1       0.261   0.413   0.346  1.00  0.00     0.226 C 
HETATM    3  N1  UNL     1       0.807   1.366   1.236  1.00  0.00    -0.337 N 
ATOM      4  H1  UNL     1       0.229   2.173   1.470  1.00  0.00     0.168 HD
ENDROOT
BRANCH   2   5
HETATM    5  C11 UNL     1      -1.101   0.607  -0.258  1.00  0.00     0.084 C 
HETATM    6  C12 UNL     1      -2.150   0.685   0.838  1.00  0.00     0.035 C 
HETATM    7  C13 UNL     1      -3.526   0.558   0.199  1.00  0.00     0.142 C 
HETATM    8  N3  UNL     1      -3.712  -0.676  -0.466  1.00  0.00    -0.278 N 
HETATM    9  C18 UNL     1      -2.498  -1.339  -0.726  1.00  0.00     0.078 C 
HETATM   10  C19 UNL     1      -1.387  -0.472  -1.259  1.00  0.00     0.059 C 
BRANCH   8  11
HETATM   11  S1  UNL     1      -4.897  -0.679  -1.634  1.00  0.00     0.304 S 
HETATM   12  O3  UNL     1      -4.913  -1.946  -2.482  1.00  0.00    -0.188 OA
HETATM   13  O4  UNL     1      -4.518   0.403  -2.652  1.00  0.00    -0.188 OA
BRANCH  11  14
HETATM   14  N4  UNL     1      -6.491  -0.358  -1.189  1.00  0.00    -0.193 NA
HETATM   15  C14 UNL     1      -6.761   0.921  -0.625  1.00  0.00     0.109 C 
HETATM   16  C15 UNL     1      -7.496   0.660   0.679  1.00  0.00     0.017 C 
HETATM   17  C16 UNL     1      -8.174  -0.667   0.380  1.00  0.00     0.017 C 
HETATM   18  C17 UNL     1      -7.152  -1.382  -0.466  1.00  0.00     0.109 C 
ENDBRANCH  11  14
ENDBRANCH   8  11
ENDBRANCH   2   5
BRANCH   3  19
HETATM   19  C2  UNL     1       2.080   1.293   1.824  1.00  0.00     0.096 C 
BRANCH  19  20
HETATM   20  C3  UNL     1       3.316   1.497   1.070  1.00  0.00     0.091 C 
BRANCH  20  21
HETATM   21  C4  UNL     1       3.683   0.758  -0.108  1.00  0.00     0.244 C 
HETATM   22  O2  UNL     1       3.124   1.064  -1.230  1.00  0.00    -0.268 OA
HETATM   23  N2  UNL     1       4.632  -0.294  -0.167  1.00  0.00    -0.349 N 
HETATM   24  C5  UNL     1       5.255  -0.655   1.069  1.00  0.00     0.126 C 
HETATM   25  C10 UNL     1       4.852  -0.864  -1.470  1.00  0.00     0.126 C 
HETATM   26  C6  UNL     1       6.552   0.091   1.304  1.00  0.00     0.020 C 
HETATM   27  C7  UNL     1       7.543  -0.505   0.293  1.00  0.00     0.002 C 
HETATM   28  C8  UNL     1       7.152   0.028  -1.067  1.00  0.00     0.002 C 
HETATM   29  C9  UNL     1       6.332  -1.038  -1.762  1.00  0.00     0.020 C 
ENDBRANCH  20  21
ENDBRANCH  19  20
ENDBRANCH   3  19
TORSDOF 6
