REMARK  7 active torsions:
REMARK  status: ('A' for Active; 'I' for Inactive)
REMARK    1  A    between atoms: C2_4  and  C3_5 
REMARK    2  A    between atoms: C2_4  and  N5_26 
REMARK    3  A    between atoms: C3_5  and  C4_6 
REMARK    4  A    between atoms: C4_6  and  N2_7 
REMARK       I    between atoms: N2_7  and  C5_9 
REMARK    5  A    between atoms: C5_9  and  C6_11 
REMARK    6  A    between atoms: N3_14  and  S1_15 
REMARK    7  A    between atoms: S1_15  and  N4_18 
ROOT
HETATM    1  N2  UNL     1      -1.406   1.137  -0.994  1.00  0.00    -0.340 N 
ATOM      2  H2  UNL     1      -0.650   1.403  -1.625  1.00  0.00     0.167 HD
HETATM    3  C5  UNL     1      -0.983   0.449   0.129  1.00  0.00     0.225 C 
HETATM    4  O1  UNL     1      -1.677   0.035   1.039  1.00  0.00    -0.273 OA
ENDROOT
BRANCH   3   5
HETATM    5  C6  UNL     1       0.504   0.174   0.256  1.00  0.00     0.081 C 
HETATM    6  C7  UNL     1       0.954  -0.619  -0.961  1.00  0.00     0.034 C 
HETATM    7  C8  UNL     1       2.467  -0.746  -0.867  1.00  0.00     0.137 C 
HETATM    8  N3  UNL     1       3.006   0.567  -0.911  1.00  0.00    -0.294 N 
HETATM    9  C14 UNL     1       2.658   1.448   0.142  1.00  0.00     0.137 C 
HETATM   10  C15 UNL     1       1.162   1.510   0.380  1.00  0.00     0.034 C 
BRANCH   8  11
HETATM   11  S1  UNL     1       4.671   0.659  -1.301  1.00  0.00     0.326 S 
HETATM   12  O2  UNL     1       4.873   0.223  -2.730  1.00  0.00    -0.182 OA
HETATM   13  O3  UNL     1       5.033   2.144  -1.295  1.00  0.00    -0.182 OA
BRANCH  11  14
HETATM   14  N4  UNL     1       5.702  -0.111  -0.220  1.00  0.00    -0.253 N 
HETATM   15  C9  UNL     1       5.752   0.319   1.106  1.00  0.00     0.082 C 
HETATM   16  C10 UNL     1       7.020  -0.000   1.848  1.00  0.00     0.046 C 
HETATM   17  C11 UNL     1       8.139  -0.444   0.953  1.00  0.00     0.010 C 
HETATM   18  C12 UNL     1       7.751  -1.458  -0.070  1.00  0.00     0.046 C 
HETATM   19  C13 UNL     1       6.365  -1.277  -0.624  1.00  0.00     0.082 C 
ENDBRANCH  11  14
ENDBRANCH   8  11
ENDBRANCH   3   5
BRANCH   1  20
HETATM   20  C4  UNL     1      -2.680   1.539  -1.431  1.00  0.00     0.071 C 
BRANCH  20  21
HETATM   21  C3  UNL     1      -3.650   0.525  -1.809  1.00  0.00     0.120 C 
BRANCH  21  22
HETATM   22  C2  UNL     1      -4.189  -0.351  -0.768  1.00  0.00     0.079 C 
HETATM   23  N1  UNL     1      -3.964  -1.577  -0.840  1.00  0.00    -0.384 N 
HETATM   24  C1  UNL     1      -4.253  -2.732  -0.126  1.00  0.00     0.147 C 
ATOM     25  H1  UNL     1      -3.404  -1.793  -1.665  1.00  0.00     0.160 HD
BRANCH  22  26
HETATM   26  N5  UNL     1      -4.996   0.218   0.244  1.00  0.00    -0.371 N 
HETATM   27  C16 UNL     1      -5.792   1.403  -0.092  1.00  0.00     0.124 C 
HETATM   28  C17 UNL     1      -7.225   0.931  -0.130  1.00  0.00     0.020 C 
HETATM   29  C18 UNL     1      -7.401  -0.391   0.548  1.00  0.00     0.003 C 
HETATM   30  C19 UNL     1      -6.614  -0.529   1.833  1.00  0.00     0.020 C 
HETATM   31  C20 UNL     1      -5.155  -0.232   1.604  1.00  0.00     0.124 C 
ENDBRANCH  22  26
ENDBRANCH  21  22
ENDBRANCH  20  21
ENDBRANCH   1  20
TORSDOF 7
