REMARK  6 active torsions:
REMARK  status: ('A' for Active; 'I' for Inactive)
REMARK       I    between atoms: C1_2  and  N1_3 
REMARK    1  A    between atoms: C1_2  and  C8_11 
REMARK    2  A    between atoms: N1_3  and  C2_5 
REMARK    3  A    between atoms: N2_15  and  S1_16 
REMARK    4  A    between atoms: S1_16  and  N3_19 
REMARK    5  A    between atoms: N4_23  and  C15_24 
REMARK    6  A    between atoms: C15_24  and  C16_25 
ROOT
HETATM    1  C8  UNL     1       2.127   0.337  -1.236  1.00  0.00     0.092 C 
HETATM    2  C9  UNL     1       1.909   1.798  -0.922  1.00  0.00     0.016 C 
HETATM    3  C10 UNL     1       0.430   2.068  -0.954  1.00  0.00     0.016 C 
HETATM    4  C11 UNL     1      -0.387   0.834  -1.152  1.00  0.00     0.108 C 
HETATM    5  N2  UNL     1      -0.010  -0.289  -0.364  1.00  0.00    -0.197 NA
HETATM    6  C21 UNL     1       1.386  -0.433  -0.134  1.00  0.00     0.122 C 
ENDROOT
BRANCH   5   7
HETATM    7  S1  UNL     1      -1.006  -0.469   1.006  1.00  0.00     0.283 S 
HETATM    8  O2  UNL     1      -0.598  -1.646   1.834  1.00  0.00    -0.194 OA
HETATM    9  O3  UNL     1      -0.997   0.740   1.891  1.00  0.00    -0.194 OA
BRANCH   7  10
HETATM   10  N3  UNL     1      -2.618  -0.728   0.469  1.00  0.00    -0.196 NA
HETATM   11  C12 UNL     1      -2.749  -1.930  -0.320  1.00  0.00     0.110 C 
HETATM   12  C13 UNL     1      -3.990  -1.791  -1.173  1.00  0.00     0.046 C 
HETATM   13  C14 UNL     1      -4.390  -0.367  -1.383  1.00  0.00     0.273 C 
HETATM   14  N4  UNL     1      -4.979   0.271  -0.251  1.00  0.00     0.090 N 
HETATM   15  C19 UNL     1      -4.938  -0.475   0.965  1.00  0.00     0.287 C 
HETATM   16  C20 UNL     1      -3.577  -0.668   1.547  1.00  0.00     0.138 C 
BRANCH  14  17
HETATM   17  C15 UNL     1      -6.343   0.612  -0.555  1.00  0.00     0.277 C 
BRANCH  17  18
HETATM   18  C16 UNL     1      -7.048   1.291   0.584  1.00  0.00     0.014 A 
HETATM   19  C17 UNL     1      -8.458   1.676   0.354  1.00  0.00     0.007 A 
HETATM   20  C18 UNL     1      -8.155   0.564   1.287  1.00  0.00     0.007 A 
ENDBRANCH  17  18
ENDBRANCH  14  17
ENDBRANCH   7  10
ENDBRANCH   5   7
BRANCH   1  21
HETATM   21  C1  UNL     1       3.540  -0.033  -1.299  1.00  0.00     0.223 C 
HETATM   22  O1  UNL     1       4.014  -0.503  -2.365  1.00  0.00    -0.273 OA
HETATM   23  N1  UNL     1       4.448   0.103  -0.216  1.00  0.00    -0.356 N 
ATOM     24  H1  UNL     1       4.092   0.483   0.661  1.00  0.00     0.162 HD
BRANCH  23  25
HETATM   25  C2  UNL     1       5.844  -0.263  -0.277  1.00  0.00     0.084 C 
HETATM   26  C3  UNL     1       6.660   0.980  -0.030  1.00  0.00     0.025 C 
HETATM   27  C4  UNL     1       8.146   0.714  -0.138  1.00  0.00     0.002 C 
HETATM   28  C5  UNL     1       8.479  -0.753   0.025  1.00  0.00     0.000 C 
HETATM   29  C6  UNL     1       7.616  -1.420   1.077  1.00  0.00     0.002 C 
HETATM   30  C7  UNL     1       6.150  -1.343   0.737  1.00  0.00     0.025 C 
ENDBRANCH  23  25
ENDBRANCH   1  21
TORSDOF 6
