REMARK  7 active torsions:
REMARK  status: ('A' for Active; 'I' for Inactive)
REMARK       I    between atoms: C1_2  and  N1_3 
REMARK    1  A    between atoms: C1_2  and  C8_11 
REMARK    2  A    between atoms: N1_3  and  C2_5 
REMARK    3  A    between atoms: C8_11  and  C13_25 
REMARK    4  A    between atoms: N2_12  and  N3_14 
REMARK    5  A    between atoms: N3_14  and  C9_16 
REMARK    6  A    between atoms: C12_19  and  S1_20 
REMARK    7  A    between atoms: C18_30  and  N4_31 
ROOT
HETATM    1  C8  UNL     1       0.651  -0.793   0.811  1.00  0.00     0.128 C 
HETATM    2  N2  UNL     1       1.849  -0.461   1.117  1.00  0.00    -0.293 N 
ATOM      3  H2  UNL     1       2.482  -1.223   1.359  1.00  0.00     0.187 HD
ENDROOT
BRANCH   1   4
HETATM    4  C1  UNL     1      -0.235   0.289   0.468  1.00  0.00     0.270 C 
HETATM    5  O1  UNL     1       0.143   1.515   0.628  1.00  0.00    -0.266 OA
HETATM    6  N1  UNL     1      -1.523   0.186  -0.066  1.00  0.00    -0.351 N 
ATOM      7  H1  UNL     1      -1.930  -0.728  -0.263  1.00  0.00     0.163 HD
BRANCH   6   8
HETATM    8  C2  UNL     1      -2.301   1.448  -0.346  1.00  0.00     0.084 C 
HETATM    9  C3  UNL     1      -2.826   1.298  -1.718  1.00  0.00     0.025 C 
HETATM   10  C4  UNL     1      -4.192   1.885  -1.940  1.00  0.00     0.002 C 
HETATM   11  C5  UNL     1      -5.174   1.572  -0.858  1.00  0.00     0.000 C 
HETATM   12  C6  UNL     1      -4.547   0.694   0.194  1.00  0.00     0.002 C 
HETATM   13  C7  UNL     1      -3.363   1.463   0.742  1.00  0.00     0.025 C 
ENDBRANCH   6   8
ENDBRANCH   1   4
BRANCH   1  14
HETATM   14  C13 UNL     1       0.289  -2.192   0.753  1.00  0.00     0.031 A 
HETATM   15  C14 UNL     1      -1.045  -2.472   1.143  1.00  0.00     0.016 A 
HETATM   16  C15 UNL     1      -1.489  -3.750   1.309  1.00  0.00     0.001 A 
HETATM   17  C16 UNL     1      -0.619  -4.788   1.099  1.00  0.00     0.002 A 
HETATM   18  C17 UNL     1       0.671  -4.564   0.727  1.00  0.00     0.037 A 
HETATM   19  C18 UNL     1       1.143  -3.226   0.547  1.00  0.00     0.115 A 
BRANCH  19  20
HETATM   20  N4  UNL     1       2.457  -3.141   0.069  1.00  0.00    -0.115 N 
HETATM   21  O6  UNL     1       3.341  -2.389   0.371  1.00  0.00    -0.532 OA
HETATM   22  O7  UNL     1       2.867  -4.146  -0.876  1.00  0.00    -0.532 OA
ENDBRANCH  19  20
ENDBRANCH   1  14
BRANCH   2  23
HETATM   23  N3  UNL     1       2.371   0.790   1.156  1.00  0.00    -0.279 N 
ATOM     24  H3  UNL     1       2.026   1.446   1.857  1.00  0.00     0.189 HD
BRANCH  23  25
HETATM   25  C9  UNL     1       3.394   1.223   0.243  1.00  0.00     0.163 A 
HETATM   26  C10 UNL     1       3.301   1.482  -1.077  1.00  0.00     0.061 A 
HETATM   27  C11 UNL     1       4.544   1.872  -1.516  1.00  0.00     0.057 A 
HETATM   28  C12 UNL     1       5.364   1.831  -0.413  1.00  0.00     0.193 A 
HETATM   29  O5  UNL     1       4.656   1.446   0.607  1.00  0.00    -0.278 OA
BRANCH  28  30
HETATM   30  S1  UNL     1       7.083   2.242  -0.433  1.00  0.00     0.161 S 
HETATM   31  O2  UNL     1       7.844   1.064   0.130  1.00  0.00    -0.590 OA
HETATM   32  O3  UNL     1       7.504   2.567  -1.832  1.00  0.00    -0.590 OA
HETATM   33  O4  UNL     1       7.288   3.539   0.614  1.00  0.00    -0.590 OA
ENDBRANCH  28  30
ENDBRANCH  23  25
ENDBRANCH   2  23
TORSDOF 7
