REMARK  12 active torsions:
REMARK  status: ('A' for Active; 'I' for Inactive)
REMARK    1  A    between atoms: C2_2  and  C3_3 
REMARK    2  A    between atoms: C3_3  and  C4_4 
REMARK    3  A    between atoms: C4_4  and  C5_5 
REMARK    4  A    between atoms: C5_5  and  O2_7 
REMARK    5  A    between atoms: O2_7  and  C6_8 
REMARK    6  A    between atoms: C13_15  and  C14_16 
REMARK    7  A    between atoms: C13_15  and  C15_19 
REMARK    8  A    between atoms: C14_16  and  O3_17 
REMARK    9  A    between atoms: C15_19  and  O4_20 
REMARK   10  A    between atoms: C16_22  and  O5_23 
REMARK   11  A    between atoms: O5_23  and  C17_24 
REMARK   12  A    between atoms: C22_30  and  O7_32 
ROOT
HETATM    1  C6  UNL     1       1.032  -0.632  -0.253  1.00  0.00     0.141 C 
HETATM    2  C7  UNL     1       1.210  -1.846  -1.252  1.00  0.00     0.066 C 
HETATM    3  C8  UNL     1       0.502  -2.974  -0.624  1.00  0.00    -0.085 C 
HETATM    4  C9  UNL     1       0.992  -4.355  -0.997  1.00  0.00     0.043 C 
HETATM    5  C10 UNL     1      -0.466  -2.822   0.193  1.00  0.00    -0.016 C 
HETATM    6  C11 UNL     1      -1.018  -1.535   0.629  1.00  0.00     0.051 C 
HETATM    7  C12 UNL     1      -0.415  -0.383  -0.161  1.00  0.00     0.041 C 
HETATM    8  C13 UNL     1      -0.931   0.938   0.294  1.00  0.00     0.036 C 
HETATM    9  C16 UNL     1      -2.460   0.961   0.375  1.00  0.00     0.155 C 
HETATM   10  C19 UNL     1      -3.102  -0.330   0.717  1.00  0.00     0.011 C 
HETATM   11  C20 UNL     1      -3.258  -0.476   2.228  1.00  0.00     0.020 C 
HETATM   12  C21 UNL     1      -4.553  -0.392   0.244  1.00  0.00     0.020 C 
HETATM   13  C22 UNL     1      -2.471  -1.588   0.308  1.00  0.00     0.071 C 
HETATM   14  C23 UNL     1      -2.699  -2.053  -1.093  1.00  0.00     0.047 C 
ENDROOT
BRANCH   1  15
HETATM   15  O2  UNL     1       1.933   0.330  -0.577  1.00  0.00    -0.315 OA
BRANCH  15  16
HETATM   16  C5  UNL     1       3.156   0.572   0.044  1.00  0.00     0.259 C 
HETATM   17  O1  UNL     1       3.382  -0.216   0.989  1.00  0.00    -0.265 OA
BRANCH  16  18
HETATM   18  C4  UNL     1       4.014   1.652  -0.434  1.00  0.00     0.111 C 
BRANCH  18  19
HETATM   19  C3  UNL     1       5.392   1.244  -0.841  1.00  0.00     0.009 C 
BRANCH  19  20
HETATM   20  C2  UNL     1       6.206   0.602   0.254  1.00  0.00    -0.004 C 
HETATM   21  C1  UNL     1       7.563   0.259  -0.335  1.00  0.00     0.005 C 
ENDBRANCH  19  20
ENDBRANCH  18  19
ENDBRANCH  16  18
ENDBRANCH  15  16
ENDBRANCH   1  15
BRANCH   8  22
HETATM   22  C14 UNL     1      -0.315   1.390   1.607  1.00  0.00     0.178 C 
BRANCH  22  23
HETATM   23  O3  UNL     1      -0.837   2.647   2.020  1.00  0.00    -0.400 OA
ATOM     24  H3  UNL     1      -0.452   2.930   2.841  1.00  0.00     0.209 HD
ENDBRANCH  22  23
ENDBRANCH   8  22
BRANCH   8  25
HETATM   25  C15 UNL     1      -0.557   1.997  -0.719  1.00  0.00     0.178 C 
BRANCH  25  26
HETATM   26  O4  UNL     1      -1.037   1.802  -1.991  1.00  0.00    -0.400 OA
ATOM     27  H4  UNL     1      -0.802   2.467  -2.627  1.00  0.00     0.209 HD
ENDBRANCH  25  26
ENDBRANCH   8  25
BRANCH  13  28
HETATM   28  O7  UNL     1      -3.009  -2.637   1.101  1.00  0.00    -0.389 OA
ATOM     29  H7  UNL     1      -3.936  -2.671   0.896  1.00  0.00     0.210 HD
ENDBRANCH  13  28
BRANCH   9  30
HETATM   30  O5  UNL     1      -3.047   1.797  -0.539  1.00  0.00    -0.315 OA
BRANCH  30  31
HETATM   31  C17 UNL     1      -3.685   2.949  -0.532  1.00  0.00     0.255 C 
HETATM   32  C18 UNL     1      -4.215   3.622  -1.717  1.00  0.00     0.126 C 
HETATM   33  O6  UNL     1      -3.796   3.413   0.590  1.00  0.00    -0.266 OA
ENDBRANCH  30  31
ENDBRANCH   9  30
TORSDOF 12
