REMARK  8 active torsions:
REMARK  status: ('A' for Active; 'I' for Inactive)
REMARK    1  A    between atoms: C2_2  and  O1_3 
REMARK    2  A    between atoms: O1_3  and  C3_4 
REMARK    3  A    between atoms: C3_4  and  C4_6 
REMARK    4  A    between atoms: N3_11  and  C5_12 
REMARK    5  A    between atoms: C5_12  and  C6_13 
REMARK    6  A    between atoms: C6_13  and  O3_14 
REMARK    7  A    between atoms: C8_16  and  S1_17 
REMARK    8  A    between atoms: S1_17  and  C9_18 
ROOT
HETATM    1  C4  UNL     1      -3.815   0.284   1.715  1.00  0.00     0.160 A 
HETATM    2  N1  UNL     1      -4.005   1.370   2.481  1.00  0.00    -0.278 N 
ATOM      3  H1  UNL     1      -4.301   1.367   3.457  1.00  0.00     0.189 HD
HETATM    4  N2  UNL     1      -3.739   2.463   1.743  1.00  0.00    -0.239 N 
ATOM      5  H2  UNL     1      -3.804   3.425   2.076  1.00  0.00     0.208 HD
HETATM    6  N3  UNL     1      -3.385   2.109   0.534  1.00  0.00    -0.267 N 
HETATM    7  C8  UNL     1      -3.423   0.769   0.486  1.00  0.00     0.130 A 
ENDROOT
BRANCH   7   8
HETATM    8  S1  UNL     1      -3.032  -0.232  -0.934  1.00  0.00    -0.042 SA
BRANCH   8   9
HETATM    9  C9  UNL     1      -1.300  -0.654  -0.934  1.00  0.00     0.135 A 
HETATM   10  N4  UNL     1      -0.619  -1.338  -1.752  1.00  0.00    -0.287 N 
HETATM   11  N5  UNL     1       0.700  -1.534  -1.554  1.00  0.00    -0.292 N 
ATOM     12  H4  UNL     1      -1.073  -1.745  -2.570  1.00  0.00     0.188 HD
HETATM   13  C10 UNL     1       1.269  -0.947  -0.407  1.00  0.00     0.093 A 
ATOM     14  H5  UNL     1       1.261  -2.083  -2.206  1.00  0.00     0.187 HD
HETATM   15  C11 UNL     1       2.517  -1.012  -0.027  1.00  0.00    -0.045 C 
HETATM   16  S2  UNL     1      -0.146  -0.133   0.330  1.00  0.00    -0.044 SA
HETATM   17  C12 UNL     1       3.337  -1.799  -0.951  1.00  0.00     0.037 C 
HETATM   18  C18 UNL     1       2.695  -0.243   1.254  1.00  0.00     0.037 C 
HETATM   19  C13 UNL     1       4.792  -1.867  -0.550  1.00  0.00     0.004 C 
HETATM   20  C14 UNL     1       5.524  -0.586  -0.818  1.00  0.00     0.000 C 
HETATM   21  C15 UNL     1       6.081  -0.042   0.462  1.00  0.00     0.000 C 
HETATM   22  C16 UNL     1       5.084   0.131   1.554  1.00  0.00     0.000 C 
HETATM   23  C17 UNL     1       3.797   0.767   1.135  1.00  0.00     0.004 C 
ENDBRANCH   8   9
ENDBRANCH   7   8
BRANCH   1  24
HETATM   24  C3  UNL     1      -3.973  -1.119   2.057  1.00  0.00     0.314 C 
HETATM   25  O2  UNL     1      -4.339  -1.452   3.223  1.00  0.00    -0.257 OA
BRANCH  24  26
HETATM   26  O1  UNL     1      -3.739  -2.135   1.158  1.00  0.00    -0.317 OA
BRANCH  26  27
HETATM   27  C2  UNL     1      -3.893  -3.516   1.489  1.00  0.00     0.175 C 
HETATM   28  C1  UNL     1      -3.554  -4.328   0.271  1.00  0.00     0.034 C 
ENDBRANCH  26  27
ENDBRANCH  24  26
ENDBRANCH   1  24
BRANCH   6  29
HETATM   29  C5  UNL     1      -3.017   3.000  -0.563  1.00  0.00     0.177 C 
BRANCH  29  30
HETATM   30  C6  UNL     1      -4.248   3.364  -1.358  1.00  0.00     0.189 C 
BRANCH  30  31
HETATM   31  O3  UNL     1      -4.035   4.185  -2.423  1.00  0.00    -0.394 OA
HETATM   32  C7  UNL     1      -3.496   5.404  -2.057  1.00  0.00     0.201 C 
ENDBRANCH  30  31
ENDBRANCH  29  30
ENDBRANCH   6  29
TORSDOF 8
