REMARK  8 active torsions:
REMARK  status: ('A' for Active; 'I' for Inactive)
REMARK    1  A    between atoms: C4_6  and  C5_7 
REMARK    2  A    between atoms: C6_10  and  N3_11 
REMARK    3  A    between atoms: N3_11  and  C7_13 
REMARK    4  A    between atoms: C7_13  and  C8_14 
REMARK    5  A    between atoms: N4_19  and  C12_20 
REMARK    6  A    between atoms: C12_20  and  C13_21 
REMARK    7  A    between atoms: C13_21  and  C14_22 
REMARK    8  A    between atoms: C18_28  and  C19_29 
ROOT
HETATM    1  C5  UNL     1      -0.873  -1.864   0.840  1.00  0.00     0.164 C 
HETATM    2  N2  UNL     1      -1.799  -0.786   0.761  1.00  0.00    -0.215 N 
ATOM      3  H2  UNL     1      -2.738  -0.779   1.159  1.00  0.00     0.178 HD
HETATM    4  C6  UNL     1      -1.254   0.182   0.102  1.00  0.00     0.673 C 
HETATM    5  N4  UNL     1       0.047  -0.203  -0.328  1.00  0.00    -0.205 N 
HETATM    6  C18 UNL     1      -0.102  -1.674  -0.477  1.00  0.00     0.189 C 
ENDROOT
BRANCH   4   7
HETATM    7  N3  UNL     1      -1.896   1.439  -0.171  1.00  0.00    -0.220 N 
ATOM      8  H3  UNL     1      -1.959   1.782  -1.130  1.00  0.00     0.178 HD
BRANCH   7   9
HETATM    9  C7  UNL     1      -2.461   2.229   0.929  1.00  0.00     0.203 C 
BRANCH   9  10
HETATM   10  C8  UNL     1      -3.090   3.464   0.444  1.00  0.00     0.070 A 
HETATM   11  C9  UNL     1      -2.469   4.682   0.275  1.00  0.00     0.036 A 
HETATM   12  C10 UNL     1      -3.434   5.571  -0.201  1.00  0.00     0.027 A 
HETATM   13  C11 UNL     1      -4.594   4.819  -0.289  1.00  0.00     0.142 A 
HETATM   14  O1  UNL     1      -4.351   3.576   0.102  1.00  0.00    -0.325 OA
ENDBRANCH   9  10
ENDBRANCH   7   9
ENDBRANCH   4   7
BRANCH   5  15
HETATM   15  C12 UNL     1       1.191   0.605  -0.558  1.00  0.00     0.145 C 
BRANCH  15  16
HETATM   16  C13 UNL     1       2.245   0.295   0.485  1.00  0.00     0.054 C 
BRANCH  16  17
HETATM   17  C14 UNL     1       3.490   1.122   0.286  1.00  0.00     0.146 C 
HETATM   18  C15 UNL     1       4.460   0.731   1.376  1.00  0.00     0.199 C 
HETATM   19  O2  UNL     1       5.573   1.524   1.361  1.00  0.00    -0.387 OA
HETATM   20  C16 UNL     1       5.601   2.312   0.243  1.00  0.00     0.193 C 
HETATM   21  C17 UNL     1       5.227   1.631  -1.037  1.00  0.00     0.194 C 
HETATM   22  O3  UNL     1       4.099   0.853  -0.937  1.00  0.00    -0.382 OA
ENDBRANCH  16  17
ENDBRANCH  15  16
ENDBRANCH   5  15
BRANCH   1  23
HETATM   23  C4  UNL     1      -1.423  -3.182   1.031  1.00  0.00    -0.017 A 
HETATM   24  C3  UNL     1      -0.826  -4.300   0.517  1.00  0.00     0.096 A 
HETATM   25  N1  UNL     1      -1.370  -5.546   0.693  1.00  0.00    -0.375 N 
HETATM   26  C2  UNL     1      -2.510  -5.746   1.372  1.00  0.00     0.087 A 
ATOM     27  H1  UNL     1      -0.890  -6.352   0.292  1.00  0.00     0.164 HD
HETATM   28  C1  UNL     1      -3.139  -4.642   1.906  1.00  0.00     0.018 A 
HETATM   29  C22 UNL     1      -2.592  -3.369   1.732  1.00  0.00     0.012 A 
ENDBRANCH   1  23
BRANCH   6  30
HETATM   30  C19 UNL     1      -0.913  -1.970  -1.661  1.00  0.00     0.103 A 
HETATM   31  C20 UNL     1      -0.607  -2.861  -2.657  1.00  0.00     0.056 A 
HETATM   32  C21 UNL     1      -1.650  -2.829  -3.588  1.00  0.00     0.117 A 
HETATM   33  N5  UNL     1      -2.509  -1.925  -3.093  1.00  0.00    -0.272 N 
HETATM   34  O4  UNL     1      -2.066  -1.438  -1.977  1.00  0.00    -0.240 OA
ATOM     35  H5  UNL     1      -3.389  -1.658  -3.534  1.00  0.00     0.193 HD
ENDBRANCH   6  30
TORSDOF 8
