REMARK  11 active torsions:
REMARK  status: ('A' for Active; 'I' for Inactive)
REMARK    1  A    between atoms: C2_2  and  S1_4 
REMARK    2  A    between atoms: S1_4  and  C4_5 
REMARK    3  A    between atoms: C4_5  and  C5_6 
REMARK    4  A    between atoms: C5_6  and  O2_8 
REMARK    5  A    between atoms: O2_8  and  N1_9 
REMARK    6  A    between atoms: N2_15  and  C10_16 
REMARK    7  A    between atoms: C13_19  and  N3_20 
REMARK    8  A    between atoms: C14_23  and  O5_24 
REMARK    9  A    between atoms: C15_26  and  C16_27 
REMARK   10  A    between atoms: C16_27  and  O7_29 
REMARK   11  A    between atoms: O7_29  and  C17_30 
ROOT
HETATM    1  C10 UNL     1      -1.086  -0.916   1.170  1.00  0.00     0.055 A 
HETATM    2  C11 UNL     1      -0.607  -2.107   1.727  1.00  0.00     0.033 A 
HETATM    3  C12 UNL     1      -1.134  -3.330   1.471  1.00  0.00     0.041 A 
HETATM    4  C13 UNL     1      -2.227  -3.380   0.589  1.00  0.00     0.137 A 
HETATM    5  C14 UNL     1      -2.744  -2.270   0.011  1.00  0.00     0.117 A 
HETATM    6  C15 UNL     1      -2.150  -1.015   0.316  1.00  0.00     0.102 A 
ENDROOT
BRANCH   1   7
HETATM    7  N2  UNL     1      -0.494   0.309   1.552  1.00  0.00    -0.334 N 
HETATM    8  C6  UNL     1       0.731   0.899   1.065  1.00  0.00     0.105 C 
HETATM    9  N1  UNL     1       1.160   0.749  -0.147  1.00  0.00    -0.245 N 
HETATM   10  C7  UNL     1       1.392   1.675   2.167  1.00  0.00     0.080 C 
ATOM     11  H1  UNL     1       0.609   0.192  -0.800  1.00  0.00     0.196 HD
HETATM   12  C8  UNL     1       0.373   1.614   3.286  1.00  0.00     0.028 C 
HETATM   13  C9  UNL     1      -0.947   1.272   2.572  1.00  0.00     0.131 C 
BRANCH   9  14
HETATM   14  O2  UNL     1       2.334   1.316  -0.582  1.00  0.00    -0.197 OA
BRANCH  14  15
HETATM   15  C5  UNL     1       2.451   1.821  -1.854  1.00  0.00     0.290 C 
HETATM   16  O1  UNL     1       1.454   1.750  -2.611  1.00  0.00    -0.262 OA
BRANCH  15  17
HETATM   17  C4  UNL     1       3.684   2.446  -2.388  1.00  0.00     0.192 C 
BRANCH  17  18
HETATM   18  S1  UNL     1       5.014   2.471  -1.185  1.00  0.00    -0.126 SA
BRANCH  18  19
HETATM   19  C2  UNL     1       5.539   0.804  -0.850  1.00  0.00    -0.035 C 
HETATM   20  C1  UNL     1       6.507   0.600   0.019  1.00  0.00     0.026 C 
HETATM   21  C3  UNL     1       4.896  -0.331  -1.540  1.00  0.00     0.055 C 
ENDBRANCH  18  19
ENDBRANCH  17  18
ENDBRANCH  15  17
ENDBRANCH  14  15
ENDBRANCH   9  14
ENDBRANCH   1   7
BRANCH   6  22
HETATM   22  C16 UNL     1      -2.716   0.140  -0.351  1.00  0.00     0.298 C 
HETATM   23  O6  UNL     1      -2.309   1.308  -0.194  1.00  0.00    -0.259 OA
BRANCH  22  24
HETATM   24  O7  UNL     1      -3.781  -0.018  -1.231  1.00  0.00    -0.318 OA
BRANCH  24  25
HETATM   25  C17 UNL     1      -4.363   1.091  -1.903  1.00  0.00     0.174 C 
HETATM   26  C18 UNL     1      -5.493   0.630  -2.795  1.00  0.00     0.034 C 
ENDBRANCH  24  25
ENDBRANCH  22  24
ENDBRANCH   6  22
BRANCH   5  27
HETATM   27  O5  UNL     1      -3.808  -2.259  -0.862  1.00  0.00    -0.357 OA
ATOM     28  H5  UNL     1      -4.171  -1.480  -1.268  1.00  0.00     0.217 HD
ENDBRANCH   5  27
BRANCH   4  29
HETATM   29  N3  UNL     1      -2.733  -4.671   0.356  1.00  0.00    -0.113 N 
HETATM   30  O3  UNL     1      -3.924  -4.946   0.167  1.00  0.00    -0.532 OA
HETATM   31  O4  UNL     1      -1.880  -5.787   0.353  1.00  0.00    -0.532 OA
ENDBRANCH   4  29
TORSDOF 11
