REMARK  6 active torsions:
REMARK  status: ('A' for Active; 'I' for Inactive)
REMARK    1  A    between atoms: S1_3  and  C2_4 
REMARK    2  A    between atoms: C2_4  and  C3_5 
REMARK    3  A    between atoms: C3_5  and  O1_6 
REMARK    4  A    between atoms: O1_6  and  C4_7 
REMARK    5  A    between atoms: C4_7  and  C5_9 
REMARK    6  A    between atoms: C9_13  and  C10_14 
ROOT
HETATM    1  N1  UNL     1       8.708   1.954  -0.731  1.00  0.00    -0.184 NA
HETATM    2  C1  UNL     1       8.403   0.833  -0.833  1.00  0.00     0.133 C 
HETATM    3  S1  UNL     1       7.945  -0.857  -1.015  1.00  0.00    -0.049 SA
ENDROOT
BRANCH   3   4
HETATM    4  C2  UNL     1       6.361  -1.157  -0.151  1.00  0.00     0.117 C 
BRANCH   4   5
HETATM    5  C3  UNL     1       5.240  -0.416  -0.810  1.00  0.00     0.190 C 
BRANCH   5   6
HETATM    6  O1  UNL     1       4.055  -0.679  -0.112  1.00  0.00    -0.317 OA
BRANCH   6   7
HETATM    7  C4  UNL     1       2.814  -0.182  -0.412  1.00  0.00     0.293 C 
HETATM    8  O2  UNL     1       2.724   0.587  -1.412  1.00  0.00    -0.259 OA
BRANCH   7   9
HETATM    9  C5  UNL     1       1.665  -0.541   0.403  1.00  0.00     0.040 A 
HETATM   10  C6  UNL     1       1.846  -1.382   1.474  1.00  0.00     0.017 A 
HETATM   11  C7  UNL     1       0.746  -1.709   2.233  1.00  0.00     0.002 A 
HETATM   12  C8  UNL     1      -0.522  -1.218   1.946  1.00  0.00     0.012 A 
HETATM   13  C9  UNL     1      -0.722  -0.366   0.866  1.00  0.00    -0.017 A 
HETATM   14  C19 UNL     1       0.395  -0.054   0.123  1.00  0.00     0.030 A 
BRANCH  13  15
HETATM   15  C10 UNL     1      -2.054   0.139   0.581  1.00  0.00     0.073 A 
HETATM   16  C11 UNL     1      -2.528   1.224   1.287  1.00  0.00     0.172 A 
HETATM   17  N2  UNL     1      -1.692   1.805   2.265  1.00  0.00    -0.073 NA
HETATM   18  O3  UNL     1      -3.749   1.699   1.037  1.00  0.00    -0.292 OA
HETATM   19  C12 UNL     1      -4.527   1.158   0.127  1.00  0.00     0.113 A 
HETATM   20  C13 UNL     1      -5.780   1.683  -0.096  1.00  0.00     0.069 A 
HETATM   21  C17 UNL     1      -4.086   0.060  -0.608  1.00  0.00     0.051 A 
HETATM   22 CL1  UNL     1      -6.349   3.060   0.817  1.00  0.00    -0.081 Cl
HETATM   23  C14 UNL     1      -6.612   1.125  -1.051  1.00  0.00     0.027 A 
HETATM   24  C15 UNL     1      -6.159   0.039  -1.769  1.00  0.00     0.003 A 
HETATM   25  C16 UNL     1      -4.911  -0.492  -1.554  1.00  0.00     0.018 A 
HETATM   26  C18 UNL     1      -2.834  -0.460  -0.382  1.00  0.00     0.200 A 
HETATM   27  O4  UNL     1      -2.375  -1.448  -1.009  1.00  0.00    -0.286 OA
ENDBRANCH  13  15
ENDBRANCH   7   9
ENDBRANCH   6   7
ENDBRANCH   5   6
ENDBRANCH   4   5
ENDBRANCH   3   4
TORSDOF 6
