REMARK  8 active torsions:
REMARK  status: ('A' for Active; 'I' for Inactive)
REMARK    1  A    between atoms: C2_2  and  O1_3 
REMARK    2  A    between atoms: O1_3  and  C3_4 
REMARK    3  A    between atoms: C3_4  and  O3_6 
REMARK    4  A    between atoms: O3_6  and  C4_7 
REMARK    5  A    between atoms: C4_7  and  O4_8 
REMARK    6  A    between atoms: O4_8  and  C5_9 
REMARK    7  A    between atoms: C5_9  and  C6_11 
REMARK    8  A    between atoms: C9_15  and  C10_16 
ROOT
HETATM    1  C6  UNL     1      -0.313   1.665  -0.103  1.00  0.00     0.140 A 
HETATM    2  C7  UNL     1      -1.399   0.786  -0.198  1.00  0.00     0.082 A 
HETATM    3  N1  UNL     1      -1.107  -0.524  -0.607  1.00  0.00    -0.100 NA
HETATM    4  C8  UNL     1      -2.653   1.247   0.086  1.00  0.00     0.034 A 
HETATM    5  C9  UNL     1      -3.774   0.474   0.023  1.00  0.00    -0.011 A 
HETATM    6  C16 UNL     1      -5.023   1.065   0.335  1.00  0.00     0.013 A 
HETATM    7  C17 UNL     1      -5.156   2.372   0.698  1.00  0.00     0.004 A 
HETATM    8  C18 UNL     1      -4.027   3.127   0.757  1.00  0.00     0.038 A 
HETATM    9  C19 UNL     1      -2.785   2.591   0.459  1.00  0.00     0.092 A 
HETATM   10  O6  UNL     1      -1.746   3.384   0.537  1.00  0.00    -0.274 OA
HETATM   11  C20 UNL     1      -0.570   2.964   0.275  1.00  0.00     0.306 A 
HETATM   12  O7  UNL     1       0.439   3.745   0.354  1.00  0.00    -0.259 OA
ENDROOT
BRANCH   1  13
HETATM   13  C5  UNL     1       1.015   1.179  -0.404  1.00  0.00     0.303 C 
HETATM   14  O5  UNL     1       1.187  -0.014  -0.745  1.00  0.00    -0.259 OA
BRANCH  13  15
HETATM   15  O4  UNL     1       2.151   1.968  -0.339  1.00  0.00    -0.291 OA
BRANCH  15  16
HETATM   16  C4  UNL     1       3.452   1.496  -0.632  1.00  0.00     0.360 C 
BRANCH  16  17
HETATM   17  O3  UNL     1       3.841   0.440   0.210  1.00  0.00    -0.272 OA
BRANCH  17  18
HETATM   18  C3  UNL     1       5.093  -0.109   0.024  1.00  0.00     0.408 C 
HETATM   19  O2  UNL     1       5.842   0.337  -0.874  1.00  0.00    -0.229 OA
BRANCH  18  20
HETATM   20  O1  UNL     1       5.565  -1.147   0.798  1.00  0.00    -0.298 OA
BRANCH  20  21
HETATM   21  C2  UNL     1       6.840  -1.694   0.596  1.00  0.00     0.176 C 
HETATM   22  C1  UNL     1       7.886  -0.637   0.786  1.00  0.00     0.034 C 
ENDBRANCH  20  21
ENDBRANCH  18  20
ENDBRANCH  17  18
ENDBRANCH  16  17
ENDBRANCH  15  16
ENDBRANCH  13  15
ENDBRANCH   1  13
BRANCH   5  23
HETATM   23  C10 UNL     1      -3.771  -0.922  -0.304  1.00  0.00    -0.025 A 
HETATM   24  C11 UNL     1      -4.063  -1.339  -1.577  1.00  0.00     0.015 A 
HETATM   25  C12 UNL     1      -4.167  -2.698  -1.885  1.00  0.00     0.043 A 
HETATM   26  C13 UNL     1      -3.972  -3.614  -0.897  1.00  0.00     0.116 A 
HETATM   27  F1  UNL     1      -4.070  -4.955  -1.181  1.00  0.00    -0.206 F 
HETATM   28  C14 UNL     1      -3.680  -3.215   0.380  1.00  0.00     0.043 A 
HETATM   29  C15 UNL     1      -3.581  -1.869   0.669  1.00  0.00     0.015 A 
ENDBRANCH   5  23
TORSDOF 8
