REMARK  7 active torsions:
REMARK  status: ('A' for Active; 'I' for Inactive)
REMARK    1  A    between atoms: C2_2  and  C5_5 
REMARK    2  A    between atoms: C7_7  and  O1_8 
REMARK    3  A    between atoms: C8_10  and  C9_11 
REMARK    4  A    between atoms: C9_11  and  O2_12 
REMARK    5  A    between atoms: O2_12  and  C10_13 
REMARK    6  A    between atoms: C10_13  and  C11_14 
REMARK    7  A    between atoms: C11_14  and  C12_15 
ROOT
HETATM    1  C10 UNL     1       0.606  -0.099  -1.167  1.00  0.00     0.172 C 
ENDROOT
BRANCH   1   2
HETATM    2  O2  UNL     1      -0.217  -1.099  -0.719  1.00  0.00    -0.390 OA
BRANCH   2   3
HETATM    3  C9  UNL     1      -1.071  -0.678   0.249  1.00  0.00     0.185 C 
BRANCH   3   4
HETATM    4  C8  UNL     1      -1.972   0.430  -0.171  1.00  0.00     0.100 C 
HETATM    5  C7  UNL     1      -2.886   0.823   0.970  1.00  0.00     0.135 C 
HETATM    6  C6  UNL     1      -3.811  -0.285   1.254  1.00  0.00     0.049 C 
HETATM    7  C5  UNL     1      -4.306  -0.924   0.026  1.00  0.00     0.057 C 
HETATM    8  S1  UNL     1      -3.232  -0.294  -1.300  1.00  0.00    -0.154 SA
BRANCH   5   9
HETATM    9  O1  UNL     1      -3.479   2.051   0.731  1.00  0.00    -0.394 OA
ATOM     10  H1  UNL     1      -2.882   2.767   0.548  1.00  0.00     0.210 HD
ENDBRANCH   5   9
BRANCH   7  11
HETATM   11  C2  UNL     1      -5.753  -0.743  -0.273  1.00  0.00    -0.039 C 
HETATM   12  C1  UNL     1      -6.166   0.683  -0.439  1.00  0.00     0.015 C 
HETATM   13  C3  UNL     1      -6.048  -1.498  -1.572  1.00  0.00     0.015 C 
HETATM   14  C4  UNL     1      -6.566  -1.386   0.802  1.00  0.00     0.015 C 
ENDBRANCH   7  11
ENDBRANCH   3   4
ENDBRANCH   2   3
ENDBRANCH   1   2
BRANCH   1  15
HETATM   15  C11 UNL     1       1.434   0.458  -0.039  1.00  0.00     0.093 C 
BRANCH  15  16
HETATM   16  C12 UNL     1       2.357   1.561  -0.574  1.00  0.00     0.335 C 
HETATM   17  O3  UNL     1       3.106   2.055   0.486  1.00  0.00    -0.202 OA
HETATM   18  O4  UNL     1       3.690   1.059   1.085  1.00  0.00    -0.195 OA
HETATM   19  C13 UNL     1       4.582   0.403   0.203  1.00  0.00     0.230 C 
HETATM   20  C14 UNL     1       5.081  -0.821   0.889  1.00  0.00     0.077 C 
HETATM   21  C18 UNL     1       5.653   1.392  -0.141  1.00  0.00     0.077 C 
HETATM   22  O5  UNL     1       3.855  -0.005  -0.933  1.00  0.00    -0.195 OA
HETATM   23  C15 UNL     1       6.519  -0.668   1.305  1.00  0.00     0.042 C 
HETATM   24  C16 UNL     1       7.334  -0.465   0.044  1.00  0.00     0.170 C 
HETATM   25  F1  UNL     1       7.091  -1.560  -0.778  1.00  0.00    -0.249 F 
HETATM   26  C17 UNL     1       6.892   0.758  -0.716  1.00  0.00     0.042 C 
HETATM   27  O6  UNL     1       3.229   0.986  -1.486  1.00  0.00    -0.202 OA
ENDBRANCH  15  16
ENDBRANCH   1  15
TORSDOF 7
