REMARK  8 active torsions:
REMARK  status: ('A' for Active; 'I' for Inactive)
REMARK    1  A    between atoms: O1_2  and  C2_3 
REMARK    2  A    between atoms: C2_3  and  C3_5 
REMARK    3  A    between atoms: C10_14  and  C11_15 
REMARK    4  A    between atoms: C13_18  and  C14_19 
REMARK    5  A    between atoms: C14_19  and  C15_20 
REMARK    6  A    between atoms: C15_20  and  O5_22 
REMARK    7  A    between atoms: O5_22  and  C16_23 
REMARK    8  A    between atoms: C17_25  and  O7_26 
ROOT
HETATM    1  C3  UNL     1      -3.361  -0.197   0.140  1.00  0.00     0.075 A 
HETATM    2  C4  UNL     1      -4.560   0.427  -0.220  1.00  0.00     0.043 A 
HETATM    3  C5  UNL     1      -4.630   1.736  -0.645  1.00  0.00     0.046 A 
HETATM    4  C6  UNL     1      -5.908   2.331  -1.006  1.00  0.00     0.099 C 
HETATM    5  N1  UNL     1      -6.918   2.816  -1.281  1.00  0.00    -0.191 NA
HETATM    6  C7  UNL     1      -3.456   2.456  -0.716  1.00  0.00     0.038 A 
HETATM    7  C8  UNL     1      -2.249   1.889  -0.374  1.00  0.00     0.025 A 
HETATM    8  C9  UNL     1      -0.935   2.303  -0.328  1.00  0.00     0.084 A 
HETATM    9 CL1  UNL     1      -0.394   3.909  -0.765  1.00  0.00    -0.080 Cl
HETATM   10  C10 UNL     1      -0.149   1.239   0.115  1.00  0.00     0.135 A 
HETATM   11  O8  UNL     1      -0.959   0.238   0.324  1.00  0.00    -0.304 OA
HETATM   12  C18 UNL     1      -2.216   0.570   0.049  1.00  0.00     0.104 A 
ENDROOT
BRANCH   1  13
HETATM   13  C2  UNL     1      -3.335  -1.580   0.583  1.00  0.00     0.295 C 
HETATM   14  O2  UNL     1      -2.249  -2.101   0.884  1.00  0.00    -0.259 OA
BRANCH  13  15
HETATM   15  O1  UNL     1      -4.499  -2.308   0.672  1.00  0.00    -0.322 OA
HETATM   16  C1  UNL     1      -4.546  -3.656   1.097  1.00  0.00     0.213 C 
ENDBRANCH  13  15
ENDBRANCH   1  13
BRANCH  10  17
HETATM   17  C11 UNL     1       1.302   1.342   0.279  1.00  0.00     0.144 A 
HETATM   18  O3  UNL     1       2.044   2.399   0.051  1.00  0.00    -0.316 OA
HETATM   19  C12 UNL     1       3.290   2.179   0.287  1.00  0.00     0.153 A 
HETATM   20  C13 UNL     1       3.419   0.874   0.709  1.00  0.00     0.009 A 
HETATM   21  C17 UNL     1       2.159   0.343   0.703  1.00  0.00     0.111 A 
BRANCH  20  22
HETATM   22  C14 UNL     1       4.709   0.270   1.069  1.00  0.00     0.155 C 
BRANCH  22  23
HETATM   23  C15 UNL     1       5.250  -0.628   0.015  1.00  0.00     0.270 C 
HETATM   24  O4  UNL     1       4.623  -0.812  -1.059  1.00  0.00    -0.264 OA
BRANCH  23  25
HETATM   25  O5  UNL     1       6.449  -1.288   0.175  1.00  0.00    -0.252 OA
BRANCH  25  26
HETATM   26  C16 UNL     1       6.958  -2.125  -0.807  1.00  0.00     0.406 C 
HETATM   27  O6  UNL     1       6.333  -2.304  -1.874  1.00  0.00    -0.276 OA
ENDBRANCH  25  26
ENDBRANCH  23  25
ENDBRANCH  22  23
ENDBRANCH  20  22
BRANCH  21  28
HETATM   28  O7  UNL     1       1.811  -0.936   1.053  1.00  0.00    -0.357 OA
ATOM     29  H7  UNL     1       2.400  -1.622   1.344  1.00  0.00     0.217 HD
ENDBRANCH  21  28
ENDBRANCH  10  17
TORSDOF 8
