REMARK  6 active torsions:
REMARK  status: ('A' for Active; 'I' for Inactive)
REMARK    1  A    between atoms: C5_6  and  C6_7 
REMARK       I    between atoms: C6_7  and  N2_9 
REMARK    2  A    between atoms: N2_9  and  C7_11 
REMARK    3  A    between atoms: C8_12  and  N3_13 
REMARK    4  A    between atoms: N3_13  and  O2_14 
REMARK    5  A    between atoms: C11_19  and  N5_20 
REMARK    6  A    between atoms: C13_24  and  N6_25 
ROOT
HETATM    1  N1  UNL     1       7.689   0.277  -0.127  1.00  0.00    -0.191 NA
HETATM    2  C1  UNL     1       6.539   0.048  -0.083  1.00  0.00     0.099 C 
HETATM    3  C2  UNL     1       5.123  -0.259  -0.044  1.00  0.00     0.046 A 
HETATM    4  C3  UNL     1       4.417  -0.168   1.130  1.00  0.00     0.024 A 
HETATM    5  C4  UNL     1       3.058  -0.449   1.185  1.00  0.00     0.020 A 
HETATM    6  C5  UNL     1       2.416  -0.827   0.040  1.00  0.00     0.054 A 
HETATM    7  C14 UNL     1       3.085  -0.931  -1.147  1.00  0.00     0.051 A 
HETATM    8 CL1  UNL     1       2.276  -1.416  -2.614  1.00  0.00    -0.083 Cl
HETATM    9  C15 UNL     1       4.456  -0.644  -1.198  1.00  0.00     0.047 A 
ENDROOT
BRANCH   6  10
HETATM   10  C6  UNL     1       0.919  -1.080   0.098  1.00  0.00     0.258 C 
HETATM   11  O1  UNL     1       0.687  -2.266   0.288  1.00  0.00    -0.267 OA
HETATM   12  N2  UNL     1       0.086   0.029  -0.066  1.00  0.00    -0.319 N 
ATOM     13  H2  UNL     1       0.617   0.891  -0.193  1.00  0.00     0.169 HD
BRANCH  12  14
HETATM   14  C7  UNL     1      -1.283   0.252  -0.099  1.00  0.00     0.093 A 
HETATM   15  C8  UNL     1      -2.238  -0.708   0.079  1.00  0.00     0.084 A 
HETATM   16  C10 UNL     1      -3.622  -0.422   0.109  1.00  0.00     0.065 A 
HETATM   17  C11 UNL     1      -4.042   0.849  -0.044  1.00  0.00     0.107 A 
HETATM   18  C12 UNL     1      -3.100   1.819  -0.227  1.00  0.00     0.074 A 
HETATM   19  C13 UNL     1      -1.716   1.568  -0.263  1.00  0.00     0.134 A 
BRANCH  15  20
HETATM   20  N3  UNL     1      -1.993  -2.099   0.227  1.00  0.00    -0.060 NA
HETATM   21  C9  UNL     1      -2.740  -2.627   1.304  1.00  0.00     0.184 C 
HETATM   22  N4  UNL     1      -3.366  -3.038   2.185  1.00  0.00    -0.176 NA
BRANCH  20  23
HETATM   23  O2  UNL     1      -2.298  -2.770  -0.923  1.00  0.00    -0.294 OA
ATOM     24  H2  UNL     1      -2.134  -3.701  -0.824  1.00  0.00     0.238 HD
ENDBRANCH  20  23
ENDBRANCH  15  20
BRANCH  17  25
HETATM   25  N5  UNL     1      -5.445   1.162  -0.002  1.00  0.00    -0.116 N 
HETATM   26  O3  UNL     1      -6.281   0.273   0.161  1.00  0.00    -0.532 OA
HETATM   27  O4  UNL     1      -5.849   2.459  -0.143  1.00  0.00    -0.532 OA
ENDBRANCH  17  25
BRANCH  19  28
HETATM   28  N6  UNL     1      -0.915   2.701  -0.474  1.00  0.00    -0.113 N 
HETATM   29  O5  UNL     1       0.087   2.741  -1.164  1.00  0.00    -0.532 OA
HETATM   30  O6  UNL     1      -1.322   3.905   0.089  1.00  0.00    -0.532 OA
ENDBRANCH  19  28
ENDBRANCH  12  14
ENDBRANCH   6  10
TORSDOF 6
