REMARK  6 active torsions:
REMARK  status: ('A' for Active; 'I' for Inactive)
REMARK       I    between atoms: C1_2  and  N1_3 
REMARK    1  A    between atoms: C1_2  and  C7_14 
REMARK    2  A    between atoms: N1_3  and  N2_5 
REMARK    3  A    between atoms: C2_7  and  C3_8 
REMARK    4  A    between atoms: C8_18  and  C9_19 
REMARK       I    between atoms: C9_19  and  N4_21 
REMARK    5  A    between atoms: N4_21  and  N5_23 
REMARK    6  A    between atoms: C10_25  and  C11_26 
ROOT
HETATM    1  C7  UNL     1       0.802  -0.157  -2.250  1.00  0.00     0.198 A 
HETATM    2  N3  UNL     1       0.622   0.619  -3.326  1.00  0.00    -0.238 N 
ATOM      3  H3  UNL     1       1.005   0.442  -4.255  1.00  0.00     0.197 HD
HETATM    4  O2  UNL     1      -0.121   1.636  -2.994  1.00  0.00    -0.212 OA
HETATM    5  C8  UNL     1      -0.449   1.578  -1.736  1.00  0.00     0.242 A 
HETATM    6  N6  UNL     1       0.130   0.447  -1.257  1.00  0.00    -0.311 N 
ATOM      7  H6  UNL     1       0.065   0.110  -0.296  1.00  0.00     0.170 HD
ENDROOT
BRANCH   5   8
HETATM    8  C9  UNL     1      -1.263   2.531  -1.018  1.00  0.00     0.313 C 
HETATM    9  O3  UNL     1      -1.720   3.529  -1.627  1.00  0.00    -0.262 OA
HETATM   10  N4  UNL     1      -1.580   2.399   0.366  1.00  0.00    -0.263 N 
ATOM     11  H4  UNL     1      -1.216   1.591   0.871  1.00  0.00     0.190 HD
BRANCH  10  12
HETATM   12  N5  UNL     1      -2.353   3.308   1.055  1.00  0.00    -0.308 N 
HETATM   13  C10 UNL     1      -3.537   3.038   1.418  1.00  0.00     0.127 C 
ATOM     14  H5  UNL     1      -1.962   4.223   1.279  1.00  0.00     0.186 HD
BRANCH  13  15
HETATM   15  C11 UNL     1      -4.199   1.767   1.153  1.00  0.00     0.046 A 
HETATM   16  S2  UNL     1      -3.571   0.410   0.335  1.00  0.00    -0.073 SA
HETATM   17  C12 UNL     1      -4.918  -0.630   0.442  1.00  0.00     0.098 A 
HETATM   18 CL1  UNL     1      -5.104  -2.286  -0.174  1.00  0.00    -0.074 Cl
HETATM   19  C13 UNL     1      -5.831   0.126   1.123  1.00  0.00     0.085 A 
HETATM   20 CL2  UNL     1      -7.440  -0.565   1.481  1.00  0.00    -0.080 Cl
HETATM   21  C14 UNL     1      -5.466   1.360   1.492  1.00  0.00     0.076 A 
HETATM   22 CL3  UNL     1      -6.525   2.490   2.388  1.00  0.00    -0.081 Cl
ENDBRANCH  13  15
ENDBRANCH  10  12
ENDBRANCH   5   8
BRANCH   1  23
HETATM   23  C1  UNL     1       1.552  -1.392  -2.133  1.00  0.00     0.305 C 
HETATM   24  O1  UNL     1       2.153  -1.880  -3.137  1.00  0.00    -0.263 OA
HETATM   25  N1  UNL     1       1.652  -2.112  -0.904  1.00  0.00    -0.264 N 
ATOM     26  H1  UNL     1       1.192  -1.768  -0.061  1.00  0.00     0.190 HD
BRANCH  25  27
HETATM   27  N2  UNL     1       2.386  -3.286  -0.878  1.00  0.00    -0.308 N 
HETATM   28  C2  UNL     1       3.515  -3.368  -0.320  1.00  0.00     0.129 C 
ATOM     29  H2  UNL     1       1.999  -4.116  -1.327  1.00  0.00     0.186 HD
BRANCH  28  30
HETATM   30  C3  UNL     1       4.127  -2.210   0.345  1.00  0.00     0.060 A 
HETATM   31  S1  UNL     1       3.542  -0.612   0.523  1.00  0.00    -0.098 SA
HETATM   32  C4  UNL     1       4.834   0.069   1.396  1.00  0.00     0.053 A 
HETATM   33  C5  UNL     1       5.701  -0.984   1.527  1.00  0.00     0.051 A 
HETATM   34  C6  UNL     1       5.339  -2.151   0.988  1.00  0.00     0.135 A 
HETATM   35  F1  UNL     1       6.136  -3.288   1.057  1.00  0.00    -0.205 F 
ENDBRANCH  28  30
ENDBRANCH  25  27
ENDBRANCH   1  23
TORSDOF 6
