REMARK  9 active torsions:
REMARK  status: ('A' for Active; 'I' for Inactive)
REMARK    1  A    between atoms: C2_5  and  C3_6 
REMARK    2  A    between atoms: C5_10  and  N4_11 
REMARK    3  A    between atoms: N4_11  and  C6_13 
REMARK    4  A    between atoms: C11_19  and  C12_20 
REMARK    5  A    between atoms: C12_20  and  O1_21 
REMARK    6  A    between atoms: O1_21  and  C13_22 
REMARK    7  A    between atoms: C13_22  and  O3_24 
REMARK    8  A    between atoms: O3_24  and  C14_25 
REMARK    9  A    between atoms: C14_25  and  C15_26 
ROOT
HETATM    1  C3  UNL     1      -3.344   0.010   0.314  1.00  0.00     0.058 A 
HETATM    2  C4  UNL     1      -2.516  -1.062   0.199  1.00  0.00     0.107 A 
HETATM    3  N3  UNL     1      -1.353  -0.895  -0.468  1.00  0.00    -0.350 N 
ATOM      4  H3  UNL     1      -0.726  -1.694  -0.560  1.00  0.00     0.166 HD
HETATM    5  C5  UNL     1      -0.983   0.276  -1.017  1.00  0.00     0.129 A 
HETATM    6  C16 UNL     1      -1.816   1.385  -0.911  1.00  0.00     0.103 A 
HETATM    7 CL2  UNL     1      -1.372   2.936  -1.615  1.00  0.00    -0.078 Cl
HETATM    8  C17 UNL     1      -3.004   1.220  -0.232  1.00  0.00     0.087 A 
HETATM    9  N5  UNL     1      -3.865   2.338  -0.114  1.00  0.00    -0.099 NA
ENDROOT
BRANCH   5  10
HETATM   10  N4  UNL     1       0.135   0.434  -1.658  1.00  0.00    -0.340 N 
ATOM     11  H4  UNL     1       0.375   1.340  -2.060  1.00  0.00     0.167 HD
BRANCH  10  12
HETATM   12  C6  UNL     1       1.023  -0.670  -1.795  1.00  0.00     0.043 A 
HETATM   13  C7  UNL     1       0.744  -1.597  -2.771  1.00  0.00     0.054 A 
HETATM   14  C8  UNL     1       1.574  -2.685  -2.943  1.00  0.00     0.036 A 
HETATM   15 CL1  UNL     1       1.225  -3.875  -4.189  1.00  0.00    -0.084 Cl
HETATM   16  C9  UNL     1       2.671  -2.801  -2.114  1.00  0.00     0.024 A 
HETATM   17  C10 UNL     1       2.964  -1.883  -1.133  1.00  0.00     0.013 A 
HETATM   18  C11 UNL     1       2.143  -0.806  -0.964  1.00  0.00    -0.007 A 
BRANCH  18  19
HETATM   19  C12 UNL     1       2.321   0.230   0.060  1.00  0.00     0.222 C 
BRANCH  19  20
HETATM   20  O1  UNL     1       3.445   0.148   0.857  1.00  0.00    -0.293 OA
BRANCH  20  21
HETATM   21  C13 UNL     1       4.770   0.251   0.449  1.00  0.00     0.406 C 
HETATM   22  O2  UNL     1       4.999   0.449  -0.758  1.00  0.00    -0.229 OA
BRANCH  21  23
HETATM   23  O3  UNL     1       5.829   0.142   1.322  1.00  0.00    -0.296 OA
BRANCH  23  24
HETATM   24  C14 UNL     1       7.188   0.237   0.997  1.00  0.00     0.212 C 
BRANCH  24  25
HETATM   25  C15 UNL     1       7.517   1.582   0.448  1.00  0.00     0.249 C 
HETATM   26  F1  UNL     1       7.187   2.513   1.445  1.00  0.00    -0.253 F 
ENDBRANCH  24  25
ENDBRANCH  23  24
ENDBRANCH  21  23
ENDBRANCH  20  21
ENDBRANCH  19  20
ENDBRANCH  18  19
ENDBRANCH  10  12
ENDBRANCH   5  10
BRANCH   1  27
HETATM   27  C2  UNL     1      -4.618  -0.128   1.031  1.00  0.00     0.181 A 
HETATM   28  N2  UNL     1      -5.552   0.830   1.236  1.00  0.00    -0.273 N 
HETATM   29  N1  UNL     1      -6.571   0.342   1.924  1.00  0.00    -0.239 N 
ATOM     30  H2  UNL     1      -5.480   1.793   0.906  1.00  0.00     0.189 HD
HETATM   31  C1  UNL     1      -7.774   1.045   2.349  1.00  0.00     0.183 C 
HETATM   32  C18 UNL     1      -6.271  -0.949   2.154  1.00  0.00     0.388 A 
HETATM   33  O4  UNL     1      -5.091  -1.207   1.607  1.00  0.00    -0.240 OA
HETATM   34  O5  UNL     1      -6.972  -1.800   2.783  1.00  0.00    -0.236 OA
ENDBRANCH   1  27
TORSDOF 9
