REMARK  8 active torsions:
REMARK  status: ('A' for Active; 'I' for Inactive)
REMARK    1  A    between atoms: O1_2  and  C2_3 
REMARK    2  A    between atoms: C5_8  and  C6_9 
REMARK       I    between atoms: C6_9  and  N1_11 
REMARK    3  A    between atoms: N1_11  and  C7_13 
REMARK    4  A    between atoms: C8_16  and  C9_17 
REMARK    5  A    between atoms: C10_22  and  C11_23 
REMARK    6  A    between atoms: C11_23  and  S1_24 
REMARK    7  A    between atoms: S1_24  and  C12_25 
REMARK    8  A    between atoms: C16_36  and  O4_37 
ROOT
HETATM    1  C7  UNL     1      -0.308   1.420  -0.925  1.00  0.00     0.154 A 
HETATM    2  N2  UNL     1       1.015   1.290  -1.123  1.00  0.00    -0.330 N 
ATOM      3  H2  UNL     1       1.548   2.019  -1.598  1.00  0.00     0.168 HD
HETATM    4  C8  UNL     1       1.601   0.203  -0.690  1.00  0.00     0.134 A 
HETATM    5  C14 UNL     1       0.818  -0.732  -0.059  1.00  0.00     0.191 A 
HETATM    6  F3  UNL     1       1.203  -1.946   0.480  1.00  0.00    -0.195 F 
HETATM    7  S2  UNL     1      -0.719  -0.015  -0.114  1.00  0.00    -0.021 SA
ENDROOT
BRANCH   1   8
HETATM    8  N1  UNL     1      -1.020   2.435  -1.297  1.00  0.00    -0.303 N 
HETATM    9  C6  UNL     1      -2.385   2.565  -1.089  1.00  0.00     0.264 C 
HETATM   10  O2  UNL     1      -2.964   3.631  -1.551  1.00  0.00    -0.267 OA
ATOM     11  H1  UNL     1      -0.541   3.196  -1.779  1.00  0.00     0.171 HD
BRANCH   9  12
HETATM   12  C5  UNL     1      -3.192   1.584  -0.390  1.00  0.00     0.115 A 
HETATM   13  C4  UNL     1      -3.340   1.709   0.979  1.00  0.00     0.176 A 
HETATM   14  C3  UNL     1      -4.126   0.804   1.663  1.00  0.00     0.192 A 
HETATM   15  F2  UNL     1      -2.715   2.715   1.636  1.00  0.00    -0.202 F 
HETATM   16  C2  UNL     1      -4.788  -0.246   1.038  1.00  0.00     0.146 A 
HETATM   17  F1  UNL     1      -4.292   0.902   3.023  1.00  0.00    -0.200 F 
HETATM   18  C16 UNL     1      -4.629  -0.355  -0.329  1.00  0.00     0.144 A 
HETATM   19  C15 UNL     1      -3.838   0.551  -1.038  1.00  0.00     0.171 A 
HETATM   20  F4  UNL     1      -3.665   0.467  -2.377  1.00  0.00    -0.202 F 
BRANCH  16  21
HETATM   21  O1  UNL     1      -5.557  -1.117   1.763  1.00  0.00    -0.350 OA
HETATM   22  C1  UNL     1      -6.916  -0.991   2.048  1.00  0.00     0.210 C 
ENDBRANCH  16  21
BRANCH  18  23
HETATM   23  O4  UNL     1      -5.246  -1.362  -1.036  1.00  0.00    -0.350 OA
HETATM   24  C17 UNL     1      -6.537  -1.121  -1.554  1.00  0.00     0.210 C 
ENDBRANCH  18  23
ENDBRANCH   9  12
ENDBRANCH   1   8
BRANCH   4  25
HETATM   25  C9  UNL     1       3.073  -0.048  -0.856  1.00  0.00     0.195 A 
HETATM   26  N3  UNL     1       3.982   0.748  -1.441  1.00  0.00    -0.276 N 
HETATM   27  N4  UNL     1       5.169   0.181  -1.390  1.00  0.00    -0.281 N 
ATOM     28  H3  UNL     1       3.783   1.656  -1.862  1.00  0.00     0.189 HD
HETATM   29  C10 UNL     1       5.016  -0.982  -0.771  1.00  0.00     0.150 A 
ATOM     30  H4  UNL     1       6.041   0.563  -1.757  1.00  0.00     0.189 HD
HETATM   31  O3  UNL     1       3.721  -1.094  -0.456  1.00  0.00    -0.275 OA
BRANCH  29  32
HETATM   32  C11 UNL     1       6.034  -2.002  -0.458  1.00  0.00     0.166 C 
BRANCH  32  33
HETATM   33  S1  UNL     1       6.703  -1.731   1.175  1.00  0.00    -0.109 SA
BRANCH  33  34
HETATM   34  C12 UNL     1       7.711  -0.314   1.342  1.00  0.00     0.036 C 
HETATM   35  C13 UNL     1       8.088   0.545   0.202  1.00  0.00     0.076 C 
HETATM   36  N5  UNL     1       8.149   0.001   2.523  1.00  0.00    -0.397 N 
ATOM     37  H52 UNL     1       7.889  -0.592   3.311  1.00  0.00     0.156 HD
ATOM     38  H51 UNL     1       8.738   0.828   2.621  1.00  0.00     0.156 HD
ENDBRANCH  33  34
ENDBRANCH  32  33
ENDBRANCH  29  32
ENDBRANCH   4  25
TORSDOF 8
