REMARK  8 active torsions:
REMARK  status: ('A' for Active; 'I' for Inactive)
REMARK    1  A    between atoms: O1_2  and  C2_3 
REMARK    2  A    between atoms: C6_9  and  O2_10 
REMARK    3  A    between atoms: O2_10  and  C7_11 
REMARK    4  A    between atoms: C8_14  and  C9_15 
REMARK    5  A    between atoms: C10_20  and  S1_21 
REMARK    6  A    between atoms: S1_21  and  C11_22 
REMARK    7  A    between atoms: C12_27  and  N5_28 
REMARK    8  A    between atoms: N5_28  and  N6_30 
ROOT
HETATM    1  C7  UNL     1      -0.062  -1.404  -0.445  1.00  0.00     0.245 A 
HETATM    2  N1  UNL     1       0.981  -0.785  -1.056  1.00  0.00    -0.303 N 
ATOM      3  H1  UNL     1       0.915  -0.571  -2.051  1.00  0.00     0.171 HD
HETATM    4  C8  UNL     1       2.089  -0.449  -0.394  1.00  0.00     0.177 A 
HETATM    5  N4  UNL     1       2.159  -0.739   0.916  1.00  0.00    -0.171 N 
ATOM      6  H4  UNL     1       3.000  -0.488   1.436  1.00  0.00     0.186 HD
HETATM    7  C12 UNL     1       1.143  -1.355   1.563  1.00  0.00     0.701 A 
HETATM    8  N7  UNL     1       0.047  -1.677   0.867  1.00  0.00    -0.153 N 
ATOM      9  H7  UNL     1      -0.726  -2.142   1.344  1.00  0.00     0.188 HD
ENDROOT
BRANCH   1  10
HETATM   10  O2  UNL     1      -1.210  -1.748  -1.147  1.00  0.00    -0.275 OA
BRANCH  10  11
HETATM   11  C6  UNL     1      -2.285  -0.881  -1.121  1.00  0.00     0.127 A 
HETATM   12  C5  UNL     1      -2.408   0.123  -2.067  1.00  0.00     0.091 A 
HETATM   13  C4  UNL     1      -3.448   1.014  -2.096  1.00  0.00     0.061 A 
HETATM   14 CL2  UNL     1      -1.162   0.252  -3.290  1.00  0.00    -0.079 Cl
HETATM   15  C3  UNL     1      -4.431   0.914  -1.135  1.00  0.00     0.064 A 
HETATM   16 CL1  UNL     1      -3.571   2.271  -3.310  1.00  0.00    -0.082 Cl
HETATM   17  C2  UNL     1      -4.348  -0.075  -0.168  1.00  0.00     0.094 A 
HETATM   18  C13 UNL     1      -3.287  -0.959  -0.165  1.00  0.00     0.103 A 
HETATM   19 CL4  UNL     1      -3.206  -2.200   1.067  1.00  0.00    -0.078 Cl
BRANCH  17  20
HETATM   20  O1  UNL     1      -5.335  -0.179   0.801  1.00  0.00    -0.354 OA
HETATM   21  C1  UNL     1      -6.448   0.675   0.875  1.00  0.00     0.210 C 
ENDBRANCH  17  20
ENDBRANCH  10  11
ENDBRANCH   1  10
BRANCH   4  22
HETATM   22  C9  UNL     1       3.207   0.223  -1.086  1.00  0.00     0.210 A 
HETATM   23  N2  UNL     1       3.260   0.566  -2.386  1.00  0.00    -0.274 N 
HETATM   24  N3  UNL     1       4.423   1.146  -2.622  1.00  0.00    -0.272 N 
ATOM     25  H2  UNL     1       2.525   0.405  -3.074  1.00  0.00     0.189 HD
HETATM   26  C10 UNL     1       5.117   1.174  -1.467  1.00  0.00     0.204 A 
ATOM     27  H3  UNL     1       4.740   1.509  -3.521  1.00  0.00     0.189 HD
HETATM   28  O3  UNL     1       4.348   0.608  -0.571  1.00  0.00    -0.264 OA
BRANCH  26  29
HETATM   29  S1  UNL     1       6.770   1.860  -1.237  1.00  0.00    -0.070 SA
BRANCH  29  30
HETATM   30  C11 UNL     1       7.237   1.642   0.505  1.00  0.00     0.197 C 
HETATM   31 CL3  UNL     1       6.236   2.598   1.585  1.00  0.00    -0.119 Cl
ENDBRANCH  29  30
ENDBRANCH  26  29
ENDBRANCH   4  22
BRANCH   7  32
HETATM   32  N5  UNL     1       1.263  -1.609   2.822  1.00  0.00    -0.138 N 
ATOM     33  H5  UNL     1       2.120  -1.341   3.305  1.00  0.00     0.205 HD
BRANCH  32  34
HETATM   34  N6  UNL     1       0.250  -2.239   3.534  1.00  0.00    -0.331 N 
ATOM     35  H62 UNL     1      -0.601  -2.500   3.035  1.00  0.00     0.177 HD
ATOM     36  H61 UNL     1       0.345  -2.440   4.530  1.00  0.00     0.177 HD
ENDBRANCH  32  34
ENDBRANCH   7  32
TORSDOF 8
