REMARK  9 active torsions:
REMARK  status: ('A' for Active; 'I' for Inactive)
REMARK    1  A    between atoms: C2_2  and  C3_3 
REMARK    2  A    between atoms: C3_3  and  C4_4 
REMARK    3  A    between atoms: C4_4  and  N1_5 
REMARK    4  A    between atoms: N1_5  and  C5_7 
REMARK    5  A    between atoms: C6_10  and  N3_11 
REMARK    6  A    between atoms: N3_11  and  C7_13 
REMARK    7  A    between atoms: C9_17  and  N5_18 
REMARK    8  A    between atoms: N5_18  and  N6_20 
REMARK    9  A    between atoms: N6_20  and  C10_22 
ROOT
HETATM    1  C5  UNL     1       0.647   0.169   0.553  1.00  0.00     0.707 A 
HETATM    2  N2  UNL     1       0.159   1.420   0.321  1.00  0.00    -0.022 N 
ATOM      3  H2  UNL     1       0.662   2.232   0.679  1.00  0.00     0.203 HD
HETATM    4  C6  UNL     1      -0.977   1.596  -0.374  1.00  0.00     0.707 A 
HETATM    5  N4  UNL     1      -1.596   0.491  -0.821  1.00  0.00    -0.020 N 
ATOM      6  H4  UNL     1      -2.461   0.599  -1.351  1.00  0.00     0.203 HD
HETATM    7  C9  UNL     1      -1.129  -0.752  -0.602  1.00  0.00     0.725 A 
HETATM    8  N7  UNL     1       0.009  -0.928   0.095  1.00  0.00    -0.020 N 
ATOM      9  H7  UNL     1       0.378  -1.862   0.272  1.00  0.00     0.203 HD
ENDROOT
BRANCH   1  10
HETATM   10  N1  UNL     1       1.741   0.072   1.226  1.00  0.00    -0.225 N 
ATOM     11  H1  UNL     1       2.217   0.907   1.567  1.00  0.00     0.177 HD
BRANCH  10  12
HETATM   12  C4  UNL     1       2.285  -1.249   1.490  1.00  0.00     0.138 C 
BRANCH  12  13
HETATM   13  C3  UNL     1       3.600  -1.184   2.206  1.00  0.00     0.020 C 
BRANCH  13  14
HETATM   14  C2  UNL     1       4.566  -0.413   1.319  1.00  0.00    -0.003 C 
HETATM   15  C1  UNL     1       4.694  -1.160   0.004  1.00  0.00     0.005 C 
ENDBRANCH  13  14
ENDBRANCH  12  13
ENDBRANCH  10  12
ENDBRANCH   1  10
BRANCH   4  16
HETATM   16  N3  UNL     1      -1.495   2.741  -0.630  1.00  0.00    -0.225 N 
ATOM     17  H3  UNL     1      -2.362   2.742  -1.167  1.00  0.00     0.177 HD
BRANCH  16  18
HETATM   18  C7  UNL     1      -0.984   4.007  -0.242  1.00  0.00     0.133 C 
HETATM   19  C8  UNL     1      -1.471   5.034  -1.271  1.00  0.00     0.027 C 
ENDBRANCH  16  18
ENDBRANCH   4  16
BRANCH   7  20
HETATM   20  N5  UNL     1      -1.716  -1.822  -1.026  1.00  0.00    -0.135 N 
ATOM     21  H5  UNL     1      -1.340  -2.753  -0.845  1.00  0.00     0.205 HD
BRANCH  20  22
HETATM   22  N6  UNL     1      -2.917  -1.623  -1.760  1.00  0.00    -0.323 N 
ATOM     23  H6  UNL     1      -2.877  -1.227  -2.699  1.00  0.00     0.180 HD
BRANCH  22  24
HETATM   24  C10 UNL     1      -4.194  -1.978  -1.186  1.00  0.00     0.135 C 
HETATM   25  C11 UNL     1      -4.177  -3.468  -0.877  1.00  0.00     0.028 C 
ENDBRANCH  22  24
ENDBRANCH  20  22
ENDBRANCH   7  20
TORSDOF 9
