REMARK  7 active torsions:
REMARK  status: ('A' for Active; 'I' for Inactive)
REMARK       I    between atoms: C2_4  and  N2_5 
REMARK       I    between atoms: C2_4  and  N4_9 
REMARK    1  A    between atoms: N4_9  and  C4_11 
REMARK    2  A    between atoms: C4_11  and  C5_12 
REMARK    3  A    between atoms: N5_16  and  C9_17 
REMARK    4  A    between atoms: C9_17  and  C10_18 
REMARK    5  A    between atoms: C10_18  and  C11_19 
REMARK    6  A    between atoms: C11_19  and  C12_20 
REMARK    7  A    between atoms: C12_20  and  N6_21 
ROOT
HETATM    1  C1  UNL     1      -3.772   2.986  -0.404  1.00  0.00     0.165 C 
HETATM    2  N1  UNL     1      -4.622   1.826  -0.638  1.00  0.00    -0.230 N 
ATOM      3  H1  UNL     1      -5.494   1.944  -1.154  1.00  0.00     0.177 HD
HETATM    4  C2  UNL     1      -4.300   0.659  -0.211  1.00  0.00     0.682 C 
HETATM    5  N2  UNL     1      -5.123  -0.455  -0.438  1.00  0.00    -0.126 N 
ATOM      6  H2  UNL     1      -6.046  -0.286  -0.837  1.00  0.00     0.197 HD
HETATM    7  C3  UNL     1      -4.774  -1.772  -0.159  1.00  0.00     0.196 C 
HETATM    8  N3  UNL     1      -4.498  -2.852   0.067  1.00  0.00    -0.171 NA
HETATM    9  N4  UNL     1      -3.077   0.546   0.492  1.00  0.00    -0.224 N 
ATOM     10  H4  UNL     1      -2.997   0.803   1.476  1.00  0.00     0.177 HD
ENDROOT
BRANCH   9  11
HETATM   11  C4  UNL     1      -1.959   0.052  -0.252  1.00  0.00     0.173 C 
BRANCH  11  12
HETATM   12  C5  UNL     1      -0.625   0.132   0.383  1.00  0.00     0.241 C 
HETATM   13  C6  UNL     1      -0.402  -0.560   1.664  1.00  0.00     0.039 C 
HETATM   14  C7  UNL     1       0.258  -1.886   1.293  1.00  0.00     0.032 C 
HETATM   15  C8  UNL     1       0.260  -1.912  -0.209  1.00  0.00     0.273 C 
HETATM   16  N5  UNL     1       0.305  -0.520  -0.562  1.00  0.00     0.094 N 
BRANCH  16  17
HETATM   17  C9  UNL     1       1.604   0.077  -0.336  1.00  0.00     0.273 C 
BRANCH  17  18
HETATM   18  C10 UNL     1       2.636  -0.469  -1.279  1.00  0.00     0.032 C 
BRANCH  18  19
HETATM   19  C11 UNL     1       3.965   0.181  -1.013  1.00  0.00     0.029 C 
BRANCH  19  20
HETATM   20  C12 UNL     1       4.503  -0.028   0.366  1.00  0.00     0.229 C 
BRANCH  20  21
HETATM   21  N6  UNL     1       5.796   0.637   0.432  1.00  0.00    -0.079 N 
ATOM     22  H63 UNL     1       6.440   0.331  -0.298  1.00  0.00     0.274 HD
ATOM     23  H62 UNL     1       5.753   1.621   0.166  1.00  0.00     0.274 HD
ATOM     24  H61 UNL     1       6.163   0.494   1.373  1.00  0.00     0.274 HD
ENDBRANCH  20  21
ENDBRANCH  19  20
ENDBRANCH  18  19
ENDBRANCH  17  18
ENDBRANCH  16  17
ENDBRANCH  11  12
ENDBRANCH   9  11
TORSDOF 7
