REMARK  8 active torsions:
REMARK  status: ('A' for Active; 'I' for Inactive)
REMARK    1  A    between atoms: C6_8  and  N2_9 
REMARK    2  A    between atoms: N2_9  and  C7_11 
REMARK    3  A    between atoms: C7_11  and  C8_12 
REMARK    4  A    between atoms: C8_12  and  C9_13 
REMARK    5  A    between atoms: C9_13  and  C10_14 
REMARK    6  A    between atoms: C10_14  and  N3_15 
REMARK    7  A    between atoms: C11_21  and  N5_22 
REMARK    8  A    between atoms: N5_22  and  C12_24 
ROOT
HETATM    1  C1  UNL     1      -4.585  -1.415  -1.280  1.00  0.00     0.018 C 
HETATM    2  C2  UNL     1      -3.493  -1.077  -0.900  1.00  0.00    -0.072 C 
HETATM    3  C3  UNL     1      -2.164  -0.710  -0.435  1.00  0.00     0.084 A 
HETATM    4  C4  UNL     1      -1.185  -1.717  -0.456  1.00  0.00     0.045 A 
HETATM    5  C5  UNL     1      -1.534  -3.075  -0.946  1.00  0.00     0.070 C 
HETATM    6  N1  UNL     1       0.039  -1.427  -0.032  1.00  0.00    -0.194 N 
ATOM      7  H1  UNL     1       0.762  -2.147  -0.040  1.00  0.00     0.184 HD
HETATM    8  C6  UNL     1       0.336  -0.178   0.412  1.00  0.00     0.679 A 
HETATM    9  N4  UNL     1      -0.586   0.759   0.428  1.00  0.00    -0.175 N 
ATOM     10  H4  UNL     1      -0.324   1.684   0.769  1.00  0.00     0.186 HD
HETATM   11  C11 UNL     1      -1.903   0.562   0.006  1.00  0.00     0.141 A 
ENDROOT
BRANCH  11  12
HETATM   12  N5  UNL     1      -2.696   1.485   0.046  1.00  0.00    -0.355 N 
ATOM     13  H5  UNL     1      -2.181   2.281   0.422  1.00  0.00     0.166 HD
BRANCH  12  14
HETATM   14  C12 UNL     1      -3.953   1.930  -0.184  1.00  0.00     0.058 C 
HETATM   15  C13 UNL     1      -4.950   1.738   0.972  1.00  0.00     0.054 C 
ENDBRANCH  12  14
ENDBRANCH  11  12
BRANCH   8  16
HETATM   16  N2  UNL     1       1.526   0.000   0.794  1.00  0.00    -0.226 N 
ATOM     17  H2  UNL     1       2.117  -0.828   0.719  1.00  0.00     0.177 HD
BRANCH  16  18
HETATM   18  C7  UNL     1       2.192   1.146   1.310  1.00  0.00     0.138 C 
BRANCH  18  19
HETATM   19  C8  UNL     1       3.301   1.558   0.408  1.00  0.00     0.022 C 
BRANCH  19  20
HETATM   20  C9  UNL     1       4.410   0.634   0.165  1.00  0.00     0.029 C 
BRANCH  20  21
HETATM   21  C10 UNL     1       4.145  -0.689  -0.449  1.00  0.00     0.229 C 
BRANCH  21  22
HETATM   22  N3  UNL     1       5.446  -1.394  -0.600  1.00  0.00    -0.079 N 
ATOM     23  H33 UNL     1       6.133  -0.848  -1.120  1.00  0.00     0.274 HD
ATOM     24  H32 UNL     1       5.962  -1.462   0.277  1.00  0.00     0.274 HD
ATOM     25  H31 UNL     1       5.264  -2.304  -1.022  1.00  0.00     0.274 HD
ENDBRANCH  21  22
ENDBRANCH  20  21
ENDBRANCH  19  20
ENDBRANCH  18  19
ENDBRANCH  16  18
ENDBRANCH   8  16
TORSDOF 8
