REMARK  5 active torsions:
REMARK  status: ('A' for Active; 'I' for Inactive)
REMARK    1  A    between atoms: N1_1  and  C1_5 
REMARK    2  A    between atoms: C8_12  and  N2_13 
REMARK       I    between atoms: N2_13  and  C9_15 
REMARK    3  A    between atoms: C9_15  and  C10_17 
REMARK    4  A    between atoms: C10_17  and  N3_18 
REMARK    5  A    between atoms: N3_18  and  C11_21 
ROOT
HETATM    1  N2  UNL     1      -0.375  -0.452  -0.640  1.00  0.00    -0.350 N 
ATOM      2  H2  UNL     1      -0.305  -0.794  -1.598  1.00  0.00     0.163 HD
HETATM    3  C9  UNL     1       0.820  -0.369   0.101  1.00  0.00     0.244 C 
HETATM    4  O1  UNL     1       0.889   0.032   1.291  1.00  0.00    -0.272 OA
ENDROOT
BRANCH   1   5
HETATM    5  C8  UNL     1      -1.675  -0.100  -0.168  1.00  0.00     0.036 C 
HETATM    6  C7  UNL     1      -2.050  -0.932   1.040  1.00  0.00     0.035 C 
HETATM    7  C5  UNL     1      -3.470  -0.646   1.475  1.00  0.00    -0.009 C 
HETATM    8  C4  UNL     1      -3.528   0.793   1.937  1.00  0.00     0.009 C 
HETATM    9  C6  UNL     1      -4.394  -0.925   0.337  1.00  0.00     0.043 C 
HETATM   10  C3  UNL     1      -3.128   1.668   0.798  1.00  0.00    -0.009 C 
HETATM   11  C2  UNL     1      -4.143   1.480  -0.320  1.00  0.00     0.043 C 
HETATM   12  C16 UNL     1      -1.772   1.364   0.244  1.00  0.00     0.035 C 
HETATM   13  C1  UNL     1      -4.078   0.041  -0.778  1.00  0.00     0.126 C 
HETATM   14  C17 UNL     1      -2.698  -0.269  -1.282  1.00  0.00     0.069 C 
BRANCH  13  15
HETATM   15  N1  UNL     1      -5.024  -0.115  -1.863  1.00  0.00    -0.070 N 
ATOM     16  H13 UNL     1      -5.968   0.180  -1.613  1.00  0.00     0.275 HD
ATOM     17  H12 UNL     1      -4.872   0.550  -2.621  1.00  0.00     0.275 HD
ATOM     18  H11 UNL     1      -4.980  -1.086  -2.172  1.00  0.00     0.275 HD
ENDBRANCH  13  15
ENDBRANCH   1   5
BRANCH   3  19
HETATM   19  C10 UNL     1       2.128  -0.771  -0.519  1.00  0.00     0.335 C 
BRANCH  19  20
HETATM   20  N3  UNL     1       3.230  -0.618   0.395  1.00  0.00    -0.062 N 
ATOM     21  H32 UNL     1       3.290   0.322   0.785  1.00  0.00     0.278 HD
ATOM     22  H31 UNL     1       3.088  -1.121   1.271  1.00  0.00     0.278 HD
BRANCH  20  23
HETATM   23  C11 UNL     1       4.444  -1.019  -0.291  1.00  0.00     0.192 C 
HETATM   24  C12 UNL     1       5.617  -1.101   0.677  1.00  0.00     0.039 C 
HETATM   25  C13 UNL     1       5.935   0.358   0.869  1.00  0.00     0.081 C 
HETATM   26  C14 UNL     1       5.914   0.896  -0.526  1.00  0.00     0.245 C 
HETATM   27  F1  UNL     1       7.164   0.737  -1.095  1.00  0.00    -0.206 F 
HETATM   28  F2  UNL     1       5.581   2.256  -0.541  1.00  0.00    -0.206 F 
HETATM   29  C15 UNL     1       4.862   0.085  -1.242  1.00  0.00     0.112 C 
ENDBRANCH  20  23
ENDBRANCH  19  20
ENDBRANCH   3  19
TORSDOF 5
