REMARK  4 active torsions:
REMARK  status: ('A' for Active; 'I' for Inactive)
REMARK       I    between atoms: C1_2  and  N1_3 
REMARK       I    between atoms: C1_2  and  N2_6 
REMARK    1  A    between atoms: N2_6  and  C2_8 
REMARK    2  A    between atoms: C2_8  and  C3_9 
REMARK    3  A    between atoms: C3_9  and  C4_10 
REMARK    4  A    between atoms: C11_18  and  O2_19 
ROOT
HETATM    1  C4  UNL     1       0.421   0.249   0.539  1.00  0.00     0.036 C 
HETATM    2  C5  UNL     1       1.858  -0.170   0.765  1.00  0.00     0.011 C 
HETATM    3  C6  UNL     1       2.011  -0.979   2.045  1.00  0.00     0.001 C 
HETATM    4  C7  UNL     1       1.182  -2.219   1.875  1.00  0.00     0.006 C 
HETATM    5  C8  UNL     1      -0.279  -1.872   1.702  1.00  0.00     0.053 C 
HETATM    6  C9  UNL     1      -0.476  -0.946   0.503  1.00  0.00    -0.010 C 
HETATM    7  N3  UNL     1      -1.762  -0.875   0.112  1.00  0.00    -0.367 N 
HETATM    8  C10 UNL     1      -2.349  -0.651  -1.108  1.00  0.00     0.155 C 
HETATM    9  C11 UNL     1      -3.592   0.183  -0.768  1.00  0.00     0.139 C 
HETATM   10  C12 UNL     1      -3.561   0.321   0.763  1.00  0.00     0.074 C 
HETATM   11  C13 UNL     1      -2.818  -0.992   1.080  1.00  0.00     0.183 C 
HETATM   12 CL2  UNL     1      -3.963  -2.276   0.763  1.00  0.00    -0.102 Cl
ENDROOT
BRANCH   1  13
HETATM   13  C3  UNL     1       0.314   0.995  -0.750  1.00  0.00     0.055 C 
BRANCH  13  14
HETATM   14  C2  UNL     1       1.122   2.211  -0.974  1.00  0.00     0.066 C 
BRANCH  14  15
HETATM   15  N2  UNL     1       2.526   2.145  -1.058  1.00  0.00    -0.322 N 
HETATM   16  C1  UNL     1       3.149   1.374  -2.093  1.00  0.00     0.334 C 
HETATM   17  O1  UNL     1       2.426   0.749  -2.937  1.00  0.00    -0.246 OA
HETATM   18  N1  UNL     1       4.555   1.269  -2.231  1.00  0.00    -0.250 N 
HETATM   19 CL1  UNL     1       5.249   0.314  -3.500  1.00  0.00     0.015 Cl
ATOM     20  H1  UNL     1       5.165   1.760  -1.577  1.00  0.00     0.185 HD
ATOM     21  H2  UNL     1       3.101   2.647  -0.381  1.00  0.00     0.169 HD
ENDBRANCH  14  15
ENDBRANCH  13  14
ENDBRANCH   1  13
BRANCH   9  22
HETATM   22  O2  UNL     1      -3.609   1.402  -1.389  1.00  0.00    -0.394 OA
ATOM     23  H2  UNL     1      -4.378   1.918  -1.179  1.00  0.00     0.210 HD
ENDBRANCH   9  22
TORSDOF 4
