REMARK  4 active torsions:
REMARK  status: ('A' for Active; 'I' for Inactive)
REMARK    1  A    between atoms: N2_6  and  C4_8 
REMARK    2  A    between atoms: C4_8  and  C5_9 
REMARK    3  A    between atoms: C5_9  and  C6_10 
REMARK    4  A    between atoms: C6_10  and  N3_11 
REMARK       I    between atoms: N3_11  and  C7_13 
REMARK       I    between atoms: C7_13  and  N5_17 
ROOT
HETATM    1  C4  UNL     1      -0.794   0.042   0.934  1.00  0.00     0.125 C 
ENDROOT
BRANCH   1   2
HETATM    2  N2  UNL     1      -1.597  -1.093   0.522  1.00  0.00    -0.356 N 
HETATM    3  C3  UNL     1      -2.855  -0.919   0.269  1.00  0.00     0.225 A 
HETATM    4  N1  UNL     1      -3.540   0.256   0.349  1.00  0.00    -0.323 N 
HETATM    5  O1  UNL     1      -3.732  -1.807  -0.110  1.00  0.00    -0.270 OA
HETATM    6  C2  UNL     1      -4.830   0.067   0.016  1.00  0.00     0.050 A 
ATOM      7  H1  UNL     1      -3.133   1.151   0.622  1.00  0.00     0.169 HD
HETATM    8  C1  UNL     1      -5.938   1.055  -0.038  1.00  0.00     0.072 C 
HETATM    9  C10 UNL     1      -4.917  -1.283  -0.275  1.00  0.00     0.147 A 
HETATM   10 BR1  UNL     1      -6.491  -2.213  -0.822  1.00  0.00    -0.021 Br
ATOM     11  H2  UNL     1      -1.176  -2.018   0.433  1.00  0.00     0.163 HD
ENDBRANCH   1   2
BRANCH   1  12
HETATM   12  C5  UNL     1       0.521  -0.399   1.538  1.00  0.00     0.040 C 
BRANCH  12  13
HETATM   13  C6  UNL     1       1.377  -1.185   0.606  1.00  0.00     0.139 C 
BRANCH  13  14
HETATM   14  N3  UNL     1       1.764  -0.469  -0.567  1.00  0.00    -0.227 N 
HETATM   15  C7  UNL     1       2.666   0.613  -0.527  1.00  0.00     0.668 C 
HETATM   16  N4  UNL     1       2.247   1.790  -0.308  1.00  0.00    -0.235 N 
HETATM   17  N5  UNL     1       4.056   0.362  -0.739  1.00  0.00    -0.227 N 
ATOM     18  H42 UNL     1       1.254   1.969  -0.157  1.00  0.00     0.174 HD
ATOM     19  H41 UNL     1       2.900   2.573  -0.279  1.00  0.00     0.174 HD
HETATM   20  C8  UNL     1       4.481   0.117  -2.115  1.00  0.00     0.168 C 
HETATM   21  C9  UNL     1       4.961   0.358   0.371  1.00  0.00     0.168 C 
ATOM     22  H3  UNL     1       1.374  -0.751  -1.466  1.00  0.00     0.177 HD
ENDBRANCH  13  14
ENDBRANCH  12  13
ENDBRANCH   1  12
TORSDOF 4
