REMARK  4 active torsions:
REMARK  status: ('A' for Active; 'I' for Inactive)
REMARK    1  A    between atoms: C4_9  and  N3_10 
REMARK    2  A    between atoms: N3_10  and  S1_12 
REMARK    3  A    between atoms: S1_12  and  N4_15 
REMARK    4  A    between atoms: N4_15  and  C5_17 
ROOT
HETATM    1  N3  UNL     1       1.179   0.292  -0.915  1.00  0.00    -0.291 N 
ATOM      2  H3  UNL     1       1.380   1.067  -0.283  1.00  0.00     0.174 HD
ENDROOT
BRANCH   1   3
HETATM    3  C4  UNL     1       2.114  -0.757  -1.147  1.00  0.00     0.161 C 
HETATM    4  C3  UNL     1       2.516  -1.327   0.156  1.00  0.00     0.098 C 
HETATM    5  N1  UNL     1       3.611  -0.803   0.864  1.00  0.00    -0.352 N 
HETATM    6  N2  UNL     1       1.857  -2.312   0.647  1.00  0.00    -0.387 N 
HETATM    7  C2  UNL     1       4.327   0.190   0.455  1.00  0.00    -0.016 C 
ATOM      8  H1  UNL     1       3.855  -1.234   1.756  1.00  0.00     0.166 HD
HETATM    9  C1  UNL     1       5.458   0.651   1.293  1.00  0.00     0.063 C 
HETATM   10  C12 UNL     1       4.003   0.848  -0.846  1.00  0.00     0.054 C 
HETATM   11  C11 UNL     1       3.391  -0.179  -1.772  1.00  0.00     0.039 C 
ATOM     12  H22 UNL     1       2.134  -2.705   1.546  1.00  0.00     0.157 HD
ATOM     13  H21 UNL     1       1.062  -2.692   0.133  1.00  0.00     0.157 HD
ENDBRANCH   1   3
BRANCH   1  14
HETATM   14  S1  UNL     1      -0.287   0.172  -1.755  1.00  0.00     0.316 S 
HETATM   15  O1  UNL     1      -0.798   1.591  -1.982  1.00  0.00    -0.183 OA
HETATM   16  O2  UNL     1       0.002  -0.368  -3.131  1.00  0.00    -0.183 OA
BRANCH  14  17
HETATM   17  N4  UNL     1      -1.523  -0.681  -0.961  1.00  0.00    -0.292 N 
ATOM     18  H4  UNL     1      -1.681  -1.686  -1.028  1.00  0.00     0.174 HD
BRANCH  17  19
HETATM   19  C5  UNL     1      -2.319   0.239  -0.173  1.00  0.00     0.166 C 
HETATM   20  C6  UNL     1      -3.755   0.268  -0.662  1.00  0.00     0.032 C 
HETATM   21  C7  UNL     1      -4.653  -0.683   0.091  1.00  0.00     0.002 C 
HETATM   22  C8  UNL     1      -4.678  -0.372   1.575  1.00  0.00     0.006 C 
HETATM   23  C9  UNL     1      -3.461   0.438   1.980  1.00  0.00     0.081 C 
HETATM   24  C10 UNL     1      -2.218  -0.072   1.310  1.00  0.00     0.264 C 
HETATM   25  F1  UNL     1      -2.082  -1.430   1.528  1.00  0.00    -0.204 F 
HETATM   26  F2  UNL     1      -1.149   0.592   1.830  1.00  0.00    -0.204 F 
ENDBRANCH  17  19
ENDBRANCH  14  17
ENDBRANCH   1  14
TORSDOF 4
