REMARK  5 active torsions:
REMARK  status: ('A' for Active; 'I' for Inactive)
REMARK    1  A    between atoms: C1_2  and  N2_4 
REMARK    2  A    between atoms: N2_4  and  C2_6 
REMARK    3  A    between atoms: C2_6  and  C3_7 
REMARK    4  A    between atoms: C3_7  and  N3_8 
REMARK    5  A    between atoms: N3_8  and  C4_10 
ROOT
HETATM    1  C4  UNL     1      -0.601   0.953   0.587  1.00  0.00     0.084 C 
HETATM    2  C5  UNL     1      -1.187  -0.180   1.362  1.00  0.00     0.009 C 
HETATM    3  C6  UNL     1      -1.410  -1.452   0.633  1.00  0.00     0.011 C 
HETATM    4  C7  UNL     1      -2.263  -1.213  -0.608  1.00  0.00    -0.013 C 
HETATM    5  C8  UNL     1      -3.622  -0.721  -0.153  1.00  0.00     0.009 C 
HETATM    6  C9  UNL     1      -3.396   0.572   0.594  1.00  0.00    -0.013 C 
HETATM    7  C10 UNL     1      -2.573   0.297   1.830  1.00  0.00     0.011 C 
HETATM    8  C11 UNL     1      -2.739   1.565  -0.338  1.00  0.00     0.011 C 
HETATM    9  C12 UNL     1      -1.324   1.075  -0.716  1.00  0.00     0.009 C 
HETATM   10  C13 UNL     1      -1.539  -0.205  -1.441  1.00  0.00     0.011 C 
ENDROOT
BRANCH   1  11
HETATM   11  N3  UNL     1       0.806   1.046   0.574  1.00  0.00    -0.415 N 
ATOM     12  H3  UNL     1       1.252   1.861   0.994  1.00  0.00     0.153 HD
BRANCH  11  13
HETATM   13  C3  UNL     1       1.607   0.055   0.003  1.00  0.00     0.133 C 
BRANCH  13  14
HETATM   14  C2  UNL     1       3.066   0.468   0.283  1.00  0.00     0.141 C 
BRANCH  14  15
HETATM   15  N2  UNL     1       3.983  -0.492  -0.248  1.00  0.00    -0.368 N 
ATOM     16  H2  UNL     1       3.661  -1.291  -0.794  1.00  0.00     0.161 HD
BRANCH  15  17
HETATM   17  C1  UNL     1       5.368  -0.283   0.019  1.00  0.00     0.181 C 
HETATM   18  N1  UNL     1       6.348  -1.167  -0.455  1.00  0.00    -0.070 NA
HETATM   19  S1  UNL     1       5.897   1.007   0.903  1.00  0.00    -0.044 SA
ENDBRANCH  15  17
ENDBRANCH  14  15
ENDBRANCH  13  14
ENDBRANCH  11  13
ENDBRANCH   1  11
TORSDOF 5
