REMARK  6 active torsions:
REMARK  status: ('A' for Active; 'I' for Inactive)
REMARK    1  A    between atoms: C2_2  and  O1_3 
REMARK    2  A    between atoms: O1_3  and  C3_4 
REMARK    3  A    between atoms: C6_7  and  N1_8 
REMARK    4  A    between atoms: N1_8  and  C7_10 
REMARK    5  A    between atoms: C7_10  and  N2_12 
REMARK    6  A    between atoms: N2_12  and  C8_14 
ROOT
HETATM    1  N1  UNL     1      -1.331  -0.174  -0.345  1.00  0.00    -0.363 N 
ATOM      2  H1  UNL     1      -1.947  -0.471   0.412  1.00  0.00     0.162 HD
ENDROOT
BRANCH   1   3
HETATM    3  C6  UNL     1       0.075  -0.100  -0.073  1.00  0.00     0.084 C 
HETATM    4  C5  UNL     1       0.895  -1.033  -0.878  1.00  0.00     0.028 C 
HETATM    5  C4  UNL     1       2.054  -1.678  -0.195  1.00  0.00     0.034 C 
HETATM    6  C3  UNL     1       2.721  -0.850   0.856  1.00  0.00     0.121 C 
HETATM    7  C12 UNL     1       1.763   0.019   1.629  1.00  0.00     0.034 C 
HETATM    8  C11 UNL     1       0.324  -0.414   1.397  1.00  0.00     0.028 C 
BRANCH   6   9
HETATM    9  O1  UNL     1       3.681  -0.011   0.299  1.00  0.00    -0.386 OA
BRANCH   9  10
HETATM   10  C2  UNL     1       4.948  -0.231   0.822  1.00  0.00     0.163 C 
HETATM   11  C1  UNL     1       5.892   0.735   0.141  1.00  0.00     0.033 C 
ENDBRANCH   9  10
ENDBRANCH   6   9
ENDBRANCH   1   3
BRANCH   1  12
HETATM   12  C7  UNL     1      -1.916   0.135  -1.584  1.00  0.00     0.168 C 
HETATM   13  S1  UNL     1      -0.953   0.619  -2.804  1.00  0.00    -0.041 SA
BRANCH  12  14
HETATM   14  N2  UNL     1      -3.303   0.037  -1.775  1.00  0.00    -0.359 N 
ATOM     15  H2  UNL     1      -3.652   0.273  -2.704  1.00  0.00     0.162 HD
BRANCH  14  16
HETATM   16  C8  UNL     1      -4.283  -0.359  -0.806  1.00  0.00     0.135 C 
HETATM   17  C9  UNL     1      -4.438   0.503   0.417  1.00  0.00     0.259 C 
HETATM   18  N3  UNL     1      -5.891   0.282   0.314  1.00  0.00    -0.071 N 
HETATM   19  C10 UNL     1      -5.695   0.150  -1.115  1.00  0.00     0.259 C 
ATOM     20  H32 UNL     1      -6.355  -0.448   0.854  1.00  0.00     0.277 HD
ATOM     21  H31 UNL     1      -6.557   0.953   0.697  1.00  0.00     0.277 HD
ENDBRANCH  14  16
ENDBRANCH  12  14
ENDBRANCH   1  12
TORSDOF 6
