REMARK  5 active torsions:
REMARK  status: ('A' for Active; 'I' for Inactive)
REMARK    1  A    between atoms: C7_8  and  C8_9 
REMARK    2  A    between atoms: C8_9  and  C9_10 
REMARK    3  A    between atoms: C9_10  and  C10_11 
REMARK    4  A    between atoms: C10_11  and  N1_12 
REMARK    5  A    between atoms: N1_12  and  C11_14 
ROOT
HETATM    1  C1  UNL     1      -4.128   1.236   1.523  1.00  0.00     0.078 C 
HETATM    2  C2  UNL     1      -3.363   0.283   0.597  1.00  0.00     0.158 C 
HETATM    3  C3  UNL     1      -4.224  -0.977   0.525  1.00  0.00     0.078 C 
HETATM    4  O1  UNL     1      -3.281   0.798  -0.668  1.00  0.00    -0.348 OA
HETATM    5  C4  UNL     1      -1.972   1.215  -0.892  1.00  0.00     0.154 C 
HETATM    6  C5  UNL     1      -1.405   0.535  -2.101  1.00  0.00     0.035 C 
HETATM    7  C6  UNL     1       0.034   0.253  -1.666  1.00  0.00     0.010 C 
HETATM    8  C7  UNL     1      -0.200  -0.246  -0.260  1.00  0.00     0.017 C 
HETATM    9  C12 UNL     1      -1.181   0.739   0.314  1.00  0.00     0.158 C 
HETATM   10  O2  UNL     1      -2.105   0.045   1.075  1.00  0.00    -0.348 OA
ENDROOT
BRANCH   8  11
HETATM   11  C8  UNL     1       1.045  -0.414   0.531  1.00  0.00     0.009 C 
BRANCH  11  12
HETATM   12  C9  UNL     1       1.921  -1.430  -0.179  1.00  0.00     0.020 C 
BRANCH  12  13
HETATM   13  C10 UNL     1       3.205  -1.680   0.533  1.00  0.00     0.121 C 
BRANCH  13  14
HETATM   14  N1  UNL     1       4.062  -0.557   0.704  1.00  0.00    -0.369 N 
ATOM     15  H1  UNL     1       4.187  -0.193   1.648  1.00  0.00     0.161 HD
BRANCH  14  16
HETATM   16  C11 UNL     1       4.749   0.085  -0.346  1.00  0.00     0.180 C 
HETATM   17  N2  UNL     1       5.598   1.207  -0.171  1.00  0.00    -0.070 NA
HETATM   18  S1  UNL     1       4.587  -0.482  -1.864  1.00  0.00    -0.044 SA
ENDBRANCH  14  16
ENDBRANCH  13  14
ENDBRANCH  12  13
ENDBRANCH  11  12
ENDBRANCH   8  11
TORSDOF 5
