REMARK  4 active torsions:
REMARK  status: ('A' for Active; 'I' for Inactive)
REMARK    1  A    between atoms: C2_2  and  N1_3 
REMARK    2  A    between atoms: C6_7  and  N2_8 
REMARK       I    between atoms: N2_8  and  C7_10 
REMARK       I    between atoms: C7_10  and  N4_14 
REMARK    3  A    between atoms: N4_14  and  C8_16 
REMARK    4  A    between atoms: C8_16  and  C9_17 
ROOT
HETATM    1  N2  UNL     1      -0.090  -0.419  -0.235  1.00  0.00    -0.221 N 
ATOM      2  H2  UNL     1      -0.522   0.200  -0.921  1.00  0.00     0.178 HD
HETATM    3  C7  UNL     1      -0.569  -1.730  -0.140  1.00  0.00     0.667 C 
HETATM    4  N3  UNL     1       0.105  -2.658   0.427  1.00  0.00    -0.235 N 
ATOM      5  H31 UNL     1      -0.244  -3.614   0.496  1.00  0.00     0.174 HD
ATOM      6  H32 UNL     1       1.016  -2.393   0.801  1.00  0.00     0.174 HD
HETATM    7  N4  UNL     1      -1.849  -2.102  -0.665  1.00  0.00    -0.226 N 
ATOM      8  H4  UNL     1      -1.934  -2.499  -1.601  1.00  0.00     0.177 HD
ENDROOT
BRANCH   1   9
HETATM    9  C6  UNL     1       0.984   0.114   0.582  1.00  0.00     0.127 C 
HETATM   10  C5  UNL     1       0.970   1.617   0.361  1.00  0.00     0.029 C 
HETATM   11  C4  UNL     1       2.289   2.268   0.591  1.00  0.00     0.032 C 
HETATM   12  C3  UNL     1       3.422   1.537  -0.111  1.00  0.00     0.272 C 
HETATM   13  N1  UNL     1       3.461   0.211   0.465  1.00  0.00     0.090 N 
HETATM   14  C14 UNL     1       2.276  -0.497   0.097  1.00  0.00     0.297 C 
BRANCH  13  15
HETATM   15  C2  UNL     1       4.583  -0.497  -0.143  1.00  0.00     0.268 C 
HETATM   16  C1  UNL     1       5.918   0.051   0.262  1.00  0.00     0.037 C 
ENDBRANCH  13  15
ENDBRANCH   1   9
BRANCH   7  17
HETATM   17  C8  UNL     1      -3.013  -1.902   0.160  1.00  0.00     0.143 C 
BRANCH  17  18
HETATM   18  C9  UNL     1      -3.308  -0.432   0.295  1.00  0.00     0.013 A 
HETATM   19  C10 UNL     1      -3.614   0.246  -1.086  1.00  0.00     0.017 A 
HETATM   20  C11 UNL     1      -4.517   0.242   0.016  1.00  0.00    -0.035 A 
HETATM   21  C12 UNL     1      -5.226   1.306   0.675  1.00  0.00     0.011 A 
HETATM   22  C13 UNL     1      -5.895  -0.001   0.180  1.00  0.00     0.011 A 
ENDBRANCH  17  18
ENDBRANCH   7  17
TORSDOF 4
