REMARK  4 active torsions:
REMARK  status: ('A' for Active; 'I' for Inactive)
REMARK    1  A    between atoms: C2_2  and  C3_3 
REMARK    2  A    between atoms: C5_5  and  C6_6 
REMARK    3  A    between atoms: C6_6  and  N1_9 
REMARK       I    between atoms: C9_11  and  N3_13 
REMARK    4  A    between atoms: N3_13  and  C10_15 
ROOT
HETATM    1  N1  UNL     1       0.134  -0.499   0.004  1.00  0.00    -0.353 N 
ATOM      2  H1  UNL     1       0.113  -1.105   0.824  1.00  0.00     0.163 HD
HETATM    3  C9  UNL     1      -0.985  -0.234  -0.533  1.00  0.00     0.185 C 
HETATM    4  N2  UNL     1      -1.165   0.586  -1.676  1.00  0.00    -0.064 NA
HETATM    5  N3  UNL     1      -2.153  -0.799   0.051  1.00  0.00    -0.358 N 
ATOM      6  H3  UNL     1      -2.453  -1.723  -0.260  1.00  0.00     0.162 HD
ENDROOT
BRANCH   1   7
HETATM    7  C6  UNL     1       1.431  -0.036  -0.420  1.00  0.00     0.043 C 
HETATM    8  C7  UNL     1       1.666  -0.551  -1.843  1.00  0.00     0.042 C 
HETATM    9  C8  UNL     1       1.392   1.475  -0.364  1.00  0.00     0.042 C 
BRANCH   7  10
HETATM   10  C5  UNL     1       2.486  -0.600   0.455  1.00  0.00     0.006 C 
HETATM   11  C3  UNL     1       3.785  -0.480   0.253  1.00  0.00    -0.086 C 
HETATM   12  C4  UNL     1       4.423   0.236  -0.878  1.00  0.00     0.043 C 
BRANCH  11  13
HETATM   13  C2  UNL     1       4.714  -1.112   1.236  1.00  0.00     0.029 C 
HETATM   14  C1  UNL     1       5.613  -0.057   1.877  1.00  0.00     0.010 C 
ENDBRANCH  11  13
ENDBRANCH   7  10
ENDBRANCH   1   7
BRANCH   5  15
HETATM   15  C10 UNL     1      -2.929  -0.132   1.057  1.00  0.00     0.101 C 
HETATM   16  C11 UNL     1      -4.091  -1.018   1.447  1.00  0.00     0.028 C 
HETATM   17  C12 UNL     1      -5.226  -0.935   0.473  1.00  0.00     0.021 C 
HETATM   18  C13 UNL     1      -4.893  -0.249  -0.804  1.00  0.00     0.114 C 
HETATM   19  N4  UNL     1      -4.184   0.977  -0.677  1.00  0.00    -0.419 N 
HETATM   20  C14 UNL     1      -3.519   1.176   0.570  1.00  0.00     0.139 C 
ATOM     21  H4  UNL     1      -4.153   1.668  -1.427  1.00  0.00     0.153 HD
ENDBRANCH   5  15
TORSDOF 4
