REMARK  3 active torsions:
REMARK  status: ('A' for Active; 'I' for Inactive)
REMARK    1  A    between atoms: O1_2  and  C2_3 
REMARK    2  A    between atoms: C2_3  and  C3_5 
REMARK    3  A    between atoms: C7_9  and  C9_11 
ROOT
HETATM    1  C3  UNL     1       0.934  -0.495   0.046  1.00  0.00     0.111 C 
HETATM    2  C4  UNL     1       1.573  -1.745  -0.576  1.00  0.00     0.049 C 
HETATM    3  C5  UNL     1       0.224   0.232  -1.065  1.00  0.00     0.041 C 
HETATM    4  C6  UNL     1      -1.159  -0.319  -1.235  1.00  0.00     0.015 C 
HETATM    5  C7  UNL     1      -1.959  -0.107   0.030  1.00  0.00    -0.016 C 
HETATM    6  C8  UNL     1      -2.588   1.283   0.023  1.00  0.00     0.018 C 
HETATM    7  C10 UNL     1      -1.129  -0.210   1.271  1.00  0.00     0.125 C 
HETATM    8  N1  UNL     1       0.100  -0.921   1.104  1.00  0.00    -0.404 N 
ATOM      9  H1  UNL     1       0.361  -1.694   1.716  1.00  0.00     0.154 HD
ENDROOT
BRANCH   1  10
HETATM   10  C2  UNL     1       2.065   0.363   0.484  1.00  0.00     0.286 C 
HETATM   11  O2  UNL     1       2.199   0.638   1.702  1.00  0.00    -0.262 OA
BRANCH  10  12
HETATM   12  O1  UNL     1       2.998   0.886  -0.395  1.00  0.00    -0.325 OA
HETATM   13  C1  UNL     1       4.054   1.693   0.063  1.00  0.00     0.213 C 
ENDBRANCH  10  12
ENDBRANCH   1  10
BRANCH   5  14
HETATM   14  C9  UNL     1      -3.106  -1.097   0.012  1.00  0.00     0.125 C 
HETATM   15 CL1  UNL     1      -4.079  -0.758  -1.438  1.00  0.00    -0.130 Cl
ENDBRANCH   5  14
TORSDOF 3
