REMARK  2 active torsions:
REMARK  status: ('A' for Active; 'I' for Inactive)
REMARK    1  A    between atoms: C2_2  and  C4_5 
REMARK    2  A    between atoms: C5_12  and  N4_13 
ROOT
HETATM    1  C4  UNL     1      -1.215   0.966  -0.043  1.00  0.00     0.095 A 
HETATM    2  N1  UNL     1      -1.816   2.133   0.340  1.00  0.00    -0.285 N 
ATOM      3  H1  UNL     1      -2.819   2.313   0.293  1.00  0.00     0.188 HD
HETATM    4  N2  UNL     1      -0.916   2.994   0.780  1.00  0.00    -0.241 N 
ATOM      5  H2  UNL     1      -1.092   3.937   1.126  1.00  0.00     0.208 HD
HETATM    6  N3  UNL     1       0.252   2.396   0.684  1.00  0.00    -0.269 N 
ATOM      7  H3  UNL     1       1.142   2.817   0.952  1.00  0.00     0.190 HD
HETATM    8  C5  UNL     1       0.111   1.132   0.176  1.00  0.00     0.145 A 
ENDROOT
BRANCH   8   9
HETATM    9  N4  UNL     1       1.165   0.246  -0.055  1.00  0.00    -0.364 N 
HETATM   10  C6  UNL     1       1.436  -1.010   0.577  1.00  0.00     0.124 C 
HETATM   11  C7  UNL     1       2.964  -1.008   0.713  1.00  0.00     0.021 C 
HETATM   12  C8  UNL     1       3.460  -0.073  -0.371  1.00  0.00     0.021 C 
HETATM   13  C9  UNL     1       2.218   0.457  -1.024  1.00  0.00     0.124 C 
ENDBRANCH   8   9
BRANCH   1  14
HETATM   14  C2  UNL     1      -1.966  -0.175  -0.564  1.00  0.00     0.077 C 
HETATM   15  C1  UNL     1      -3.472   0.150  -0.647  1.00  0.00     0.039 C 
HETATM   16  C3  UNL     1      -1.926  -1.360   0.411  1.00  0.00     0.039 C 
HETATM   17 CL1  UNL     1      -1.420  -0.698  -2.155  1.00  0.00    -0.113 Cl
ENDBRANCH   1  14
TORSDOF 2
