REMARK  1 active torsions:
REMARK  status: ('A' for Active; 'I' for Inactive)
REMARK       I    between atoms: N1_2  and  C2_4 
REMARK    1  A    between atoms: C2_4  and  C3_6 
ROOT
HETATM    1  C3  UNL     1       1.047  -0.777  -0.424  1.00  0.00     0.206 C 
HETATM    2  C4  UNL     1       1.300  -1.997  -1.274  1.00  0.00     0.063 C 
HETATM    3  O2  UNL     1       0.478   0.261  -1.155  1.00  0.00    -0.216 OA
HETATM    4  O3  UNL     1      -0.192   0.945  -0.251  1.00  0.00    -0.225 OA
HETATM    5  C5  UNL     1      -1.043  -0.020   0.273  1.00  0.00     0.130 C 
HETATM    6  C6  UNL     1      -2.041  -0.408  -0.760  1.00  0.00     0.044 C 
HETATM    7  C7  UNL     1      -3.258   0.436  -0.438  1.00  0.00     0.003 C 
HETATM    8  C8  UNL     1      -3.029   1.060   0.900  1.00  0.00     0.003 C 
HETATM    9  C9  UNL     1      -1.784   0.452   1.488  1.00  0.00     0.044 C 
HETATM   10  C10 UNL     1      -0.050  -1.130   0.594  1.00  0.00     0.254 C 
HETATM   11  F1  UNL     1      -0.648  -2.319   0.296  1.00  0.00    -0.242 F 
ENDROOT
BRANCH   1  12
HETATM   12  C2  UNL     1       2.257  -0.289   0.250  1.00  0.00     0.258 C 
HETATM   13  N1  UNL     1       2.673   1.049   0.098  1.00  0.00    -0.363 N 
HETATM   14  C1  UNL     1       3.860   1.589   0.740  1.00  0.00     0.149 C 
ATOM     15  H1  UNL     1       2.115   1.668  -0.490  1.00  0.00     0.162 HD
HETATM   16  O1  UNL     1       2.911  -1.084   0.962  1.00  0.00    -0.270 OA
ENDBRANCH   1  12
TORSDOF 1
