REMARK  4 active torsions:
REMARK  status: ('A' for Active; 'I' for Inactive)
REMARK    1  A    between atoms: C2_2  and  C3_3 
REMARK    2  A    between atoms: C3_3  and  N1_4 
REMARK    3  A    between atoms: N1_4  and  C4_7 
REMARK    4  A    between atoms: C6_11  and  N4_12 
ROOT
HETATM    1  C4  UNL     1      -0.131   0.086  -0.056  1.00  0.00     0.325 C 
HETATM    2  N2  UNL     1      -0.640   1.194   0.753  1.00  0.00    -0.113 NA
HETATM    3  N3  UNL     1      -1.576   1.881   0.021  1.00  0.00    -0.144 NA
HETATM    4  C5  UNL     1      -1.774   1.187  -1.231  1.00  0.00     0.166 C 
HETATM    5  C6  UNL     1      -1.404  -0.230  -0.843  1.00  0.00     0.246 C 
ENDROOT
BRANCH   1   6
HETATM    6  N1  UNL     1       0.262  -1.024   0.777  1.00  0.00    -0.051 N 
ATOM      7  H12 UNL     1       0.184  -1.919   0.294  1.00  0.00     0.279 HD
ATOM      8  H11 UNL     1      -0.408  -1.206   1.524  1.00  0.00     0.279 HD
BRANCH   6   9
HETATM    9  C3  UNL     1       1.588  -0.785   1.277  1.00  0.00     0.261 C 
BRANCH   9  10
HETATM   10  C2  UNL     1       2.646  -0.854   0.243  1.00  0.00    -0.010 C 
HETATM   11  C1  UNL     1       3.396   0.199   0.011  1.00  0.00     0.008 C 
ENDBRANCH   9  10
ENDBRANCH   6   9
ENDBRANCH   1   6
BRANCH   5  12
HETATM   12  N4  UNL     1      -2.439  -0.753  -0.005  1.00  0.00    -0.070 N 
ATOM     13  H43 UNL     1      -2.116  -1.567   0.517  1.00  0.00     0.274 HD
ATOM     14  H42 UNL     1      -2.633  -0.127   0.776  1.00  0.00     0.274 HD
ATOM     15  H41 UNL     1      -3.288  -0.964  -0.530  1.00  0.00     0.274 HD
ENDBRANCH   5  12
TORSDOF 4
