REMARK  3 active torsions:
REMARK  status: ('A' for Active; 'I' for Inactive)
REMARK    1  A    between atoms: N2_4  and  O1_6 
REMARK    2  A    between atoms: O1_6  and  C1_7 
REMARK    3  A    between atoms: C1_7  and  C2_8 
ROOT
HETATM    1  C2  UNL     1       0.118  -0.078  -0.621  1.00  0.00     0.154 A 
HETATM    2  N3  UNL     1       0.296   1.192  -0.212  1.00  0.00    -0.334 N 
ATOM      3  H3  UNL     1      -0.445   1.870  -0.389  1.00  0.00     0.168 HD
HETATM    4  C3  UNL     1       1.410   1.605   0.420  1.00  0.00     0.185 A 
HETATM    5  N4  UNL     1       2.381   0.729   0.656  1.00  0.00    -0.318 N 
ATOM      6  H4  UNL     1       3.237   1.013   1.133  1.00  0.00     0.170 HD
HETATM    7  C4  UNL     1       2.207  -0.543   0.249  1.00  0.00     0.224 A 
HETATM    8  N5  UNL     1       3.164  -1.375   0.489  1.00  0.00    -0.365 N 
ATOM      9  H51 UNL     1       3.032  -2.338   0.181  1.00  0.00     0.159 HD
ATOM     10  H52 UNL     1       4.017  -1.085   0.967  1.00  0.00     0.159 HD
HETATM   11  O2  UNL     1       1.094  -0.921  -0.374  1.00  0.00    -0.264 OA
ENDROOT
BRANCH   1  12
HETATM   12  C1  UNL     1      -1.083  -0.546  -1.308  1.00  0.00     0.287 C 
BRANCH  12  13
HETATM   13  O1  UNL     1      -2.096  -1.019  -0.478  1.00  0.00    -0.257 OA
BRANCH  13  14
HETATM   14  N2  UNL     1      -2.742  -0.327   0.487  1.00  0.00    -0.214 N 
HETATM   15  N1  UNL     1      -3.633   0.527   0.177  1.00  0.00    -0.326 N 
ATOM     16  H12 UNL     1      -3.849   0.678  -0.808  1.00  0.00     0.178 HD
ATOM     17  H11 UNL     1      -4.120   1.049   0.905  1.00  0.00     0.178 HD
ATOM     18  H2  UNL     1      -2.514  -0.490   1.468  1.00  0.00     0.215 HD
ENDBRANCH  13  14
ENDBRANCH  12  13
ENDBRANCH   1  12
TORSDOF 3
