REMARK  4 active torsions:
REMARK  status: ('A' for Active; 'I' for Inactive)
REMARK    1  A    between atoms: N1_2  and  C2_4 
REMARK    2  A    between atoms: C4_6  and  C5_7 
REMARK    3  A    between atoms: C5_7  and  N2_8 
REMARK    4  A    between atoms: C7_13  and  N3_14 
ROOT
HETATM    1  C2  UNL     1      -1.115  -0.562  -0.394  1.00  0.00     0.106 C 
HETATM    2  C3  UNL     1      -0.177  -1.033   0.721  1.00  0.00     0.033 C 
HETATM    3  C4  UNL     1       1.164  -0.762   0.049  1.00  0.00     0.015 C 
HETATM    4  C6  UNL     1       0.934   0.388  -0.914  1.00  0.00     0.041 C 
HETATM    5  C7  UNL     1      -0.512   0.803  -0.666  1.00  0.00     0.206 C 
ENDROOT
BRANCH   3   6
HETATM    6  C5  UNL     1       2.232  -0.368   1.034  1.00  0.00     0.234 C 
BRANCH   6   7
HETATM    7  N2  UNL     1       3.445  -0.146   0.232  1.00  0.00    -0.079 N 
ATOM      8  H23 UNL     1       3.701  -0.941  -0.353  1.00  0.00     0.274 HD
ATOM      9  H22 UNL     1       3.318   0.525  -0.525  1.00  0.00     0.274 HD
ATOM     10  H21 UNL     1       4.169   0.121   0.899  1.00  0.00     0.274 HD
ENDBRANCH   6   7
ENDBRANCH   3   6
BRANCH   1  11
HETATM   11  N1  UNL     1      -2.481  -0.552  -0.030  1.00  0.00    -0.419 N 
HETATM   12  C1  UNL     1      -2.879   0.306   1.020  1.00  0.00     0.140 C 
ATOM     13  H1  UNL     1      -3.158  -1.145  -0.510  1.00  0.00     0.153 HD
ENDBRANCH   1  11
BRANCH   5  14
HETATM   14  N3  UNL     1      -1.088   1.461  -1.808  1.00  0.00    -0.073 N 
ATOM     15  H33 UNL     1      -1.030   0.868  -2.636  1.00  0.00     0.274 HD
ATOM     16  H32 UNL     1      -2.102   1.524  -1.717  1.00  0.00     0.274 HD
ATOM     17  H31 UNL     1      -0.683   2.379  -1.991  1.00  0.00     0.274 HD
ENDBRANCH   5  14
TORSDOF 4
