REMARK  5 active torsions:
REMARK  status: ('A' for Active; 'I' for Inactive)
REMARK    1  A    between atoms: N1_1  and  C1_5 
REMARK    2  A    between atoms: C1_5  and  C2_6 
REMARK    3  A    between atoms: C2_6  and  N2_7 
REMARK    4  A    between atoms: C4_9  and  N3_10 
REMARK    5  A    between atoms: N3_10  and  N4_11 
ROOT
HETATM    1  N2  UNL     1       0.471  -0.289   0.385  1.00  0.00    -0.231 NA
HETATM    2  C3  UNL     1      -0.588   0.705   0.355  1.00  0.00     0.133 C 
HETATM    3  C4  UNL     1      -1.815  -0.134   0.496  1.00  0.00     0.129 C 
HETATM    4  C5  UNL     1      -1.422  -1.401  -0.254  1.00  0.00     0.153 C 
HETATM    5  N5  UNL     1       0.012  -1.289  -0.467  1.00  0.00    -0.163 NA
ENDROOT
BRANCH   1   6
HETATM    6  C2  UNL     1       1.675   0.281  -0.169  1.00  0.00     0.137 C 
BRANCH   6   7
HETATM    7  C1  UNL     1       2.817  -0.706  -0.165  1.00  0.00     0.245 C 
BRANCH   7   8
HETATM    8  N1  UNL     1       3.998  -0.084  -0.730  1.00  0.00    -0.078 N 
ATOM      9  H13 UNL     1       3.824   0.300  -1.659  1.00  0.00     0.274 HD
ATOM     10  H12 UNL     1       4.239   0.786  -0.255  1.00  0.00     0.274 HD
ATOM     11  H11 UNL     1       4.770  -0.751  -0.727  1.00  0.00     0.274 HD
ENDBRANCH   7   8
ENDBRANCH   6   7
ENDBRANCH   1   6
BRANCH   3  12
HETATM   12  N3  UNL     1      -2.994   0.474  -0.075  1.00  0.00    -0.141 NA
BRANCH  12  13
HETATM   13  N4  UNL     1      -3.237   1.676   0.555  1.00  0.00    -0.348 N 
ATOM     14  H42 UNL     1      -2.664   2.062   1.306  1.00  0.00     0.172 HD
ATOM     15  H41 UNL     1      -4.070   2.105   0.152  1.00  0.00     0.172 HD
ENDBRANCH  12  13
ENDBRANCH   3  12
TORSDOF 5
