REMARK  5 active torsions:
REMARK  status: ('A' for Active; 'I' for Inactive)
REMARK    1  A    between atoms: C1_4  and  S1_6 
REMARK    2  A    between atoms: S1_6  and  C2_7 
REMARK    3  A    between atoms: C2_7  and  C3_8 
REMARK    4  A    between atoms: C3_8  and  C4_9 
REMARK    5  A    between atoms: C4_9  and  N3_11 
ROOT
HETATM    1  C3  UNL     1      -0.457  -0.265  -0.907  1.00  0.00     0.080 C 
ENDROOT
BRANCH   1   2
HETATM    2  C2  UNL     1      -0.721   1.183  -0.572  1.00  0.00     0.089 C 
BRANCH   2   3
HETATM    3  S1  UNL     1      -1.751   1.265   0.932  1.00  0.00    -0.097 SA
BRANCH   3   4
HETATM    4  C1  UNL     1      -3.371   0.596   0.630  1.00  0.00     0.147 C 
HETATM    5  N1  UNL     1      -3.695   0.138  -0.525  1.00  0.00    -0.382 N 
ATOM      6  H12 UNL     1      -4.624  -0.246  -0.698  1.00  0.00     0.157 HD
ATOM      7  H11 UNL     1      -3.023   0.150  -1.293  1.00  0.00     0.157 HD
HETATM    8  N2  UNL     1      -4.303   0.579   1.695  1.00  0.00    -0.075 NA
ENDBRANCH   3   4
ENDBRANCH   2   3
ENDBRANCH   1   2
BRANCH   1   9
HETATM    9  C4  UNL     1       0.271  -0.964   0.199  1.00  0.00     0.080 C 
HETATM   10  S2  UNL     1      -0.600  -1.887   1.264  1.00  0.00    -0.065 SA
BRANCH   9  11
HETATM   11  N3  UNL     1       1.664  -0.851   0.345  1.00  0.00    -0.345 N 
HETATM   12  C5  UNL     1       2.531  -0.119  -0.492  1.00  0.00     0.075 C 
HETATM   13  C6  UNL     1       3.387   0.785   0.335  1.00  0.00     0.120 C 
HETATM   14  S3  UNL     1       3.435  -0.088   1.951  1.00  0.00    -0.144 SA
HETATM   15  C7  UNL     1       2.398  -1.497   1.438  1.00  0.00     0.202 C 
ENDBRANCH   9  11
ENDBRANCH   1   9
TORSDOF 5
