REMARK  4 active torsions:
REMARK  status: ('A' for Active; 'I' for Inactive)
REMARK    1  A    between atoms: O1_2  and  C2_3 
REMARK    2  A    between atoms: C7_10  and  C8_11 
REMARK    3  A    between atoms: C11_14  and  C12_15 
REMARK    4  A    between atoms: C12_15  and  N2_16 
ROOT
HETATM    1  C2  UNL     1      -0.917   0.765  -0.017  1.00  0.00     0.105 A 
HETATM    2  C3  UNL     1       0.433   0.891  -0.281  1.00  0.00     0.085 A 
HETATM    3  C4  UNL     1       1.114  -0.201  -0.761  1.00  0.00     0.044 A 
HETATM    4  N1  UNL     1       0.498  -1.350  -0.975  1.00  0.00    -0.360 N 
ATOM      5  H1  UNL     1       1.049  -2.129  -1.336  1.00  0.00     0.165 HD
HETATM    6  C5  UNL     1      -0.845  -1.560  -0.740  1.00  0.00     0.015 A 
HETATM    7  C6  UNL     1      -1.432  -2.858  -1.141  1.00  0.00     0.069 C 
HETATM    8  C7  UNL     1      -1.548  -0.467  -0.247  1.00  0.00     0.004 A 
HETATM    9  C11 UNL     1       2.568  -0.024  -1.001  1.00  0.00     0.065 C 
HETATM   10  C13 UNL     1       2.709   1.324  -1.689  1.00  0.00     0.032 C 
HETATM   11  C14 UNL     1       2.391   2.419  -0.725  1.00  0.00     0.121 C 
HETATM   12  N3  UNL     1       1.144   2.137  -0.059  1.00  0.00    -0.386 N 
ATOM     13  H3  UNL     1       0.753   2.828   0.582  1.00  0.00     0.159 HD
ENDROOT
BRANCH   9  14
HETATM   14  C12 UNL     1       3.362  -0.092   0.273  1.00  0.00     0.240 C 
BRANCH  14  15
HETATM   15  N2  UNL     1       3.153  -1.398   0.903  1.00  0.00    -0.079 N 
ATOM     16  H23 UNL     1       2.165  -1.602   1.052  1.00  0.00     0.274 HD
ATOM     17  H22 UNL     1       3.367  -2.171   0.272  1.00  0.00     0.274 HD
ATOM     18  H21 UNL     1       3.692  -1.444   1.768  1.00  0.00     0.274 HD
ENDBRANCH  14  15
ENDBRANCH   9  14
BRANCH   1  19
HETATM   19  O1  UNL     1      -1.606   1.870   0.457  1.00  0.00    -0.353 OA
HETATM   20  C1  UNL     1      -1.660   2.263   1.802  1.00  0.00     0.210 C 
ENDBRANCH   1  19
BRANCH   8  21
HETATM   21  C8  UNL     1      -2.981  -0.572  -0.027  1.00  0.00     0.023 A 
HETATM   22  C9  UNL     1      -3.491  -1.921   0.432  1.00  0.00     0.010 A 
HETATM   23  C10 UNL     1      -3.777  -0.598   1.172  1.00  0.00     0.010 A 
ENDBRANCH   8  21
TORSDOF 4
