REMARK  2 active torsions:
REMARK  status: ('A' for Active; 'I' for Inactive)
REMARK    1  A    between atoms: O1_1  and  C1_3 
REMARK    2  A    between atoms: C1_3  and  C2_4 
ROOT
HETATM    1  C2  UNL     1       1.719  -0.663   0.631  1.00  0.00     0.325 C 
HETATM    2  N1  UNL     1       1.401   0.343   1.553  1.00  0.00    -0.306 N 
ATOM      3  H1  UNL     1       2.012   0.636   2.316  1.00  0.00     0.182 HD
HETATM    4  N2  UNL     1       0.309   0.822   1.331  1.00  0.00    -0.303 N 
ATOM      5  H2  UNL     1      -0.122   1.568   1.878  1.00  0.00     0.182 HD
HETATM    6  C3  UNL     1      -0.285   0.198   0.203  1.00  0.00     0.212 C 
HETATM    7  C4  UNL     1      -1.398  -0.733   0.528  1.00  0.00     0.063 C 
HETATM    8  C5  UNL     1      -2.669  -0.155  -0.042  1.00  0.00     0.004 C 
HETATM    9  C6  UNL     1      -2.289   1.019  -0.889  1.00  0.00     0.004 C 
HETATM   10  C7  UNL     1      -0.831   1.283  -0.694  1.00  0.00     0.063 C 
HETATM   11  N3  UNL     1       0.830  -0.480  -0.480  1.00  0.00    -0.023 N 
ATOM     12  H31 UNL     1       0.588  -1.322  -1.002  1.00  0.00     0.282 HD
ATOM     13  H32 UNL     1       1.220   0.005  -1.288  1.00  0.00     0.282 HD
ENDROOT
BRANCH   1  14
HETATM   14  C1  UNL     1       3.172  -0.695   0.232  1.00  0.00     0.220 C 
BRANCH  14  15
HETATM   15  O1  UNL     1       3.591   0.478  -0.355  1.00  0.00    -0.397 OA
ATOM     16  H1  UNL     1       4.507   0.458  -0.607  1.00  0.00     0.209 HD
ENDBRANCH  14  15
ENDBRANCH   1  14
TORSDOF 2
