REMARK  6 active torsions:
REMARK  status: ('A' for Active; 'I' for Inactive)
REMARK    1  A    between atoms: C2_2  and  O1_4 
REMARK    2  A    between atoms: O1_4  and  C4_5 
REMARK    3  A    between atoms: C4_5  and  N1_6 
REMARK    4  A    between atoms: C4_5  and  N2_9 
REMARK    5  A    between atoms: N2_9  and  N3_11 
REMARK    6  A    between atoms: N3_11  and  C5_13 
ROOT
HETATM    1  C4  UNL     1       1.005  -0.624   0.638  1.00  0.00     0.232 C 
ENDROOT
BRANCH   1   2
HETATM    2  O1  UNL     1       0.190   0.022  -0.282  1.00  0.00    -0.317 OA
BRANCH   2   3
HETATM    3  C2  UNL     1      -1.022   0.630   0.119  1.00  0.00     0.123 C 
HETATM    4  C1  UNL     1      -1.976  -0.371   0.735  1.00  0.00     0.040 C 
HETATM    5  C3  UNL     1      -1.676   1.197  -1.121  1.00  0.00     0.040 C 
ENDBRANCH   2   3
ENDBRANCH   1   2
BRANCH   1   6
HETATM    6  N1  UNL     1       0.803  -0.353   1.884  1.00  0.00    -0.364 N 
ATOM      7  H12 UNL     1       0.093   0.295   2.226  1.00  0.00     0.159 HD
ATOM      8  H11 UNL     1       1.402  -0.828   2.560  1.00  0.00     0.159 HD
ENDBRANCH   1   6
BRANCH   1   9
HETATM    9  N2  UNL     1       1.986  -1.520   0.165  1.00  0.00    -0.265 N 
ATOM     10  H2  UNL     1       1.902  -2.521   0.340  1.00  0.00     0.190 HD
BRANCH   9  11
HETATM   11  N3  UNL     1       3.090  -1.004  -0.557  1.00  0.00    -0.298 N 
ATOM     12  H3  UNL     1       3.494  -1.487  -1.359  1.00  0.00     0.187 HD
BRANCH  11  13
HETATM   13  C5  UNL     1       3.543   0.115  -0.127  1.00  0.00     0.188 C 
HETATM   14  S1  UNL     1       3.883   1.688   0.003  1.00  0.00    -0.073 SA
ENDBRANCH  11  13
ENDBRANCH   9  11
ENDBRANCH   1   9
TORSDOF 6
