REMARK  2 active torsions:
REMARK  status: ('A' for Active; 'I' for Inactive)
REMARK    1  A    between atoms: S1_2  and  N1_3 
REMARK    2  A    between atoms: C3_8  and  N2_9 
ROOT
HETATM    1  C1  UNL     1      -1.902  -1.306  -0.696  1.00  0.00     0.090 C 
HETATM    2  S1  UNL     1      -1.046   0.119   0.203  1.00  0.00    -0.179 SA
HETATM    3  C2  UNL     1       0.016  -0.882   1.264  1.00  0.00     0.148 C 
HETATM    4  S2  UNL     1       1.227  -1.538  -0.002  1.00  0.00    -0.126 SA
HETATM    5  C3  UNL     1       1.718   0.156  -0.502  1.00  0.00     0.254 C 
HETATM    6  C4  UNL     1       0.420   0.962  -0.534  1.00  0.00     0.117 C 
ENDROOT
BRANCH   2   7
HETATM    7  N1  UNL     1      -2.208   1.313  -0.235  1.00  0.00    -0.390 N 
ATOM      8  H12 UNL     1      -3.062   1.256  -0.790  1.00  0.00     0.162 HD
ATOM      9  H11 UNL     1      -1.746   2.082   0.250  1.00  0.00     0.162 HD
ENDBRANCH   2   7
BRANCH   5  10
HETATM   10  N2  UNL     1       2.540   0.650   0.616  1.00  0.00    -0.066 N 
ATOM     11  H23 UNL     1       2.078   0.602   1.524  1.00  0.00     0.275 HD
ATOM     12  H22 UNL     1       3.324   0.043   0.855  1.00  0.00     0.275 HD
ATOM     13  H21 UNL     1       2.813   1.593   0.338  1.00  0.00     0.275 HD
ENDBRANCH   5  10
TORSDOF 2
