REMARK  2 active torsions:
REMARK  status: ('A' for Active; 'I' for Inactive)
REMARK    1  A    between atoms: C2_2  and  O1_5 
REMARK    2  A    between atoms: O1_5  and  C5_6 
ROOT
HETATM    1  C5  UNL     1       0.806  -0.444  -0.120  1.00  0.00     0.331 C 
HETATM    2  O2  UNL     1       1.233  -1.149  -1.254  1.00  0.00    -0.247 OA
HETATM    3  N1  UNL     1       2.489  -0.817  -1.496  1.00  0.00    -0.092 NA
HETATM    4  C6  UNL     1       3.140  -0.495  -0.238  1.00  0.00     0.200 C 
HETATM    5  C7  UNL     1       2.019   0.134   0.487  1.00  0.00     0.054 C 
HETATM    6  N2  UNL     1       2.104   0.979   1.417  1.00  0.00    -0.401 N 
ATOM      7  H21 UNL     1       2.943   1.379   1.837  1.00  0.00     0.155 HD
ATOM      8  H22 UNL     1       1.329   1.414   1.918  1.00  0.00     0.155 HD
ENDROOT
BRANCH   1   9
HETATM    9  O1  UNL     1      -0.102   0.500  -0.546  1.00  0.00    -0.344 OA
BRANCH   9  10
HETATM   10  C2  UNL     1      -1.380   0.327  -0.070  1.00  0.00     0.053 C 
HETATM   11  C1  UNL     1      -1.984  -1.004  -0.477  1.00  0.00     0.045 C 
HETATM   12  C3  UNL     1      -2.227   1.432  -0.673  1.00  0.00     0.045 C 
HETATM   13  C4  UNL     1      -1.502   0.446   1.425  1.00  0.00     0.045 C 
ENDBRANCH   9  10
ENDBRANCH   1   9
TORSDOF 2
