REMARK  4 active torsions:
REMARK  status: ('A' for Active; 'I' for Inactive)
REMARK    1  A    between atoms: C2_2  and  S1_3 
REMARK    2  A    between atoms: S1_3  and  C3_4 
REMARK    3  A    between atoms: C3_4  and  O1_6 
REMARK    4  A    between atoms: O1_6  and  C4_7 
ROOT
HETATM    1  O1  UNL     1       1.426   0.168   1.086  1.00  0.00    -0.264 OA
ENDROOT
BRANCH   1   2
HETATM    2  C3  UNL     1       0.188  -0.177   0.504  1.00  0.00     0.183 C 
HETATM    3  S2  UNL     1      -0.362  -1.696   0.750  1.00  0.00    -0.045 SA
BRANCH   2   4
HETATM    4  S1  UNL     1      -0.739   0.982  -0.456  1.00  0.00    -0.093 SA
BRANCH   4   5
HETATM    5  C2  UNL     1      -2.274   0.193  -1.023  1.00  0.00     0.077 C 
HETATM    6  C1  UNL     1      -3.211  -0.119   0.110  1.00  0.00     0.016 C 
ENDBRANCH   4   5
ENDBRANCH   2   4
ENDBRANCH   1   2
BRANCH   1   7
HETATM    7  C4  UNL     1       2.535   0.014   0.229  1.00  0.00     0.231 C 
HETATM    8  N1  UNL     1       2.545  -0.991  -0.573  1.00  0.00    -0.367 N 
ATOM      9  H12 UNL     1       1.755  -1.636  -0.561  1.00  0.00     0.159 HD
ATOM     10  H11 UNL     1       3.347  -1.102  -1.193  1.00  0.00     0.159 HD
HETATM   11  N2  UNL     1       3.629   0.908   0.213  1.00  0.00    -0.056 NA
ENDBRANCH   1   7
TORSDOF 4
