REMARK  4 active torsions:
REMARK  status: ('A' for Active; 'I' for Inactive)
REMARK    1  A    between atoms: C1_4  and  C2_5 
REMARK    2  A    between atoms: C1_4  and  N2_7 
REMARK    3  A    between atoms: N2_7  and  C3_9 
REMARK    4  A    between atoms: C4_12  and  C5_13 
ROOT
HETATM    1  C3  UNL     1       1.111  -1.691  -0.077  1.00  0.00     0.150 A 
HETATM    2  N3  UNL     1       0.177  -0.742  -0.048  1.00  0.00    -0.335 N 
ATOM      3  H3  UNL     1       0.376   0.195  -0.399  1.00  0.00     0.168 HD
HETATM    4  C4  UNL     1      -0.991  -1.033   0.436  1.00  0.00     0.058 A 
HETATM    5  C9  UNL     1      -1.197  -2.312   0.893  1.00  0.00     0.084 A 
HETATM    6  S2  UNL     1       0.321  -3.038   0.598  1.00  0.00    -0.063 SA
ENDROOT
BRANCH   1   7
HETATM    7  N2  UNL     1       2.344  -1.614  -0.518  1.00  0.00    -0.326 N 
ATOM      8  H2  UNL     1       2.940  -2.441  -0.469  1.00  0.00     0.169 HD
BRANCH   7   9
HETATM    9  C1  UNL     1       2.871  -0.421  -1.058  1.00  0.00     0.090 C 
HETATM   10  N1  UNL     1       2.430   0.163  -2.100  1.00  0.00    -0.388 N 
ATOM     11  H12 UNL     1       2.811   1.025  -2.490  1.00  0.00     0.157 HD
ATOM     12  H11 UNL     1       1.639  -0.245  -2.598  1.00  0.00     0.157 HD
BRANCH   9  13
HETATM   13  C2  UNL     1       4.034   0.178  -0.326  1.00  0.00     0.190 C 
HETATM   14 CL1  UNL     1       3.606   0.578   1.336  1.00  0.00    -0.122 Cl
ENDBRANCH   9  13
ENDBRANCH   7   9
ENDBRANCH   1   7
BRANCH   4  15
HETATM   15  C5  UNL     1      -2.099  -0.035   0.510  1.00  0.00     0.032 A 
HETATM   16  C6  UNL     1      -2.092   1.277   0.111  1.00  0.00     0.021 A 
HETATM   17  C7  UNL     1      -3.226   1.974   0.284  1.00  0.00     0.008 A 
HETATM   18  C8  UNL     1      -4.289   1.317   0.843  1.00  0.00     0.050 A 
HETATM   19  S1  UNL     1      -3.671  -0.251   1.108  1.00  0.00    -0.100 SA
ENDBRANCH   4  15
TORSDOF 4
