REMARK  3 active torsions:
REMARK  status: ('A' for Active; 'I' for Inactive)
REMARK    1  A    between atoms: N1_1  and  C1_4 
REMARK    2  A    between atoms: C3_8  and  C4_9 
REMARK    3  A    between atoms: C10_18  and  C11_19 
ROOT
HETATM    1  C1  UNL     1      -1.764  -1.796  -0.335  1.00  0.00     0.129 A 
HETATM    2  N2  UNL     1      -0.711  -2.579  -0.608  1.00  0.00    -0.349 N 
ATOM      3  H2  UNL     1      -0.847  -3.561  -0.849  1.00  0.00     0.167 HD
HETATM    4  C2  UNL     1       0.550  -2.045  -0.560  1.00  0.00     0.120 A 
HETATM    5  C3  UNL     1       0.740  -0.729  -0.237  1.00  0.00     0.058 A 
HETATM    6  N3  UNL     1      -0.363   0.011   0.028  1.00  0.00    -0.349 N 
ATOM      7  H3  UNL     1      -0.235   0.994   0.269  1.00  0.00     0.166 HD
HETATM    8  C10 UNL     1      -1.608  -0.470  -0.008  1.00  0.00     0.111 A 
ENDROOT
BRANCH   5   9
HETATM    9  C4  UNL     1       2.063  -0.099  -0.169  1.00  0.00    -0.008 A 
HETATM   10  C5  UNL     1       2.149   1.257   0.171  1.00  0.00     0.017 A 
HETATM   11  C6  UNL     1       3.358   1.883   0.246  1.00  0.00     0.043 A 
HETATM   12  C7  UNL     1       4.527   1.213  -0.006  1.00  0.00     0.116 A 
HETATM   13  F1  UNL     1       5.750   1.833   0.067  1.00  0.00    -0.206 F 
HETATM   14  C8  UNL     1       4.419  -0.120  -0.338  1.00  0.00     0.043 A 
HETATM   15  C9  UNL     1       3.217  -0.784  -0.424  1.00  0.00     0.017 A 
ENDBRANCH   5   9
BRANCH   8  16
HETATM   16  C11 UNL     1      -2.770   0.382   0.290  1.00  0.00     0.105 A 
HETATM   17  C12 UNL     1      -2.681   1.718   0.625  1.00  0.00     0.041 A 
HETATM   18  C13 UNL     1      -3.961   2.194   0.835  1.00  0.00     0.027 A 
HETATM   19  C14 UNL     1      -4.783   1.100   0.614  1.00  0.00     0.142 A 
HETATM   20  O1  UNL     1      -4.027   0.071   0.299  1.00  0.00    -0.320 OA
ENDBRANCH   8  16
BRANCH   1  21
HETATM   21  N1  UNL     1      -2.946  -2.336  -0.391  1.00  0.00    -0.384 N 
ATOM     22  H12 UNL     1      -3.062  -3.320  -0.634  1.00  0.00     0.157 HD
ATOM     23  H11 UNL     1      -3.747  -1.740  -0.183  1.00  0.00     0.157 HD
ENDBRANCH   1  21
TORSDOF 3
