REMARK  3 active torsions:
REMARK  status: ('A' for Active; 'I' for Inactive)
REMARK    1  A    between atoms: N1_1  and  C1_4 
REMARK    2  A    between atoms: C7_10  and  O1_11 
REMARK    3  A    between atoms: O1_11  and  C8_12 
ROOT
HETATM    1  C1  UNL     1       3.931   0.512   1.500  1.00  0.00     0.114 A 
HETATM    2  C2  UNL     1       3.851  -0.122   0.279  1.00  0.00     0.063 A 
HETATM    3  C3  UNL     1       2.609  -0.342  -0.316  1.00  0.00    -0.002 A 
HETATM    4  C4  UNL     1       2.499  -0.973  -1.536  1.00  0.00     0.014 A 
HETATM    5  C5  UNL     1       1.272  -1.171  -2.087  1.00  0.00     0.004 A 
HETATM    6  C6  UNL     1       0.127  -0.734  -1.415  1.00  0.00     0.040 A 
HETATM    7  C7  UNL     1       0.201  -0.103  -0.201  1.00  0.00     0.105 A 
HETATM    8  C14 UNL     1       1.468   0.084   0.335  1.00  0.00     0.092 A 
HETATM    9  N2  UNL     1       1.586   0.691   1.511  1.00  0.00    -0.296 N 
ATOM     10  H2  UNL     1       0.744   1.006   1.994  1.00  0.00     0.187 HD
HETATM   11  N3  UNL     1       2.762   0.897   2.071  1.00  0.00    -0.285 N 
ATOM     12  H3  UNL     1       2.794   1.368   2.975  1.00  0.00     0.188 HD
ENDROOT
BRANCH   7  13
HETATM   13  O1  UNL     1      -0.875   0.340   0.490  1.00  0.00    -0.305 OA
BRANCH  13  14
HETATM   14  C8  UNL     1      -2.196   0.330   0.213  1.00  0.00     0.114 A 
HETATM   15  C9  UNL     1      -3.034  -0.397   1.066  1.00  0.00     0.040 A 
HETATM   16  C10 UNL     1      -4.391  -0.479   0.885  1.00  0.00     0.003 A 
HETATM   17  C11 UNL     1      -4.982   0.172  -0.172  1.00  0.00     0.003 A 
HETATM   18  C12 UNL     1      -4.170   0.892  -1.021  1.00  0.00     0.045 A 
HETATM   19  C13 UNL     1      -2.785   0.971  -0.830  1.00  0.00     0.150 A 
HETATM   20  F1  UNL     1      -2.008   1.696  -1.667  1.00  0.00    -0.203 F 
ENDBRANCH  13  14
ENDBRANCH   7  13
BRANCH   1  21
HETATM   21  N1  UNL     1       5.064   0.740   2.095  1.00  0.00    -0.384 N 
ATOM     22  H12 UNL     1       5.943   0.451   1.666  1.00  0.00     0.157 HD
ATOM     23  H11 UNL     1       5.123   1.209   2.999  1.00  0.00     0.157 HD
ENDBRANCH   1  21
TORSDOF 3
