REMARK  3 active torsions:
REMARK  status: ('A' for Active; 'I' for Inactive)
REMARK    1  A    between atoms: N1_1  and  C1_4 
REMARK    2  A    between atoms: C2_7  and  C3_8 
REMARK    3  A    between atoms: C7_14  and  C8_15 
ROOT
HETATM    1  C3  UNL     1       0.264   1.588   0.181  1.00  0.00     0.019 A 
HETATM    2  C4  UNL     1       0.721   2.891   0.305  1.00  0.00     0.017 A 
HETATM    3  C5  UNL     1      -0.193   3.858   0.648  1.00  0.00     0.018 A 
HETATM    4  C6  UNL     1      -1.513   3.526   0.858  1.00  0.00     0.088 A 
HETATM    5  N3  UNL     1      -1.903   2.247   0.725  1.00  0.00    -0.364 N 
ATOM      6  H3  UNL     1      -2.884   2.017   0.884  1.00  0.00     0.165 HD
HETATM    7  C7  UNL     1      -1.055   1.255   0.391  1.00  0.00     0.058 A 
ENDROOT
BRANCH   1   8
HETATM    8  C2  UNL     1       1.219   0.534  -0.184  1.00  0.00     0.063 A 
HETATM    9  N2  UNL     1       1.480  -0.507   0.611  1.00  0.00    -0.191 N 
HETATM   10  C1  UNL     1       2.337  -1.484   0.320  1.00  0.00     0.676 A 
ATOM     11  H2  UNL     1       0.989  -0.557   1.503  1.00  0.00     0.184 HD
HETATM   12  N4  UNL     1       2.995  -1.443  -0.845  1.00  0.00    -0.202 N 
HETATM   13  C15 UNL     1       2.770  -0.416  -1.686  1.00  0.00     0.108 A 
ATOM     14  H4  UNL     1       3.657  -2.179  -1.092  1.00  0.00     0.183 HD
HETATM   15  C14 UNL     1       1.882   0.604  -1.393  1.00  0.00     0.048 A 
BRANCH  10  16
HETATM   16  N1  UNL     1       2.565  -2.475   1.114  1.00  0.00    -0.234 N 
ATOM     17  H12 UNL     1       2.064  -2.506   2.002  1.00  0.00     0.174 HD
ATOM     18  H11 UNL     1       3.221  -3.223   0.891  1.00  0.00     0.174 HD
ENDBRANCH  10  16
ENDBRANCH   1   8
BRANCH   7  19
HETATM   19  C8  UNL     1      -1.547  -0.112   0.263  1.00  0.00     0.030 A 
HETATM   20  C9  UNL     1      -1.519  -0.828  -0.915  1.00  0.00     0.017 A 
HETATM   21  C10 UNL     1      -1.990  -2.125  -1.020  1.00  0.00     0.001 A 
HETATM   22  C11 UNL     1      -2.518  -2.757   0.083  1.00  0.00     0.003 A 
HETATM   23  C12 UNL     1      -2.558  -2.063   1.275  1.00  0.00     0.043 A 
HETATM   24  C13 UNL     1      -2.083  -0.764   1.369  1.00  0.00     0.128 A 
HETATM   25  F1  UNL     1      -2.133  -0.111   2.538  1.00  0.00    -0.205 F 
ENDBRANCH   7  19
TORSDOF 3
