REMARK  6 active torsions:
REMARK  status: ('A' for Active; 'I' for Inactive)
REMARK    1  A    between atoms: C2_2  and  N1_3 
REMARK    2  A    between atoms: C9_13  and  C10_14 
REMARK    3  A    between atoms: C10_14  and  O1_15 
REMARK    4  A    between atoms: O1_15  and  C11_16 
REMARK    5  A    between atoms: C11_16  and  N3_18 
REMARK       I    between atoms: N3_18  and  C12_20 
REMARK    6  A    between atoms: C12_20  and  C13_22 
ROOT
HETATM    1  C10 UNL     1       0.839  -1.113  -2.252  1.00  0.00     0.184 C 
ENDROOT
BRANCH   1   2
HETATM    2  C9  UNL     1       1.335   0.015  -1.373  1.00  0.00     0.041 C 
HETATM    3  C5  UNL     1       2.773   0.282  -1.783  1.00  0.00     0.196 C 
HETATM    4  C4  UNL     1       3.419   1.341  -0.902  1.00  0.00     0.064 C 
HETATM    5  N2  UNL     1       3.515  -0.927  -1.614  1.00  0.00    -0.039 N 
HETATM    6  C3  UNL     1       4.703   0.777  -0.332  1.00  0.00     0.277 C 
HETATM    7  N1  UNL     1       4.374  -0.379   0.483  1.00  0.00     0.119 N 
HETATM    8  C6  UNL     1       3.586  -1.351  -0.256  1.00  0.00     0.420 C 
HETATM    9  C7  UNL     1       2.266  -1.497   0.420  1.00  0.00     0.066 C 
HETATM   10  C8  UNL     1       1.254  -0.465   0.057  1.00  0.00     0.012 C 
ATOM     11  H22 UNL     1       3.144  -1.668  -2.208  1.00  0.00     0.280 HD
ATOM     12  H21 UNL     1       4.448  -0.841  -2.018  1.00  0.00     0.280 HD
BRANCH   7  13
HETATM   13  C2  UNL     1       5.571  -0.994   1.022  1.00  0.00     0.270 C 
HETATM   14  C1  UNL     1       6.198  -0.074   2.022  1.00  0.00     0.037 C 
ENDBRANCH   7  13
ENDBRANCH   1   2
BRANCH   1  15
HETATM   15  O1  UNL     1      -0.500  -1.373  -1.883  1.00  0.00    -0.326 OA
BRANCH  15  16
HETATM   16  C11 UNL     1      -1.447  -0.372  -2.000  1.00  0.00     0.216 C 
HETATM   17  S1  UNL     1      -1.301   0.616  -3.285  1.00  0.00    -0.033 SA
BRANCH  16  18
HETATM   18  N3  UNL     1      -2.463  -0.258  -1.034  1.00  0.00    -0.298 N 
HETATM   19  C12 UNL     1      -3.433   0.762  -1.151  1.00  0.00     0.228 C 
HETATM   20  O2  UNL     1      -3.387   1.557  -2.108  1.00  0.00    -0.273 OA
ATOM     21  H3  UNL     1      -2.499  -0.910  -0.251  1.00  0.00     0.171 HD
BRANCH  19  22
HETATM   22  C13 UNL     1      -4.490   0.888  -0.153  1.00  0.00     0.078 C 
HETATM   23  C14 UNL     1      -5.346  -0.366  -0.052  1.00  0.00     0.014 C 
HETATM   24  C15 UNL     1      -6.530  -0.068   0.803  1.00  0.00     0.001 C 
HETATM   25  C16 UNL     1      -6.160   0.485   2.155  1.00  0.00     0.000 C 
HETATM   26  C17 UNL     1      -5.152   1.598   2.078  1.00  0.00     0.001 C 
HETATM   27  C18 UNL     1      -3.965   1.155   1.241  1.00  0.00     0.014 C 
ENDBRANCH  19  22
ENDBRANCH  16  18
ENDBRANCH  15  16
ENDBRANCH   1  15
TORSDOF 6
