REMARK  5 active torsions:
REMARK  status: ('A' for Active; 'I' for Inactive)
REMARK    1  A    between atoms: C2_2  and  C4_4 
REMARK    2  A    between atoms: C11_11  and  C13_13 
REMARK    3  A    between atoms: C13_13  and  C15_15 
REMARK    4  A    between atoms: C15_15  and  C17_17 
REMARK       I    between atoms: C17_17  and  N1_19 
REMARK    5  A    between atoms: N1_19  and  C18_21 
ROOT
HETATM    1  C13 UNL     1      -1.601  -0.537  -1.532  1.00  0.00     0.003 C 
HETATM    2  C14 UNL     1      -2.155  -0.914  -2.914  1.00  0.00     0.011 C 
ENDROOT
BRANCH   1   3
HETATM    3  C11 UNL     1      -0.128  -0.513  -1.600  1.00  0.00    -0.036 C 
HETATM    4  C7  UNL     1       0.680  -0.175  -0.442  1.00  0.00    -0.002 C 
HETATM    5  C6  UNL     1       1.369   1.182  -0.501  1.00  0.00     0.006 C 
HETATM    6  C8  UNL     1       1.869  -1.152  -0.532  1.00  0.00    -0.009 C 
HETATM    7  C5  UNL     1       2.323   1.342   0.661  1.00  0.00     0.009 C 
HETATM    8  C4  UNL     1       3.371   0.260   0.690  1.00  0.00     0.014 C 
HETATM    9  C19 UNL     1       2.661  -1.077   0.723  1.00  0.00     0.014 C 
HETATM   10  C9  UNL     1       1.174  -2.422  -0.821  1.00  0.00     0.006 C 
HETATM   11  C10 UNL     1       0.258  -1.972  -1.941  1.00  0.00     0.010 C 
HETATM   12  C12 UNL     1       0.262   0.279  -2.853  1.00  0.00     0.016 C 
BRANCH   8  13
HETATM   13  C2  UNL     1       4.247   0.464   1.863  1.00  0.00    -0.089 C 
HETATM   14  C1  UNL     1       5.545   0.654   1.648  1.00  0.00     0.014 C 
HETATM   15  C3  UNL     1       3.762   0.468   3.259  1.00  0.00     0.043 C 
ENDBRANCH   8  13
ENDBRANCH   1   3
BRANCH   1  16
HETATM   16  C15 UNL     1      -2.372   0.617  -1.040  1.00  0.00     0.079 C 
HETATM   17  C16 UNL     1      -3.908   0.307  -1.174  1.00  0.00     0.020 C 
BRANCH  16  18
HETATM   18  C17 UNL     1      -2.261   0.679   0.468  1.00  0.00     0.240 C 
HETATM   19  O1  UNL     1      -1.816   1.664   1.078  1.00  0.00    -0.272 OA
HETATM   20  N1  UNL     1      -2.698  -0.456   1.194  1.00  0.00    -0.157 N 
ATOM     21  H1  UNL     1      -2.236  -1.352   1.039  1.00  0.00     0.187 HD
BRANCH  20  22
HETATM   22  C18 UNL     1      -3.663  -0.388   2.044  1.00  0.00     0.710 A 
HETATM   23  N2  UNL     1      -4.172  -1.397   2.799  1.00  0.00    -0.117 N 
HETATM   24  N3  UNL     1      -5.151  -0.867   3.527  1.00  0.00     0.006 NA
ATOM     25  H2  UNL     1      -3.864  -2.369   2.806  1.00  0.00     0.202 HD
HETATM   26  N4  UNL     1      -5.246   0.434   3.232  1.00  0.00     0.006 NA
HETATM   27  N5  UNL     1      -4.337   0.741   2.322  1.00  0.00    -0.117 N 
ATOM     28  H5  UNL     1      -4.178   1.660   1.909  1.00  0.00     0.202 HD
ENDBRANCH  20  22
ENDBRANCH  16  18
ENDBRANCH   1  16
TORSDOF 5
