REMARK  4 active torsions:
REMARK  status: ('A' for Active; 'I' for Inactive)
REMARK    1  A    between atoms: C2_2  and  C3_4 
REMARK    2  A    between atoms: C3_4  and  C4_5 
REMARK    3  A    between atoms: C5_7  and  C6_8 
REMARK    4  A    between atoms: C6_8  and  C8_10 
ROOT
HETATM    1  C4  UNL     1       0.138   0.894   0.223  1.00  0.00     0.158 C 
HETATM    2  O1  UNL     1       1.412   0.556   0.585  1.00  0.00    -0.374 OA
HETATM    3  C5  UNL     1       1.954  -0.570   0.054  1.00  0.00     0.158 C 
HETATM    4  C9  UNL     1       1.287  -0.993  -1.235  1.00  0.00     0.201 C 
HETATM    5  O3  UNL     1      -0.048  -1.175  -1.053  1.00  0.00    -0.374 OA
HETATM    6  C10 UNL     1      -0.689  -0.239  -0.235  1.00  0.00     0.094 C 
HETATM    7  C11 UNL     1      -1.922   0.130  -1.015  1.00  0.00     0.024 C 
HETATM    8  C12 UNL     1      -3.025   0.749  -0.246  1.00  0.00     0.012 C 
HETATM    9  C13 UNL     1      -3.498  -0.186   0.859  1.00  0.00    -0.013 C 
HETATM   10  C14 UNL     1      -3.911  -1.534   0.350  1.00  0.00     0.009 C 
HETATM   11  C15 UNL     1      -2.794  -2.147  -0.452  1.00  0.00    -0.013 C 
HETATM   12  C16 UNL     1      -2.462  -1.200  -1.571  1.00  0.00     0.012 C 
HETATM   13  C17 UNL     1      -1.620  -2.378   0.468  1.00  0.00     0.012 C 
HETATM   14  C18 UNL     1      -1.156  -1.030   0.981  1.00  0.00     0.024 C 
HETATM   15  C19 UNL     1      -2.267  -0.395   1.738  1.00  0.00     0.012 C 
ENDROOT
BRANCH   1  16
HETATM   16  C3  UNL     1       0.060   2.143  -0.616  1.00  0.00     0.050 C 
BRANCH  16  17
HETATM   17  C2  UNL     1       0.592   3.371   0.068  1.00  0.00     0.057 C 
HETATM   18  C1  UNL     1       0.492   4.599  -0.805  1.00  0.00     0.022 C 
HETATM   19  S1  UNL     1       2.328   3.203   0.539  1.00  0.00    -0.093 SA
ENDBRANCH  16  17
ENDBRANCH   1  16
BRANCH   3  20
HETATM   20  C6  UNL     1       3.454  -0.490  -0.134  1.00  0.00     0.102 C 
HETATM   21  C7  UNL     1       4.058  -0.259   1.258  1.00  0.00     0.022 C 
BRANCH  20  22
HETATM   22  C8  UNL     1       3.981  -1.772  -0.649  1.00  0.00     0.237 C 
HETATM   23  N1  UNL     1       3.845  -2.995   0.051  1.00  0.00    -0.062 NA
HETATM   24  O2  UNL     1       4.573  -1.780  -1.751  1.00  0.00    -0.276 OA
ENDBRANCH  20  22
ENDBRANCH   3  20
TORSDOF 4
