REMARK  5 active torsions:
REMARK  status: ('A' for Active; 'I' for Inactive)
REMARK    1  A    between atoms: N2_6  and  C4_8 
REMARK    2  A    between atoms: N3_11  and  C7_12 
REMARK    3  A    between atoms: C7_12  and  C8_13 
REMARK    4  A    between atoms: C10_15  and  N4_16 
REMARK       I    between atoms: N4_16  and  C11_18 
REMARK    5  A    between atoms: C11_18  and  C12_20 
ROOT
HETATM    1  C8  UNL     1      -1.014   0.068   1.120  1.00  0.00     0.142 C 
HETATM    2  C9  UNL     1       0.397  -0.476   1.221  1.00  0.00     0.061 C 
HETATM    3  C10 UNL     1       1.185   0.716   0.663  1.00  0.00     0.110 C 
HETATM    4  C18 UNL     1       0.195   1.327  -0.270  1.00  0.00     0.193 C 
HETATM    5  O2  UNL     1      -0.989   0.624  -0.175  1.00  0.00    -0.382 OA
ENDROOT
BRANCH   1   6
HETATM    6  C7  UNL     1      -2.043  -1.036   1.195  1.00  0.00     0.179 C 
BRANCH   6   7
HETATM    7  N3  UNL     1      -3.363  -0.454   1.094  1.00  0.00    -0.183 N 
HETATM    8  C3  UNL     1      -4.040  -0.248  -0.038  1.00  0.00     0.681 A 
HETATM    9  N1  UNL     1      -5.216   0.307   0.285  1.00  0.00    -0.194 N 
HETATM   10  N2  UNL     1      -3.657  -0.522  -1.238  1.00  0.00    -0.222 N 
HETATM   11  C2  UNL     1      -5.271   0.446   1.627  1.00  0.00     0.045 A 
ATOM     12  H1  UNL     1      -5.947   0.579  -0.372  1.00  0.00     0.184 HD
HETATM   13  C1  UNL     1      -6.404   1.021   2.404  1.00  0.00     0.071 C 
HETATM   14  C19 UNL     1      -4.103  -0.032   2.148  1.00  0.00     0.048 A 
HETATM   15  C20 UNL     1      -3.731  -0.076   3.586  1.00  0.00     0.071 C 
ATOM     16  H2  UNL     1      -2.737  -0.945  -1.361  1.00  0.00     0.178 HD
BRANCH  10  17
HETATM   17  C4  UNL     1      -4.440  -0.271  -2.408  1.00  0.00     0.091 C 
HETATM   18  C5  UNL     1      -4.163  -1.216  -3.540  1.00  0.00     0.032 C 
HETATM   19  C6  UNL     1      -4.289   1.149  -2.929  1.00  0.00     0.032 C 
ENDBRANCH  10  17
ENDBRANCH   6   7
ENDBRANCH   1   6
BRANCH   3  20
HETATM   20  N4  UNL     1       2.407   0.305   0.051  1.00  0.00    -0.354 N 
HETATM   21  C11 UNL     1       3.695   0.658   0.518  1.00  0.00     0.222 C 
HETATM   22  O1  UNL     1       3.772   1.384   1.542  1.00  0.00    -0.273 OA
ATOM     23  H4  UNL     1       2.348  -0.284  -0.780  1.00  0.00     0.162 HD
BRANCH  21  24
HETATM   24  C12 UNL     1       4.948   0.228  -0.118  1.00  0.00     0.078 C 
HETATM   25  C13 UNL     1       5.099  -1.273  -0.156  1.00  0.00     0.014 C 
HETATM   26  C14 UNL     1       6.195  -1.588  -1.152  1.00  0.00     0.001 C 
HETATM   27  C15 UNL     1       7.489  -1.050  -0.547  1.00  0.00     0.000 C 
HETATM   28  C16 UNL     1       7.365   0.442  -0.369  1.00  0.00     0.001 C 
HETATM   29  C17 UNL     1       6.170   0.818   0.495  1.00  0.00     0.014 C 
ENDBRANCH  21  24
ENDBRANCH   3  20
TORSDOF 5
