REMARK  13 active torsions:
REMARK  status: ('A' for Active; 'I' for Inactive)
REMARK    1  A    between atoms: N1_1  and  C1_4 
REMARK    2  A    between atoms: C3_8  and  N3_9 
REMARK    3  A    between atoms: C4_14  and  N5_15 
REMARK    4  A    between atoms: N5_15  and  C5_16 
REMARK    5  A    between atoms: N5_15  and  C6_19 
REMARK    6  A    between atoms: C5_16  and  O1_17 
REMARK    7  A    between atoms: C6_19  and  C7_20 
REMARK    8  A    between atoms: C7_20  and  O2_21 
REMARK    9  A    between atoms: C9_26  and  N7_27 
REMARK   10  A    between atoms: N7_27  and  N8_29 
REMARK   11  A    between atoms: N8_29  and  N9_30 
REMARK   12  A    between atoms: N8_29  and  C10_33 
REMARK   13  A    between atoms: C10_33  and  N10_34 
ROOT
HETATM    1  C1  UNL     1      -2.745  -2.742   0.905  1.00  0.00     0.678 A 
HETATM    2  N2  UNL     1      -1.548  -3.346   0.871  1.00  0.00    -0.186 N 
ATOM      3  H2  UNL     1      -1.471  -4.338   1.095  1.00  0.00     0.184 HD
HETATM    4  C2  UNL     1      -0.449  -2.644   0.541  1.00  0.00     0.124 A 
HETATM    5  C3  UNL     1       0.807  -3.200   0.486  1.00  0.00     0.144 A 
HETATM    6  N4  UNL     1       1.884  -2.445   0.145  1.00  0.00    -0.175 N 
ATOM      7  H4  UNL     1       2.816  -2.858   0.103  1.00  0.00     0.186 HD
HETATM    8  C4  UNL     1       1.699  -1.153  -0.134  1.00  0.00     0.684 A 
HETATM    9  N6  UNL     1       0.478  -0.551  -0.094  1.00  0.00    -0.185 N 
ATOM     10  H6  UNL     1       0.376   0.440  -0.313  1.00  0.00     0.184 HD
HETATM   11  C8  UNL     1      -0.589  -1.297   0.242  1.00  0.00     0.125 A 
HETATM   12  C9  UNL     1      -1.853  -0.688   0.285  1.00  0.00     0.162 A 
HETATM   13  N11 UNL     1      -2.897  -1.438   0.618  1.00  0.00    -0.173 N 
ATOM     14  H11 UNL     1      -3.826  -1.019   0.656  1.00  0.00     0.186 HD
ENDROOT
BRANCH  12  15
HETATM   15  N7  UNL     1      -1.902   0.693  -0.038  1.00  0.00    -0.283 N 
ATOM     16  H7  UNL     1      -1.035   1.173  -0.279  1.00  0.00     0.184 HD
BRANCH  15  17
HETATM   17  N8  UNL     1      -3.103   1.423  -0.037  1.00  0.00    -0.119 NA
BRANCH  17  18
HETATM   18  N9  UNL     1      -3.698   1.410  -1.306  1.00  0.00    -0.344 NA
ATOM     19  H92 UNL     1      -3.917   0.445  -1.555  1.00  0.00     0.172 HD
ATOM     20  H91 UNL     1      -4.570   1.940  -1.305  1.00  0.00     0.172 HD
ENDBRANCH  17  18
BRANCH  17  21
HETATM   21  C10 UNL     1      -2.793   2.789   0.315  1.00  0.00     0.367 C 
BRANCH  21  22
HETATM   22  N10 UNL     1      -3.938   3.651   0.353  1.00  0.00    -0.064 N 
ATOM     23 3H10 UNL     1      -4.445   3.614  -0.531  1.00  0.00     0.275 HD
ATOM     24 2H10 UNL     1      -4.652   3.273   0.976  1.00  0.00     0.275 HD
ATOM     25 1H10 UNL     1      -3.719   4.616   0.602  1.00  0.00     0.275 HD
ENDBRANCH  21  22
ENDBRANCH  17  21
ENDBRANCH  15  17
ENDBRANCH  12  15
BRANCH   1  26
HETATM   26  N1  UNL     1      -3.756  -3.456   1.226  1.00  0.00    -0.234 N 
ATOM     27  H12 UNL     1      -3.641  -4.446   1.444  1.00  0.00     0.174 HD
ATOM     28  H11 UNL     1      -4.666  -2.997   1.252  1.00  0.00     0.174 HD
ENDBRANCH   1  26
BRANCH   5  29
HETATM   29  N3  UNL     1       0.979  -4.428   0.757  1.00  0.00    -0.383 N 
ATOM     30  H32 UNL     1       0.171  -4.995   1.013  1.00  0.00     0.157 HD
ATOM     31  H31 UNL     1       1.911  -4.841   0.716  1.00  0.00     0.157 HD
ENDBRANCH   5  29
BRANCH   8  32
HETATM   32  N5  UNL     1       2.844  -0.377  -0.485  1.00  0.00    -0.195 N 
BRANCH  32  33
HETATM   33  C5  UNL     1       3.233  -0.285  -1.861  1.00  0.00     0.308 C 
BRANCH  33  34
HETATM   34  O1  UNL     1       4.372   0.496  -2.032  1.00  0.00    -0.381 OA
ATOM     35  H1  UNL     1       4.630   0.557  -2.944  1.00  0.00     0.211 HD
ENDBRANCH  33  34
ENDBRANCH  32  33
BRANCH  32  36
HETATM   36  C6  UNL     1       3.547   0.291   0.565  1.00  0.00     0.169 C 
BRANCH  36  37
HETATM   37  C7  UNL     1       3.376   1.792   0.513  1.00  0.00     0.184 C 
BRANCH  37  38
HETATM   38  O2  UNL     1       4.100   2.366   1.581  1.00  0.00    -0.399 OA
ATOM     39  H2  UNL     1       3.993   3.309   1.548  1.00  0.00     0.209 HD
ENDBRANCH  37  38
ENDBRANCH  36  37
ENDBRANCH  32  36
ENDBRANCH   8  32
TORSDOF 13
