REMARK  12 active torsions:
REMARK  status: ('A' for Active; 'I' for Inactive)
REMARK    1  A    between atoms: N1_1  and  C1_4 
REMARK    2  A    between atoms: C3_9  and  C4_10 
REMARK    3  A    between atoms: C4_10  and  N4_11 
REMARK    4  A    between atoms: N4_11  and  C5_14 
REMARK    5  A    between atoms: C5_14  and  C6_15 
REMARK    6  A    between atoms: C6_15  and  N5_16 
REMARK    7  A    between atoms: N5_16  and  C7_17 
REMARK    8  A    between atoms: N5_16  and  C10_24 
REMARK    9  A    between atoms: C7_17  and  C8_18 
REMARK   10  A    between atoms: C8_18  and  C9_19 
REMARK   11  A    between atoms: C9_19  and  N6_20 
REMARK   12  A    between atoms: N6_20  and  O1_22 
ROOT
HETATM    1  C6  UNL     1      -1.454   1.173  -0.536  1.00  0.00     0.094 C 
ENDROOT
BRANCH   1   2
HETATM    2  C5  UNL     1      -0.055   1.295  -0.982  1.00  0.00     0.277 C 
BRANCH   2   3
HETATM    3  N4  UNL     1       0.887   0.523  -0.260  1.00  0.00    -0.065 N 
ATOM      4  H42 UNL     1       0.845  -0.465  -0.509  1.00  0.00     0.277 HD
ATOM      5  H41 UNL     1       0.639   0.437   0.726  1.00  0.00     0.277 HD
BRANCH   3   6
HETATM    6  C4  UNL     1       2.264   1.097  -0.449  1.00  0.00     0.301 C 
BRANCH   6   7
HETATM    7  C3  UNL     1       3.268   0.268   0.214  1.00  0.00     0.123 A 
HETATM    8  C2  UNL     1       4.639   0.565   0.238  1.00  0.00     0.151 A 
HETATM    9  N2  UNL     1       5.256  -0.391   0.914  1.00  0.00    -0.308 N 
HETATM   10  N3  UNL     1       5.207   1.722  -0.369  1.00  0.00    -0.080 NA
HETATM   11  C1  UNL     1       4.306  -1.273   1.309  1.00  0.00     0.223 A 
ATOM     12  H2  UNL     1       6.257  -0.452   1.102  1.00  0.00     0.170 HD
HETATM   13  O2  UNL     1       3.127  -0.845   0.873  1.00  0.00    -0.279 OA
BRANCH  11  14
HETATM   14  N1  UNL     1       4.537  -2.335   1.987  1.00  0.00    -0.365 N 
ATOM     15  H12 UNL     1       5.443  -2.664   2.322  1.00  0.00     0.159 HD
ATOM     16  H11 UNL     1       3.822  -2.999   2.284  1.00  0.00     0.159 HD
ENDBRANCH  11  14
ENDBRANCH   6   7
ENDBRANCH   3   6
ENDBRANCH   2   3
ENDBRANCH   1   2
BRANCH   1  17
HETATM   17  N5  UNL     1      -2.144  -0.048  -0.495  1.00  0.00    -0.329 N 
BRANCH  17  18
HETATM   18  C7  UNL     1      -3.573  -0.104  -0.388  1.00  0.00     0.133 C 
BRANCH  18  19
HETATM   19  C8  UNL     1      -4.183   0.260   0.882  1.00  0.00     0.042 C 
BRANCH  19  20
HETATM   20  C9  UNL     1      -4.022   1.639   1.414  1.00  0.00     0.148 C 
BRANCH  20  21
HETATM   21  N6  UNL     1      -4.488   2.633   0.481  1.00  0.00    -0.305 N 
ATOM     22  H6  UNL     1      -3.970   3.497   0.321  1.00  0.00     0.187 HD
BRANCH  21  23
HETATM   23  O1  UNL     1      -5.503   2.402  -0.094  1.00  0.00    -0.295 OA
ATOM     24  H1  UNL     1      -5.810   3.057  -0.709  1.00  0.00     0.244 HD
ENDBRANCH  21  23
ENDBRANCH  20  21
ENDBRANCH  19  20
ENDBRANCH  18  19
ENDBRANCH  17  18
BRANCH  17  25
HETATM   25  C10 UNL     1      -1.482  -1.332  -0.505  1.00  0.00     0.211 C 
HETATM   26  N7  UNL     1      -1.052  -1.957   0.565  1.00  0.00    -0.256 N 
HETATM   27  N8  UNL     1      -0.464  -3.160   0.185  1.00  0.00    -0.006 NA
ATOM     28  H7  UNL     1      -1.135  -1.616   1.523  1.00  0.00     0.187 HD
HETATM   29  N9  UNL     1      -0.928  -3.491  -1.105  1.00  0.00    -0.006 NA
HETATM   30  N10 UNL     1      -1.198  -2.180  -1.592  1.00  0.00    -0.256 N 
ATOM     31  H10 UNL     1      -1.187  -1.900  -2.573  1.00  0.00     0.187 HD
ENDBRANCH  17  25
ENDBRANCH   1  17
TORSDOF 12
