REMARK  12 active torsions:
REMARK  status: ('A' for Active; 'I' for Inactive)
REMARK    1  A    between atoms: N1_1  and  C1_4 
REMARK    2  A    between atoms: C2_7  and  N3_8 
REMARK    3  A    between atoms: C4_10  and  C5_11 
REMARK    4  A    between atoms: C5_11  and  O1_12 
REMARK    5  A    between atoms: C5_11  and  C6_14 
REMARK    6  A    between atoms: C5_11  and  N4_18 
REMARK    7  A    between atoms: C6_14  and  C7_15 
REMARK    8  A    between atoms: C7_15  and  O2_16 
REMARK    9  A    between atoms: N4_18  and  C8_20 
REMARK   10  A    between atoms: C8_20  and  C9_21 
REMARK   11  A    between atoms: C9_21  and  N5_22 
REMARK   12  A    between atoms: C10_32  and  N9_33 
ROOT
HETATM    1  N3  UNL     1      -1.531  -0.624  -0.026  1.00  0.00    -0.106 N 
HETATM    2  C3  UNL     1      -0.312   0.053   0.490  1.00  0.00     0.201 C 
HETATM    3  C4  UNL     1       0.356   0.182  -0.850  1.00  0.00     0.176 C 
HETATM    4  N6  UNL     1       0.114  -1.171  -1.363  1.00  0.00    -0.310 N 
ATOM      5  H6  UNL     1       0.715  -1.689  -2.005  1.00  0.00     0.182 HD
HETATM    6  N7  UNL     1      -0.970  -1.577  -0.867  1.00  0.00    -0.230 N 
ATOM      7  H7  UNL     1      -1.384  -2.490  -1.058  1.00  0.00     0.208 HD
ENDROOT
BRANCH   1   8
HETATM    8  C2  UNL     1      -2.848  -0.344   0.311  1.00  0.00     0.729 A 
HETATM    9  N2  UNL     1      -3.145   0.609   1.253  1.00  0.00    -0.020 N 
HETATM   10  C1  UNL     1      -4.414   0.890   1.613  1.00  0.00     0.705 A 
ATOM     11  H2  UNL     1      -2.382   1.121   1.695  1.00  0.00     0.203 HD
HETATM   12  N10 UNL     1      -5.440   0.228   1.042  1.00  0.00    -0.022 N 
HETATM   13  C10 UNL     1      -5.178  -0.697   0.127  1.00  0.00     0.705 A 
ATOM     14  H10 UNL     1      -6.403   0.435   1.309  1.00  0.00     0.203 HD
HETATM   15  N8  UNL     1      -3.915  -0.967  -0.221  1.00  0.00    -0.020 N 
ATOM     16  H8  UNL     1      -3.752  -1.684  -0.928  1.00  0.00     0.203 HD
BRANCH  10  17
HETATM   17  N1  UNL     1      -4.672   1.786   2.514  1.00  0.00    -0.234 N 
ATOM     18  H12 UNL     1      -3.896   2.287   2.946  1.00  0.00     0.174 HD
ATOM     19  H11 UNL     1      -5.632   1.999   2.786  1.00  0.00     0.174 HD
ENDBRANCH  10  17
BRANCH  13  20
HETATM   20  N9  UNL     1      -6.185  -1.336  -0.410  1.00  0.00    -0.234 N 
ATOM     21  H92 UNL     1      -5.984  -2.047  -1.113  1.00  0.00     0.174 HD
ATOM     22  H91 UNL     1      -7.148  -1.130  -0.145  1.00  0.00     0.174 HD
ENDBRANCH  13  20
ENDBRANCH   1   8
BRANCH   3  23
HETATM   23  C5  UNL     1       1.760   0.592  -0.922  1.00  0.00     0.153 C 
BRANCH  23  24
HETATM   24  O1  UNL     1       1.687   1.983  -0.411  1.00  0.00    -0.369 OA
ATOM     25  H1  UNL     1       2.598   2.249  -0.458  1.00  0.00     0.212 HD
ENDBRANCH  23  24
BRANCH  23  26
HETATM   26  C6  UNL     1       2.204   0.818  -2.331  1.00  0.00     0.088 C 
BRANCH  26  27
HETATM   27  C7  UNL     1       2.123  -0.318  -3.274  1.00  0.00     0.169 C 
BRANCH  27  28
HETATM   28  O2  UNL     1       2.646   0.169  -4.511  1.00  0.00    -0.401 OA
ATOM     29  H2  UNL     1       2.594  -0.561  -5.117  1.00  0.00     0.209 HD
ENDBRANCH  27  28
ENDBRANCH  26  27
ENDBRANCH  23  26
BRANCH  23  30
HETATM   30  N4  UNL     1       2.711   0.033  -0.069  1.00  0.00    -0.388 N 
ATOM     31  H4  UNL     1       3.371  -0.641  -0.457  1.00  0.00     0.156 HD
BRANCH  30  32
HETATM   32  C8  UNL     1       2.807   0.348   1.288  1.00  0.00     0.144 C 
BRANCH  32  33
HETATM   33  C9  UNL     1       3.823  -0.563   1.984  1.00  0.00     0.248 C 
BRANCH  33  34
HETATM   34  N5  UNL     1       3.852  -0.144   3.368  1.00  0.00    -0.078 N 
ATOM     35  H53 UNL     1       4.047   0.850   3.488  1.00  0.00     0.274 HD
ATOM     36  H52 UNL     1       2.934  -0.144   3.812  1.00  0.00     0.274 HD
ATOM     37  H51 UNL     1       4.529  -0.751   3.831  1.00  0.00     0.274 HD
ENDBRANCH  33  34
ENDBRANCH  32  33
ENDBRANCH  30  32
ENDBRANCH  23  30
ENDBRANCH   3  23
TORSDOF 12
