REMARK  4 active torsions:
REMARK  status: ('A' for Active; 'I' for Inactive)
REMARK    1  A    between atoms: C1_2  and  C2_4 
REMARK       I    between atoms: N1_8  and  C6_9 
REMARK    2  A    between atoms: C6_9  and  C7_11 
REMARK    3  A    between atoms: C7_11  and  C8_12 
REMARK    4  A    between atoms: C8_12  and  C9_13 
ROOT
HETATM    1  C9  UNL     1      -1.411   0.783   1.725  1.00  0.00     0.031 A 
HETATM    2  N2  UNL     1      -2.059   1.299   0.673  1.00  0.00    -0.361 N 
ATOM      3  H2  UNL     1      -1.659   2.125   0.228  1.00  0.00     0.165 HD
HETATM    4  C10 UNL     1      -3.195   0.806   0.165  1.00  0.00     0.015 A 
HETATM    5  C11 UNL     1      -3.736  -0.325   0.779  1.00  0.00    -0.034 A 
HETATM    6  C12 UNL     1      -3.088  -0.878   1.868  1.00  0.00     0.035 A 
HETATM    7  C13 UNL     1      -1.918  -0.328   2.350  1.00  0.00     0.057 A 
HETATM    8 CL1  UNL     1      -1.127  -1.067   3.740  1.00  0.00    -0.082 Cl
HETATM    9  C14 UNL     1      -4.982  -1.070   0.417  1.00  0.00     0.040 C 
HETATM   10  C15 UNL     1      -4.997  -1.417  -1.056  1.00  0.00     0.005 C 
HETATM   11  C16 UNL     1      -5.387  -0.163  -1.801  1.00  0.00     0.001 C 
HETATM   12  C17 UNL     1      -4.144   0.640  -2.133  1.00  0.00     0.006 C 
HETATM   13  C18 UNL     1      -3.737   1.527  -0.992  1.00  0.00     0.057 C 
ENDROOT
BRANCH   1  14
HETATM   14  C8  UNL     1      -0.181   1.423   2.186  1.00  0.00     0.068 C 
BRANCH  14  15
HETATM   15  C7  UNL     1       1.093   0.750   1.865  1.00  0.00     0.109 C 
BRANCH  15  16
HETATM   16  C6  UNL     1       1.420   0.550   0.462  1.00  0.00     0.220 C 
HETATM   17  N1  UNL     1       2.630  -0.118   0.133  1.00  0.00    -0.351 N 
HETATM   18  C5  UNL     1       3.548  -0.606   1.160  1.00  0.00     0.126 C 
HETATM   19  C19 UNL     1       3.024  -0.356  -1.243  1.00  0.00     0.141 C 
HETATM   20  C4  UNL     1       4.936  -0.056   0.910  1.00  0.00     0.021 C 
HETATM   21  C3  UNL     1       5.421  -0.358  -0.488  1.00  0.00     0.019 C 
HETATM   22  C2  UNL     1       4.426   0.104  -1.538  1.00  0.00     0.105 C 
HETATM   23  O3  UNL     1       0.685   0.939  -0.467  1.00  0.00    -0.273 OA
BRANCH  22  24
HETATM   24  C1  UNL     1       4.840  -0.526  -2.826  1.00  0.00     0.178 C 
HETATM   25  O1  UNL     1       4.099  -1.294  -3.467  1.00  0.00    -0.648 OA
HETATM   26  O2  UNL     1       6.098  -0.258  -3.349  1.00  0.00    -0.648 OA
ENDBRANCH  22  24
ENDBRANCH  15  16
ENDBRANCH  14  15
ENDBRANCH   1  14
TORSDOF 4
