REMARK  5 active torsions:
REMARK  status: ('A' for Active; 'I' for Inactive)
REMARK    1  A    between atoms: C1_2  and  O2_3 
REMARK    2  A    between atoms: C1_2  and  C12_18 
REMARK    3  A    between atoms: O2_3  and  C2_4 
REMARK    4  A    between atoms: C2_4  and  C3_5 
REMARK    5  A    between atoms: C3_5  and  N1_6 
ROOT
HETATM    1  C2  UNL     1       0.952   0.082   0.944  1.00  0.00     0.200 C 
ENDROOT
BRANCH   1   2
HETATM    2  O2  UNL     1      -0.442   0.238   0.807  1.00  0.00    -0.319 OA
BRANCH   2   3
HETATM    3  C1  UNL     1      -1.349  -0.737   0.468  1.00  0.00     0.267 C 
HETATM    4  O1  UNL     1      -0.941  -1.905   0.247  1.00  0.00    -0.264 OA
BRANCH   3   5
HETATM    5  C12 UNL     1      -2.809  -0.451   0.356  1.00  0.00     0.049 C 
HETATM    6  C13 UNL     1      -2.964   0.647  -0.664  1.00  0.00     0.024 C 
HETATM    7  C14 UNL     1      -4.430   1.070  -0.794  1.00  0.00    -0.013 C 
HETATM    8  C15 UNL     1      -4.851   1.544   0.581  1.00  0.00     0.009 C 
HETATM    9  C19 UNL     1      -5.179  -0.133  -1.270  1.00  0.00     0.009 C 
HETATM   10  C16 UNL     1      -4.786   0.407   1.556  1.00  0.00    -0.013 C 
HETATM   11  C17 UNL     1      -5.543  -0.822   1.098  1.00  0.00     0.009 C 
HETATM   12  C21 UNL     1      -3.318   0.023   1.690  1.00  0.00     0.024 C 
HETATM   13  C18 UNL     1      -5.021  -1.237  -0.244  1.00  0.00    -0.013 C 
HETATM   14  C20 UNL     1      -3.579  -1.667  -0.091  1.00  0.00     0.024 C 
ENDBRANCH   3   5
ENDBRANCH   2   3
ENDBRANCH   1   2
BRANCH   1  15
HETATM   15  C3  UNL     1       1.582  -0.351  -0.345  1.00  0.00     0.169 C 
BRANCH  15  16
HETATM   16  N1  UNL     1       3.006  -0.526  -0.149  1.00  0.00    -0.325 N 
HETATM   17  C4  UNL     1       3.648  -1.077  -1.307  1.00  0.00     0.147 C 
HETATM   18  C5  UNL     1       4.643  -0.223  -1.999  1.00  0.00     0.062 C 
HETATM   19  C6  UNL     1       5.567   0.338  -0.982  1.00  0.00    -0.027 A 
HETATM   20  C7  UNL     1       6.912   0.519  -1.215  1.00  0.00     0.033 A 
HETATM   21  C11 UNL     1       5.064   0.709   0.268  1.00  0.00     0.054 A 
HETATM   22  C8  UNL     1       7.719   1.056  -0.218  1.00  0.00     0.034 A 
HETATM   23 CL1  UNL     1       9.439   1.284  -0.514  1.00  0.00    -0.084 Cl
HETATM   24  C9  UNL     1       7.211   1.422   1.022  1.00  0.00     0.026 A 
HETATM   25  C10 UNL     1       5.870   1.240   1.250  1.00  0.00     0.033 A 
HETATM   26  N2  UNL     1       3.662   0.496   0.472  1.00  0.00    -0.302 N 
ATOM     27  H2  UNL     1       3.145   1.119   1.092  1.00  0.00     0.186 HD
ENDBRANCH  15  16
ENDBRANCH   1  15
TORSDOF 5
