REMARK  5 active torsions:
REMARK  status: ('A' for Active; 'I' for Inactive)
REMARK    1  A    between atoms: O1_2  and  C2_3 
REMARK    2  A    between atoms: C8_10  and  O2_11 
REMARK    3  A    between atoms: C9_13  and  C10_14 
REMARK    4  A    between atoms: C10_14  and  N1_15 
REMARK    5  A    between atoms: N1_15  and  C12_17 
ROOT
HETATM    1  C2  UNL     1      -2.694   0.242   0.814  1.00  0.00     0.089 A 
HETATM    2  C3  UNL     1      -3.984  -0.022   0.451  1.00  0.00    -0.010 A 
HETATM    3  C4  UNL     1      -5.051  -0.185   1.485  1.00  0.00     0.052 C 
HETATM    4  C5  UNL     1      -4.274  -0.132  -0.880  1.00  0.00     0.028 A 
HETATM    5 BR1  UNL     1      -6.083  -0.499  -1.387  1.00  0.00    -0.050 Br
HETATM    6  C6  UNL     1      -3.290   0.019  -1.823  1.00  0.00    -0.010 A 
HETATM    7  C7  UNL     1      -3.613  -0.104  -3.283  1.00  0.00     0.052 C 
HETATM    8  C8  UNL     1      -1.969   0.289  -1.431  1.00  0.00     0.087 A 
HETATM    9  C9  UNL     1      -1.644   0.407  -0.105  1.00  0.00     0.047 A 
ENDROOT
BRANCH   9  10
HETATM   10  C10 UNL     1      -0.344   0.658   0.469  1.00  0.00     0.102 C 
BRANCH  10  11
HETATM   11  N1  UNL     1       0.790   0.918  -0.303  1.00  0.00    -0.388 N 
HETATM   12  C11 UNL     1       0.916   2.173  -0.956  1.00  0.00     0.149 C 
BRANCH  11  13
HETATM   13  C12 UNL     1       1.973   0.368   0.233  1.00  0.00     0.086 C 
HETATM   14  C13 UNL     1       1.989  -1.139   0.293  1.00  0.00     0.055 C 
HETATM   15  C14 UNL     1       3.309  -1.495   0.996  1.00  0.00     0.274 C 
HETATM   16  N2  UNL     1       4.397  -1.263   0.083  1.00  0.00     0.084 N 
HETATM   17  C15 UNL     1       5.476  -0.604   0.813  1.00  0.00     0.309 C 
HETATM   18  C16 UNL     1       4.023  -0.398  -1.009  1.00  0.00     0.274 C 
HETATM   19  C17 UNL     1       3.242   0.784  -0.460  1.00  0.00     0.055 C 
ENDBRANCH  11  13
ENDBRANCH  10  11
ENDBRANCH   9  10
BRANCH   1  20
HETATM   20  O1  UNL     1      -2.468   0.342   2.200  1.00  0.00    -0.354 OA
HETATM   21  C1  UNL     1      -2.151  -0.756   3.009  1.00  0.00     0.210 C 
ENDBRANCH   1  20
BRANCH   8  22
HETATM   22  O2  UNL     1      -1.019   0.425  -2.429  1.00  0.00    -0.359 OA
ATOM     23  H2  UNL     1      -0.125   0.608  -2.164  1.00  0.00     0.217 HD
ENDBRANCH   8  22
TORSDOF 5
