REMARK  5 active torsions:
REMARK  status: ('A' for Active; 'I' for Inactive)
REMARK    1  A    between atoms: O1_2  and  C2_3 
REMARK    2  A    between atoms: C2_3  and  C3_5 
REMARK    3  A    between atoms: C7_11  and  C8_12 
REMARK    4  A    between atoms: N2_14  and  C9_15 
REMARK    5  A    between atoms: C9_15  and  C10_16 
ROOT
HETATM    1  C3  UNL     1       3.218  -0.318  -0.662  1.00  0.00     0.068 A 
HETATM    2  C4  UNL     1       3.717  -1.452  -1.318  1.00  0.00     0.106 A 
HETATM    3  N1  UNL     1       3.050  -2.518  -0.874  1.00  0.00    -0.367 N 
ATOM      4  H1  UNL     1       3.196  -3.483  -1.172  1.00  0.00     0.165 HD
HETATM    5  C5  UNL     1       2.160  -2.103   0.027  1.00  0.00     0.023 A 
HETATM    6  C6  UNL     1       2.236  -0.699   0.192  1.00  0.00     0.022 A 
HETATM    7  C7  UNL     1       1.301  -0.180   1.191  1.00  0.00     0.011 C 
HETATM    8  N2  UNL     1      -0.084  -0.549   1.050  1.00  0.00    -0.285 NA
HETATM    9  C16 UNL     1      -0.163  -1.934   0.629  1.00  0.00     0.101 C 
HETATM   10  C17 UNL     1       1.118  -2.713   0.908  1.00  0.00     0.073 C 
ENDROOT
BRANCH   8  11
HETATM   11  C9  UNL     1      -0.823   0.257   0.145  1.00  0.00     0.100 C 
BRANCH  11  12
HETATM   12  C10 UNL     1      -2.299   0.167   0.175  1.00  0.00    -0.001 C 
HETATM   13  C11 UNL     1      -2.824   1.132  -0.910  1.00  0.00     0.006 C 
HETATM   14  C12 UNL     1      -4.171   1.670  -0.472  1.00  0.00     0.000 C 
HETATM   15  C13 UNL     1      -4.903   0.476   0.150  1.00  0.00     0.000 C 
HETATM   16  C14 UNL     1      -4.410  -0.816  -0.495  1.00  0.00     0.000 C 
HETATM   17  C15 UNL     1      -2.964  -1.124  -0.049  1.00  0.00     0.006 C 
ENDBRANCH  11  12
ENDBRANCH   8  11
BRANCH   7  18
HETATM   18  C8  UNL     1       1.524   1.251   1.534  1.00  0.00     0.137 C 
HETATM   19 BR1  UNL     1       0.206   1.810   2.880  1.00  0.00    -0.090 Br
ENDBRANCH   7  18
BRANCH   1  20
HETATM   20  C2  UNL     1       3.681   1.040  -0.863  1.00  0.00     0.295 C 
HETATM   21  O2  UNL     1       3.039   1.800  -1.617  1.00  0.00    -0.259 OA
BRANCH  20  22
HETATM   22  O1  UNL     1       4.822   1.525  -0.245  1.00  0.00    -0.322 OA
HETATM   23  C1  UNL     1       5.306   2.818  -0.406  1.00  0.00     0.213 C 
ENDBRANCH  20  22
ENDBRANCH   1  20
TORSDOF 5
