REMARK  3 active torsions:
REMARK  status: ('A' for Active; 'I' for Inactive)
REMARK    1  A    between atoms: N1_2  and  C2_5 
REMARK    2  A    between atoms: C2_5  and  C3_6 
REMARK    3  A    between atoms: C6_9  and  O1_10 
ROOT
HETATM    1  C3  UNL     1      -0.414   0.901   0.082  1.00  0.00     0.014 C 
HETATM    2  C4  UNL     1       0.261   1.048  -1.248  1.00  0.00     0.009 C 
HETATM    3  C5  UNL     1       1.157  -0.184  -1.310  1.00  0.00     0.032 C 
HETATM    4  C6  UNL     1       1.700  -0.165   0.124  1.00  0.00     0.121 C 
HETATM    5  C8  UNL     1       0.412  -0.061   0.903  1.00  0.00     0.038 C 
ENDROOT
BRANCH   1   6
HETATM    6  C2  UNL     1      -1.814   0.348  -0.183  1.00  0.00     0.236 C 
BRANCH   6   7
HETATM    7  N1  UNL     1      -2.533   0.178   1.072  1.00  0.00    -0.079 N 
HETATM    8  C1  UNL     1      -3.842  -0.345   0.764  1.00  0.00     0.267 C 
ATOM      9  H12 UNL     1      -2.569   1.034   1.626  1.00  0.00     0.276 HD
ATOM     10  H11 UNL     1      -2.025  -0.397   1.744  1.00  0.00     0.276 HD
ENDBRANCH   6   7
ENDBRANCH   1   6
BRANCH   4  11
HETATM   11  O1  UNL     1       2.442  -1.273   0.421  1.00  0.00    -0.391 OA
HETATM   12  C7  UNL     1       3.711  -0.835   0.826  1.00  0.00     0.202 C 
ENDBRANCH   4  11
TORSDOF 3
