REMARK  4 active torsions:
REMARK  status: ('A' for Active; 'I' for Inactive)
REMARK    1  A    between atoms: C2_2  and  C4_5 
REMARK    2  A    between atoms: C4_5  and  N2_6 
REMARK    3  A    between atoms: C4_5  and  C5_10 
REMARK    4  A    between atoms: C5_10  and  C6_11 
ROOT
HETATM    1  C1  UNL     1      -2.095  -0.203   1.415  1.00  0.00     0.027 C 
HETATM    2  C2  UNL     1      -1.922   0.432   0.066  1.00  0.00     0.119 C 
HETATM    3  C3  UNL     1      -3.015   0.159  -0.834  1.00  0.00     0.065 C 
HETATM    4  N1  UNL     1      -3.878  -0.056  -1.565  1.00  0.00    -0.197 NA
ENDROOT
BRANCH   2   5
HETATM    5  C4  UNL     1      -0.577   0.071  -0.527  1.00  0.00     0.201 C 
BRANCH   5   6
HETATM    6  N2  UNL     1      -0.418   0.684  -1.822  1.00  0.00    -0.074 N 
ATOM      7  H23 UNL     1      -1.186   0.448  -2.451  1.00  0.00     0.274 HD
ATOM      8  H22 UNL     1      -0.558   1.694  -1.784  1.00  0.00     0.274 HD
ATOM      9  H21 UNL     1       0.488   0.441  -2.222  1.00  0.00     0.274 HD
ENDBRANCH   5   6
BRANCH   5  10
HETATM   10  C5  UNL     1       0.538   0.529   0.378  1.00  0.00     0.038 C 
BRANCH  10  11
HETATM   11  C6  UNL     1       1.896   0.213  -0.133  1.00  0.00    -0.013 A 
HETATM   12  C7  UNL     1       2.386  -1.133  -0.409  1.00  0.00     0.005 A 
HETATM   13  C8  UNL     1       2.830  -0.445   0.867  1.00  0.00     0.005 A 
ENDBRANCH  10  11
ENDBRANCH   5  10
ENDBRANCH   2   5
TORSDOF 4
