REMARK  3 active torsions:
REMARK  status: ('A' for Active; 'I' for Inactive)
REMARK    1  A    between atoms: C3_3  and  C4_4 
REMARK    2  A    between atoms: C4_4  and  N1_5 
REMARK    3  A    between atoms: N1_5  and  C5_7 
ROOT
HETATM    1  C4  UNL     1      -0.046  -0.433  -0.066  1.00  0.00     0.129 C 
ENDROOT
BRANCH   1   2
HETATM    2  C3  UNL     1      -1.490  -0.177   0.333  1.00  0.00     0.065 C 
HETATM    3  C2  UNL     1      -2.508  -0.276  -0.756  1.00  0.00     0.027 C 
HETATM    4  C1  UNL     1      -3.348   0.739  -0.012  1.00  0.00     0.075 C 
HETATM    5  S1  UNL     1      -1.829   1.642   0.366  1.00  0.00    -0.163 SA
ENDBRANCH   1   2
BRANCH   1   6
HETATM    6  N1  UNL     1       0.806  -0.316   1.059  1.00  0.00    -0.416 N 
ATOM      7  H1  UNL     1       0.440  -0.215   2.006  1.00  0.00     0.153 HD
BRANCH   6   8
HETATM    8  C5  UNL     1       2.195  -0.347   0.791  1.00  0.00     0.076 A 
HETATM    9  C6  UNL     1       2.867   0.762  -0.024  1.00  0.00     0.027 A 
HETATM   10  C7  UNL     1       2.734  -0.608  -0.568  1.00  0.00     0.027 A 
ENDBRANCH   6   8
ENDBRANCH   1   6
TORSDOF 3
