REMARK  3 active torsions:
REMARK  status: ('A' for Active; 'I' for Inactive)
REMARK    1  A    between atoms: N1_2  and  C2_5 
REMARK    2  A    between atoms: C5_8  and  C6_9 
REMARK    3  A    between atoms: C6_9  and  S1_10 
ROOT
HETATM    1  C2  UNL     1      -0.976   0.188   0.535  1.00  0.00     0.190 C 
HETATM    2  C3  UNL     1      -1.149  -1.312   0.581  1.00  0.00     0.034 C 
HETATM    3  C4  UNL     1      -0.020  -1.380  -0.461  1.00  0.00     0.009 C 
HETATM    4  C5  UNL     1       0.430  -0.057   0.118  1.00  0.00     0.025 C 
ENDROOT
BRANCH   1   5
HETATM    5  N1  UNL     1      -1.864   0.818  -0.368  1.00  0.00    -0.074 N 
HETATM    6  C1  UNL     1      -3.224   0.609   0.083  1.00  0.00     0.267 C 
ATOM      7  H12 UNL     1      -1.722   0.510  -1.330  1.00  0.00     0.277 HD
ATOM      8  H11 UNL     1      -1.647   1.806  -0.501  1.00  0.00     0.277 HD
ENDBRANCH   1   5
BRANCH   4   9
HETATM    9  C6  UNL     1       1.091   0.810  -0.859  1.00  0.00     0.080 C 
BRANCH   9  10
HETATM   10  S1  UNL     1       2.789   0.223  -1.129  1.00  0.00    -0.173 SA
HETATM   11  C7  UNL     1       3.834   0.382   0.311  1.00  0.00     0.089 C 
ENDBRANCH   9  10
ENDBRANCH   4   9
TORSDOF 3
