REMARK  3 active torsions:
REMARK  status: ('A' for Active; 'I' for Inactive)
REMARK    1  A    between atoms: C2_2  and  C3_3 
REMARK    2  A    between atoms: N1_4  and  N2_6 
REMARK    3  A    between atoms: N2_6  and  C4_8 
ROOT
HETATM    1  N2  UNL     1       0.286   0.255   0.737  1.00  0.00    -0.332 N 
ATOM      2  H2  UNL     1       0.227   0.721   1.643  1.00  0.00     0.180 HD
ENDROOT
BRANCH   1   3
HETATM    3  N1  UNL     1       1.438  -0.400   0.373  1.00  0.00    -0.316 N 
HETATM    4  C3  UNL     1       2.597   0.113   0.584  1.00  0.00     0.106 C 
ATOM      5  H1  UNL     1       1.371  -1.314  -0.075  1.00  0.00     0.185 HD
BRANCH   4   6
HETATM    6  C2  UNL     1       3.830  -0.593   0.193  1.00  0.00     0.008 C 
HETATM    7  C1  UNL     1       5.005  -0.070   0.408  1.00  0.00     0.013 C 
ENDBRANCH   4   6
ENDBRANCH   1   3
BRANCH   1   8
HETATM    8  C4  UNL     1      -0.840   0.282  -0.166  1.00  0.00     0.099 C 
HETATM    9  C5  UNL     1      -2.010   1.055   0.424  1.00  0.00     0.026 C 
HETATM   10  C6  UNL     1      -3.130   0.643  -0.540  1.00  0.00     0.002 C 
HETATM   11  C7  UNL     1      -2.770  -0.733  -1.025  1.00  0.00     0.002 C 
HETATM   12  C8  UNL     1      -1.483  -1.103  -0.302  1.00  0.00     0.026 C 
ENDBRANCH   1   8
TORSDOF 3
