REMARK  3 active torsions:
REMARK  status: ('A' for Active; 'I' for Inactive)
REMARK    1  A    between atoms: O1_2  and  N1_3 
REMARK    2  A    between atoms: C2_5  and  N2_6 
REMARK    3  A    between atoms: N2_6  and  C3_8 
ROOT
HETATM    1  N2  UNL     1      -0.353   0.517   1.335  1.00  0.00    -0.380 N 
ATOM      2  H2  UNL     1      -0.098   0.219   2.277  1.00  0.00     0.160 HD
ENDROOT
BRANCH   1   3
HETATM    3  C2  UNL     1      -0.886   1.811   1.102  1.00  0.00     0.200 C 
HETATM    4  N1  UNL     1      -0.076   2.799   0.997  1.00  0.00    -0.263 N 
ATOM      5  H1  UNL     1      -0.472   3.724   0.830  1.00  0.00     0.195 HD
BRANCH   4   6
HETATM    6  O1  UNL     1       1.276   2.696   1.094  1.00  0.00    -0.284 OA
HETATM    7  C1  UNL     1       2.115   2.799  -0.027  1.00  0.00     0.237 C 
ENDBRANCH   4   6
ENDBRANCH   1   3
BRANCH   1   8
HETATM    8  C3  UNL     1      -0.182  -0.359   0.220  1.00  0.00     0.082 C 
HETATM    9  C4  UNL     1      -1.507  -0.642  -0.483  1.00  0.00     0.025 C 
HETATM   10  C5  UNL     1      -1.118  -1.784  -1.390  1.00  0.00     0.002 C 
HETATM   11  C6  UNL     1       0.070  -2.467  -0.741  1.00  0.00     0.002 C 
HETATM   12  C7  UNL     1       0.233  -1.758   0.600  1.00  0.00     0.025 C 
ENDBRANCH   1   8
TORSDOF 3
