REMARK  6 active torsions:
REMARK  status: ('A' for Active; 'I' for Inactive)
REMARK    1  A    between atoms: C2_2  and  O1_5 
REMARK    2  A    between atoms: O1_5  and  C5_6 
REMARK    3  A    between atoms: C5_6  and  C6_8 
REMARK    4  A    between atoms: C9_12  and  N1_13 
REMARK       I    between atoms: N1_13  and  C10_15 
REMARK    5  A    between atoms: C10_15  and  C11_17 
REMARK    6  A    between atoms: C16_22  and  C17_23 
ROOT
HETATM    1  N1  UNL     1      -1.123   0.956   0.113  1.00  0.00    -0.321 N 
ATOM      2  H1  UNL     1      -0.778   0.003   0.001  1.00  0.00     0.169 HD
HETATM    3  C10 UNL     1      -2.466   1.166  -0.214  1.00  0.00     0.257 C 
HETATM    4  O3  UNL     1      -3.042   2.254  -0.140  1.00  0.00    -0.267 OA
ENDROOT
BRANCH   1   5
HETATM    5  C9  UNL     1      -0.164   1.926   0.591  1.00  0.00     0.058 A 
HETATM    6  C6  UNL     1       1.170   1.638   0.622  1.00  0.00     0.106 A 
HETATM    7  S1  UNL     1       1.852   3.069   1.299  1.00  0.00    -0.094 SA
HETATM    8  C7  UNL     1       0.442   3.976   1.515  1.00  0.00     0.053 A 
HETATM    9  C8  UNL     1      -0.539   3.135   1.052  1.00  0.00     0.038 A 
BRANCH   6  10
HETATM   10  C5  UNL     1       1.927   0.449   0.190  1.00  0.00     0.303 C 
HETATM   11  O2  UNL     1       1.442  -0.558  -0.303  1.00  0.00    -0.259 OA
BRANCH  10  12
HETATM   12  O1  UNL     1       3.315   0.438   0.340  1.00  0.00    -0.307 OA
BRANCH  12  13
HETATM   13  C2  UNL     1       4.084  -0.689  -0.068  1.00  0.00     0.060 C 
HETATM   14  C1  UNL     1       3.919  -0.972  -1.532  1.00  0.00     0.046 C 
HETATM   15  C3  UNL     1       5.528  -0.279   0.159  1.00  0.00     0.046 C 
HETATM   16  C4  UNL     1       3.808  -1.914   0.726  1.00  0.00     0.046 C 
ENDBRANCH  12  13
ENDBRANCH  10  12
ENDBRANCH   6  10
ENDBRANCH   1   5
BRANCH   3  17
HETATM   17  C11 UNL     1      -3.241   0.025  -0.681  1.00  0.00     0.047 A 
HETATM   18  C12 UNL     1      -2.789  -0.543  -1.869  1.00  0.00     0.018 A 
HETATM   19  C13 UNL     1      -3.410  -1.644  -2.363  1.00  0.00     0.001 A 
HETATM   20  C14 UNL     1      -4.487  -2.154  -1.642  1.00  0.00     0.001 A 
HETATM   21  C15 UNL     1      -4.925  -1.588  -0.475  1.00  0.00     0.017 A 
HETATM   22  C16 UNL     1      -4.293  -0.454   0.044  1.00  0.00     0.063 A 
BRANCH  22  23
HETATM   23  C17 UNL     1      -4.800   0.138   1.270  1.00  0.00     0.418 C 
HETATM   24  F1  UNL     1      -3.835   0.207   2.265  1.00  0.00    -0.166 F 
HETATM   25  F2  UNL     1      -5.771  -0.728   1.810  1.00  0.00    -0.166 F 
HETATM   26  F3  UNL     1      -5.467   1.339   1.111  1.00  0.00    -0.166 F 
ENDBRANCH  22  23
ENDBRANCH   3  17
TORSDOF 6
