REMARK  5 active torsions:
REMARK  status: ('A' for Active; 'I' for Inactive)
REMARK    1  A    between atoms: C2_2  and  C3_3 
REMARK    2  A    between atoms: C3_3  and  C4_4 
REMARK    3  A    between atoms: N2_14  and  C11_15 
REMARK    4  A    between atoms: C12_17  and  C13_18 
REMARK    5  A    between atoms: C18_25  and  O1_26 
ROOT
HETATM    1  C11 UNL     1      -0.042  -0.213   0.087  1.00  0.00     0.118 A 
HETATM    2  S1  UNL     1      -1.334   0.210   1.118  1.00  0.00    -0.069 SA
HETATM    3  C12 UNL     1      -2.520   0.572  -0.053  1.00  0.00     0.047 A 
HETATM    4  C16 UNL     1      -1.867   0.350  -1.232  1.00  0.00     0.097 A 
HETATM    5  C17 UNL     1      -2.600   0.567  -2.490  1.00  0.00     0.103 C 
HETATM    6  N3  UNL     1      -3.167   0.752  -3.495  1.00  0.00    -0.191 NA
HETATM    7  C18 UNL     1      -0.589  -0.055  -1.166  1.00  0.00     0.122 A 
ENDROOT
BRANCH   3   8
HETATM    8  C13 UNL     1      -3.908   1.016   0.216  1.00  0.00     0.131 C 
HETATM    9  C14 UNL     1      -4.125   1.103   1.712  1.00  0.00     0.057 C 
HETATM   10  C15 UNL     1      -4.956   0.164  -0.380  1.00  0.00     0.057 C 
HETATM   11  F2  UNL     1      -4.040   2.306  -0.292  1.00  0.00    -0.238 F 
ENDBRANCH   3   8
BRANCH   7  12
HETATM   12  O1  UNL     1       0.218  -0.325  -2.304  1.00  0.00    -0.357 OA
ATOM     13  H1  UNL     1      -0.160  -0.216  -3.169  1.00  0.00     0.218 HD
ENDBRANCH   7  12
BRANCH   1  14
HETATM   14  N2  UNL     1       1.302  -0.635   0.420  1.00  0.00    -0.290 N 
HETATM   15  C4  UNL     1       2.350   0.132   0.722  1.00  0.00     0.089 A 
HETATM   16  N1  UNL     1       3.414  -0.656   0.969  1.00  0.00    -0.344 N 
HETATM   17  C5  UNL     1       3.059  -1.955   0.827  1.00  0.00     0.064 A 
ATOM     18  H1  UNL     1       4.345  -0.325   1.224  1.00  0.00     0.167 HD
HETATM   19  C6  UNL     1       3.680  -3.171   0.941  1.00  0.00     0.074 A 
HETATM   20  C10 UNL     1       1.723  -1.914   0.481  1.00  0.00     0.068 A 
HETATM   21  C7  UNL     1       3.034  -4.367   0.727  1.00  0.00     0.118 A 
HETATM   22  F1  UNL     1       3.668  -5.574   0.846  1.00  0.00    -0.206 F 
HETATM   23  C8  UNL     1       1.696  -4.335   0.380  1.00  0.00     0.044 A 
HETATM   24  C9  UNL     1       1.064  -3.112   0.263  1.00  0.00     0.035 A 
BRANCH  15  25
HETATM   25  C3  UNL     1       2.387   1.606   0.789  1.00  0.00     0.076 C 
BRANCH  25  26
HETATM   26  C2  UNL     1       2.759   2.212  -0.561  1.00  0.00     0.003 C 
HETATM   27  C1  UNL     1       2.794   3.720  -0.480  1.00  0.00     0.005 C 
ENDBRANCH  25  26
ENDBRANCH  15  25
ENDBRANCH   1  14
TORSDOF 5
