REMARK  5 active torsions:
REMARK  status: ('A' for Active; 'I' for Inactive)
REMARK    1  A    between atoms: C5_5  and  N1_6 
REMARK    2  A    between atoms: N1_6  and  C6_8 
REMARK    3  A    between atoms: C7_11  and  C8_12 
REMARK    4  A    between atoms: C11_20  and  S1_21 
REMARK    5  A    between atoms: S1_21  and  C12_22 
ROOT
HETATM    1  C6  UNL     1      -0.132   0.507   0.934  1.00  0.00     0.127 A 
HETATM    2  N2  UNL     1       0.510   1.673   0.715  1.00  0.00    -0.326 N 
ATOM      3  H2  UNL     1       1.435   1.644   0.287  1.00  0.00     0.169 HD
HETATM    4  C7  UNL     1      -0.016   2.886   1.037  1.00  0.00     0.150 A 
HETATM    5  N3  UNL     1      -1.235   2.925   1.600  1.00  0.00    -0.332 N 
ATOM      6  H3  UNL     1      -1.651   3.822   1.850  1.00  0.00     0.168 HD
HETATM    7  C9  UNL     1      -1.918   1.770   1.839  1.00  0.00     0.136 A 
HETATM    8  C10 UNL     1      -3.206   1.892   2.455  1.00  0.00     0.119 C 
HETATM    9  N4  UNL     1      -4.226   1.995   2.968  1.00  0.00    -0.190 NA
HETATM   10  C11 UNL     1      -1.396   0.542   1.518  1.00  0.00     0.083 A 
ENDROOT
BRANCH  10  11
HETATM   11  S1  UNL     1      -2.263  -0.975   1.830  1.00  0.00    -0.114 SA
BRANCH  11  12
HETATM   12  C12 UNL     1      -3.272  -1.550   0.481  1.00  0.00     0.002 C 
HETATM   13  C13 UNL     1      -4.414  -0.598   0.242  1.00  0.00     0.026 C 
HETATM   14  C14 UNL     1      -2.504  -1.776  -0.798  1.00  0.00     0.026 C 
HETATM   15  C15 UNL     1      -3.888  -2.889   0.864  1.00  0.00     0.026 C 
ENDBRANCH  11  12
ENDBRANCH  10  11
BRANCH   4  16
HETATM   16  C8  UNL     1       0.696   4.142   0.793  1.00  0.00     0.420 C 
HETATM   17  F1  UNL     1       1.908   4.213   1.444  1.00  0.00    -0.206 F 
HETATM   18  F2  UNL     1       0.995   4.212  -0.574  1.00  0.00    -0.206 F 
ENDBRANCH   4  16
BRANCH   1  19
HETATM   19  N1  UNL     1       0.430  -0.606   0.606  1.00  0.00    -0.341 N 
ATOM     20  H1  UNL     1      -0.048  -1.492   0.768  1.00  0.00     0.167 HD
BRANCH  19  21
HETATM   21  C5  UNL     1       1.707  -0.585   0.024  1.00  0.00     0.039 A 
HETATM   22  C4  UNL     1       2.821  -0.672   0.847  1.00  0.00     0.030 A 
HETATM   23  C3  UNL     1       4.092  -0.658   0.356  1.00  0.00     0.009 A 
HETATM   24  C2  UNL     1       4.339  -0.556  -0.992  1.00  0.00    -0.061 A 
HETATM   25  C1  UNL     1       5.739  -0.545  -1.479  1.00  0.00     0.048 C 
HETATM   26  C18 UNL     1       3.253  -0.468  -1.830  1.00  0.00     0.015 A 
HETATM   27  C16 UNL     1       1.953  -0.483  -1.323  1.00  0.00    -0.035 A 
HETATM   28  C17 UNL     1       0.830  -0.387  -2.257  1.00  0.00     0.050 C 
ENDBRANCH  19  21
ENDBRANCH   1  19
TORSDOF 5
