REMARK  5 active torsions:
REMARK  status: ('A' for Active; 'I' for Inactive)
REMARK    1  A    between atoms: C2_2  and  C3_3 
REMARK    2  A    between atoms: C3_3  and  C4_4 
REMARK    3  A    between atoms: C5_5  and  C6_6 
REMARK    4  A    between atoms: C7_7  and  C8_8 
REMARK    5  A    between atoms: C14_16  and  C15_17 
ROOT
HETATM    1  C6  UNL     1       0.605  -0.203   0.087  1.00  0.00     0.075 A 
HETATM    2  C7  UNL     1       1.023   1.085   0.010  1.00  0.00     0.041 A 
HETATM    3  S1  UNL     1       2.769   0.872   0.177  1.00  0.00    -0.081 SA
HETATM    4  C14 UNL     1       2.839  -0.801   0.323  1.00  0.00     0.091 A 
HETATM    5  C17 UNL     1       1.530  -1.172   0.244  1.00  0.00     0.157 A 
HETATM    6  F2  UNL     1       1.247  -2.540   0.331  1.00  0.00    -0.203 F 
ENDROOT
BRANCH   4   7
HETATM    7  C15 UNL     1       4.046  -1.606   0.491  1.00  0.00     0.148 A 
HETATM    8  N1  UNL     1       4.145  -2.942   0.611  1.00  0.00    -0.309 N 
HETATM    9  C16 UNL     1       5.451  -3.224   0.744  1.00  0.00     0.241 A 
ATOM     10  H1  UNL     1       3.376  -3.612   0.603  1.00  0.00     0.170 HD
HETATM   11  S2  UNL     1       6.125  -4.687   0.922  1.00  0.00    -0.031 SA
HETATM   12  O1  UNL     1       6.149  -2.100   0.708  1.00  0.00    -0.206 OA
HETATM   13  N2  UNL     1       5.311  -1.150   0.558  1.00  0.00    -0.240 N 
ATOM     14  H2  UNL     1       5.568  -0.165   0.496  1.00  0.00     0.196 HD
ENDBRANCH   4   7
BRANCH   2  15
HETATM   15  C8  UNL     1       0.390   2.389  -0.081  1.00  0.00     0.021 A 
HETATM   16  C9  UNL     1       1.039   3.432   0.609  1.00  0.00     0.016 A 
HETATM   17  C10 UNL     1       0.609   4.736   0.560  1.00  0.00     0.001 A 
HETATM   18  C11 UNL     1      -0.499   5.058  -0.189  1.00  0.00     0.003 A 
HETATM   19  C12 UNL     1      -1.149   4.072  -0.871  1.00  0.00     0.043 A 
HETATM   20  C13 UNL     1      -0.687   2.758  -0.802  1.00  0.00     0.128 A 
HETATM   21  F1  UNL     1      -1.339   1.874  -1.585  1.00  0.00    -0.205 F 
ENDBRANCH   2  15
BRANCH   1  22
HETATM   22  C5  UNL     1      -0.834  -0.568   0.115  1.00  0.00    -0.062 C 
HETATM   23  C4  UNL     1      -2.021  -0.896   0.179  1.00  0.00    -0.101 C 
BRANCH  23  24
HETATM   24  C3  UNL     1      -3.429  -1.259   0.259  1.00  0.00     0.094 C 
BRANCH  24  25
HETATM   25  C2  UNL     1      -3.595  -2.519  -0.570  1.00  0.00     0.007 C 
HETATM   26  C1  UNL     1      -5.047  -2.919  -0.506  1.00  0.00     0.006 C 
ENDBRANCH  24  25
ENDBRANCH  23  24
ENDBRANCH   1  22
TORSDOF 5
