REMARK  5 active torsions:
REMARK  status: ('A' for Active; 'I' for Inactive)
REMARK    1  A    between atoms: O1_2  and  N1_3 
REMARK    2  A    between atoms: C2_5  and  C4_7 
REMARK    3  A    between atoms: C5_9  and  N2_10 
REMARK    4  A    between atoms: N2_10  and  C6_12 
REMARK    5  A    between atoms: C12_22  and  C13_23 
ROOT
HETATM    1  C4  UNL     1      -0.839   0.076  -0.214  1.00  0.00     0.056 A 
HETATM    2  S1  UNL     1       0.821   0.663  -0.420  1.00  0.00    -0.050 SA
HETATM    3  C5  UNL     1       1.640  -0.659   0.217  1.00  0.00     0.150 A 
HETATM    4  N3  UNL     1       0.664  -1.483   0.559  1.00  0.00    -0.338 N 
ATOM      5  H3  UNL     1       0.882  -2.385   0.982  1.00  0.00     0.168 HD
HETATM    6  C12 UNL     1      -0.596  -1.135   0.352  1.00  0.00     0.038 A 
ENDROOT
BRANCH   3   7
HETATM    7  N2  UNL     1       2.947  -0.864   0.360  1.00  0.00    -0.333 N 
ATOM      8  H2  UNL     1       3.271  -1.739   0.773  1.00  0.00     0.168 HD
BRANCH   7   9
HETATM    9  C6  UNL     1       3.883   0.084  -0.039  1.00  0.00     0.095 A 
HETATM   10  C7  UNL     1       4.708  -0.111  -1.122  1.00  0.00     0.144 A 
HETATM   11  F1  UNL     1       4.599  -1.255  -1.813  1.00  0.00    -0.204 F 
HETATM   12  C8  UNL     1       5.641   0.824  -1.527  1.00  0.00     0.045 A 
HETATM   13  C9  UNL     1       5.763   1.993  -0.834  1.00  0.00     0.005 A 
HETATM   14  C10 UNL     1       4.948   2.227   0.267  1.00  0.00     0.026 A 
HETATM   15  C11 UNL     1       4.009   1.264   0.658  1.00  0.00     0.063 A 
HETATM   16 CL1  UNL     1       2.969   1.529   2.039  1.00  0.00    -0.082 Cl
ENDBRANCH   7   9
ENDBRANCH   3   7
BRANCH   1  17
HETATM   17  C2  UNL     1      -1.975   0.848  -0.641  1.00  0.00     0.047 C 
HETATM   18  N1  UNL     1      -1.672   2.068  -1.131  1.00  0.00    -0.270 N 
ATOM     19  H1  UNL     1      -0.698   2.371  -1.152  1.00  0.00     0.194 HD
HETATM   20  C3  UNL     1      -3.373   0.555  -0.674  1.00  0.00     0.072 C 
BRANCH  18  21
HETATM   21  O1  UNL     1      -2.628   2.892  -1.592  1.00  0.00    -0.285 OA
HETATM   22  C1  UNL     1      -2.981   4.136  -1.016  1.00  0.00     0.237 C 
ENDBRANCH  18  21
ENDBRANCH   1  17
BRANCH   6  23
HETATM   23  C13 UNL     1      -1.720  -2.089   0.783  1.00  0.00    -0.007 C 
HETATM   24  C14 UNL     1      -1.066  -3.372   1.385  1.00  0.00     0.021 C 
HETATM   25  C15 UNL     1      -2.448  -1.508   1.961  1.00  0.00     0.021 C 
HETATM   26  C16 UNL     1      -2.510  -2.572  -0.353  1.00  0.00     0.021 C 
ENDBRANCH   6  23
TORSDOF 5
