REMARK  5 active torsions:
REMARK  status: ('A' for Active; 'I' for Inactive)
REMARK    1  A    between atoms: C2_2  and  C3_4 
REMARK    2  A    between atoms: C3_4  and  C4_5 
REMARK    3  A    between atoms: C4_5  and  C5_6 
REMARK    4  A    between atoms: C5_6  and  C6_7 
REMARK    5  A    between atoms: C21_24  and  O3_25 
ROOT
HETATM    1  C6  UNL     1       1.717  -0.813  -1.105  1.00  0.00    -0.031 C 
HETATM    2  C7  UNL     1       2.510  -1.991  -1.668  1.00  0.00     0.016 C 
HETATM    3  C8  UNL     1       2.071   0.352  -2.002  1.00  0.00     0.010 C 
HETATM    4  C9  UNL     1       1.280   1.572  -1.724  1.00  0.00     0.003 C 
HETATM    5  C10 UNL     1      -0.003   1.379  -1.006  1.00  0.00     0.031 C 
HETATM    6  C11 UNL     1      -0.666   0.038  -1.195  1.00  0.00     0.039 C 
HETATM    7  C12 UNL     1      -1.520   0.183  -2.471  1.00  0.00     0.039 C 
HETATM    8  C13 UNL     1       0.264  -1.118  -1.350  1.00  0.00     0.091 C 
HETATM    9  C14 UNL     1      -0.166  -2.351  -0.674  1.00  0.00     0.139 C 
HETATM   10  O2  UNL     1       0.605  -3.220  -0.355  1.00  0.00    -0.297 OA
HETATM   11  C15 UNL     1      -1.601  -2.515  -0.387  1.00  0.00     0.131 C 
HETATM   12  C16 UNL     1      -2.074  -1.263   0.264  1.00  0.00    -0.006 C 
HETATM   13  N1  UNL     1      -1.626  -0.113  -0.129  1.00  0.00    -0.376 N 
HETATM   14  C17 UNL     1      -2.165   1.009   0.586  1.00  0.00     0.134 C 
HETATM   15  C18 UNL     1      -3.672   0.940   0.741  1.00  0.00    -0.005 C 
HETATM   16  C19 UNL     1      -4.404   1.088  -0.559  1.00  0.00     0.019 C 
HETATM   17  C20 UNL     1      -4.063   2.135   1.607  1.00  0.00     0.019 C 
HETATM   18  C21 UNL     1      -4.061  -0.306   1.448  1.00  0.00     0.132 C 
HETATM   19  C22 UNL     1      -3.054  -1.413   1.353  1.00  0.00     0.085 C 
ENDROOT
BRANCH   1  20
HETATM   20  C5  UNL     1       2.119  -0.640   0.310  1.00  0.00     0.010 C 
BRANCH  20  21
HETATM   21  C4  UNL     1       3.613  -0.351   0.360  1.00  0.00     0.008 C 
BRANCH  21  22
HETATM   22  C3  UNL     1       4.070  -0.170   1.805  1.00  0.00     0.078 C 
BRANCH  22  23
HETATM   23  C2  UNL     1       5.526   0.106   1.753  1.00  0.00     0.123 C 
HETATM   24  C1  UNL     1       6.083   1.470   1.911  1.00  0.00     0.091 C 
HETATM   25  O1  UNL     1       6.287  -0.821   1.576  1.00  0.00    -0.298 OA
ENDBRANCH  22  23
ENDBRANCH  21  22
ENDBRANCH  20  21
ENDBRANCH   1  20
BRANCH  18  26
HETATM   26  O3  UNL     1      -5.238  -0.791   0.832  1.00  0.00    -0.394 OA
ATOM     27  H3  UNL     1      -5.487  -1.588   1.284  1.00  0.00     0.210 HD
ENDBRANCH  18  26
TORSDOF 5
