REMARK  5 active torsions:
REMARK  status: ('A' for Active; 'I' for Inactive)
REMARK       I    between atoms: N1_4  and  C4_5 
REMARK    1  A    between atoms: C4_5  and  C5_7 
REMARK    2  A    between atoms: C15_17  and  C16_18 
REMARK    3  A    between atoms: C16_18  and  O2_19 
REMARK    4  A    between atoms: C17_21  and  C18_22 
REMARK    5  A    between atoms: C18_22  and  C19_23 
ROOT
HETATM    1  C1  UNL     1       2.934  -0.554   2.232  1.00  0.00     0.012 C 
HETATM    2  C2  UNL     1       2.229   0.162   1.100  1.00  0.00     0.006 C 
HETATM    3  C3  UNL     1       0.735  -0.169   1.301  1.00  0.00     0.131 C 
HETATM    4  N1  UNL     1       0.367  -0.927   0.082  1.00  0.00    -0.344 N 
HETATM    5  C4  UNL     1      -0.828  -0.926  -0.616  1.00  0.00     0.229 C 
HETATM    6  O1  UNL     1      -0.917  -1.655  -1.664  1.00  0.00    -0.272 OA
HETATM    7  C15 UNL     1       1.603  -1.638  -0.169  1.00  0.00     0.115 C 
HETATM    8  C17 UNL     1       2.520  -0.443  -0.242  1.00  0.00     0.020 C 
ENDROOT
BRANCH   5   9
HETATM    9  C5  UNL     1      -2.057  -0.160  -0.294  1.00  0.00     0.042 C 
HETATM   10  C6  UNL     1      -3.199  -0.623  -1.227  1.00  0.00     0.024 C 
HETATM   11  C7  UNL     1      -4.453   0.143  -0.918  1.00  0.00    -0.013 C 
HETATM   12  C8  UNL     1      -4.296   1.626  -1.035  1.00  0.00     0.009 C 
HETATM   13  C12 UNL     1      -4.925  -0.153   0.492  1.00  0.00     0.009 C 
HETATM   14  C9  UNL     1      -3.165   2.020  -0.075  1.00  0.00    -0.013 C 
HETATM   15  C10 UNL     1      -3.536   1.702   1.334  1.00  0.00     0.009 C 
HETATM   16  C14 UNL     1      -1.933   1.316  -0.568  1.00  0.00     0.024 C 
HETATM   17  C11 UNL     1      -3.824   0.232   1.427  1.00  0.00    -0.013 C 
HETATM   18  C13 UNL     1      -2.541  -0.498   1.087  1.00  0.00     0.024 C 
ENDBRANCH   5   9
BRANCH   7  19
HETATM   19  C16 UNL     1       1.664  -2.618  -1.241  1.00  0.00     0.189 C 
BRANCH  19  20
HETATM   20  O2  UNL     1       0.791  -3.673  -0.987  1.00  0.00    -0.399 OA
ATOM     21  H2  UNL     1       0.831  -4.313  -1.688  1.00  0.00     0.209 HD
ENDBRANCH  19  20
ENDBRANCH   7  19
BRANCH   8  22
HETATM   22  C18 UNL     1       3.921  -0.699  -0.586  1.00  0.00     0.047 C 
BRANCH  22  23
HETATM   23  C19 UNL     1       4.689   0.567  -0.583  1.00  0.00    -0.034 A 
HETATM   24  C20 UNL     1       4.806   1.403  -1.688  1.00  0.00     0.033 A 
HETATM   25  C21 UNL     1       5.591   2.472  -1.331  1.00  0.00     0.142 A 
HETATM   26  O3  UNL     1       5.947   2.323  -0.081  1.00  0.00    -0.334 OA
HETATM   27  C22 UNL     1       5.422   1.192   0.392  1.00  0.00     0.148 A 
ENDBRANCH  22  23
ENDBRANCH   8  22
TORSDOF 5
