REMARK  11 active torsions:
REMARK  status: ('A' for Active; 'I' for Inactive)
REMARK       I    between atoms: N1_5  and  C5_6 
REMARK    1  A    between atoms: C5_6  and  C6_8 
REMARK    2  A    between atoms: C6_8  and  N2_9 
REMARK    3  A    between atoms: N2_9  and  C7_11 
REMARK    4  A    between atoms: C7_11  and  O2_12 
REMARK    5  A    between atoms: C7_11  and  C8_14 
REMARK    6  A    between atoms: C10_16  and  S1_17 
REMARK    7  A    between atoms: S1_17  and  N3_20 
REMARK    8  A    between atoms: C13_23  and  C14_24 
REMARK    9  A    between atoms: C19_32  and  O5_33 
REMARK   10  A    between atoms: O5_33  and  C20_34 
REMARK   11  A    between atoms: C20_34  and  C21_36 
ROOT
HETATM    1  C8  UNL     1       0.085   0.269   0.293  1.00  0.00     0.050 A 
HETATM    2  C9  UNL     1       1.151  -0.617  -0.023  1.00  0.00     0.044 A 
HETATM    3  C10 UNL     1       2.414  -0.245  -0.328  1.00  0.00     0.080 A 
HETATM    4  C17 UNL     1       2.744   1.088  -0.354  1.00  0.00     0.028 A 
HETATM    5  C18 UNL     1       1.751   1.988  -0.060  1.00  0.00     0.040 A 
HETATM    6  C19 UNL     1       0.431   1.595   0.263  1.00  0.00     0.093 A 
ENDROOT
BRANCH   1   7
HETATM    7  C7  UNL     1      -1.171  -0.269   0.676  1.00  0.00     0.150 C 
BRANCH   7   8
HETATM    8  N2  UNL     1      -2.363   0.295   1.172  1.00  0.00    -0.351 N 
ATOM      9  H2  UNL     1      -2.463   1.299   1.322  1.00  0.00     0.163 HD
BRANCH   8  10
HETATM   10  C6  UNL     1      -3.468  -0.657   1.465  1.00  0.00     0.131 A 
HETATM   11  C24 UNL     1      -3.363  -1.368   2.756  1.00  0.00     0.066 A 
HETATM   12  C25 UNL     1      -4.354  -0.264   2.627  1.00  0.00     0.122 A 
HETATM   13 CL1  UNL     1      -4.107   1.289   3.440  1.00  0.00    -0.122 Cl
BRANCH  10  14
HETATM   14  C5  UNL     1      -4.234  -1.244   0.349  1.00  0.00     0.249 C 
HETATM   15  N1  UNL     1      -4.799  -0.578  -0.717  1.00  0.00    -0.350 N 
HETATM   16  C4  UNL     1      -4.911   0.886  -0.922  1.00  0.00     0.126 C 
HETATM   17  C26 UNL     1      -5.518  -1.085  -1.891  1.00  0.00     0.130 C 
HETATM   18  C3  UNL     1      -6.482   0.885  -0.884  1.00  0.00     0.026 C 
HETATM   19  C2  UNL     1      -6.845  -0.322  -1.701  1.00  0.00     0.001 C 
HETATM   20  C1  UNL     1      -7.833  -1.215  -0.938  1.00  0.00     0.011 C 
HETATM   21  O1  UNL     1      -4.384  -2.528   0.416  1.00  0.00    -0.270 OA
ENDBRANCH  10  14
ENDBRANCH   8  10
ENDBRANCH   7   8
BRANCH   7  22
HETATM   22  O2  UNL     1      -1.264  -1.568   0.547  1.00  0.00    -0.346 OA
ATOM     23  H2  UNL     1      -0.460  -1.948   0.213  1.00  0.00     0.219 HD
ENDBRANCH   7  22
ENDBRANCH   1   7
BRANCH   6  24
HETATM   24  O5  UNL     1      -0.452   2.602   0.538  1.00  0.00    -0.278 OA
BRANCH  24  25
HETATM   25  C20 UNL     1      -0.533   3.345   1.686  1.00  0.00     0.268 C 
HETATM   26  O6  UNL     1       0.269   3.105   2.630  1.00  0.00    -0.264 OA
BRANCH  25  27
HETATM   27  C21 UNL     1      -1.540   4.438   1.869  1.00  0.00     0.086 A 
HETATM   28  C22 UNL     1      -2.521   4.762   0.804  1.00  0.00     0.015 A 
HETATM   29  C23 UNL     1      -1.278   5.596   0.828  1.00  0.00     0.015 A 
ENDBRANCH  25  27
ENDBRANCH  24  25
ENDBRANCH   6  24
BRANCH   3  30
HETATM   30  S1  UNL     1       3.685  -1.435  -0.629  1.00  0.00     0.260 S 
HETATM   31  O3  UNL     1       3.479  -1.996  -1.996  1.00  0.00    -0.200 OA
HETATM   32  O4  UNL     1       3.454  -2.595   0.353  1.00  0.00    -0.200 OA
BRANCH  30  33
HETATM   33  N3  UNL     1       5.243  -0.810  -0.457  1.00  0.00    -0.307 N 
HETATM   34  C11 UNL     1       6.036  -0.726  -1.648  1.00  0.00     0.136 C 
HETATM   35  C12 UNL     1       6.850  -1.957  -1.934  1.00  0.00     0.034 C 
HETATM   36  C13 UNL     1       7.727  -2.225  -0.745  1.00  0.00     0.096 C 
HETATM   37  C15 UNL     1       6.753  -2.578   0.391  1.00  0.00     0.034 C 
HETATM   38  C16 UNL     1       5.993  -1.288   0.659  1.00  0.00     0.136 C 
BRANCH  36  39
HETATM   39  C14 UNL     1       8.760  -3.293  -0.953  1.00  0.00     0.391 C 
HETATM   40  F1  UNL     1       9.572  -2.920  -1.976  1.00  0.00    -0.171 F 
HETATM   41  F2  UNL     1       9.536  -3.335   0.206  1.00  0.00    -0.171 F 
HETATM   42  F3  UNL     1       8.166  -4.529  -1.121  1.00  0.00    -0.171 F 
ENDBRANCH  36  39
ENDBRANCH  30  33
ENDBRANCH   3  30
TORSDOF 11
