REMARK  8 active torsions:
REMARK  status: ('A' for Active; 'I' for Inactive)
REMARK    1  A    between atoms: C1_2  and  C2_3 
REMARK    2  A    between atoms: C1_2  and  C5_9 
REMARK    3  A    between atoms: C2_3  and  C3_4 
REMARK    4  A    between atoms: C3_4  and  C4_5 
REMARK       I    between atoms: C5_9  and  N1_11 
REMARK    5  A    between atoms: C8_14  and  C9_15 
REMARK       I    between atoms: C9_15  and  N2_17 
REMARK       I    between atoms: N2_17  and  C10_19 
REMARK    6  A    between atoms: C10_19  and  C11_21 
REMARK    7  A    between atoms: C16_27  and  C17_28 
REMARK       I    between atoms: C17_28  and  N3_30 
REMARK    8  A    between atoms: N4_33  and  C20_34 
ROOT
HETATM    1  C9  UNL     1       2.242  -0.713   0.455  1.00  0.00     0.228 C 
HETATM    2  O3  UNL     1       1.967  -0.893   1.648  1.00  0.00    -0.273 OA
HETATM    3  N2  UNL     1       1.285  -0.372  -0.507  1.00  0.00    -0.297 N 
ATOM      4  H2  UNL     1       1.649  -0.248  -1.452  1.00  0.00     0.171 HD
HETATM    5  C10 UNL     1      -0.095  -0.174  -0.374  1.00  0.00     0.236 C 
HETATM    6  O4  UNL     1      -0.728   0.088  -1.465  1.00  0.00    -0.272 OA
ENDROOT
BRANCH   5   7
HETATM    7  C11 UNL     1      -0.772  -0.253   0.905  1.00  0.00     0.160 C 
HETATM    8  C12 UNL     1      -0.499   0.888   1.810  1.00  0.00     0.140 C 
HETATM    9  O5  UNL     1       0.088   1.857   1.454  1.00  0.00    -0.297 OA
HETATM   10  C13 UNL     1      -1.001   0.757   3.198  1.00  0.00     0.079 C 
HETATM   11  C14 UNL     1      -1.650  -0.608   3.290  1.00  0.00     0.008 C 
HETATM   12  C15 UNL     1      -2.681  -0.874   2.235  1.00  0.00     0.015 C 
HETATM   13  C16 UNL     1      -2.262  -0.506   0.830  1.00  0.00     0.098 C 
BRANCH  13  14
HETATM   14  C17 UNL     1      -3.040   0.632   0.359  1.00  0.00     0.225 C 
HETATM   15  O6  UNL     1      -2.466   1.721   0.130  1.00  0.00    -0.273 OA
HETATM   16  N3  UNL     1      -4.435   0.616   0.131  1.00  0.00    -0.349 N 
HETATM   17  C18 UNL     1      -5.161  -0.619   0.369  1.00  0.00     0.145 C 
HETATM   18  C27 UNL     1      -5.197   1.755  -0.325  1.00  0.00     0.145 C 
HETATM   19  C19 UNL     1      -6.173  -0.901  -0.697  1.00  0.00     0.143 C 
HETATM   20  N4  UNL     1      -6.880   0.280  -1.158  1.00  0.00    -0.378 N 
HETATM   21  C26 UNL     1      -6.014   1.386  -1.555  1.00  0.00     0.143 C 
BRANCH  20  22
HETATM   22  C20 UNL     1      -8.270   0.411  -1.222  1.00  0.00     0.030 A 
HETATM   23  C21 UNL     1      -9.113  -0.369  -0.465  1.00  0.00     0.029 A 
HETATM   24  C22 UNL     1     -10.507  -0.257  -0.535  1.00  0.00     0.002 A 
HETATM   25  C23 UNL     1     -11.058   0.668  -1.394  1.00  0.00     0.000 A 
HETATM   26  C24 UNL     1     -10.242   1.462  -2.164  1.00  0.00     0.002 A 
HETATM   27  C25 UNL     1      -8.860   1.320  -2.065  1.00  0.00     0.029 A 
ENDBRANCH  20  22
ENDBRANCH  13  14
ENDBRANCH   5   7
BRANCH   1  28
HETATM   28  C8  UNL     1       3.690  -0.881   0.079  1.00  0.00     0.081 C 
HETATM   29  C7  UNL     1       4.164   0.463  -0.456  1.00  0.00     0.034 C 
HETATM   30  C6  UNL     1       5.550   0.222  -1.053  1.00  0.00     0.127 C 
HETATM   31  N1  UNL     1       6.377  -0.342  -0.019  1.00  0.00    -0.346 N 
HETATM   32  C5  UNL     1       7.683  -0.776  -0.296  1.00  0.00     0.289 C 
HETATM   33  C29 UNL     1       5.803  -0.439   1.329  1.00  0.00     0.127 C 
HETATM   34  O2  UNL     1       8.345  -1.271   0.658  1.00  0.00    -0.264 OA
HETATM   35  C28 UNL     1       4.531  -1.267   1.256  1.00  0.00     0.034 C 
BRANCH  32  36
HETATM   36  C1  UNL     1       8.264  -0.671  -1.606  1.00  0.00     0.216 C 
HETATM   37  O1  UNL     1       7.641  -0.180  -2.561  1.00  0.00    -0.287 OA
BRANCH  36  38
HETATM   38  C2  UNL     1       9.639  -1.159  -1.821  1.00  0.00     0.098 C 
BRANCH  38  39
HETATM   39  C3  UNL     1      10.668  -0.260  -1.219  1.00  0.00     0.125 C 
BRANCH  39  40
HETATM   40  C4  UNL     1      10.606   1.115  -1.801  1.00  0.00     0.388 C 
HETATM   41  F1  UNL     1      10.803   1.048  -3.164  1.00  0.00    -0.171 F 
HETATM   42  F2  UNL     1      11.679   1.872  -1.292  1.00  0.00    -0.171 F 
HETATM   43  F3  UNL     1       9.421   1.706  -1.503  1.00  0.00    -0.171 F 
ENDBRANCH  39  40
ENDBRANCH  38  39
ENDBRANCH  36  38
ENDBRANCH  32  36
ENDBRANCH   1  28
TORSDOF 8
