REMARK  8 active torsions:
REMARK  status: ('A' for Active; 'I' for Inactive)
REMARK    1  A    between atoms: C2_2  and  N2_6 
REMARK       I    between atoms: N2_6  and  C5_8 
REMARK    2  A    between atoms: C5_8  and  C6_10 
REMARK    3  A    between atoms: N3_13  and  C9_14 
REMARK    4  A    between atoms: C9_14  and  C10_15 
REMARK    5  A    between atoms: C10_15  and  C11_16 
REMARK    6  A    between atoms: N4_21  and  C15_22 
REMARK       I    between atoms: N5_25  and  C18_26 
REMARK    7  A    between atoms: C18_26  and  C19_28 
REMARK    8  A    between atoms: N6_32  and  C23_33 
ROOT
HETATM    1  C1  UNL     1       8.897  -0.402  -2.890  1.00  0.00     0.055 C 
HETATM    2  C2  UNL     1       8.461  -0.194  -1.460  1.00  0.00     0.114 C 
HETATM    3  C3  UNL     1       9.023  -1.334  -0.647  1.00  0.00     0.055 C 
HETATM    4  C4  UNL     1       9.041   1.094  -1.022  1.00  0.00     0.090 C 
HETATM    5  N1  UNL     1       9.508   2.097  -0.688  1.00  0.00    -0.195 NA
ENDROOT
BRANCH   2   6
HETATM    6  N2  UNL     1       7.036  -0.103  -1.405  1.00  0.00    -0.339 N 
HETATM    7  C5  UNL     1       6.300   0.092  -0.207  1.00  0.00     0.223 C 
HETATM    8  O1  UNL     1       6.948   0.193   0.883  1.00  0.00    -0.273 OA
ATOM      9  H2  UNL     1       6.516  -0.183  -2.279  1.00  0.00     0.164 HD
BRANCH   7  10
HETATM   10  C6  UNL     1       4.816   0.173  -0.254  1.00  0.00     0.082 C 
HETATM   11  C7  UNL     1       4.332   1.295  -1.096  1.00  0.00     0.044 C 
HETATM   12  C8  UNL     1       3.386   2.259  -0.494  1.00  0.00     0.274 C 
HETATM   13  N3  UNL     1       2.534   1.683   0.561  1.00  0.00     0.097 N 
HETATM   14  C27 UNL     1       3.433   1.236   1.561  1.00  0.00     0.153 C 
HETATM   15  C28 UNL     1       4.368   2.436   1.833  1.00  0.00     0.049 C 
HETATM   16  C29 UNL     1       2.817   0.906   2.897  1.00  0.00     0.049 C 
HETATM   17  C30 UNL     1       4.244   0.051   1.114  1.00  0.00     0.055 C 
BRANCH  13  18
HETATM   18  C9  UNL     1       1.675   0.760  -0.072  1.00  0.00     0.275 C 
BRANCH  18  19
HETATM   19  C10 UNL     1       0.697   0.030   0.781  1.00  0.00     0.055 C 
BRANCH  19  20
HETATM   20  C11 UNL     1      -0.185  -0.916  -0.023  1.00  0.00     0.084 C 
HETATM   21  C12 UNL     1       0.719  -1.942  -0.725  1.00  0.00     0.064 C 
HETATM   22  C13 UNL     1      -0.139  -3.180  -0.680  1.00  0.00     0.189 C 
HETATM   23  F1  UNL     1      -0.925  -3.175  -1.809  1.00  0.00    -0.248 F 
HETATM   24  C14 UNL     1      -0.869  -3.039   0.607  1.00  0.00     0.155 C 
HETATM   25  N4  UNL     1      -1.078  -1.650   0.776  1.00  0.00    -0.401 N 
BRANCH  25  26
HETATM   26  C15 UNL     1      -2.376  -1.205   1.016  1.00  0.00     0.082 C 
HETATM   27  C16 UNL     1      -3.312  -1.050  -0.134  1.00  0.00     0.045 C 
HETATM   28  C17 UNL     1      -4.737  -1.027   0.460  1.00  0.00     0.127 C 
HETATM   29  N5  UNL     1      -4.847   0.144   1.274  1.00  0.00    -0.351 N 
HETATM   30  C18 UNL     1      -5.823   1.121   1.040  1.00  0.00     0.230 C 
HETATM   31  C25 UNL     1      -3.878   0.246   2.364  1.00  0.00     0.127 C 
HETATM   32  O2  UNL     1      -5.788   2.120   1.860  1.00  0.00    -0.272 OA
HETATM   33  C26 UNL     1      -2.454   0.078   1.811  1.00  0.00     0.045 C 
BRANCH  30  34
HETATM   34  C19 UNL     1      -6.859   1.179   0.025  1.00  0.00     0.066 C 
HETATM   35  C20 UNL     1      -7.652   2.490   0.183  1.00  0.00     0.027 C 
HETATM   36  C21 UNL     1      -6.399   1.163  -1.401  1.00  0.00     0.051 C 
HETATM   37  C22 UNL     1      -7.440   0.376  -2.160  1.00  0.00     0.285 C 
HETATM   38  N6  UNL     1      -8.346  -0.177  -1.218  1.00  0.00     0.198 N 
HETATM   39  C24 UNL     1      -7.900   0.087   0.107  1.00  0.00     0.303 C 
BRANCH  38  40
HETATM   40  C23 UNL     1      -8.785  -1.514  -1.468  1.00  0.00     0.603 C 
HETATM   41  F2  UNL     1      -9.424  -1.505  -2.703  1.00  0.00    -0.144 F 
HETATM   42  F3  UNL     1      -9.689  -1.941  -0.514  1.00  0.00    -0.144 F 
HETATM   43  F4  UNL     1      -7.798  -2.454  -1.540  1.00  0.00    -0.144 F 
ENDBRANCH  38  40
ENDBRANCH  30  34
ENDBRANCH  25  26
ENDBRANCH  19  20
ENDBRANCH  18  19
ENDBRANCH  13  18
ENDBRANCH   7  10
ENDBRANCH   2   6
TORSDOF 8
