REMARK  8 active torsions:
REMARK  status: ('A' for Active; 'I' for Inactive)
REMARK    1  A    between atoms: C1_2  and  C2_4 
REMARK    2  A    between atoms: C2_4  and  N2_5 
REMARK    3  A    between atoms: C2_4  and  C3_9 
REMARK    4  A    between atoms: C3_9  and  C4_10 
REMARK    5  A    between atoms: C4_10  and  N3_11 
REMARK    6  A    between atoms: C4_10  and  C6_16 
REMARK    7  A    between atoms: C6_16  and  N6_17 
REMARK    8  A    between atoms: C6_16  and  C7_21 
ROOT
HETATM    1  C4  UNL     1       0.281  -0.054   0.395  1.00  0.00     0.122 C 
ENDROOT
BRANCH   1   2
HETATM    2  C3  UNL     1       0.717  -1.020  -0.671  1.00  0.00     0.069 C 
BRANCH   2   3
HETATM    3  C2  UNL     1       2.144  -0.880  -1.082  1.00  0.00     0.273 C 
BRANCH   3   4
HETATM    4  C1  UNL     1       3.143  -1.082  -0.038  1.00  0.00     0.261 C 
HETATM    5  N1  UNL     1       3.423  -0.237   1.062  1.00  0.00    -0.060 NA
HETATM    6  O1  UNL     1       3.872  -2.130  -0.092  1.00  0.00    -0.275 OA
ENDBRANCH   3   4
BRANCH   3   7
HETATM    7  N2  UNL     1       2.361  -1.910  -2.124  1.00  0.00    -0.067 N 
ATOM      8  H23 UNL     1       3.315  -1.912  -2.485  1.00  0.00     0.275 HD
ATOM      9  H22 UNL     1       2.355  -2.859  -1.749  1.00  0.00     0.275 HD
ATOM     10  H21 UNL     1       1.663  -1.769  -2.854  1.00  0.00     0.275 HD
ENDBRANCH   3   7
ENDBRANCH   2   3
ENDBRANCH   1   2
BRANCH   1  11
HETATM   11  N3  UNL     1       0.444   1.320  -0.025  1.00  0.00    -0.360 N 
HETATM   12  C5  UNL     1       0.589   2.283   0.826  1.00  0.00     0.197 C 
HETATM   13  N4  UNL     1       0.744   3.612   0.346  1.00  0.00    -0.067 NA
HETATM   14  N5  UNL     1       0.601   2.078   2.233  1.00  0.00    -0.067 NA
ATOM     15  H3  UNL     1       0.445   1.536  -1.022  1.00  0.00     0.162 HD
ENDBRANCH   1  11
BRANCH   1  16
HETATM   16  C6  UNL     1      -1.119  -0.339   0.881  1.00  0.00     0.255 C 
BRANCH  16  17
HETATM   17  N6  UNL     1      -1.091  -1.696   1.414  1.00  0.00    -0.068 N 
ATOM     18  H63 UNL     1      -0.742  -2.387   0.750  1.00  0.00     0.275 HD
ATOM     19  H62 UNL     1      -0.376  -1.838   2.127  1.00  0.00     0.275 HD
ATOM     20  H61 UNL     1      -2.037  -1.889   1.742  1.00  0.00     0.275 HD
ENDBRANCH  16  17
BRANCH  16  21
HETATM   21  C7  UNL     1      -2.173  -0.206  -0.118  1.00  0.00     0.041 A 
HETATM   22  C8  UNL     1      -2.160   0.410  -1.351  1.00  0.00     0.028 A 
HETATM   23  C9  UNL     1      -3.398   0.270  -1.931  1.00  0.00     0.019 A 
HETATM   24  C10 UNL     1      -4.153  -0.435  -1.039  1.00  0.00     0.088 A 
HETATM   25  N7  UNL     1      -3.413  -0.707   0.025  1.00  0.00    -0.367 N 
ATOM     26  H7  UNL     1      -3.739  -1.225   0.841  1.00  0.00     0.165 HD
ENDBRANCH  16  21
ENDBRANCH   1  16
TORSDOF 8
