REMARK  9 active torsions:
REMARK  status: ('A' for Active; 'I' for Inactive)
REMARK    1  A    between atoms: N1_2  and  C2_4 
REMARK    2  A    between atoms: C2_4  and  N2_6 
REMARK    3  A    between atoms: N2_6  and  C3_8 
REMARK    4  A    between atoms: C3_8  and  C4_9 
REMARK    5  A    between atoms: C3_8  and  C5_12 
REMARK    6  A    between atoms: C5_12  and  N3_13 
REMARK    7  A    between atoms: C5_12  and  N6_18 
REMARK    8  A    between atoms: N6_18  and  C7_19 
REMARK    9  A    between atoms: C7_19  and  O3_20 
ROOT
HETATM    1  C3  UNL     1       0.070  -0.766  -0.801  1.00  0.00     0.241 C 
ENDROOT
BRANCH   1   2
HETATM    2  N2  UNL     1       1.472  -0.446  -0.628  1.00  0.00    -0.349 N 
ATOM      3  H2  UNL     1       2.081  -1.257  -0.515  1.00  0.00     0.163 HD
BRANCH   2   4
HETATM    4  C2  UNL     1       2.125   0.773  -0.590  1.00  0.00     0.168 C 
HETATM    5  S1  UNL     1       1.340   2.182  -0.799  1.00  0.00    -0.041 SA
BRANCH   4   6
HETATM    6  N1  UNL     1       3.539   0.813  -0.387  1.00  0.00    -0.372 N 
HETATM    7  C1  UNL     1       4.236   2.077  -0.338  1.00  0.00     0.148 C 
ATOM      8  H1  UNL     1       4.060  -0.057  -0.276  1.00  0.00     0.161 HD
ENDBRANCH   4   6
ENDBRANCH   2   4
ENDBRANCH   1   2
BRANCH   1   9
HETATM    9  C4  UNL     1      -0.067  -2.100  -1.429  1.00  0.00     0.201 C 
HETATM   10  O1  UNL     1       0.970  -2.801  -1.601  1.00  0.00    -0.646 OA
HETATM   11  O2  UNL     1      -1.281  -2.631  -1.846  1.00  0.00    -0.646 OA
ENDBRANCH   1   9
BRANCH   1  12
HETATM   12  C5  UNL     1      -0.646  -0.791   0.553  1.00  0.00     0.299 C 
BRANCH  12  13
HETATM   13  N3  UNL     1      -0.617   0.456   1.212  1.00  0.00    -0.333 N 
HETATM   14  C6  UNL     1      -1.549   1.251   1.462  1.00  0.00     0.199 C 
HETATM   15  N4  UNL     1      -2.907   1.118   1.145  1.00  0.00    -0.067 NA
HETATM   16  N5  UNL     1      -1.254   2.498   2.167  1.00  0.00    -0.067 NA
ATOM     17  H3  UNL     1       0.304   0.754   1.533  1.00  0.00     0.165 HD
ENDBRANCH  12  13
BRANCH  12  18
HETATM   18  N6  UNL     1      -1.904  -1.365   0.472  1.00  0.00    -0.408 NA
BRANCH  18  19
HETATM   19  C7  UNL     1      -3.112  -1.917   0.394  1.00  0.00     0.312 C 
BRANCH  19  20
HETATM   20  O3  UNL     1      -3.489  -3.140   0.625  1.00  0.00    -0.346 OA
ATOM     21  H3  UNL     1      -4.352  -3.534   0.569  1.00  0.00     0.219 HD
ENDBRANCH  19  20
ENDBRANCH  18  19
ENDBRANCH  12  18
ENDBRANCH   1  12
TORSDOF 9
