REMARK  7 active torsions:
REMARK  status: ('A' for Active; 'I' for Inactive)
REMARK    1  A    between atoms: C2_2  and  C3_3 
REMARK    2  A    between atoms: C3_3  and  N1_4 
REMARK    3  A    between atoms: C3_3  and  C5_11 
REMARK    4  A    between atoms: N1_4  and  N2_6 
REMARK       I    between atoms: N2_6  and  C4_8 
REMARK    5  A    between atoms: C5_11  and  N4_13 
REMARK       I    between atoms: N4_13  and  C7_15 
REMARK    6  A    between atoms: C7_15  and  C8_17 
REMARK    7  A    between atoms: C8_17  and  N5_18 
REMARK       I    between atoms: N5_18  and  C9_20 
ROOT
HETATM    1  C5  UNL     1      -0.355   0.869  -0.245  1.00  0.00     0.108 C 
HETATM    2  C6  UNL     1      -0.249   2.272   0.307  1.00  0.00     0.034 C 
ENDROOT
BRANCH   1   3
HETATM    3  C3  UNL     1      -1.340   0.097   0.608  1.00  0.00     0.143 C 
BRANCH   3   4
HETATM    4  C2  UNL     1      -1.510  -1.299   0.125  1.00  0.00    -0.009 C 
HETATM    5  C1  UNL     1      -2.257  -2.175   0.743  1.00  0.00     0.009 C 
ENDBRANCH   3   4
BRANCH   3   6
HETATM    6  N1  UNL     1      -2.465   0.825   0.932  1.00  0.00    -0.322 N 
ATOM      7  H1  UNL     1      -2.500   1.194   1.882  1.00  0.00     0.181 HD
BRANCH   6   8
HETATM    8  N2  UNL     1      -3.513   1.107   0.158  1.00  0.00    -0.258 N 
HETATM    9  C4  UNL     1      -3.851   0.780  -1.162  1.00  0.00     0.346 C 
HETATM   10  N3  UNL     1      -5.117   1.291  -1.667  1.00  0.00    -0.038 NA
HETATM   11  O1  UNL     1      -3.167   0.085  -1.965  1.00  0.00    -0.249 OA
ATOM     12  H2  UNL     1      -4.216   1.681   0.624  1.00  0.00     0.191 HD
ENDBRANCH   6   8
ENDBRANCH   3   6
ENDBRANCH   1   3
BRANCH   1  13
HETATM   13  N4  UNL     1       1.004   0.301  -0.053  1.00  0.00    -0.353 N 
HETATM   14  C7  UNL     1       1.759  -0.153  -1.140  1.00  0.00     0.235 C 
HETATM   15  O2  UNL     1       1.226  -0.054  -2.293  1.00  0.00    -0.272 OA
ATOM     16  H4  UNL     1       1.394   0.241   0.888  1.00  0.00     0.163 HD
BRANCH  14  17
HETATM   17  C8  UNL     1       3.099  -0.726  -1.074  1.00  0.00     0.226 C 
BRANCH  17  18
HETATM   18  N5  UNL     1       3.683  -0.830   0.238  1.00  0.00    -0.337 N 
HETATM   19  C9  UNL     1       4.982  -1.367   0.442  1.00  0.00     0.329 C 
HETATM   20  N6  UNL     1       5.547  -1.467   1.720  1.00  0.00    -0.040 NA
HETATM   21  O3  UNL     1       5.624  -1.756  -0.560  1.00  0.00    -0.251 OA
ATOM     22  H5  UNL     1       3.148  -0.509   1.045  1.00  0.00     0.164 HD
ENDBRANCH  17  18
ENDBRANCH  14  17
ENDBRANCH   1  13
TORSDOF 7
