REMARK  6 active torsions:
REMARK  status: ('A' for Active; 'I' for Inactive)
REMARK    1  A    between atoms: C2_2  and  C3_3 
REMARK    2  A    between atoms: C4_7  and  C5_8 
REMARK    3  A    between atoms: N2_9  and  N3_11 
REMARK    4  A    between atoms: C7_16  and  N6_17 
REMARK    5  A    between atoms: N6_17  and  C8_19 
REMARK    6  A    between atoms: C8_19  and  C10_21 
ROOT
HETATM    1  C3  UNL     1      -1.601   1.517  -0.129  1.00  0.00     0.233 C 
HETATM    2  N1  UNL     1      -0.564   2.449   0.241  1.00  0.00    -0.055 N 
ATOM      3  H11 UNL     1      -0.747   3.178   0.930  1.00  0.00     0.279 HD
ATOM      4  H12 UNL     1      -0.252   3.162  -0.418  1.00  0.00     0.279 HD
HETATM    5  C4  UNL     1       0.295   1.325   0.570  1.00  0.00     0.251 C 
HETATM    6  C7  UNL     1      -0.687   0.327   0.004  1.00  0.00     0.147 C 
ENDROOT
BRANCH   5   7
HETATM    7  C5  UNL     1       1.629   1.362  -0.066  1.00  0.00     0.115 C 
HETATM    8  N2  UNL     1       2.179   0.239  -0.391  1.00  0.00    -0.311 N 
ATOM      9  H2  UNL     1       1.675  -0.627  -0.199  1.00  0.00     0.185 HD
BRANCH   8  10
HETATM   10  N3  UNL     1       3.437   0.164  -0.995  1.00  0.00    -0.277 N 
HETATM   11  C6  UNL     1       4.442  -0.390  -0.403  1.00  0.00     0.215 C 
HETATM   12  N4  UNL     1       4.355  -0.966   0.905  1.00  0.00    -0.065 NA
HETATM   13  N5  UNL     1       5.694  -0.428  -1.078  1.00  0.00    -0.065 NA
ATOM     14  H3  UNL     1       3.565   0.557  -1.928  1.00  0.00     0.189 HD
ENDBRANCH   8  10
ENDBRANCH   5   7
BRANCH   6  15
HETATM   15  N6  UNL     1      -1.034  -0.645   0.977  1.00  0.00    -0.400 N 
ATOM     16  H6  UNL     1      -0.424  -0.846   1.769  1.00  0.00     0.154 HD
BRANCH  15  17
HETATM   17  C8  UNL     1      -2.269  -1.327   0.800  1.00  0.00     0.175 C 
HETATM   18  C9  UNL     1      -2.304  -2.141  -0.472  1.00  0.00     0.043 C 
BRANCH  17  19
HETATM   19  C10 UNL     1      -2.475  -2.251   1.925  1.00  0.00     0.195 C 
HETATM   20  O1  UNL     1      -1.636  -2.339   2.835  1.00  0.00    -0.646 OA
HETATM   21  O2  UNL     1      -3.611  -3.024   1.962  1.00  0.00    -0.646 OA
ENDBRANCH  17  19
ENDBRANCH  15  17
ENDBRANCH   6  15
BRANCH   1  22
HETATM   22  C2  UNL     1      -1.990   1.736  -1.558  1.00  0.00    -0.002 C 
HETATM   23  C1  UNL     1      -2.281   2.943  -2.032  1.00  0.00     0.009 C 
ENDBRANCH   1  22
TORSDOF 6
