REMARK  8 active torsions:
REMARK  status: ('A' for Active; 'I' for Inactive)
REMARK    1  A    between atoms: C3_3  and  C5_5 
REMARK    2  A    between atoms: C5_5  and  N1_6 
REMARK    3  A    between atoms: C5_5  and  C9_16 
REMARK       I    between atoms: N1_6  and  C6_8 
REMARK    4  A    between atoms: C6_8  and  C7_10 
REMARK    5  A    between atoms: C7_10  and  N2_12 
REMARK    6  A    between atoms: C9_16  and  N3_17 
REMARK    7  A    between atoms: C9_16  and  C10_21 
REMARK    8  A    between atoms: C10_21  and  N4_22 
REMARK       I    between atoms: N4_22  and  C11_24 
ROOT
HETATM    1  C1  UNL     1      -1.470  -2.813  -2.285  1.00  0.00     0.012 C 
HETATM    2  C2  UNL     1      -0.513  -2.237  -1.831  1.00  0.00    -0.111 C 
HETATM    3  C3  UNL     1       0.682  -1.531  -1.292  1.00  0.00     0.085 C 
HETATM    4  C4  UNL     1       1.175  -0.643  -2.395  1.00  0.00     0.025 C 
ENDROOT
BRANCH   3   5
HETATM    5  C5  UNL     1       0.226  -0.789  -0.070  1.00  0.00     0.131 C 
BRANCH   5   6
HETATM    6  N1  UNL     1      -0.802   0.145  -0.455  1.00  0.00    -0.351 N 
HETATM    7  C6  UNL     1      -2.152   0.040  -0.069  1.00  0.00     0.248 C 
HETATM    8  O1  UNL     1      -2.510  -0.907   0.648  1.00  0.00    -0.271 OA
ATOM      9  H1  UNL     1      -0.534   0.933  -1.045  1.00  0.00     0.163 HD
BRANCH   7  10
HETATM   10  C7  UNL     1      -3.131   1.040  -0.509  1.00  0.00     0.270 C 
HETATM   11  C8  UNL     1      -3.227   1.020  -2.025  1.00  0.00     0.050 C 
BRANCH  10  12
HETATM   12  N2  UNL     1      -4.427   0.682   0.036  1.00  0.00    -0.067 N 
ATOM     13  H23 UNL     1      -4.704  -0.270  -0.204  1.00  0.00     0.275 HD
ATOM     14  H22 UNL     1      -4.409   0.570   1.050  1.00  0.00     0.275 HD
ATOM     15  H21 UNL     1      -5.108   1.377  -0.270  1.00  0.00     0.275 HD
ENDBRANCH  10  12
ENDBRANCH   7  10
ENDBRANCH   5   6
BRANCH   5  16
HETATM   16  C9  UNL     1       1.369  -0.190   0.690  1.00  0.00     0.224 C 
BRANCH  16  17
HETATM   17  N3  UNL     1       2.163   0.755  -0.012  1.00  0.00    -0.071 N 
ATOM     18  H33 UNL     1       2.505   0.341  -0.879  1.00  0.00     0.274 HD
ATOM     19  H32 UNL     1       1.569   1.497  -0.383  1.00  0.00     0.274 HD
ATOM     20  H31 UNL     1       2.941   1.163   0.506  1.00  0.00     0.274 HD
ENDBRANCH  16  17
BRANCH  16  21
HETATM   21  C10 UNL     1       0.931   0.373   2.027  1.00  0.00     0.159 C 
BRANCH  21  22
HETATM   22  N4  UNL     1       2.066   0.936   2.695  1.00  0.00    -0.343 N 
HETATM   23  C11 UNL     1       3.227   0.241   3.098  1.00  0.00     0.328 C 
HETATM   24  N5  UNL     1       4.312   0.910   3.759  1.00  0.00    -0.040 NA
HETATM   25  O2  UNL     1       3.374  -0.973   2.905  1.00  0.00    -0.251 OA
ATOM     26  H4  UNL     1       2.032   1.935   2.899  1.00  0.00     0.163 HD
ENDBRANCH  21  22
ENDBRANCH  16  21
ENDBRANCH   5  16
ENDBRANCH   3   5
TORSDOF 8
