REMARK  6 active torsions:
REMARK  status: ('A' for Active; 'I' for Inactive)
REMARK    1  A    between atoms: C2_2  and  C3_3 
REMARK       I    between atoms: C3_3  and  N1_5 
REMARK    2  A    between atoms: N1_5  and  N2_7 
REMARK       I    between atoms: N2_7  and  C4_9 
REMARK    3  A    between atoms: C4_9  and  C5_11 
REMARK    4  A    between atoms: C5_11  and  N3_12 
REMARK       I    between atoms: N3_12  and  C6_14 
REMARK    5  A    between atoms: N5_16  and  C7_18 
REMARK    6  A    between atoms: N6_19  and  N7_21 
REMARK       I    between atoms: N7_21  and  C8_23 
ROOT
HETATM    1  N3  UNL     1       0.289   0.120   0.306  1.00  0.00    -0.356 N 
ATOM      2  H3  UNL     1       0.348  -0.897   0.357  1.00  0.00     0.162 HD
HETATM    3  C6  UNL     1       1.466   0.924   0.271  1.00  0.00     0.189 C 
HETATM    4  N4  UNL     1       1.386   2.236  -0.288  1.00  0.00    -0.064 NA
HETATM    5  N5  UNL     1       2.611   0.590   0.690  1.00  0.00    -0.326 N 
ATOM      6  H5  UNL     1       3.323   1.311   0.574  1.00  0.00     0.169 HD
ENDROOT
BRANCH   1   7
HETATM    7  C5  UNL     1      -0.983   0.788   0.267  1.00  0.00     0.226 C 
BRANCH   7   8
HETATM    8  C4  UNL     1      -2.155  -0.073   0.262  1.00  0.00     0.253 C 
HETATM    9  N2  UNL     1      -3.431   0.557   0.215  1.00  0.00    -0.266 N 
ATOM     10  H2  UNL     1      -3.458   1.576   0.192  1.00  0.00     0.190 HD
HETATM   11  O2  UNL     1      -2.134  -1.325   0.295  1.00  0.00    -0.270 OA
BRANCH   9  12
HETATM   12  N1  UNL     1      -4.647  -0.127   0.198  1.00  0.00    -0.264 N 
HETATM   13  C3  UNL     1      -4.989  -0.995  -0.867  1.00  0.00     0.258 C 
HETATM   14  O1  UNL     1      -4.126  -1.119  -1.801  1.00  0.00    -0.267 OA
ATOM     15  H1  UNL     1      -5.303   0.001   0.969  1.00  0.00     0.190 HD
BRANCH  13  16
HETATM   16  C2  UNL     1      -6.213  -1.735  -0.980  1.00  0.00     0.065 C 
HETATM   17  C1  UNL     1      -7.164  -1.674  -0.067  1.00  0.00     0.017 C 
ENDBRANCH  13  16
ENDBRANCH   9  12
ENDBRANCH   7   8
ENDBRANCH   1   7
BRANCH   5  18
HETATM   18  C7  UNL     1       3.076  -0.571   1.276  1.00  0.00     0.199 C 
HETATM   19  N6  UNL     1       4.102  -1.177   0.789  1.00  0.00    -0.294 N 
ATOM     20  H6  UNL     1       4.426  -2.032   1.240  1.00  0.00     0.187 HD
BRANCH  19  21
HETATM   21  N7  UNL     1       4.792  -0.707  -0.338  1.00  0.00    -0.273 N 
HETATM   22  C8  UNL     1       5.843   0.248  -0.286  1.00  0.00     0.200 C 
HETATM   23  N8  UNL     1       5.602   1.522  -0.193  1.00  0.00    -0.372 N 
HETATM   24  N9  UNL     1       7.176  -0.179  -0.338  1.00  0.00    -0.062 NA
ATOM     25  H82 UNL     1       4.631   1.833  -0.155  1.00  0.00     0.158 HD
ATOM     26  H81 UNL     1       6.356   2.207  -0.156  1.00  0.00     0.158 HD
ATOM     27  H7  UNL     1       4.523  -1.073  -1.251  1.00  0.00     0.189 HD
ENDBRANCH  19  21
ENDBRANCH   5  18
TORSDOF 6
