REMARK  8 active torsions:
REMARK  status: ('A' for Active; 'I' for Inactive)
REMARK    1  A    between atoms: C2_2  and  N1_4 
REMARK       I    between atoms: N1_4  and  C4_6 
REMARK    2  A    between atoms: C4_6  and  C5_8 
REMARK    3  A    between atoms: C5_8  and  N2_9 
REMARK    4  A    between atoms: C5_8  and  N4_15 
REMARK    5  A    between atoms: N2_9  and  C6_11 
REMARK    6  A    between atoms: C6_11  and  C7_12 
REMARK       I    between atoms: N4_15  and  C8_17 
REMARK    7  A    between atoms: C8_17  and  C9_19 
REMARK    8  A    between atoms: C9_19  and  N5_21 
ROOT
HETATM    1  C5  UNL     1       0.143   1.080   0.444  1.00  0.00     0.274 C 
ENDROOT
BRANCH   1   2
HETATM    2  C4  UNL     1      -1.226   0.741   0.043  1.00  0.00     0.260 C 
HETATM    3  N1  UNL     1      -1.824  -0.522   0.337  1.00  0.00    -0.354 N 
ATOM      4  H1  UNL     1      -1.273  -1.213   0.847  1.00  0.00     0.162 HD
HETATM    5  O1  UNL     1      -1.946   1.559  -0.587  1.00  0.00    -0.269 OA
BRANCH   3   6
HETATM    6  C2  UNL     1      -3.165  -0.866  -0.051  1.00  0.00     0.076 C 
HETATM    7  C1  UNL     1      -3.957  -1.099   1.232  1.00  0.00     0.032 C 
HETATM    8  C3  UNL     1      -3.255  -2.112  -0.874  1.00  0.00     0.032 C 
ENDBRANCH   3   6
ENDBRANCH   1   2
BRANCH   1   9
HETATM    9  N2  UNL     1       0.618   2.358   0.073  1.00  0.00    -0.386 N 
ATOM     10  H2  UNL     1       0.867   3.050   0.780  1.00  0.00     0.156 HD
BRANCH   9  11
HETATM   11  C6  UNL     1       0.739   2.653  -1.308  1.00  0.00     0.216 C 
BRANCH  11  12
HETATM   12  C7  UNL     1       1.258   4.042  -1.468  1.00  0.00     0.248 C 
HETATM   13  N3  UNL     1       1.537   4.817  -0.312  1.00  0.00    -0.061 NA
HETATM   14  O2  UNL     1       1.439   4.504  -2.629  1.00  0.00    -0.275 OA
ENDBRANCH  11  12
ENDBRANCH   9  11
ENDBRANCH   1   9
BRANCH   1  15
HETATM   15  N4  UNL     1       1.102   0.060   0.033  1.00  0.00    -0.330 N 
HETATM   16  C8  UNL     1       1.830  -0.723   0.964  1.00  0.00     0.249 C 
HETATM   17  O3  UNL     1       1.675  -0.567   2.214  1.00  0.00    -0.271 OA
ATOM     18  H4  UNL     1       1.255  -0.096  -0.963  1.00  0.00     0.165 HD
BRANCH  16  19
HETATM   19  C9  UNL     1       2.786  -1.740   0.473  1.00  0.00     0.270 C 
HETATM   20  C10 UNL     1       2.464  -3.121   1.029  1.00  0.00     0.050 C 
BRANCH  19  21
HETATM   21  N5  UNL     1       2.779  -1.737  -0.962  1.00  0.00    -0.067 N 
ATOM     22  H53 UNL     1       1.843  -1.868  -1.345  1.00  0.00     0.275 HD
ATOM     23  H52 UNL     1       2.965  -0.812  -1.349  1.00  0.00     0.275 HD
ATOM     24  H51 UNL     1       3.438  -2.438  -1.300  1.00  0.00     0.275 HD
ENDBRANCH  19  21
ENDBRANCH  16  19
ENDBRANCH   1  15
TORSDOF 8
