REMARK  4 active torsions:
REMARK  status: ('A' for Active; 'I' for Inactive)
REMARK       I    between atoms: C1_2  and  N1_3 
REMARK    1  A    between atoms: C1_2  and  C7_10 
REMARK    2  A    between atoms: N1_3  and  C2_5 
REMARK    3  A    between atoms: C2_5  and  C3_6 
REMARK    4  A    between atoms: C3_6  and  C4_7 
ROOT
HETATM    1  O1  UNL     1      -0.049  -0.137   1.530  1.00  0.00    -0.273 OA
HETATM    2  C1  UNL     1      -0.610   0.551   0.662  1.00  0.00     0.221 C 
HETATM    3  N1  UNL     1       0.173   1.205  -0.320  1.00  0.00    -0.361 N 
ATOM      4  H1  UNL     1      -0.315   1.765  -1.019  1.00  0.00     0.162 HD
ENDROOT
BRANCH   2   5
HETATM    5  C7  UNL     1      -2.056   0.697   0.636  1.00  0.00     0.080 C 
HETATM    6  C8  UNL     1      -2.591   0.166  -0.699  1.00  0.00     0.017 C 
HETATM    7  C9  UNL     1      -4.090   0.192  -0.401  1.00  0.00     0.038 C 
HETATM    8  C10 UNL     1      -4.107  -0.516   0.959  1.00  0.00     0.171 C 
HETATM    9  F1  UNL     1      -4.050  -1.888   0.693  1.00  0.00    -0.249 F 
HETATM   10  C11 UNL     1      -2.797  -0.137   1.620  1.00  0.00     0.051 C 
ENDBRANCH   2   5
BRANCH   3  11
HETATM   11  C2  UNL     1       1.605   1.137  -0.402  1.00  0.00     0.123 C 
BRANCH  11  12
HETATM   12  C3  UNL     1       2.162  -0.233  -0.606  1.00  0.00     0.024 C 
BRANCH  12  13
HETATM   13  C4  UNL     1       3.683  -0.112  -0.673  1.00  0.00    -0.013 A 
HETATM   14  C5  UNL     1       4.476  -1.355  -0.874  1.00  0.00     0.005 A 
HETATM   15  C6  UNL     1       4.399  -0.757   0.502  1.00  0.00     0.005 A 
ENDBRANCH  12  13
ENDBRANCH  11  12
ENDBRANCH   3  11
TORSDOF 4
