REMARK  4 active torsions:
REMARK  status: ('A' for Active; 'I' for Inactive)
REMARK    1  A    between atoms: C1_2  and  C2_4 
REMARK    2  A    between atoms: C2_4  and  C3_5 
REMARK    3  A    between atoms: C2_4  and  C7_9 
REMARK    4  A    between atoms: C3_5  and  C4_6 
ROOT
HETATM    1  C7  UNL     1      -0.661  -0.041  -0.455  1.00  0.00     0.057 C 
HETATM    2  C8  UNL     1      -1.916  -0.844  -0.871  1.00  0.00     0.044 C 
HETATM    3  C9  UNL     1      -2.956   0.130  -0.379  1.00  0.00     0.189 C 
HETATM    4  C10 UNL     1      -2.515   0.538   1.000  1.00  0.00     0.066 C 
HETATM    5  C11 UNL     1      -1.352   1.099   0.207  1.00  0.00     0.197 C 
HETATM    6  N1  UNL     1      -2.375   1.414  -0.811  1.00  0.00    -0.066 N 
ATOM      7  H11 UNL     1      -2.902   2.287  -0.816  1.00  0.00     0.278 HD
ATOM      8  H12 UNL     1      -2.145   1.620  -1.783  1.00  0.00     0.278 HD
ENDROOT
BRANCH   1   9
HETATM    9  C2  UNL     1       0.196  -0.884   0.468  1.00  0.00     0.025 C 
BRANCH   9  10
HETATM   10  C1  UNL     1       0.624  -2.115  -0.206  1.00  0.00     0.328 C 
HETATM   11  O1  UNL     1       0.452  -2.269  -1.399  1.00  0.00    -0.255 OA
HETATM   12  F1  UNL     1       1.223  -3.130   0.463  1.00  0.00    -0.159 F 
ENDBRANCH   9  10
BRANCH   9  13
HETATM   13  C3  UNL     1       1.171  -0.149   1.266  1.00  0.00    -0.008 C 
BRANCH  13  14
HETATM   14  C4  UNL     1       2.405   0.414   0.741  1.00  0.00     0.009 A 
HETATM   15  C5  UNL     1       2.496   1.433  -0.332  1.00  0.00     0.009 A 
HETATM   16  C6  UNL     1       3.121   0.026  -0.491  1.00  0.00     0.009 A 
ENDBRANCH  13  14
ENDBRANCH   9  13
ENDBRANCH   1   9
TORSDOF 4
