REMARK  4 active torsions:
REMARK  status: ('A' for Active; 'I' for Inactive)
REMARK    1  A    between atoms: N1_2  and  N2_4 
REMARK       I    between atoms: C2_6  and  N3_7 
REMARK       I    between atoms: C2_6  and  N5_12 
REMARK    2  A    between atoms: N3_7  and  N4_9 
REMARK       I    between atoms: N5_12  and  C3_14 
REMARK    3  A    between atoms: C3_14  and  C4_16 
REMARK    4  A    between atoms: C4_16  and  O2_17 
ROOT
HETATM    1  N2  UNL     1       3.063  -0.332  -1.122  1.00  0.00    -0.135 N 
ATOM      2  H2  UNL     1       2.874  -0.061  -2.087  1.00  0.00     0.205 HD
HETATM    3  C2  UNL     1       2.075  -0.315  -0.304  1.00  0.00     0.713 C 
HETATM    4  N3  UNL     1       2.327  -0.688   1.038  1.00  0.00    -0.137 N 
ATOM      5  H3  UNL     1       2.511   0.047   1.721  1.00  0.00     0.205 HD
HETATM    6  N5  UNL     1       0.772   0.072  -0.750  1.00  0.00    -0.152 N 
ATOM      7  H5  UNL     1       0.630   0.336  -1.725  1.00  0.00     0.187 HD
HETATM    8  C3  UNL     1      -0.325   0.093   0.150  1.00  0.00     0.299 C 
HETATM    9  O1  UNL     1      -0.215  -0.219   1.361  1.00  0.00    -0.266 OA
ENDROOT
BRANCH   8  10
HETATM   10  C4  UNL     1      -1.663   0.498  -0.346  1.00  0.00     0.254 C 
HETATM   11  C5  UNL     1      -2.696  -0.573  -0.151  1.00  0.00     0.080 C 
HETATM   12  C6  UNL     1      -4.031  -0.014  -0.612  1.00  0.00     0.016 C 
HETATM   13  C7  UNL     1      -4.533   1.062   0.325  1.00  0.00     0.111 C 
HETATM   14  C8  UNL     1      -3.382   1.935   0.668  1.00  0.00     0.261 C 
HETATM   15  O3  UNL     1      -3.629   3.024   1.246  1.00  0.00    -0.265 OA
HETATM   16  O4  UNL     1      -2.067   1.633   0.396  1.00  0.00    -0.274 OA
BRANCH  10  17
HETATM   17  O2  UNL     1      -1.603   0.809  -1.703  1.00  0.00    -0.358 OA
ATOM     18  H2  UNL     1      -2.460   1.068  -2.021  1.00  0.00     0.213 HD
ENDBRANCH  10  17
ENDBRANCH   8  10
BRANCH   1  19
HETATM   19  N1  UNL     1       4.353  -0.683  -0.811  1.00  0.00    -0.327 N 
HETATM   20  C1  UNL     1       5.340   0.300  -0.341  1.00  0.00     0.168 C 
ATOM     21  H1  UNL     1       4.636  -1.658  -0.909  1.00  0.00     0.180 HD
ENDBRANCH   1  19
BRANCH   4  22
HETATM   22  N4  UNL     1       2.335  -2.022   1.472  1.00  0.00    -0.331 N 
ATOM     23  H42 UNL     1       2.149  -2.744   0.776  1.00  0.00     0.177 HD
ATOM     24  H41 UNL     1       2.517  -2.291   2.439  1.00  0.00     0.177 HD
ENDBRANCH   4  22
TORSDOF 4
