REMARK  5 active torsions:
REMARK  status: ('A' for Active; 'I' for Inactive)
REMARK    1  A    between atoms: N1_2  and  C3_4 
REMARK    2  A    between atoms: C4_5  and  O1_6 
REMARK    3  A    between atoms: C5_12  and  C6_13 
REMARK       I    between atoms: C6_13  and  N4_15 
REMARK    4  A    between atoms: N4_15  and  N5_17 
REMARK    5  A    between atoms: N5_17  and  C7_19 
ROOT
HETATM    1  C6  UNL     1       0.532   0.762  -0.161  1.00  0.00     0.290 C 
HETATM    2  O2  UNL     1       0.473  -0.158  -0.997  1.00  0.00    -0.264 OA
HETATM    3  N4  UNL     1       1.707   1.512  -0.005  1.00  0.00    -0.250 N 
ATOM      4  H4  UNL     1       1.751   2.265   0.681  1.00  0.00     0.191 HD
ENDROOT
BRANCH   1   5
HETATM    5  C5  UNL     1      -0.629   1.053   0.655  1.00  0.00     0.148 A 
HETATM    6  C3  UNL     1      -1.862   0.406   0.622  1.00  0.00     0.116 A 
HETATM    7  C4  UNL     1      -2.644   1.016   1.559  1.00  0.00     0.184 A 
HETATM    8  N2  UNL     1      -1.937   2.003   2.157  1.00  0.00    -0.278 N 
HETATM    9  N3  UNL     1      -0.760   2.002   1.607  1.00  0.00    -0.292 N 
ATOM     10  H2  UNL     1      -2.264   2.626   2.895  1.00  0.00     0.189 HD
ATOM     11  H3  UNL     1      -0.015   2.648   1.866  1.00  0.00     0.187 HD
BRANCH   6  12
HETATM   12  N1  UNL     1      -2.257  -0.675  -0.209  1.00  0.00    -0.384 N 
HETATM   13  C1  UNL     1      -2.873  -0.447  -1.519  1.00  0.00     0.149 C 
HETATM   14  C2  UNL     1      -2.083  -2.068   0.173  1.00  0.00     0.149 C 
ENDBRANCH   6  12
BRANCH   7  15
HETATM   15  O1  UNL     1      -3.966   0.743   1.920  1.00  0.00    -0.343 OA
ATOM     16  H1  UNL     1      -4.510   1.168   2.572  1.00  0.00     0.219 HD
ENDBRANCH   7  15
ENDBRANCH   1   5
BRANCH   3  17
HETATM   17  N5  UNL     1       2.812   1.217  -0.797  1.00  0.00    -0.127 N 
ATOM     18  H5  UNL     1       3.069   1.883  -1.526  1.00  0.00     0.206 HD
BRANCH  17  19
HETATM   19  C7  UNL     1       3.525   0.164  -0.669  1.00  0.00     0.728 A 
HETATM   20  N6  UNL     1       3.323  -0.797   0.227  1.00  0.00    -0.114 N 
HETATM   21  N7  UNL     1       4.262  -1.701   0.037  1.00  0.00    -0.213 N 
ATOM     22  H6  UNL     1       2.582  -0.828   0.928  1.00  0.00     0.207 HD
HETATM   23  N8  UNL     1       5.044  -1.329  -0.954  1.00  0.00    -0.213 N 
ATOM     24  H7  UNL     1       4.367  -2.560   0.577  1.00  0.00     0.210 HD
HETATM   25  N9  UNL     1       4.584  -0.173  -1.389  1.00  0.00    -0.114 N 
ATOM     26  H8  UNL     1       5.851  -1.837  -1.316  1.00  0.00     0.210 HD
ATOM     27  H9  UNL     1       4.979   0.373  -2.155  1.00  0.00     0.207 HD
ENDBRANCH  17  19
ENDBRANCH   3  17
TORSDOF 5
