REMARK  1 active torsions:
REMARK  status: ('A' for Active; 'I' for Inactive)
REMARK    1  A    between atoms: C2_3  and  C3_4 
ROOT
HETATM    1  N1  UNL     1       0.985   2.884  -0.762  1.00  0.00    -0.196 NA
HETATM    2  C1  UNL     1       0.827   1.781  -0.439  1.00  0.00     0.076 C 
HETATM    3  C2  UNL     1       0.628   0.386  -0.005  1.00  0.00     0.104 C 
HETATM    4  C4  UNL     1      -0.238   0.318   1.191  1.00  0.00     0.032 C 
HETATM    5  C5  UNL     1      -1.542  -0.352   1.050  1.00  0.00     0.002 C 
HETATM    6  C6  UNL     1      -2.201  -0.292  -0.270  1.00  0.00     0.000 C 
HETATM    7  C7  UNL     1      -1.361   0.344  -1.352  1.00  0.00     0.002 C 
HETATM    8  C8  UNL     1       0.016  -0.322  -1.222  1.00  0.00     0.032 C 
ENDROOT
BRANCH   3   9
HETATM    9  C3  UNL     1       1.986  -0.171   0.258  1.00  0.00     0.109 C 
HETATM   10  N2  UNL     1       3.068   0.513   0.106  1.00  0.00    -0.390 N 
ATOM     11  H22 UNL     1       2.942   1.475  -0.210  1.00  0.00     0.157 HD
ATOM     12  H21 UNL     1       3.997   0.132   0.286  1.00  0.00     0.157 HD
HETATM   13  N3  UNL     1       2.163  -1.527   0.703  1.00  0.00    -0.086 NA
ENDBRANCH   3   9
TORSDOF 1
