REMARK  2 active torsions:
REMARK  status: ('A' for Active; 'I' for Inactive)
REMARK    1  A    between atoms: C2_2  and  C3_3 
REMARK    2  A    between atoms: C3_3  and  N1_4 
ROOT
HETATM    1  C3  UNL     1      -0.872   0.258  -0.363  1.00  0.00     0.125 C 
HETATM    2  C4  UNL     1      -0.484   1.266   0.646  1.00  0.00     0.039 C 
HETATM    3  C5  UNL     1       0.893   1.173   1.191  1.00  0.00     0.004 C 
HETATM    4  C6  UNL     1       1.982   1.048   0.184  1.00  0.00     0.019 C 
HETATM    5  C7  UNL     1       2.614  -0.306   0.315  1.00  0.00     0.113 C 
HETATM    6  N2  UNL     1       2.334  -1.203  -0.751  1.00  0.00    -0.421 N 
ATOM      7  H2  UNL     1       3.021  -1.875  -1.093  1.00  0.00     0.153 HD
HETATM    8  C8  UNL     1       1.020  -1.097  -1.312  1.00  0.00     0.116 C 
HETATM    9  C9  UNL     1      -0.080  -1.024  -0.303  1.00  0.00     0.057 C 
ENDROOT
BRANCH   1  10
HETATM   10  C2  UNL     1      -2.350  -0.144  -0.259  1.00  0.00     0.034 C 
HETATM   11  C1  UNL     1      -2.679  -0.808   1.021  1.00  0.00     0.007 C 
ENDBRANCH   1  10
BRANCH   1  12
HETATM   12  N1  UNL     1      -0.753   0.892  -1.688  1.00  0.00    -0.070 N 
ATOM     13  H13 UNL     1      -1.081   0.310  -2.459  1.00  0.00     0.275 HD
ATOM     14  H12 UNL     1      -1.405   1.661  -1.841  1.00  0.00     0.275 HD
ATOM     15  H11 UNL     1       0.229   1.159  -1.757  1.00  0.00     0.275 HD
ENDBRANCH   1  12
TORSDOF 2
