REMARK  1 active torsions:
REMARK  status: ('A' for Active; 'I' for Inactive)
REMARK    1  A    between atoms: C2_5  and  C3_6 
ROOT
HETATM    1  N1  UNL     1       4.059   0.944  -1.062  1.00  0.00    -0.086 NA
HETATM    2  C1  UNL     1       2.926   0.235  -0.575  1.00  0.00     0.116 C 
HETATM    3  N2  UNL     1       1.865  -0.044  -1.252  1.00  0.00    -0.353 N 
ATOM      4  H2  UNL     1       1.701   0.208  -2.227  1.00  0.00     0.162 HD
HETATM    5  C2  UNL     1       0.942  -0.774  -0.405  1.00  0.00     0.289 C 
HETATM    6  N3  UNL     1       1.333  -0.431   0.920  1.00  0.00    -0.048 N 
ATOM      7  H31 UNL     1       1.018  -1.080   1.641  1.00  0.00     0.280 HD
ATOM      8  H32 UNL     1       0.861   0.386   1.308  1.00  0.00     0.280 HD
HETATM    9  C9  UNL     1       2.775  -0.303   0.802  1.00  0.00     0.307 C 
ENDROOT
BRANCH   5  10
HETATM   10  C3  UNL     1      -0.485  -0.455  -0.739  1.00  0.00     0.036 C 
HETATM   11  C4  UNL     1      -0.856   0.972  -0.590  1.00  0.00     0.008 C 
HETATM   12  C5  UNL     1      -1.812   1.287   0.496  1.00  0.00     0.001 C 
HETATM   13  C6  UNL     1      -2.939   0.340   0.674  1.00  0.00     0.000 C 
HETATM   14  C7  UNL     1      -2.781  -0.931  -0.156  1.00  0.00     0.001 C 
HETATM   15  C8  UNL     1      -1.369  -1.402   0.054  1.00  0.00     0.008 C 
ENDBRANCH   5  10
TORSDOF 1
