REMARK  1 active torsions:
REMARK  status: ('A' for Active; 'I' for Inactive)
REMARK    1  A    between atoms: C3_3  and  C4_7 
ROOT
HETATM    1  C1  UNL     1       3.286   1.256   0.381  1.00  0.00     0.019 C 
HETATM    2  C2  UNL     1       2.695   0.241   0.103  1.00  0.00    -0.064 C 
HETATM    3  C3  UNL     1       1.985  -0.988  -0.209  1.00  0.00     0.062 C 
HETATM    4  N1  UNL     1       2.713  -2.042  -0.405  1.00  0.00    -0.395 N 
ATOM      5  H11 UNL     1       2.215  -2.905  -0.624  1.00  0.00     0.156 HD
ATOM      6  H12 UNL     1       3.731  -2.031  -0.348  1.00  0.00     0.156 HD
ENDROOT
BRANCH   3   7
HETATM    7  C4  UNL     1       0.501  -1.004  -0.292  1.00  0.00     0.061 C 
HETATM    8  C5  UNL     1      -0.080  -0.583   1.032  1.00  0.00     0.013 C 
HETATM    9  C6  UNL     1      -1.573  -0.582   1.016  1.00  0.00     0.002 C 
HETATM   10  C7  UNL     1      -2.015   0.881   0.928  1.00  0.00     0.019 C 
HETATM   11  C8  UNL     1      -1.280   1.464  -0.264  1.00  0.00     0.113 C 
HETATM   12  N2  UNL     1      -1.218   0.464  -1.268  1.00  0.00    -0.420 N 
HETATM   13  C9  UNL     1       0.064  -0.155  -1.437  1.00  0.00     0.125 C 
ATOM     14  H2  UNL     1      -2.028   0.204  -1.830  1.00  0.00     0.153 HD
ENDBRANCH   3   7
TORSDOF 1
