REMARK  4 active torsions:
REMARK  status: ('A' for Active; 'I' for Inactive)
REMARK    1  A    between atoms: C1_4  and  C2_6 
REMARK    2  A    between atoms: C5_9  and  N3_10 
REMARK    3  A    between atoms: N3_10  and  C6_12 
REMARK    4  A    between atoms: C6_12  and  C7_13 
ROOT
HETATM    1  C2  UNL     1      -3.020   0.067  -0.232  1.00  0.00     0.005 A 
HETATM    2  C3  UNL     1      -2.477   0.878   0.751  1.00  0.00     0.017 A 
HETATM    3  C4  UNL     1      -1.108   0.961   0.914  1.00  0.00     0.030 A 
HETATM    4  C5  UNL     1      -0.283   0.236   0.095  1.00  0.00     0.028 A 
HETATM    5  C10 UNL     1      -0.809  -0.569  -0.882  1.00  0.00     0.030 A 
HETATM    6  C11 UNL     1      -2.178  -0.647  -1.039  1.00  0.00     0.017 A 
ENDROOT
BRANCH   4   7
HETATM    7  N3  UNL     1       1.110   0.323   0.262  1.00  0.00    -0.384 N 
ATOM      8  H3  UNL     1       1.505   0.922   0.987  1.00  0.00     0.160 HD
BRANCH   7   9
HETATM    9  C6  UNL     1       1.979  -0.445  -0.605  1.00  0.00     0.178 C 
BRANCH   9  10
HETATM   10  C7  UNL     1       3.414  -0.199  -0.246  1.00  0.00     0.044 A 
HETATM   11  C8  UNL     1       4.117  -0.938   0.670  1.00  0.00     0.047 A 
HETATM   12  C9  UNL     1       5.395  -0.401   0.716  1.00  0.00     0.109 A 
HETATM   13  N4  UNL     1       5.413   0.622  -0.159  1.00  0.00    -0.312 N 
HETATM   14  N5  UNL     1       4.241   0.736  -0.724  1.00  0.00    -0.304 N 
ATOM     15  H4  UNL     1       6.219   1.217  -0.351  1.00  0.00     0.186 HD
ATOM     16  H5  UNL     1       3.994   1.434  -1.425  1.00  0.00     0.186 HD
ENDBRANCH   9  10
ENDBRANCH   7   9
ENDBRANCH   4   7
BRANCH   1  17
HETATM   17  C1  UNL     1      -4.472  -0.013  -0.395  1.00  0.00     0.120 C 
HETATM   18  N1  UNL     1      -4.996  -0.747  -1.288  1.00  0.00    -0.387 N 
ATOM     19  H12 UNL     1      -6.008  -0.803  -1.402  1.00  0.00     0.157 HD
ATOM     20  H11 UNL     1      -4.412  -1.300  -1.915  1.00  0.00     0.157 HD
HETATM   21  N2  UNL     1      -5.297   0.769   0.491  1.00  0.00    -0.082 NA
ENDBRANCH   1  17
TORSDOF 4
