REMARK  5 active torsions:
REMARK  status: ('A' for Active; 'I' for Inactive)
REMARK    1  A    between atoms: C2_2  and  N1_3 
REMARK    2  A    between atoms: C2_2  and  C3_7 
REMARK    3  A    between atoms: C4_8  and  N2_9 
REMARK    4  A    between atoms: N2_9  and  C5_11 
REMARK    5  A    between atoms: C5_11  and  C6_12 
ROOT
HETATM    1  C3  UNL     1      -1.871  -0.076  -0.422  1.00  0.00     0.086 A 
HETATM    2  C4  UNL     1      -0.692  -0.480   0.175  1.00  0.00     0.130 A 
HETATM    3  N3  UNL     1      -0.181  -1.526  -0.491  1.00  0.00    -0.282 N 
ATOM      4  H3  UNL     1       0.682  -2.022  -0.267  1.00  0.00     0.188 HD
HETATM    5  N4  UNL     1      -1.012  -1.799  -1.503  1.00  0.00    -0.264 N 
ATOM      6  H4  UNL     1      -0.882  -2.547  -2.184  1.00  0.00     0.190 HD
HETATM    7  C12 UNL     1      -2.058  -0.926  -1.486  1.00  0.00     0.272 A 
HETATM    8  O1  UNL     1      -2.998  -0.949  -2.328  1.00  0.00    -0.266 OA
ENDROOT
BRANCH   2   9
HETATM    9  N2  UNL     1      -0.145   0.167   1.342  1.00  0.00    -0.370 N 
ATOM     10  H2  UNL     1      -0.644   0.948   1.767  1.00  0.00     0.161 HD
BRANCH   9  11
HETATM   11  C5  UNL     1       1.107  -0.283   1.916  1.00  0.00     0.160 C 
BRANCH  11  12
HETATM   12  C6  UNL     1       2.230  -0.110   0.958  1.00  0.00    -0.041 A 
HETATM   13  C7  UNL     1       2.130   0.723  -0.126  1.00  0.00     0.009 A 
HETATM   14  C8  UNL     1       3.186   0.855  -1.002  1.00  0.00     0.001 A 
HETATM   15  C9  UNL     1       4.362   0.162  -0.817  1.00  0.00     0.000 A 
HETATM   16  C10 UNL     1       4.476  -0.680   0.272  1.00  0.00     0.001 A 
HETATM   17  C11 UNL     1       3.405  -0.804   1.147  1.00  0.00     0.009 A 
ENDBRANCH  11  12
ENDBRANCH   9  11
ENDBRANCH   2   9
BRANCH   1  18
HETATM   18  C2  UNL     1      -2.770   1.028  -0.022  1.00  0.00     0.221 C 
HETATM   19  C1  UNL     1      -3.865   1.280  -1.007  1.00  0.00     0.045 C 
BRANCH  18  20
HETATM   20  N1  UNL     1      -3.345   0.819   1.293  1.00  0.00    -0.071 N 
ATOM     21  H13 UNL     1      -3.950   1.590   1.577  1.00  0.00     0.275 HD
ATOM     22  H12 UNL     1      -4.045   0.077   1.295  1.00  0.00     0.275 HD
ATOM     23  H11 UNL     1      -2.598   0.647   1.965  1.00  0.00     0.275 HD
ENDBRANCH  18  20
ENDBRANCH   1  18
TORSDOF 5
