REMARK  4 active torsions:
REMARK  status: ('A' for Active; 'I' for Inactive)
REMARK    1  A    between atoms: C2_2  and  N1_3 
REMARK    2  A    between atoms: N1_3  and  C3_5 
REMARK    3  A    between atoms: C9_16  and  N4_17 
REMARK    4  A    between atoms: N4_17  and  C10_19 
ROOT
HETATM    1  C3  UNL     1       0.677   0.324  -0.499  1.00  0.00     0.132 A 
HETATM    2  N2  UNL     1       1.061   1.592  -0.272  1.00  0.00    -0.339 N 
ATOM      3  H2  UNL     1       2.054   1.822  -0.249  1.00  0.00     0.167 HD
HETATM    4  C4  UNL     1       0.133   2.577  -0.072  1.00  0.00     0.065 A 
HETATM    5  C5  UNL     1       0.232   3.922   0.175  1.00  0.00     0.118 A 
HETATM    6  N3  UNL     1      -1.010   4.400   0.288  1.00  0.00    -0.372 N 
ATOM      7  H3  UNL     1      -1.249   5.374   0.474  1.00  0.00     0.164 HD
HETATM    8  C6  UNL     1      -1.905   3.396   0.119  1.00  0.00     0.105 A 
HETATM    9  C7  UNL     1      -1.201   2.208  -0.115  1.00  0.00     0.060 A 
HETATM   10  C8  UNL     1      -1.600   0.909  -0.347  1.00  0.00     0.215 A 
HETATM   11  O1  UNL     1      -2.852   0.668  -0.368  1.00  0.00    -0.285 OA
HETATM   12  C9  UNL     1      -0.652  -0.037  -0.541  1.00  0.00     0.124 A 
ENDROOT
BRANCH  12  13
HETATM   13  N4  UNL     1      -0.993  -1.389  -0.784  1.00  0.00    -0.380 N 
ATOM     14  H4  UNL     1      -1.126  -1.681  -1.752  1.00  0.00     0.160 HD
BRANCH  13  15
HETATM   15  C10 UNL     1      -1.164  -2.374   0.242  1.00  0.00     0.073 C 
HETATM   16  C11 UNL     1      -1.524  -3.709  -0.373  1.00  0.00     0.031 C 
HETATM   17  C12 UNL     1      -2.258  -2.022   1.222  1.00  0.00     0.031 C 
ENDBRANCH  13  15
ENDBRANCH  12  13
BRANCH   1  18
HETATM   18  N1  UNL     1       1.677  -0.655  -0.709  1.00  0.00    -0.375 N 
ATOM     19  H1  UNL     1       1.366  -1.608  -0.897  1.00  0.00     0.161 HD
BRANCH  18  20
HETATM   20  C2  UNL     1       3.102  -0.416  -0.679  1.00  0.00     0.116 C 
HETATM   21  C1  UNL     1       3.605   0.014   0.681  1.00  0.00     0.026 C 
ENDBRANCH  18  20
ENDBRANCH   1  18
TORSDOF 4
