REMARK  4 active torsions:
REMARK  status: ('A' for Active; 'I' for Inactive)
REMARK    1  A    between atoms: C1_4  and  C2_6 
REMARK    2  A    between atoms: C4_8  and  C5_9 
REMARK    3  A    between atoms: C5_9  and  N3_10 
REMARK    4  A    between atoms: N3_10  and  C6_12 
ROOT
HETATM    1  C2  UNL     1      -2.583   0.140  -0.742  1.00  0.00     0.090 A 
HETATM    2  C3  UNL     1      -2.011   0.875   0.265  1.00  0.00     0.062 A 
HETATM    3  C4  UNL     1      -0.932   0.175   0.744  1.00  0.00     0.045 A 
HETATM    4  N4  UNL     1      -0.854  -0.956   0.042  1.00  0.00    -0.303 N 
ATOM      5  H4  UNL     1      -0.153  -1.687   0.165  1.00  0.00     0.186 HD
HETATM    6  N5  UNL     1      -1.833  -0.970  -0.835  1.00  0.00    -0.297 N 
ATOM      7  H5  UNL     1      -2.001  -1.725  -1.499  1.00  0.00     0.187 HD
ENDROOT
BRANCH   3   8
HETATM    8  C5  UNL     1      -0.056   0.654   1.855  1.00  0.00     0.178 C 
BRANCH   8   9
HETATM    9  N3  UNL     1       1.093  -0.183   2.010  1.00  0.00    -0.384 N 
ATOM     10  H3  UNL     1       1.187  -0.690   2.890  1.00  0.00     0.160 HD
BRANCH   9  11
HETATM   11  C6  UNL     1       2.103  -0.366   1.052  1.00  0.00     0.028 A 
HETATM   12  C7  UNL     1       3.109  -1.270   1.274  1.00  0.00     0.029 A 
HETATM   13  C8  UNL     1       4.131  -1.468   0.340  1.00  0.00     0.002 A 
HETATM   14  C9  UNL     1       4.154  -0.759  -0.827  1.00  0.00     0.000 A 
HETATM   15  C10 UNL     1       3.152   0.150  -1.060  1.00  0.00     0.002 A 
HETATM   16  C11 UNL     1       2.152   0.333  -0.130  1.00  0.00     0.029 A 
ENDBRANCH   9  11
ENDBRANCH   8   9
ENDBRANCH   3   8
BRANCH   1  17
HETATM   17  C1  UNL     1      -3.753   0.483  -1.545  1.00  0.00     0.138 C 
HETATM   18  N1  UNL     1      -4.180  -0.298  -2.455  1.00  0.00    -0.386 N 
ATOM     19  H12 UNL     1      -4.997  -0.058  -3.016  1.00  0.00     0.157 HD
ATOM     20  H11 UNL     1      -3.698  -1.180  -2.629  1.00  0.00     0.157 HD
HETATM   21  N2  UNL     1      -4.425   1.711  -1.303  1.00  0.00    -0.081 NA
ENDBRANCH   1  17
TORSDOF 4
