REMARK  11 active torsions:
REMARK  status: ('A' for Active; 'I' for Inactive)
REMARK    1  A    between atoms: C2_2  and  C4_4 
REMARK    2  A    between atoms: C4_4  and  N1_5 
REMARK    3  A    between atoms: C4_4  and  C25_33 
REMARK       I    between atoms: N1_5  and  C5_7 
REMARK    4  A    between atoms: C5_7  and  C6_9 
REMARK    5  A    between atoms: C6_9  and  C7_10 
REMARK    6  A    between atoms: C6_9  and  C14_17 
REMARK    7  A    between atoms: C7_10  and  C8_11 
REMARK    8  A    between atoms: C14_17  and  N2_18 
REMARK    9  A    between atoms: C14_17  and  C24_30 
REMARK       I    between atoms: N2_18  and  C15_20 
REMARK   10  A    between atoms: C15_20  and  C16_22 
REMARK   11  A    between atoms: C16_22  and  C18_24 
ROOT
HETATM    1  C6  UNL     1      -0.419  -0.877   0.895  1.00  0.00     0.133 C 
ENDROOT
BRANCH   1   2
HETATM    2  C5  UNL     1      -1.802  -1.152   1.211  1.00  0.00     0.228 C 
HETATM    3  N1  UNL     1      -2.902  -0.875   0.353  1.00  0.00    -0.347 N 
ATOM      4  H1  UNL     1      -2.711  -0.433  -0.546  1.00  0.00     0.163 HD
HETATM    5  O1  UNL     1      -2.090  -1.688   2.336  1.00  0.00    -0.273 OA
BRANCH   3   6
HETATM    6  C4  UNL     1      -4.261  -1.181   0.678  1.00  0.00     0.177 C 
BRANCH   6   7
HETATM    7  C2  UNL     1      -5.022  -1.455  -0.582  1.00  0.00     0.009 C 
HETATM    8  C1  UNL     1      -6.476  -1.801  -0.324  1.00  0.00     0.012 C 
HETATM    9  C3  UNL     1      -4.363  -2.545  -1.362  1.00  0.00     0.012 C 
ENDBRANCH   6   7
BRANCH   6  10
HETATM   10  C25 UNL     1      -4.853   0.008   1.392  1.00  0.00     0.254 C 
HETATM   11  N4  UNL     1      -6.214  -0.042   1.868  1.00  0.00    -0.060 NA
HETATM   12  O4  UNL     1      -4.235   1.059   1.608  1.00  0.00    -0.275 OA
ENDBRANCH   6  10
ENDBRANCH   3   6
ENDBRANCH   1   2
BRANCH   1  13
HETATM   13  C7  UNL     1      -0.112   0.224  -0.048  1.00  0.00     0.025 C 
BRANCH  13  14
HETATM   14  C8  UNL     1      -0.602   1.558   0.408  1.00  0.00    -0.013 C 
HETATM   15  C9  UNL     1      -0.247   2.645  -0.597  1.00  0.00     0.005 C 
HETATM   16  C10 UNL     1      -0.967   3.896  -0.154  1.00  0.00     0.000 C 
HETATM   17  C11 UNL     1      -0.186   4.370   1.085  1.00  0.00     0.000 C 
HETATM   18  C12 UNL     1      -0.169   3.338   2.154  1.00  0.00     0.000 C 
HETATM   19  C13 UNL     1      -0.002   1.925   1.718  1.00  0.00     0.005 C 
ENDBRANCH  13  14
ENDBRANCH   1  13
BRANCH   1  20
HETATM   20  C14 UNL     1       0.337  -2.160   0.581  1.00  0.00     0.090 C 
BRANCH  20  21
HETATM   21  N2  UNL     1       1.691  -1.949   0.239  1.00  0.00    -0.325 N 
HETATM   22  C15 UNL     1       2.397  -1.937  -0.963  1.00  0.00     0.226 C 
HETATM   23  O2  UNL     1       1.819  -2.117  -2.060  1.00  0.00    -0.273 OA
ATOM     24  H2  UNL     1       2.282  -1.765   1.050  1.00  0.00     0.168 HD
BRANCH  22  25
HETATM   25  C16 UNL     1       3.870  -1.719  -1.048  1.00  0.00     0.078 C 
HETATM   26  C17 UNL     1       4.296  -2.017  -2.504  1.00  0.00     0.020 C 
BRANCH  25  27
HETATM   27  C18 UNL     1       4.334  -0.334  -0.767  1.00  0.00    -0.002 C 
HETATM   28  C19 UNL     1       3.786   0.709  -1.703  1.00  0.00     0.005 C 
HETATM   29  C20 UNL     1       4.194   2.088  -1.240  1.00  0.00     0.000 C 
HETATM   30  C21 UNL     1       5.444   2.023  -0.371  1.00  0.00     0.000 C 
HETATM   31  C22 UNL     1       5.184   1.231   0.892  1.00  0.00     0.000 C 
HETATM   32  C23 UNL     1       4.188   0.108   0.646  1.00  0.00     0.005 C 
ENDBRANCH  25  27
ENDBRANCH  22  25
ENDBRANCH  20  21
BRANCH  20  33
HETATM   33  C24 UNL     1      -0.468  -3.095  -0.211  1.00  0.00     0.278 C 
HETATM   34  N3  UNL     1      -1.395  -3.982   0.484  1.00  0.00    -0.056 NA
HETATM   35  O3  UNL     1      -0.462  -3.241  -1.445  1.00  0.00    -0.270 OA
ENDBRANCH  20  33
ENDBRANCH   1  20
TORSDOF 11
