REMARK  15 active torsions:
REMARK  status: ('A' for Active; 'I' for Inactive)
REMARK    1  A    between atoms: C2_2  and  N1_3 
REMARK    2  A    between atoms: N1_3  and  C3_4 
REMARK    3  A    between atoms: N1_3  and  C17_32 
REMARK    4  A    between atoms: C3_4  and  C4_5 
REMARK    5  A    between atoms: C4_5  and  C5_6 
REMARK    6  A    between atoms: C5_6  and  N2_7 
REMARK    7  A    between atoms: N2_7  and  C6_9 
REMARK    8  A    between atoms: C9_15  and  N4_16 
REMARK    9  A    between atoms: N4_16  and  C10_18 
REMARK   10  A    between atoms: C10_18  and  C11_19 
REMARK   11  A    between atoms: C11_19  and  C12_20 
REMARK   12  A    between atoms: C12_20  and  N5_21 
REMARK   13  A    between atoms: N5_21  and  C13_23 
REMARK   14  A    between atoms: C13_23  and  N6_25 
REMARK   15  A    between atoms: N6_25  and  C14_27 
ROOT
HETATM    1  C6  UNL     1      -1.453   0.267   0.805  1.00  0.00     0.679 A 
HETATM    2  N3  UNL     1      -1.934  -0.959   1.043  1.00  0.00    -0.201 N 
ATOM      3  H3  UNL     1      -2.932  -1.091   1.206  1.00  0.00     0.183 HD
HETATM    4  C7  UNL     1      -1.093  -2.033   1.068  1.00  0.00     0.129 A 
HETATM    5  C8  UNL     1       0.258  -1.850   0.847  1.00  0.00     0.071 A 
HETATM    6 BR1  UNL     1       1.488  -3.325   0.872  1.00  0.00    -0.046 Br
HETATM    7  C9  UNL     1       0.766  -0.589   0.601  1.00  0.00     0.135 A 
HETATM    8  N7  UNL     1      -0.106   0.424   0.588  1.00  0.00    -0.176 N 
ATOM      9  H7  UNL     1       0.248   1.363   0.407  1.00  0.00     0.186 HD
ENDROOT
BRANCH   7  10
HETATM   10  N4  UNL     1       2.031  -0.446   0.398  1.00  0.00    -0.375 N 
ATOM     11  H4  UNL     1       2.634  -1.268   0.423  1.00  0.00     0.161 HD
BRANCH  10  12
HETATM   12  C10 UNL     1       2.619   0.850   0.135  1.00  0.00     0.123 C 
BRANCH  12  13
HETATM   13  C11 UNL     1       4.114   0.845   0.284  1.00  0.00     0.039 C 
BRANCH  13  14
HETATM   14  C12 UNL     1       4.769  -0.133  -0.668  1.00  0.00     0.123 C 
BRANCH  14  15
HETATM   15  N5  UNL     1       6.203  -0.138  -0.532  1.00  0.00    -0.367 N 
ATOM     16  H5  UNL     1       6.648   0.482   0.145  1.00  0.00     0.161 HD
BRANCH  15  17
HETATM   17  C13 UNL     1       6.996  -0.989  -1.323  1.00  0.00     0.167 C 
HETATM   18  S1  UNL     1       6.257  -1.999  -2.417  1.00  0.00    -0.041 SA
BRANCH  17  19
HETATM   19  N6  UNL     1       8.405  -1.053  -1.259  1.00  0.00    -0.363 N 
ATOM     20  H6  UNL     1       8.918  -1.701  -1.857  1.00  0.00     0.162 HD
BRANCH  19  21
HETATM   21  C14 UNL     1       9.115  -0.194  -0.340  1.00  0.00     0.075 C 
HETATM   22  C15 UNL     1       8.945   1.248  -0.751  1.00  0.00     0.032 C 
HETATM   23  C16 UNL     1      10.585  -0.506  -0.284  1.00  0.00     0.032 C 
ENDBRANCH  19  21
ENDBRANCH  17  19
ENDBRANCH  15  17
ENDBRANCH  14  15
ENDBRANCH  13  14
ENDBRANCH  12  13
ENDBRANCH  10  12
ENDBRANCH   7  10
BRANCH   1  24
HETATM   24  N2  UNL     1      -2.128   1.345   0.759  1.00  0.00    -0.226 N 
ATOM     25  H2  UNL     1      -1.630   2.214   0.568  1.00  0.00     0.177 HD
BRANCH  24  26
HETATM   26  C5  UNL     1      -3.538   1.412   0.958  1.00  0.00     0.140 C 
BRANCH  26  27
HETATM   27  C4  UNL     1      -4.203   1.418  -0.405  1.00  0.00     0.050 C 
BRANCH  27  28
HETATM   28  C3  UNL     1      -5.685   1.502  -0.355  1.00  0.00     0.274 C 
BRANCH  28  29
HETATM   29  N1  UNL     1      -6.322   0.420   0.334  1.00  0.00     0.092 N 
BRANCH  29  30
HETATM   30  C2  UNL     1      -7.768   0.593   0.393  1.00  0.00     0.268 C 
HETATM   31  C1  UNL     1      -7.996   1.793   1.319  1.00  0.00     0.037 C 
ENDBRANCH  29  30
BRANCH  29  32
HETATM   32  C17 UNL     1      -5.979  -0.878  -0.214  1.00  0.00     0.215 C 
HETATM   33  C18 UNL     1      -6.436  -1.070  -1.622  1.00  0.00     0.042 C 
HETATM   34  C19 UNL     1      -6.717  -1.913   0.641  1.00  0.00     0.042 C 
ENDBRANCH  29  32
ENDBRANCH  28  29
ENDBRANCH  27  28
ENDBRANCH  26  27
ENDBRANCH  24  26
ENDBRANCH   1  24
TORSDOF 15
