REMARK  13 active torsions:
REMARK  status: ('A' for Active; 'I' for Inactive)
REMARK    1  A    between atoms: C2_2  and  C3_3 
REMARK    2  A    between atoms: C3_3  and  N1_4 
REMARK    3  A    between atoms: N1_4  and  C4_5 
REMARK       I    between atoms: N1_4  and  C13_18 
REMARK    4  A    between atoms: C4_5  and  C5_6 
REMARK    5  A    between atoms: C5_6  and  C6_7 
REMARK    6  A    between atoms: C6_7  and  C9_10 
REMARK    7  A    between atoms: C9_10  and  N2_11 
REMARK       I    between atoms: N2_11  and  C10_12 
REMARK    8  A    between atoms: C10_12  and  C11_14 
REMARK    9  A    between atoms: C11_14  and  C12_15 
REMARK       I    between atoms: C13_18  and  N3_20 
REMARK   10  A    between atoms: N3_20  and  C14_22 
REMARK   11  A    between atoms: C14_22  and  C15_23 
REMARK   12  A    between atoms: C14_22  and  C20_31 
REMARK       I    between atoms: C15_23  and  N4_25 
REMARK   13  A    between atoms: N4_25  and  C16_27 
ROOT
HETATM    1  N1  UNL     1       0.632   0.018   1.698  1.00  0.00    -0.331 N 
HETATM    2  C13 UNL     1      -0.252   1.023   1.141  1.00  0.00     0.319 C 
HETATM    3  O4  UNL     1      -0.449   2.097   1.806  1.00  0.00    -0.247 OA
HETATM    4  N3  UNL     1      -0.899   0.862  -0.071  1.00  0.00    -0.329 N 
ATOM      5  H3  UNL     1      -0.710  -0.003  -0.577  1.00  0.00     0.165 HD
ENDROOT
BRANCH   1   6
HETATM    6  C3  UNL     1       1.108   0.227   3.023  1.00  0.00     0.154 C 
BRANCH   6   7
HETATM    7  C2  UNL     1       2.265   1.098   3.197  1.00  0.00    -0.017 C 
HETATM    8  C1  UNL     1       2.928   1.790   2.309  1.00  0.00     0.008 C 
ENDBRANCH   6   7
ENDBRANCH   1   6
BRANCH   1   9
HETATM    9  C4  UNL     1       1.028  -1.150   0.947  1.00  0.00     0.129 C 
BRANCH   9  10
HETATM   10  C5  UNL     1       2.330  -1.052   0.256  1.00  0.00     0.031 C 
BRANCH  10  11
HETATM   11  C6  UNL     1       2.696  -2.205  -0.647  1.00  0.00    -0.019 C 
HETATM   12  C7  UNL     1       2.660  -3.491   0.149  1.00  0.00     0.018 C 
HETATM   13  C8  UNL     1       1.984  -2.329  -1.913  1.00  0.00     0.018 C 
BRANCH  11  14
HETATM   14  C9  UNL     1       4.229  -1.950  -0.961  1.00  0.00     0.230 C 
BRANCH  14  15
HETATM   15  N2  UNL     1       4.948  -1.999   0.212  1.00  0.00    -0.414 NA
HETATM   16  C10 UNL     1       5.662  -2.052   1.380  1.00  0.00     0.296 C 
HETATM   17  O1  UNL     1       5.826  -3.071   2.100  1.00  0.00    -0.257 OA
BRANCH  16  18
HETATM   18  C11 UNL     1       6.356  -0.818   1.943  1.00  0.00     0.231 C 
BRANCH  18  19
HETATM   19  C12 UNL     1       6.878  -1.201   3.269  1.00  0.00     0.182 C 
HETATM   20  O2  UNL     1       6.130  -1.295   4.275  1.00  0.00    -0.648 OA
HETATM   21  O3  UNL     1       8.223  -1.465   3.408  1.00  0.00    -0.648 OA
ENDBRANCH  18  19
ENDBRANCH  16  18
ENDBRANCH  14  15
ENDBRANCH  11  14
ENDBRANCH  10  11
ENDBRANCH   9  10
ENDBRANCH   1   9
BRANCH   4  22
HETATM   22  C14 UNL     1      -1.843   1.818  -0.716  1.00  0.00     0.182 C 
BRANCH  22  23
HETATM   23  C15 UNL     1      -3.139   1.608  -0.090  1.00  0.00     0.241 C 
HETATM   24  O5  UNL     1      -3.079   1.545   1.202  1.00  0.00    -0.271 OA
HETATM   25  N4  UNL     1      -4.405   1.460  -0.613  1.00  0.00    -0.351 N 
ATOM     26  H4  UNL     1      -4.527   1.478  -1.626  1.00  0.00     0.163 HD
BRANCH  25  27
HETATM   27  C16 UNL     1      -5.589   1.277   0.247  1.00  0.00     0.022 C 
HETATM   28  C17 UNL     1      -5.424   0.113   1.189  1.00  0.00     0.037 C 
HETATM   29  C18 UNL     1      -6.797   0.962  -0.607  1.00  0.00     0.037 C 
HETATM   30  C19 UNL     1      -5.875   2.528   1.014  1.00  0.00     0.037 C 
ENDBRANCH  25  27
ENDBRANCH  22  23
BRANCH  22  31
HETATM   31  C20 UNL     1      -1.663   1.688  -2.159  1.00  0.00     0.018 C 
HETATM   32  C21 UNL     1      -2.422   2.569  -3.083  1.00  0.00     0.007 C 
HETATM   33  C22 UNL     1      -2.441   1.780  -4.391  1.00  0.00     0.000 C 
HETATM   34  C23 UNL     1      -2.764   0.386  -3.903  1.00  0.00     0.000 C 
HETATM   35  C24 UNL     1      -1.936   0.267  -2.647  1.00  0.00     0.007 C 
ENDBRANCH  22  31
ENDBRANCH   4  22
TORSDOF 13
