REMARK  12 active torsions:
REMARK  status: ('A' for Active; 'I' for Inactive)
REMARK    1  A    between atoms: C3_3  and  C4_4 
REMARK    2  A    between atoms: C9_9  and  C10_10 
REMARK       I    between atoms: C10_10  and  N1_12 
REMARK    3  A    between atoms: N1_12  and  C11_14 
REMARK    4  A    between atoms: C11_14  and  C12_15 
REMARK    5  A    between atoms: C12_15  and  C13_16 
REMARK    6  A    between atoms: C13_16  and  N2_17 
REMARK       I    between atoms: N2_17  and  C14_19 
REMARK       I    between atoms: C14_19  and  N3_21 
REMARK    7  A    between atoms: N3_21  and  C15_23 
REMARK    8  A    between atoms: C15_23  and  C16_24 
REMARK    9  A    between atoms: C15_23  and  C20_28 
REMARK   10  A    between atoms: C16_24  and  C17_25 
REMARK   11  A    between atoms: C17_25  and  C18_26 
REMARK   12  A    between atoms: C21_31  and  C22_33 
ROOT
HETATM    1  C10 UNL     1      -1.759   1.053  -0.214  1.00  0.00     0.223 C 
HETATM    2  O1  UNL     1      -1.413   0.746   0.943  1.00  0.00    -0.273 OA
HETATM    3  N1  UNL     1      -0.989   2.048  -0.866  1.00  0.00    -0.361 N 
ATOM      4  H1  UNL     1      -1.260   2.311  -1.814  1.00  0.00     0.162 HD
ENDROOT
BRANCH   3   5
HETATM    5  C11 UNL     1       0.138   2.708  -0.292  1.00  0.00     0.124 C 
BRANCH   5   6
HETATM    6  C12 UNL     1       1.291   1.791   0.069  1.00  0.00     0.039 C 
BRANCH   6   7
HETATM    7  C13 UNL     1       2.418   2.586   0.684  1.00  0.00     0.126 C 
BRANCH   7   8
HETATM    8  N2  UNL     1       3.508   1.696   1.006  1.00  0.00    -0.343 N 
HETATM    9  C14 UNL     1       4.212   0.943   0.036  1.00  0.00     0.316 C 
HETATM   10  O2  UNL     1       3.959   0.982  -1.188  1.00  0.00    -0.247 OA
HETATM   11  N3  UNL     1       5.273   0.086   0.437  1.00  0.00    -0.330 N 
ATOM     12  H3  UNL     1       5.507   0.020   1.428  1.00  0.00     0.165 HD
ATOM     13  H2  UNL     1       3.785   1.605   1.983  1.00  0.00     0.164 HD
BRANCH  11  14
HETATM   14  C15 UNL     1       6.034  -0.698  -0.519  1.00  0.00     0.175 C 
BRANCH  14  15
HETATM   15  C16 UNL     1       7.488  -0.318  -0.534  1.00  0.00     0.034 C 
BRANCH  15  16
HETATM   16  C17 UNL     1       8.146  -0.524   0.809  1.00  0.00     0.002 C 
BRANCH  16  17
HETATM   17  C18 UNL     1       9.606  -0.099   0.645  1.00  0.00    -0.004 C 
HETATM   18  C19 UNL     1      10.331  -0.288   1.970  1.00  0.00     0.005 C 
ENDBRANCH  16  17
ENDBRANCH  15  16
ENDBRANCH  14  15
BRANCH  14  19
HETATM   19  C20 UNL     1       5.875  -2.130  -0.191  1.00  0.00     0.254 C 
HETATM   20  N4  UNL     1       6.535  -3.076  -1.004  1.00  0.00    -0.060 NA
HETATM   21  O3  UNL     1       5.185  -2.509   0.769  1.00  0.00    -0.275 OA
ENDBRANCH  14  19
ENDBRANCH  11  14
ENDBRANCH   7   8
ENDBRANCH   6   7
ENDBRANCH   5   6
ENDBRANCH   3   5
BRANCH   1  22
HETATM   22  C9  UNL     1      -2.907   0.420  -0.881  1.00  0.00     0.103 C 
HETATM   23  C8  UNL     1      -2.614  -1.025  -1.213  1.00  0.00     0.025 C 
HETATM   24  C5  UNL     1      -3.637  -1.842  -0.489  1.00  0.00    -0.038 C 
HETATM   25  C4  UNL     1      -4.807  -0.882  -0.435  1.00  0.00     0.041 C 
HETATM   26  C6  UNL     1      -4.080  -3.040  -1.337  1.00  0.00     0.015 C 
HETATM   27  C7  UNL     1      -3.203  -2.365   0.836  1.00  0.00     0.015 C 
HETATM   28  C21 UNL     1      -4.188   0.416  -0.086  1.00  0.00     0.063 C 
HETATM   29 CL1  UNL     1      -3.824   0.547   1.656  1.00  0.00    -0.117 Cl
BRANCH  25  30
HETATM   30  C3  UNL     1      -5.908  -1.368   0.379  1.00  0.00    -0.024 C 
HETATM   31  C2  UNL     1      -7.103  -1.618  -0.146  1.00  0.00    -0.034 C 
HETATM   32  C1  UNL     1      -8.260  -2.117   0.650  1.00  0.00     0.036 C 
ENDBRANCH  25  30
BRANCH  28  33
HETATM   33  C22 UNL     1      -5.044   1.624  -0.419  1.00  0.00    -0.029 C 
HETATM   34  C23 UNL     1      -5.400   1.740  -1.865  1.00  0.00     0.016 C 
HETATM   35  C24 UNL     1      -6.254   1.644   0.453  1.00  0.00     0.016 C 
HETATM   36  C25 UNL     1      -4.242   2.881  -0.077  1.00  0.00     0.016 C 
ENDBRANCH  28  33
ENDBRANCH   1  22
TORSDOF 12
