REMARK  5 active torsions:
REMARK  status: ('A' for Active; 'I' for Inactive)
REMARK    1  A    between atoms: C2_2  and  C3_3 
REMARK    2  A    between atoms: C3_3  and  C4_4 
REMARK    3  A    between atoms: C4_4  and  C5_5 
REMARK    4  A    between atoms: C5_5  and  C6_6 
REMARK    5  A    between atoms: C6_6  and  O1_7 
ROOT
HETATM    1  C6  UNL     1      -0.803  -0.339  -0.345  1.00  0.00     0.142 C 
HETATM    2  N1  UNL     1      -0.488  -1.764  -0.345  1.00  0.00    -0.332 N 
ATOM      3  H1  UNL     1      -0.096  -2.226  -1.166  1.00  0.00     0.165 HD
HETATM    4  C7  UNL     1      -0.756  -2.478   0.859  1.00  0.00     0.186 C 
HETATM    5  N2  UNL     1       0.101  -3.529   1.274  1.00  0.00    -0.064 NA
HETATM    6  N3  UNL     1      -1.799  -2.122   1.519  1.00  0.00    -0.364 N 
ATOM      7  H3  UNL     1      -1.998  -2.627   2.382  1.00  0.00     0.162 HD
HETATM    8  C8  UNL     1      -2.706  -1.078   1.148  1.00  0.00     0.136 C 
HETATM    9  C9  UNL     1      -2.115  -0.002   0.264  1.00  0.00     0.026 C 
HETATM   10  C10 UNL     1      -3.177   0.257  -0.817  1.00  0.00     0.016 C 
HETATM   11  C11 UNL     1      -3.491   1.715  -0.793  1.00  0.00     0.001 C 
HETATM   12  C12 UNL     1      -2.311   2.334  -0.054  1.00  0.00     0.001 C 
HETATM   13  C13 UNL     1      -2.058   1.318   1.006  1.00  0.00     0.016 C 
ENDROOT
BRANCH   1  14
HETATM   14  C5  UNL     1       0.391   0.333   0.315  1.00  0.00     0.062 C 
BRANCH  14  15
HETATM   15  C4  UNL     1       1.648  -0.156  -0.419  1.00  0.00     0.005 C 
BRANCH  15  16
HETATM   16  C3  UNL     1       2.875   0.505   0.224  1.00  0.00    -0.000 C 
BRANCH  16  17
HETATM   17  C2  UNL     1       4.075  -0.017  -0.543  1.00  0.00    -0.005 C 
HETATM   18  C1  UNL     1       5.368   0.542  -0.029  1.00  0.00     0.005 C 
ENDBRANCH  16  17
ENDBRANCH  15  16
ENDBRANCH  14  15
ENDBRANCH   1  14
BRANCH   1  19
HETATM   19  O1  UNL     1      -0.791   0.070  -1.701  1.00  0.00    -0.370 OA
ATOM     20  H1  UNL     1      -1.537  -0.350  -2.113  1.00  0.00     0.212 HD
ENDBRANCH   1  19
TORSDOF 5
