REMARK  5 active torsions:
REMARK  status: ('A' for Active; 'I' for Inactive)
REMARK    1  A    between atoms: C2_3  and  N2_4 
REMARK    2  A    between atoms: N2_4  and  C3_7 
REMARK    3  A    between atoms: C3_7  and  C4_8 
REMARK    4  A    between atoms: C6_12  and  C7_13 
REMARK    5  A    between atoms: C7_13  and  O1_14 
ROOT
HETATM    1  N1  UNL     1      -2.217   0.903   3.002  1.00  0.00    -0.195 NA
HETATM    2  C1  UNL     1      -1.872   0.560   1.940  1.00  0.00     0.099 C 
HETATM    3  C2  UNL     1      -1.449   0.145   0.604  1.00  0.00     0.213 C 
HETATM    4  C8  UNL     1      -1.738   1.300  -0.344  1.00  0.00     0.055 C 
HETATM    5  C9  UNL     1      -3.130   1.773  -0.037  1.00  0.00     0.003 C 
HETATM    6  C10 UNL     1      -4.168   0.717  -0.076  1.00  0.00     0.000 C 
HETATM    7  C11 UNL     1      -3.760  -0.613   0.445  1.00  0.00     0.003 C 
HETATM    8  C12 UNL     1      -2.334  -0.983   0.177  1.00  0.00     0.055 C 
ENDROOT
BRANCH   3   9
HETATM    9  N2  UNL     1      -0.066  -0.158   0.639  1.00  0.00    -0.047 N 
ATOM     10  H22 UNL     1       0.463   0.627   1.020  1.00  0.00     0.279 HD
ATOM     11  H21 UNL     1       0.128  -0.860   1.353  1.00  0.00     0.279 HD
BRANCH   9  12
HETATM   12  C3  UNL     1       0.480  -0.566  -0.634  1.00  0.00     0.310 C 
BRANCH  12  13
HETATM   13  C4  UNL     1       1.930  -0.868  -0.525  1.00  0.00     0.107 A 
HETATM   14  N3  UNL     1       2.474  -2.053  -0.240  1.00  0.00    -0.352 N 
HETATM   15  C5  UNL     1       3.819  -1.956  -0.225  1.00  0.00     0.116 A 
ATOM     16  H3  UNL     1       1.948  -2.908  -0.060  1.00  0.00     0.166 HD
HETATM   17  C6  UNL     1       4.133  -0.646  -0.515  1.00  0.00     0.049 A 
HETATM   18  N4  UNL     1       2.968  -0.013  -0.691  1.00  0.00    -0.345 N 
ATOM     19  H4  UNL     1       2.874   0.977  -0.919  1.00  0.00     0.167 HD
BRANCH  17  20
HETATM   20  C7  UNL     1       5.526  -0.118  -0.597  1.00  0.00     0.222 C 
BRANCH  20  21
HETATM   21  O1  UNL     1       5.878   0.324   0.675  1.00  0.00    -0.395 OA
ATOM     22  H1  UNL     1       6.765   0.660   0.623  1.00  0.00     0.209 HD
ENDBRANCH  20  21
ENDBRANCH  17  20
ENDBRANCH  12  13
ENDBRANCH   9  12
ENDBRANCH   3   9
TORSDOF 5
