REMARK  5 active torsions:
REMARK  status: ('A' for Active; 'I' for Inactive)
REMARK    1  A    between atoms: C2_2  and  N1_3 
REMARK    2  A    between atoms: N1_3  and  C3_4 
REMARK    3  A    between atoms: N1_3  and  C5_6 
REMARK    4  A    between atoms: C6_9  and  C7_10 
REMARK    5  A    between atoms: C12_19  and  N5_20 
ROOT
HETATM    1  C5  UNL     1      -1.144  -0.596  -0.770  1.00  0.00     0.150 A 
HETATM    2  N2  UNL     1       0.078  -0.326  -0.252  1.00  0.00    -0.328 N 
ATOM      3  H2  UNL     1       0.150   0.164   0.640  1.00  0.00     0.169 HD
HETATM    4  C6  UNL     1       1.179  -0.690  -0.889  1.00  0.00     0.101 A 
HETATM    5  N3  UNL     1       1.039  -1.334  -2.061  1.00  0.00    -0.287 N 
ATOM      6  H3  UNL     1       1.889  -1.614  -2.550  1.00  0.00     0.188 HD
HETATM    7  N4  UNL     1      -0.108  -1.629  -2.622  1.00  0.00    -0.281 N 
ATOM      8  H4  UNL     1      -0.155  -2.120  -3.515  1.00  0.00     0.188 HD
HETATM    9  C12 UNL     1      -1.233  -1.250  -1.959  1.00  0.00     0.158 A 
ENDROOT
BRANCH   1  10
HETATM   10  N1  UNL     1      -2.308  -0.192  -0.069  1.00  0.00    -0.365 N 
BRANCH  10  11
HETATM   11  C2  UNL     1      -3.209   0.739  -0.696  1.00  0.00     0.120 C 
HETATM   12  C1  UNL     1      -3.247   2.095  -0.048  1.00  0.00     0.026 C 
ENDBRANCH  10  11
BRANCH  10  13
HETATM   13  C3  UNL     1      -2.560  -0.711   1.231  1.00  0.00     0.120 C 
HETATM   14  C4  UNL     1      -2.450   0.287   2.357  1.00  0.00     0.026 C 
ENDBRANCH  10  13
ENDBRANCH   1  10
BRANCH   9  15
HETATM   15  N5  UNL     1      -2.351  -1.553  -2.530  1.00  0.00    -0.381 N 
ATOM     16  H52 UNL     1      -3.195  -1.269  -2.033  1.00  0.00     0.157 HD
ATOM     17  H51 UNL     1      -2.418  -2.044  -3.422  1.00  0.00     0.157 HD
ENDBRANCH   9  15
BRANCH   4  18
HETATM   18  C7  UNL     1       2.555  -0.451  -0.420  1.00  0.00     0.055 C 
HETATM   19  C8  UNL     1       2.857   1.042  -0.288  1.00  0.00     0.012 C 
HETATM   20  C9  UNL     1       4.253   0.939   0.344  1.00  0.00     0.001 C 
HETATM   21  C10 UNL     1       4.141  -0.261   1.285  1.00  0.00     0.001 C 
HETATM   22  C11 UNL     1       2.825  -0.938   0.959  1.00  0.00     0.012 C 
ENDBRANCH   4  18
TORSDOF 5
