REMARK  6 active torsions:
REMARK  status: ('A' for Active; 'I' for Inactive)
REMARK    1  A    between atoms: C2_2  and  C3_3 
REMARK    2  A    between atoms: C3_3  and  N1_4 
REMARK    3  A    between atoms: C4_5  and  N2_6 
REMARK    4  A    between atoms: C5_11  and  C6_12 
REMARK    5  A    between atoms: C9_15  and  N4_16 
REMARK    6  A    between atoms: C12_19  and  N5_20 
ROOT
HETATM    1  N1  UNL     1       1.451   0.150   0.491  1.00  0.00    -0.167 N 
HETATM    2  C4  UNL     1       1.015   1.379   0.812  1.00  0.00     0.680 A 
HETATM    3  N3  UNL     1      -0.339   1.576   0.762  1.00  0.00    -0.193 N 
ATOM      4  H3  UNL     1      -0.701   2.499   1.001  1.00  0.00     0.184 HD
HETATM    5  C5  UNL     1      -1.208   0.629   0.419  1.00  0.00     0.060 A 
HETATM    6  C9  UNL     1      -0.780  -0.627   0.088  1.00  0.00     0.098 A 
HETATM    7  C12 UNL     1       0.616  -0.837   0.138  1.00  0.00     0.146 A 
ENDROOT
BRANCH   1   8
HETATM    8  C3  UNL     1       2.859  -0.127   0.540  1.00  0.00     0.149 C 
BRANCH   8   9
HETATM    9  C2  UNL     1       3.585   0.107  -0.740  1.00  0.00     0.016 C 
HETATM   10  C1  UNL     1       5.047  -0.246  -0.495  1.00  0.00     0.006 C 
ENDBRANCH   8   9
ENDBRANCH   1   8
BRANCH   2  11
HETATM   11  N2  UNL     1       1.764   2.376   1.141  1.00  0.00    -0.234 N 
ATOM     12  H22 UNL     1       2.773   2.229   1.178  1.00  0.00     0.174 HD
ATOM     13  H21 UNL     1       1.433   3.309   1.385  1.00  0.00     0.174 HD
ENDBRANCH   2  11
BRANCH   7  14
HETATM   14  N5  UNL     1       1.008  -2.011  -0.204  1.00  0.00    -0.383 N 
ATOM     15  H52 UNL     1       2.016  -2.163  -0.168  1.00  0.00     0.157 HD
ATOM     16  H51 UNL     1       0.372  -2.762  -0.473  1.00  0.00     0.157 HD
ENDBRANCH   7  14
BRANCH   6  17
HETATM   17  N4  UNL     1      -1.624  -1.697  -0.296  1.00  0.00    -0.385 N 
HETATM   18  C10 UNL     1      -2.167  -2.556   0.730  1.00  0.00     0.149 C 
HETATM   19  C11 UNL     1      -1.933  -1.962  -1.682  1.00  0.00     0.149 C 
ENDBRANCH   6  17
BRANCH   5  20
HETATM   20  C6  UNL     1      -2.651   0.962   0.381  1.00  0.00     0.030 C 
HETATM   21  C7  UNL     1      -2.846   2.239   1.190  1.00  0.00     0.016 C 
HETATM   22  C8  UNL     1      -2.982   1.367  -1.069  1.00  0.00     0.016 C 
ENDBRANCH   5  20
TORSDOF 6
