REMARK  21 active torsions:
REMARK  status: ('A' for Active; 'I' for Inactive)
REMARK    1  A    between atoms: C4_4  and  N1_5 
REMARK       I    between atoms: N1_5  and  C5_7 
REMARK    2  A    between atoms: C5_7  and  C6_9 
REMARK    3  A    between atoms: C6_9  and  N2_10 
REMARK    4  A    between atoms: N2_10  and  C7_13 
REMARK    5  A    between atoms: C7_13  and  C8_14 
REMARK    6  A    between atoms: C8_14  and  C9_15 
REMARK    7  A    between atoms: C9_15  and  N3_16 
REMARK    8  A    between atoms: N3_16  and  C10_18 
REMARK    9  A    between atoms: C10_18  and  C11_19 
REMARK   10  A    between atoms: C11_19  and  C12_20 
REMARK   11  A    between atoms: C12_20  and  C13_21 
REMARK   12  A    between atoms: C13_21  and  C14_22 
REMARK   13  A    between atoms: C14_22  and  C15_23 
REMARK   14  A    between atoms: C15_23  and  N4_24 
REMARK   15  A    between atoms: N4_24  and  C16_26 
REMARK   16  A    between atoms: C16_26  and  C17_27 
REMARK   17  A    between atoms: C17_27  and  C18_28 
REMARK   18  A    between atoms: C18_28  and  N5_29 
REMARK   19  A    between atoms: N5_29  and  C19_31 
REMARK   20  A    between atoms: C19_31  and  N6_33 
REMARK   21  A    between atoms: N6_33  and  C20_35 
ROOT
HETATM    1  C14 UNL     1      -1.929   0.421   0.308  1.00  0.00     0.019 C 
ENDROOT
BRANCH   1   2
HETATM    2  C13 UNL     1      -0.552   0.061  -0.189  1.00  0.00     0.002 C 
BRANCH   2   3
HETATM    3  C12 UNL     1       0.368   1.215  -0.095  1.00  0.00     0.002 C 
BRANCH   3   4
HETATM    4  C11 UNL     1       1.747   0.887  -0.586  1.00  0.00     0.020 C 
BRANCH   4   5
HETATM    5  C10 UNL     1       2.299  -0.262   0.294  1.00  0.00     0.118 C 
BRANCH   5   6
HETATM    6  N3  UNL     1       2.301   0.187   1.601  1.00  0.00    -0.402 N 
ATOM      7  H3  UNL     1       2.011   1.154   1.746  1.00  0.00     0.158 HD
BRANCH   6   8
HETATM    8  C9  UNL     1       2.651  -0.523   2.737  1.00  0.00     0.057 C 
BRANCH   8   9
HETATM    9  C8  UNL     1       4.070  -0.815   3.005  1.00  0.00     0.071 C 
BRANCH   9  10
HETATM   10  C7  UNL     1       4.749  -1.653   1.992  1.00  0.00     0.238 C 
BRANCH  10  11
HETATM   11  N2  UNL     1       6.138  -1.946   2.386  1.00  0.00    -0.067 N 
ATOM     12  H22 UNL     1       6.520  -2.700   1.815  1.00  0.00     0.277 HD
ATOM     13  H21 UNL     1       6.163  -2.393   3.302  1.00  0.00     0.277 HD
BRANCH  11  14
HETATM   14  C6  UNL     1       6.998  -0.815   2.359  1.00  0.00     0.335 C 
BRANCH  14  15
HETATM   15  C5  UNL     1       7.279  -0.376   0.979  1.00  0.00     0.248 C 
HETATM   16  N1  UNL     1       8.111   0.783   0.734  1.00  0.00    -0.310 N 
ATOM     17  H1  UNL     1       7.873   1.689   1.138  1.00  0.00     0.170 HD
HETATM   18  O1  UNL     1       6.852  -0.924  -0.068  1.00  0.00    -0.271 OA
BRANCH  16  19
HETATM   19  C4  UNL     1       9.151   0.648   0.000  1.00  0.00     0.130 A 
HETATM   20  C3  UNL     1       9.666  -0.446  -0.638  1.00  0.00     0.084 A 
HETATM   21  C2  UNL     1      10.810  -0.027  -1.317  1.00  0.00     0.076 A 
HETATM   22  C1  UNL     1      11.685  -0.907  -2.149  1.00  0.00     0.079 C 
HETATM   23  O2  UNL     1      10.923   1.242  -1.064  1.00  0.00    -0.241 OA
HETATM   24  N9  UNL     1       9.975   1.675  -0.299  1.00  0.00    -0.245 N 
ATOM     25  H9  UNL     1       9.867   2.636   0.026  1.00  0.00     0.196 HD
ENDBRANCH  16  19
ENDBRANCH  14  15
ENDBRANCH  11  14
ENDBRANCH  10  11
ENDBRANCH   9  10
ENDBRANCH   8   9
ENDBRANCH   6   8
ENDBRANCH   5   6
ENDBRANCH   4   5
ENDBRANCH   3   4
ENDBRANCH   2   3
ENDBRANCH   1   2
BRANCH   1  26
HETATM   26  C15 UNL     1      -2.491   1.536  -0.513  1.00  0.00     0.113 C 
BRANCH  26  27
HETATM   27  N4  UNL     1      -2.547   1.197  -1.882  1.00  0.00    -0.421 N 
ATOM     28  H4  UNL     1      -1.945   1.638  -2.578  1.00  0.00     0.153 HD
BRANCH  27  29
HETATM   29  C16 UNL     1      -3.502   0.196  -2.226  1.00  0.00     0.115 C 
BRANCH  29  30
HETATM   30  C17 UNL     1      -4.899   0.735  -2.086  1.00  0.00     0.039 C 
BRANCH  30  31
HETATM   31  C18 UNL     1      -5.981  -0.194  -2.498  1.00  0.00     0.123 C 
BRANCH  31  32
HETATM   32  N5  UNL     1      -6.120  -1.422  -1.808  1.00  0.00    -0.367 N 
ATOM     33  H5  UNL     1      -5.881  -2.266  -2.329  1.00  0.00     0.161 HD
BRANCH  32  34
HETATM   34  C19 UNL     1      -6.557  -1.606  -0.467  1.00  0.00     0.173 C 
HETATM   35  S1  UNL     1      -6.633  -3.165   0.092  1.00  0.00    -0.041 SA
BRANCH  34  36
HETATM   36  N6  UNL     1      -6.929  -0.615   0.432  1.00  0.00    -0.318 N 
ATOM     37  H6  UNL     1      -6.175  -0.310   1.047  1.00  0.00     0.170 HD
BRANCH  36  38
HETATM   38  C20 UNL     1      -8.027  -0.019   0.632  1.00  0.00     0.128 A 
HETATM   39  N7  UNL     1      -8.068   0.929   1.615  1.00  0.00    -0.337 N 
HETATM   40  C21 UNL     1      -9.259   1.527   1.766  1.00  0.00     0.182 A 
ATOM     41  H7  UNL     1      -7.258   1.163   2.188  1.00  0.00     0.168 HD
HETATM   42  N8  UNL     1     -10.339   1.265   1.055  1.00  0.00    -0.351 N 
HETATM   43  C22 UNL     1     -10.341   0.318   0.057  1.00  0.00     0.055 A 
ATOM     44  H8  UNL     1     -11.198   1.780   1.251  1.00  0.00     0.166 HD
HETATM   45  C23 UNL     1     -11.372  -0.035  -0.730  1.00  0.00     0.057 A 
HETATM   46  C25 UNL     1      -9.148  -0.324  -0.140  1.00  0.00     0.077 A 
HETATM   47  C24 UNL     1     -11.147  -1.007  -1.665  1.00  0.00     0.054 A 
HETATM   48 BR1  UNL     1     -12.410  -1.725  -2.937  1.00  0.00    -0.043 Br
HETATM   49  S2  UNL     1      -9.509  -1.401  -1.420  1.00  0.00    -0.077 SA
ENDBRANCH  36  38
ENDBRANCH  34  36
ENDBRANCH  32  34
ENDBRANCH  31  32
ENDBRANCH  30  31
ENDBRANCH  29  30
ENDBRANCH  27  29
ENDBRANCH  26  27
ENDBRANCH   1  26
TORSDOF 21
