REMARK  21 active torsions:
REMARK  status: ('A' for Active; 'I' for Inactive)
REMARK    1  A    between atoms: O1_2  and  C2_3 
REMARK    2  A    between atoms: C4_5  and  C5_6 
REMARK    3  A    between atoms: C5_6  and  N1_7 
REMARK    4  A    between atoms: N1_7  and  C6_10 
REMARK    5  A    between atoms: C6_10  and  C7_11 
REMARK    6  A    between atoms: C7_11  and  C8_12 
REMARK    7  A    between atoms: C8_12  and  C9_13 
REMARK    8  A    between atoms: C9_13  and  C10_14 
REMARK    9  A    between atoms: C10_14  and  C11_15 
REMARK   10  A    between atoms: C11_15  and  C12_16 
REMARK   11  A    between atoms: C12_16  and  C13_17 
REMARK   12  A    between atoms: C13_17  and  N2_18 
REMARK   13  A    between atoms: N2_18  and  C14_20 
REMARK   14  A    between atoms: C17_25  and  N4_26 
REMARK   15  A    between atoms: N4_26  and  C18_28 
REMARK   16  A    between atoms: C18_28  and  C19_29 
REMARK   17  A    between atoms: C19_29  and  C20_30 
REMARK   18  A    between atoms: C20_30  and  N5_31 
REMARK   19  A    between atoms: N5_31  and  C21_33 
REMARK   20  A    between atoms: C24_40  and  C25_41 
REMARK   21  A    between atoms: C28_51  and  O2_52 
ROOT
HETATM    1  C14 UNL     1       2.060  -2.648  -0.010  1.00  0.00     0.679 A 
HETATM    2  N3  UNL     1       2.200  -3.980   0.267  1.00  0.00    -0.202 N 
ATOM      3  H3  UNL     1       1.497  -4.438   0.846  1.00  0.00     0.183 HD
HETATM    4  C15 UNL     1       3.223  -4.702  -0.193  1.00  0.00     0.110 A 
HETATM    5  C16 UNL     1       4.188  -4.126  -0.976  1.00  0.00     0.066 A 
HETATM    6  C17 UNL     1       4.059  -2.778  -1.264  1.00  0.00     0.118 A 
HETATM    7  N10 UNL     1       3.005  -2.083  -0.775  1.00  0.00    -0.177 N 
ATOM      8  H10 UNL     1       2.927  -1.091  -0.997  1.00  0.00     0.185 HD
ENDROOT
BRANCH   1   9
HETATM    9  N2  UNL     1       1.062  -2.026   0.463  1.00  0.00    -0.226 N 
ATOM     10  H2  UNL     1       0.406  -2.558   1.035  1.00  0.00     0.177 HD
BRANCH   9  11
HETATM   11  C13 UNL     1       0.776  -0.609   0.255  1.00  0.00     0.142 C 
BRANCH  11  12
HETATM   12  C12 UNL     1      -0.177  -0.507  -0.885  1.00  0.00     0.047 C 
BRANCH  12  13
HETATM   13  C11 UNL     1      -1.495  -1.113  -0.799  1.00  0.00    -0.025 C 
BRANCH  13  14
HETATM   14  C10 UNL     1      -2.628  -0.595  -0.065  1.00  0.00    -0.008 C 
BRANCH  14  15
HETATM   15  C9  UNL     1      -2.765  -0.214   1.310  1.00  0.00    -0.027 C 
BRANCH  15  16
HETATM   16  C8  UNL     1      -2.142   0.957   1.926  1.00  0.00     0.028 C 
BRANCH  16  17
HETATM   17  C7  UNL     1      -2.481   2.315   1.392  1.00  0.00     0.031 C 
BRANCH  17  18
HETATM   18  C6  UNL     1      -3.895   2.748   1.546  1.00  0.00     0.233 C 
BRANCH  18  19
HETATM   19  N1  UNL     1      -4.871   1.908   0.930  1.00  0.00    -0.071 N 
ATOM     20  H12 UNL     1      -4.771   0.940   1.235  1.00  0.00     0.277 HD
ATOM     21  H11 UNL     1      -4.678   1.785  -0.064  1.00  0.00     0.277 HD
BRANCH  19  22
HETATM   22  C5  UNL     1      -6.229   2.393   1.149  1.00  0.00     0.270 C 
BRANCH  22  23
HETATM   23  C4  UNL     1      -7.235   1.497   0.573  1.00  0.00    -0.029 A 
HETATM   24  C3  UNL     1      -7.292   1.138  -0.761  1.00  0.00     0.048 A 
HETATM   25  C2  UNL     1      -8.284   0.289  -1.197  1.00  0.00     0.103 A 
HETATM   26  C28 UNL     1      -9.254  -0.236  -0.342  1.00  0.00     0.118 A 
HETATM   27  C27 UNL     1      -9.192   0.128   0.995  1.00  0.00     0.047 A 
HETATM   28  C26 UNL     1      -8.202   0.970   1.407  1.00  0.00     0.030 A 
HETATM   29 BR1  UNL     1     -10.477  -0.554   2.207  1.00  0.00    -0.048 Br
BRANCH  25  30
HETATM   30  O1  UNL     1      -8.356  -0.081  -2.526  1.00  0.00    -0.353 OA
HETATM   31  C1  UNL     1      -7.432   0.374  -3.495  1.00  0.00     0.210 C 
ENDBRANCH  25  30
BRANCH  26  32
HETATM   32  O2  UNL     1     -10.229  -1.085  -0.837  1.00  0.00    -0.352 OA
HETATM   33  C29 UNL     1     -11.434  -0.483  -1.300  1.00  0.00     0.210 C 
ENDBRANCH  26  32
ENDBRANCH  22  23
ENDBRANCH  19  22
ENDBRANCH  18  19
ENDBRANCH  17  18
ENDBRANCH  16  17
ENDBRANCH  15  16
ENDBRANCH  14  15
ENDBRANCH  13  14
ENDBRANCH  12  13
ENDBRANCH  11  12
ENDBRANCH   9  11
ENDBRANCH   1   9
BRANCH   6  34
HETATM   34  N4  UNL     1       4.927  -2.179  -1.980  1.00  0.00    -0.376 N 
ATOM     35  H4  UNL     1       5.702  -2.752  -2.314  1.00  0.00     0.161 HD
BRANCH  34  36
HETATM   36  C18 UNL     1       4.950  -0.812  -2.371  1.00  0.00     0.126 C 
BRANCH  36  37
HETATM   37  C19 UNL     1       5.791  -0.002  -1.385  1.00  0.00     0.064 C 
BRANCH  37  38
HETATM   38  C20 UNL     1       7.181  -0.607  -1.403  1.00  0.00     0.064 C 
BRANCH  38  39
HETATM   39  N5  UNL     1       8.153  -0.024  -0.606  1.00  0.00    -0.355 N 
ATOM     40  H5  UNL     1       9.084  -0.258  -0.951  1.00  0.00     0.166 HD
BRANCH  39  41
HETATM   41  C21 UNL     1       8.233   0.698   0.402  1.00  0.00     0.120 A 
HETATM   42  N6  UNL     1       7.225   1.193   1.111  1.00  0.00    -0.338 N 
HETATM   43  C22 UNL     1       7.362   1.982   2.194  1.00  0.00     0.181 A 
ATOM     44  H6  UNL     1       6.278   0.959   0.814  1.00  0.00     0.168 HD
HETATM   45  N7  UNL     1       8.605   2.313   2.618  1.00  0.00    -0.361 N 
HETATM   46  C23 UNL     1       9.682   1.851   1.953  1.00  0.00     0.107 A 
ATOM     47  H7  UNL     1       8.725   2.909   3.437  1.00  0.00     0.166 HD
HETATM   48  C24 UNL     1       9.522   1.053   0.858  1.00  0.00     0.064 A 
BRANCH  48  49
HETATM   49  C25 UNL     1      10.691   0.538   0.155  1.00  0.00     0.125 C 
HETATM   50  N8  UNL     1      11.878   0.869   0.551  1.00  0.00    -0.387 N 
ATOM     51  H82 UNL     1      12.009   1.496   1.345  1.00  0.00     0.157 HD
ATOM     52  H81 UNL     1      12.696   0.509   0.059  1.00  0.00     0.157 HD
HETATM   53  N9  UNL     1      10.508  -0.338  -0.953  1.00  0.00    -0.082 NA
ENDBRANCH  48  49
ENDBRANCH  39  41
ENDBRANCH  38  39
ENDBRANCH  37  38
ENDBRANCH  36  37
ENDBRANCH  34  36
ENDBRANCH   6  34
TORSDOF 21
