REMARK  18 active torsions:
REMARK  status: ('A' for Active; 'I' for Inactive)
REMARK       I    between atoms: C2_4  and  N2_5 
REMARK       I    between atoms: C2_4  and  N7_41 
REMARK    1  A    between atoms: N2_5  and  C3_7 
REMARK    2  A    between atoms: C3_7  and  C4_8 
REMARK    3  A    between atoms: C4_8  and  C5_9 
REMARK    4  A    between atoms: C5_9  and  C6_10 
REMARK    5  A    between atoms: C6_10  and  C7_11 
REMARK    6  A    between atoms: C7_11  and  C8_12 
REMARK    7  A    between atoms: C8_12  and  N3_13 
REMARK    8  A    between atoms: N3_13  and  C9_14 
REMARK       I    between atoms: N3_13  and  C11_17 
REMARK    9  A    between atoms: C9_14  and  C10_15 
REMARK   10  A    between atoms: C11_17  and  C12_19 
REMARK   11  A    between atoms: C12_19  and  N4_20 
REMARK       I    between atoms: N4_20  and  C14_22 
REMARK   12  A    between atoms: C14_22  and  C15_24 
REMARK   13  A    between atoms: C18_27  and  N5_28 
REMARK       I    between atoms: N5_28  and  C19_30 
REMARK   14  A    between atoms: C19_30  and  C20_32 
REMARK   15  A    between atoms: C20_32  and  C21_33 
REMARK   16  A    between atoms: N7_41  and  C25_43 
REMARK   17  A    between atoms: C25_43  and  C26_44 
REMARK   18  A    between atoms: C28_47  and  N8_48 
ROOT
HETATM    1  N3  UNL     1      -1.128   0.042   1.395  1.00  0.00    -0.350 N 
HETATM    2  C11 UNL     1       0.227   0.299   0.939  1.00  0.00     0.237 C 
HETATM    3  O1  UNL     1       0.785  -0.615   0.291  1.00  0.00    -0.272 OA
ENDROOT
BRANCH   1   4
HETATM    4  C8  UNL     1      -1.734  -1.216   1.084  1.00  0.00     0.126 C 
BRANCH   4   5
HETATM    5  C7  UNL     1      -2.410  -1.412  -0.200  1.00  0.00     0.020 C 
BRANCH   5   6
HETATM    6  C6  UNL     1      -3.598  -0.618  -0.557  1.00  0.00     0.002 C 
BRANCH   6   7
HETATM    7  C5  UNL     1      -4.765  -0.803   0.390  1.00  0.00     0.002 C 
BRANCH   7   8
HETATM    8  C4  UNL     1      -5.923   0.076  -0.095  1.00  0.00     0.020 C 
BRANCH   8   9
HETATM    9  C3  UNL     1      -7.063  -0.141   0.865  1.00  0.00     0.138 C 
BRANCH   9  10
HETATM   10  N2  UNL     1      -7.431  -1.529   0.868  1.00  0.00    -0.227 N 
HETATM   11  C2  UNL     1      -8.055  -2.242  -0.180  1.00  0.00     0.669 C 
HETATM   12  N1  UNL     1      -8.966  -3.105   0.195  1.00  0.00    -0.231 N 
HETATM   13  N7  UNL     1      -7.759  -2.086  -1.561  1.00  0.00    -0.221 N 
HETATM   14  C1  UNL     1      -9.304  -3.308   1.581  1.00  0.00     0.165 C 
ATOM     15  H1  UNL     1      -9.452  -3.651  -0.517  1.00  0.00     0.177 HD
ATOM     16  H7  UNL     1      -6.807  -2.261  -1.882  1.00  0.00     0.178 HD
ATOM     17  H2  UNL     1      -7.220  -2.055   1.716  1.00  0.00     0.177 HD
BRANCH  13  18
HETATM   18  C25 UNL     1      -8.760  -1.688  -2.529  1.00  0.00     0.195 C 
BRANCH  18  19
HETATM   19  C26 UNL     1      -9.326  -0.322  -2.168  1.00  0.00     0.036 A 
HETATM   20  C27 UNL     1      -8.751   0.798  -2.712  1.00  0.00     0.080 A 
HETATM   21  S2  UNL     1      -9.697   2.048  -2.037  1.00  0.00    -0.064 SA
HETATM   22  C28 UNL     1     -10.756   1.084  -1.111  1.00  0.00     0.142 A 
HETATM   23  N9  UNL     1     -10.335  -0.152  -1.364  1.00  0.00    -0.339 N 
ATOM     24  H9  UNL     1     -10.796  -0.954  -0.934  1.00  0.00     0.168 HD
BRANCH  22  25
HETATM   25  N8  UNL     1     -11.755   1.444  -0.330  1.00  0.00    -0.380 N 
ATOM     26  H82 UNL     1     -12.078   2.392  -0.136  1.00  0.00     0.158 HD
ATOM     27  H81 UNL     1     -12.388   0.867   0.224  1.00  0.00     0.158 HD
ENDBRANCH  22  25
ENDBRANCH  18  19
ENDBRANCH  13  18
ENDBRANCH   9  10
ENDBRANCH   8   9
ENDBRANCH   7   8
ENDBRANCH   6   7
ENDBRANCH   5   6
ENDBRANCH   4   5
ENDBRANCH   1   4
BRANCH   1  28
HETATM   28  C9  UNL     1      -1.702   1.043   2.226  1.00  0.00     0.141 C 
BRANCH  28  29
HETATM   29  C10 UNL     1      -2.417   2.185   1.610  1.00  0.00     0.134 C 
HETATM   30 CL1  UNL     1      -2.968   3.291   2.926  1.00  0.00    -0.129 Cl
ENDBRANCH  28  29
ENDBRANCH   1  28
BRANCH   2  31
HETATM   31  C12 UNL     1       0.958   1.545   1.197  1.00  0.00     0.228 C 
BRANCH  31  32
HETATM   32  N4  UNL     1       2.313   1.474   0.601  1.00  0.00    -0.343 N 
HETATM   33  C13 UNL     1       2.485   1.922  -0.757  1.00  0.00     0.153 C 
HETATM   34  C14 UNL     1       3.318   0.968   1.425  1.00  0.00     0.260 C 
HETATM   35  O2  UNL     1       3.124   0.587   2.612  1.00  0.00    -0.267 OA
BRANCH  34  36
HETATM   36  C15 UNL     1       4.703   0.853   0.922  1.00  0.00     0.074 A 
HETATM   37  C16 UNL     1       5.796   0.386   1.605  1.00  0.00     0.027 A 
HETATM   38  C17 UNL     1       6.968   0.361   0.959  1.00  0.00     0.039 A 
HETATM   39  C18 UNL     1       7.015   0.795  -0.329  1.00  0.00     0.077 A 
HETATM   40  S1  UNL     1       5.352   1.241  -0.600  1.00  0.00    -0.067 SA
BRANCH  39  41
HETATM   41  N5  UNL     1       8.074   0.898  -1.270  1.00  0.00    -0.321 N 
HETATM   42  C19 UNL     1       9.387   0.551  -1.016  1.00  0.00     0.222 C 
HETATM   43  O3  UNL     1       9.761   0.110   0.082  1.00  0.00    -0.273 OA
ATOM     44  H5  UNL     1       7.849   1.253  -2.199  1.00  0.00     0.169 HD
BRANCH  42  45
HETATM   45  C20 UNL     1      10.407   0.700  -2.076  1.00  0.00     0.109 C 
BRANCH  45  46
HETATM   46  C21 UNL     1      11.797   0.344  -1.696  1.00  0.00     0.021 C 
HETATM   47  C22 UNL     1      12.010  -1.067  -1.242  1.00  0.00     0.034 C 
HETATM   48  C23 UNL     1      12.911  -0.894  -0.034  1.00  0.00     0.232 C 
HETATM   49  N6  UNL     1      13.550   0.400  -0.227  1.00  0.00    -0.075 N 
HETATM   50  C24 UNL     1      12.414   1.234  -0.642  1.00  0.00     0.237 C 
ATOM     51  H62 UNL     1      14.074   0.749   0.575  1.00  0.00     0.277 HD
ATOM     52  H61 UNL     1      14.345   0.400  -0.866  1.00  0.00     0.277 HD
ENDBRANCH  45  46
ENDBRANCH  42  45
ENDBRANCH  39  41
ENDBRANCH  34  36
ENDBRANCH  31  32
ENDBRANCH   2  31
TORSDOF 18
