REMARK  18 active torsions:
REMARK  status: ('A' for Active; 'I' for Inactive)
REMARK    1  A    between atoms: C2_2  and  C3_3 
REMARK    2  A    between atoms: C2_2  and  N2_10 
REMARK    3  A    between atoms: C3_3  and  C4_4 
REMARK    4  A    between atoms: C4_4  and  C5_5 
REMARK    5  A    between atoms: C5_5  and  N1_6 
REMARK    6  A    between atoms: N2_10  and  C6_12 
REMARK    7  A    between atoms: C6_12  and  C7_13 
REMARK    8  A    between atoms: C7_13  and  C8_14 
REMARK    9  A    between atoms: C8_14  and  C9_15 
REMARK   10  A    between atoms: C9_15  and  C10_16 
REMARK   11  A    between atoms: C10_16  and  C11_17 
REMARK   12  A    between atoms: C11_17  and  C12_18 
REMARK   13  A    between atoms: C12_18  and  N3_19 
REMARK   14  A    between atoms: N7_27  and  C16_28 
REMARK   15  A    between atoms: N9_38  and  C23_39 
REMARK   16  A    between atoms: C23_39  and  C24_40 
REMARK   17  A    between atoms: C24_40  and  C25_41 
REMARK   18  A    between atoms: C25_41  and  O1_42 
ROOT
HETATM    1  C9  UNL     1      -1.488   1.309   0.632  1.00  0.00     0.005 C 
HETATM    2  N6  UNL     1      -0.749   0.537   1.482  1.00  0.00    -0.361 N 
HETATM    3  C14 UNL     1      -0.635  -0.874   1.376  1.00  0.00     0.145 C 
HETATM    4  C15 UNL     1       0.692  -1.403   1.924  1.00  0.00     0.152 C 
HETATM    5  N7  UNL     1       1.699  -0.383   1.724  1.00  0.00    -0.314 N 
HETATM    6  C26 UNL     1       1.390   0.893   2.320  1.00  0.00     0.258 C 
HETATM    7  O2  UNL     1       2.245   1.752   2.536  1.00  0.00    -0.270 OA
HETATM    8  C27 UNL     1      -0.063   1.035   2.633  1.00  0.00     0.250 C 
HETATM    9 BR1  UNL     1      -0.598   2.596   3.478  1.00  0.00    -0.058 Br
ENDROOT
BRANCH   1  10
HETATM   10  C8  UNL     1      -2.966   1.238   0.670  1.00  0.00    -0.000 C 
BRANCH  10  11
HETATM   11  C7  UNL     1      -3.704  -0.030   0.713  1.00  0.00     0.048 C 
BRANCH  11  12
HETATM   12  C6  UNL     1      -3.635  -0.885  -0.532  1.00  0.00     0.118 C 
BRANCH  12  13
HETATM   13  N2  UNL     1      -4.353  -2.103  -0.297  1.00  0.00    -0.417 N 
ATOM     14  H2  UNL     1      -3.884  -3.006  -0.224  1.00  0.00     0.153 HD
BRANCH  13  15
HETATM   15  C2  UNL     1      -5.761  -1.969  -0.173  1.00  0.00     0.072 C 
HETATM   16  C1  UNL     1      -6.364  -1.436  -1.454  1.00  0.00     0.031 C 
BRANCH  15  17
HETATM   17  C3  UNL     1      -6.365  -3.302   0.215  1.00  0.00     0.026 C 
BRANCH  17  18
HETATM   18  C4  UNL     1      -6.172  -4.370  -0.810  1.00  0.00     0.029 C 
BRANCH  18  19
HETATM   19  C5  UNL     1      -6.809  -5.689  -0.352  1.00  0.00     0.230 C 
BRANCH  19  20
HETATM   20  N1  UNL     1      -8.219  -5.464  -0.156  1.00  0.00    -0.079 N 
ATOM     21  H13 UNL     1      -8.409  -4.693   0.484  1.00  0.00     0.274 HD
ATOM     22  H12 UNL     1      -8.673  -5.074  -0.982  1.00  0.00     0.274 HD
ATOM     23  H11 UNL     1      -8.642  -6.341   0.148  1.00  0.00     0.274 HD
ENDBRANCH  19  20
ENDBRANCH  18  19
ENDBRANCH  17  18
ENDBRANCH  15  17
ENDBRANCH  13  15
ENDBRANCH  12  13
ENDBRANCH  11  12
ENDBRANCH  10  11
ENDBRANCH   1  10
BRANCH   1  24
HETATM   24  C10 UNL     1      -1.011   2.761   0.504  1.00  0.00     0.058 C 
BRANCH  24  25
HETATM   25  C11 UNL     1      -1.504   3.381  -0.821  1.00  0.00     0.026 C 
BRANCH  25  26
HETATM   26  C12 UNL     1      -0.963   4.811  -0.883  1.00  0.00     0.122 C 
BRANCH  26  27
HETATM   27  N3  UNL     1       0.475   4.827  -0.847  1.00  0.00    -0.367 N 
HETATM   28  C13 UNL     1       1.088   5.935  -0.641  1.00  0.00     0.196 C 
HETATM   29  N4  UNL     1       2.507   6.037  -0.592  1.00  0.00    -0.067 NA
HETATM   30  N5  UNL     1       0.327   7.130  -0.451  1.00  0.00    -0.067 NA
ATOM     31  H3  UNL     1       1.003   3.965  -0.984  1.00  0.00     0.161 HD
ENDBRANCH  26  27
ENDBRANCH  25  26
ENDBRANCH  24  25
ENDBRANCH   1  24
BRANCH   5  32
HETATM   32  C16 UNL     1       2.909  -0.582   1.013  1.00  0.00     0.039 A 
HETATM   33  C17 UNL     1       3.828  -1.548   1.357  1.00  0.00     0.032 A 
HETATM   34  C18 UNL     1       5.003  -1.711   0.635  1.00  0.00     0.034 A 
HETATM   35  C19 UNL     1       5.278  -0.905  -0.450  1.00  0.00     0.063 A 
HETATM   36  C20 UNL     1       4.364   0.064  -0.803  1.00  0.00     0.063 A 
HETATM   37  N9  UNL     1       6.325  -0.852  -1.309  1.00  0.00    -0.322 N 
HETATM   38  C21 UNL     1       3.190   0.218  -0.071  1.00  0.00     0.061 A 
HETATM   39  N8  UNL     1       4.896   0.675  -1.872  1.00  0.00    -0.331 N 
HETATM   40  C22 UNL     1       6.086   0.128  -2.190  1.00  0.00     0.179 A 
ATOM     41  H8  UNL     1       4.460   1.448  -2.375  1.00  0.00     0.168 HD
HETATM   42  S1  UNL     1       6.980   0.642  -3.452  1.00  0.00    -0.040 SA
BRANCH  37  43
HETATM   43  C23 UNL     1       7.465  -1.704  -1.281  1.00  0.00     0.134 C 
BRANCH  43  44
HETATM   44  C24 UNL     1       8.597  -1.257  -0.417  1.00  0.00     0.046 C 
BRANCH  44  45
HETATM   45  C25 UNL     1       9.192   0.066  -0.762  1.00  0.00     0.165 C 
BRANCH  45  46
HETATM   46  O1  UNL     1      10.243   0.298   0.157  1.00  0.00    -0.401 OA
ATOM     47  H1  UNL     1      10.622   1.141  -0.063  1.00  0.00     0.209 HD
ENDBRANCH  45  46
ENDBRANCH  44  45
ENDBRANCH  43  44
ENDBRANCH  37  43
ENDBRANCH   5  32
TORSDOF 18
