REMARK  6 active torsions:
REMARK  status: ('A' for Active; 'I' for Inactive)
REMARK    1  A    between atoms: C2_2  and  N1_3 
REMARK    2  A    between atoms: N2_12  and  C11_13 
REMARK    3  A    between atoms: C11_13  and  C12_14 
REMARK    4  A    between atoms: C15_17  and  N3_18 
REMARK    5  A    between atoms: N3_18  and  C16_21 
REMARK    6  A    between atoms: C16_21  and  C17_22 
ROOT
HETATM    1  C12 UNL     1       0.286   0.017  -1.161  1.00  0.00     0.014 C 
HETATM    2  C13 UNL     1       1.305  -1.080  -1.354  1.00  0.00     0.008 C 
HETATM    3  C14 UNL     1       2.173  -1.354  -0.181  1.00  0.00     0.033 C 
HETATM    4  C15 UNL     1       2.806  -0.196   0.483  1.00  0.00     0.186 C 
HETATM    5  C20 UNL     1       1.814   0.946   0.595  1.00  0.00     0.033 C 
HETATM    6  C21 UNL     1       1.057   1.231  -0.668  1.00  0.00     0.008 C 
ENDROOT
BRANCH   1   7
HETATM    7  C11 UNL     1      -0.730  -0.437  -0.162  1.00  0.00     0.277 C 
BRANCH   7   8
HETATM    8  N2  UNL     1      -1.776   0.523   0.073  1.00  0.00     0.097 N 
HETATM    9  C4  UNL     1      -2.679   0.665  -1.013  1.00  0.00     0.255 C 
HETATM   10  C3  UNL     1      -3.688  -0.472  -1.087  1.00  0.00     0.309 C 
HETATM   11  C5  UNL     1      -3.412   1.978  -0.927  1.00  0.00     0.016 C 
HETATM   12  N1  UNL     1      -3.783  -1.198   0.157  1.00  0.00     0.096 N 
HETATM   13  C9  UNL     1      -3.822  -0.197   1.214  1.00  0.00     0.251 C 
HETATM   14  C8  UNL     1      -4.759   0.904   0.893  1.00  0.00     0.038 C 
HETATM   15  C10 UNL     1      -2.383   0.285   1.352  1.00  0.00     0.308 C 
HETATM   16  C7  UNL     1      -4.113   2.172   0.380  1.00  0.00     0.008 C 
HETATM   17  C6  UNL     1      -2.404   3.090  -1.098  1.00  0.00     0.012 C 
BRANCH  12  18
HETATM   18  C2  UNL     1      -5.004  -1.966   0.130  1.00  0.00     0.268 C 
HETATM   19  C1  UNL     1      -5.083  -2.995   1.249  1.00  0.00     0.037 C 
ENDBRANCH  12  18
ENDBRANCH   7   8
ENDBRANCH   1   7
BRANCH   4  20
HETATM   20  N3  UNL     1       4.061   0.255  -0.028  1.00  0.00    -0.071 N 
ATOM     21  H32 UNL     1       3.948   0.624  -0.972  1.00  0.00     0.277 HD
ATOM     22  H31 UNL     1       4.358   1.102   0.456  1.00  0.00     0.277 HD
BRANCH  20  23
HETATM   23  C16 UNL     1       5.111  -0.737   0.003  1.00  0.00     0.236 C 
BRANCH  23  24
HETATM   24  C17 UNL     1       6.475  -0.115  -0.251  1.00  0.00     0.003 C 
HETATM   25  C18 UNL     1       7.495  -1.223  -0.255  1.00  0.00     0.011 C 
HETATM   26  C19 UNL     1       6.802   0.715   1.020  1.00  0.00     0.011 C 
ENDBRANCH  23  24
ENDBRANCH  20  23
ENDBRANCH   4  20
TORSDOF 6
