REMARK  6 active torsions:
REMARK  status: ('A' for Active; 'I' for Inactive)
REMARK    1  A    between atoms: C2_2  and  C4_4 
REMARK    2  A    between atoms: C4_4  and  C5_5 
REMARK    3  A    between atoms: C5_5  and  C6_6 
REMARK    4  A    between atoms: C6_6  and  N1_7 
REMARK       I    between atoms: N1_7  and  C7_9 
REMARK    5  A    between atoms: C7_9  and  C8_11 
REMARK    6  A    between atoms: C8_11  and  C9_12 
ROOT
HETATM    1  C9  UNL     1      -1.341  -0.454  -0.479  1.00  0.00     0.136 C 
HETATM    2  O2  UNL     1      -2.523  -1.147  -0.637  1.00  0.00    -0.380 OA
HETATM    3  C10 UNL     1      -3.517  -0.547  -1.306  1.00  0.00     0.122 C 
HETATM    4  C11 UNL     1      -4.806  -1.303  -1.053  1.00  0.00     0.034 C 
HETATM    5  C12 UNL     1      -5.363  -1.215   0.293  1.00  0.00     0.034 C 
HETATM    6  C13 UNL     1      -4.537  -0.424   1.304  1.00  0.00     0.121 C 
HETATM    7  C14 UNL     1      -4.728   1.002   1.017  1.00  0.00     0.036 C 
HETATM    8  C15 UNL     1      -3.928   1.651  -0.047  1.00  0.00    -0.010 C 
HETATM    9  C16 UNL     1      -2.746   2.422   0.520  1.00  0.00     0.005 C 
HETATM   10  C17 UNL     1      -1.427   1.783   0.429  1.00  0.00     0.010 C 
HETATM   11  C18 UNL     1      -1.326   0.337   0.814  1.00  0.00     0.039 C 
HETATM   12  C19 UNL     1      -2.304  -0.082   1.850  1.00  0.00     0.175 C 
HETATM   13  O3  UNL     1      -3.306  -0.909   1.504  1.00  0.00    -0.385 OA
HETATM   14  C20 UNL     1      -3.673   0.920  -1.287  1.00  0.00     0.036 C 
ENDROOT
BRANCH   1  15
HETATM   15  C8  UNL     1      -0.274  -1.519  -0.518  1.00  0.00     0.135 C 
BRANCH  15  16
HETATM   16  C7  UNL     1       1.113  -1.022  -0.408  1.00  0.00     0.220 C 
HETATM   17  N1  UNL     1       2.191  -1.898  -0.276  1.00  0.00    -0.361 N 
ATOM     18  H1  UNL     1       1.992  -2.898  -0.250  1.00  0.00     0.162 HD
HETATM   19  O1  UNL     1       1.314   0.219  -0.436  1.00  0.00    -0.274 OA
BRANCH  17  20
HETATM   20  C6  UNL     1       3.587  -1.475  -0.172  1.00  0.00     0.122 C 
BRANCH  20  21
HETATM   21  C5  UNL     1       4.007  -0.765  -1.401  1.00  0.00     0.020 C 
BRANCH  21  22
HETATM   22  C4  UNL     1       5.404  -0.316  -1.522  1.00  0.00     0.005 C 
BRANCH  22  23
HETATM   23  C2  UNL     1       5.989   0.638  -0.569  1.00  0.00    -0.023 C 
HETATM   24  C1  UNL     1       6.038   0.160   0.840  1.00  0.00     0.009 C 
HETATM   25  C3  UNL     1       7.441   0.937  -1.001  1.00  0.00     0.009 C 
ENDBRANCH  22  23
ENDBRANCH  21  22
ENDBRANCH  20  21
ENDBRANCH  17  20
ENDBRANCH  15  16
ENDBRANCH   1  15
TORSDOF 6
