REMARK  5 active torsions:
REMARK  status: ('A' for Active; 'I' for Inactive)
REMARK       I    between atoms: C2_4  and  N2_5 
REMARK       I    between atoms: C2_4  and  N3_17 
REMARK    1  A    between atoms: N2_5  and  C3_7 
REMARK    2  A    between atoms: C15_20  and  N4_21 
REMARK    3  A    between atoms: N5_24  and  C18_25 
REMARK    4  A    between atoms: C18_25  and  C19_26 
REMARK    5  A    between atoms: C19_26  and  O1_27 
ROOT
HETATM    1  C1  UNL     1      -1.001   1.676  -2.769  1.00  0.00     0.165 C 
HETATM    2  N1  UNL     1      -2.056   0.859  -2.300  1.00  0.00    -0.231 N 
ATOM      3  H1  UNL     1      -2.928   0.976  -2.817  1.00  0.00     0.177 HD
HETATM    4  C2  UNL     1      -2.127   0.020  -1.373  1.00  0.00     0.672 C 
HETATM    5  N2  UNL     1      -3.346  -0.669  -1.125  1.00  0.00    -0.217 N 
ATOM      6  H2  UNL     1      -3.392  -1.645  -1.418  1.00  0.00     0.178 HD
HETATM    7  N3  UNL     1      -1.030  -0.294  -0.535  1.00  0.00    -0.218 N 
HETATM    8  C13 UNL     1      -0.352   0.718   0.208  1.00  0.00     0.143 C 
HETATM    9  C14 UNL     1       1.130   0.605  -0.054  1.00  0.00     0.056 C 
HETATM   10  C15 UNL     1       1.625  -0.703   0.504  1.00  0.00     0.226 C 
HETATM   11  C23 UNL     1       0.880  -1.836  -0.133  1.00  0.00     0.056 C 
HETATM   12  C24 UNL     1      -0.561  -1.655  -0.371  1.00  0.00     0.143 C 
ENDROOT
BRANCH   5  13
HETATM   13  C3  UNL     1      -4.509  -0.126  -0.506  1.00  0.00     0.048 C 
HETATM   14  C4  UNL     1      -5.103   1.043  -1.249  1.00  0.00     0.036 C 
HETATM   15  C5  UNL     1      -6.272   1.581  -0.457  1.00  0.00    -0.012 C 
HETATM   16  C6  UNL     1      -7.326   0.514  -0.389  1.00  0.00     0.009 C 
HETATM   17  C10 UNL     1      -5.910   1.959   0.949  1.00  0.00     0.009 C 
HETATM   18  C7  UNL     1      -6.784  -0.685   0.343  1.00  0.00    -0.012 C 
HETATM   19  C8  UNL     1      -6.323  -0.338   1.744  1.00  0.00     0.009 C 
HETATM   20  C12 UNL     1      -5.569  -1.189  -0.402  1.00  0.00     0.036 C 
HETATM   21  C9  UNL     1      -5.305   0.751   1.649  1.00  0.00    -0.012 C 
HETATM   22  C11 UNL     1      -4.070   0.362   0.877  1.00  0.00     0.036 C 
ENDBRANCH   5  13
BRANCH  10  23
HETATM   23  N4  UNL     1       3.021  -0.884   0.207  1.00  0.00     0.096 N 
HETATM   24  C16 UNL     1       3.675  -1.869   1.042  1.00  0.00     0.303 C 
HETATM   25  C17 UNL     1       5.148  -1.606   1.185  1.00  0.00     0.302 C 
HETATM   26  N5  UNL     1       5.760  -1.135  -0.032  1.00  0.00     0.093 N 
HETATM   27  C21 UNL     1       5.075  -0.049  -0.642  1.00  0.00     0.302 C 
HETATM   28  C22 UNL     1       3.825   0.283   0.185  1.00  0.00     0.303 C 
BRANCH  26  29
HETATM   29  C18 UNL     1       7.118  -0.677   0.296  1.00  0.00     0.298 C 
BRANCH  29  30
HETATM   30  C19 UNL     1       7.910  -0.283  -0.907  1.00  0.00     0.197 C 
BRANCH  30  31
HETATM   31  O1  UNL     1       9.187   0.137  -0.574  1.00  0.00    -0.394 OA
HETATM   32  C20 UNL     1       9.267   1.226   0.247  1.00  0.00     0.201 C 
ENDBRANCH  30  31
ENDBRANCH  29  30
ENDBRANCH  26  29
ENDBRANCH  10  23
TORSDOF 5
