REMARK  5 active torsions:
REMARK  status: ('A' for Active; 'I' for Inactive)
REMARK    1  A    between atoms: C1_2  and  C2_3 
REMARK       I    between atoms: C1_2  and  N3_23 
REMARK    2  A    between atoms: C2_3  and  C3_4 
REMARK    3  A    between atoms: C3_4  and  C4_5 
REMARK       I    between atoms: C4_5  and  N1_7 
REMARK       I    between atoms: N2_10  and  C7_11 
REMARK    4  A    between atoms: C7_11  and  C8_13 
REMARK    5  A    between atoms: N3_23  and  C17_25 
ROOT
HETATM    1  C4  UNL     1      -0.146  -0.539   0.959  1.00  0.00     0.220 C 
HETATM    2  O2  UNL     1       0.067  -1.426   1.823  1.00  0.00    -0.273 OA
HETATM    3  N1  UNL     1      -1.440  -0.096   0.580  1.00  0.00    -0.343 N 
HETATM    4  C5  UNL     1      -1.564   0.938  -0.428  1.00  0.00     0.146 C 
HETATM    5  C6  UNL     1      -2.463   0.442  -1.544  1.00  0.00     0.146 C 
HETATM    6  N2  UNL     1      -3.762   0.224  -0.926  1.00  0.00    -0.344 N 
HETATM    7  C7  UNL     1      -4.885   0.938  -1.408  1.00  0.00     0.224 C 
HETATM    8  O3  UNL     1      -4.798   1.748  -2.352  1.00  0.00    -0.273 OA
HETATM    9  C12 UNL     1      -3.796  -0.728   0.154  1.00  0.00     0.111 C 
HETATM   10  C13 UNL     1      -3.906  -2.140  -0.434  1.00  0.00     0.037 C 
HETATM   11  C14 UNL     1      -4.830  -2.912   0.487  1.00  0.00     0.076 C 
HETATM   12  S1  UNL     1      -4.189  -2.595   2.180  1.00  0.00    -0.167 SA
HETATM   13  C15 UNL     1      -2.510  -1.894   1.899  1.00  0.00     0.101 C 
HETATM   14  C16 UNL     1      -2.678  -0.601   1.134  1.00  0.00     0.119 C 
ENDROOT
BRANCH   1  15
HETATM   15  C3  UNL     1       1.053   0.057   0.319  1.00  0.00     0.112 C 
BRANCH  15  16
HETATM   16  C2  UNL     1       2.324  -0.527   0.835  1.00  0.00     0.112 C 
BRANCH  16  17
HETATM   17  C1  UNL     1       3.516   0.054   0.209  1.00  0.00     0.218 C 
HETATM   18  O1  UNL     1       3.335   0.954  -0.665  1.00  0.00    -0.274 OA
HETATM   19  N3  UNL     1       4.839  -0.308   0.505  1.00  0.00    -0.356 N 
ATOM     20  H3  UNL     1       5.001  -1.030   1.207  1.00  0.00     0.162 HD
BRANCH  19  21
HETATM   21  C17 UNL     1       5.988   0.299  -0.144  1.00  0.00     0.084 C 
HETATM   22  C18 UNL     1       6.819   1.014   0.854  1.00  0.00     0.025 C 
HETATM   23  C19 UNL     1       8.205   0.405   1.012  1.00  0.00     0.002 C 
HETATM   24  C20 UNL     1       8.846   0.534  -0.370  1.00  0.00     0.000 C 
HETATM   25  C21 UNL     1       8.139  -0.404  -1.278  1.00  0.00     0.002 C 
HETATM   26  C22 UNL     1       6.724  -0.702  -0.981  1.00  0.00     0.025 C 
ENDBRANCH  19  21
ENDBRANCH  16  17
ENDBRANCH  15  16
ENDBRANCH   1  15
BRANCH   7  27
HETATM   27  C8  UNL     1      -6.207   0.719  -0.774  1.00  0.00     0.078 C 
HETATM   28  C9  UNL     1      -7.318   1.540  -1.431  1.00  0.00     0.014 C 
HETATM   29  C10 UNL     1      -7.808   1.888  -0.042  1.00  0.00     0.002 C 
HETATM   30  C11 UNL     1      -6.428   1.593   0.467  1.00  0.00     0.014 C 
ENDBRANCH   7  27
TORSDOF 5
