REMARK  5 active torsions:
REMARK  status: ('A' for Active; 'I' for Inactive)
REMARK       I    between atoms: N1_7  and  C7_8 
REMARK    1  A    between atoms: C7_8  and  C8_10 
REMARK    2  A    between atoms: C14_17  and  C15_18 
REMARK       I    between atoms: C15_18  and  N2_20 
REMARK    3  A    between atoms: N2_20  and  C16_22 
REMARK    4  A    between atoms: C16_22  and  C17_23 
REMARK    5  A    between atoms: C17_23  and  N3_24 
ROOT
HETATM    1  C8  UNL     1      -0.817   0.638   0.015  1.00  0.00     0.122 C 
HETATM    2  C9  UNL     1      -0.642   0.113   1.422  1.00  0.00     0.136 C 
HETATM    3  C10 UNL     1      -0.923   1.208   2.453  1.00  0.00     0.039 C 
HETATM    4  C11 UNL     1       0.418   1.913   2.508  1.00  0.00     0.014 C 
HETATM    5  C12 UNL     1       0.341   3.382   2.592  1.00  0.00     0.012 C 
HETATM    6  C13 UNL     1       1.055   1.380   1.244  1.00  0.00     0.139 C 
HETATM    7  O2  UNL     1       0.775   0.011   1.431  1.00  0.00    -0.378 OA
HETATM    8  C14 UNL     1       0.226   1.740   0.012  1.00  0.00     0.122 C 
ENDROOT
BRANCH   8   9
HETATM    9  C15 UNL     1       1.129   1.671  -1.143  1.00  0.00     0.225 C 
HETATM   10  O3  UNL     1       1.159   2.628  -1.944  1.00  0.00    -0.273 OA
HETATM   11  N2  UNL     1       1.970   0.554  -1.385  1.00  0.00    -0.359 N 
ATOM     12  H2  UNL     1       1.949  -0.231  -0.734  1.00  0.00     0.162 HD
BRANCH  11  13
HETATM   13  C16 UNL     1       2.847   0.495  -2.515  1.00  0.00     0.142 C 
BRANCH  13  14
HETATM   14  C17 UNL     1       3.681  -0.721  -2.651  1.00  0.00     0.145 C 
BRANCH  14  15
HETATM   15  N3  UNL     1       4.575  -0.916  -1.539  1.00  0.00    -0.351 N 
HETATM   16  C18 UNL     1       4.286  -1.710  -0.364  1.00  0.00     0.126 C 
HETATM   17  C19 UNL     1       4.620  -0.838   0.845  1.00  0.00     0.020 C 
HETATM   18  C20 UNL     1       6.105  -0.605   0.924  1.00  0.00     0.011 C 
HETATM   19  C21 UNL     1       6.806  -0.609  -0.394  1.00  0.00     0.103 C 
HETATM   20  C22 UNL     1       5.897  -0.321  -1.535  1.00  0.00     0.219 C 
HETATM   21  O4  UNL     1       6.242   0.414  -2.479  1.00  0.00    -0.273 OA
ENDBRANCH  14  15
ENDBRANCH  13  14
ENDBRANCH  11  13
ENDBRANCH   8   9
BRANCH   1  22
HETATM   22  C7  UNL     1      -2.155   1.100  -0.314  1.00  0.00     0.227 C 
HETATM   23  N1  UNL     1      -3.265   0.285  -0.532  1.00  0.00    -0.351 N 
HETATM   24  C6  UNL     1      -3.153  -1.150  -0.483  1.00  0.00     0.130 C 
HETATM   25  C23 UNL     1      -4.558   0.840  -0.801  1.00  0.00     0.130 C 
HETATM   26  C4  UNL     1      -4.031  -1.651   0.646  1.00  0.00    -0.000 C 
HETATM   27  C3  UNL     1      -5.375  -1.001   0.652  1.00  0.00     0.011 C 
HETATM   28  C5  UNL     1      -4.209  -3.146   0.538  1.00  0.00     0.011 C 
HETATM   29  C2  UNL     1      -5.680  -0.136  -0.524  1.00  0.00    -0.000 C 
HETATM   30  C1  UNL     1      -6.065  -0.912  -1.767  1.00  0.00     0.011 C 
HETATM   31  O1  UNL     1      -2.320   2.350  -0.407  1.00  0.00    -0.273 OA
ENDBRANCH   1  22
TORSDOF 5
