REMARK  6 active torsions:
REMARK  status: ('A' for Active; 'I' for Inactive)
REMARK    1  A    between atoms: C3_3  and  O1_4 
REMARK    2  A    between atoms: O1_4  and  C4_5 
REMARK    3  A    between atoms: C4_5  and  C5_6 
REMARK    4  A    between atoms: N2_16  and  C13_17 
REMARK    5  A    between atoms: C18_22  and  C20_24 
REMARK    6  A    between atoms: C22_26  and  O3_27 
ROOT
HETATM    1  C1  UNL     1      -0.207   5.764   1.182  1.00  0.00     0.014 C 
HETATM    2  C2  UNL     1       0.081   5.371   0.085  1.00  0.00    -0.091 C 
HETATM    3  C3  UNL     1       0.442   4.918  -1.244  1.00  0.00     0.260 C 
ENDROOT
BRANCH   3   4
HETATM    4  O1  UNL     1       0.740   3.561  -1.303  1.00  0.00    -0.377 OA
BRANCH   4   5
HETATM    5  C4  UNL     1      -0.422   2.879  -0.873  1.00  0.00     0.200 C 
BRANCH   5   6
HETATM    6  C5  UNL     1      -0.340   1.444  -0.890  1.00  0.00     0.061 C 
HETATM    7  C6  UNL     1      -0.454   1.044  -2.393  1.00  0.00     0.042 C 
HETATM    8  C7  UNL     1      -1.320  -0.157  -2.289  1.00  0.00     0.040 C 
HETATM    9  C8  UNL     1      -2.479   0.654  -1.631  1.00  0.00     0.133 C 
HETATM   10  C15 UNL     1      -0.912  -1.142  -1.201  1.00  0.00     0.233 C 
HETATM   11  N1  UNL     1      -1.641   0.895  -0.441  1.00  0.00    -0.339 N 
HETATM   12  C9  UNL     1      -1.880   0.643   0.912  1.00  0.00     0.226 C 
HETATM   13  O2  UNL     1      -1.470   1.583   1.586  1.00  0.00    -0.273 OA
HETATM   14  C10 UNL     1      -2.515  -0.531   1.582  1.00  0.00     0.102 C 
HETATM   15  C11 UNL     1      -2.092  -0.679   3.015  1.00  0.00     0.022 C 
HETATM   16  C12 UNL     1      -2.233  -1.828   0.788  1.00  0.00     0.286 C 
HETATM   17  N2  UNL     1      -2.096  -1.632  -0.593  1.00  0.00     0.094 N 
HETATM   18  C16 UNL     1       0.260  -0.818  -0.406  1.00  0.00     0.027 C 
HETATM   19  C17 UNL     1       1.494  -1.702  -0.689  1.00  0.00     0.023 C 
HETATM   20  C25 UNL     1       0.792   0.629  -0.461  1.00  0.00     0.028 C 
HETATM   21  C18 UNL     1       2.503  -1.525   0.419  1.00  0.00    -0.000 C 
HETATM   22  C19 UNL     1       2.168  -2.216   1.691  1.00  0.00     0.022 C 
HETATM   23  C22 UNL     1       2.835  -0.093   0.601  1.00  0.00     0.134 C 
HETATM   24  C23 UNL     1       1.584   0.818   0.749  1.00  0.00     0.018 C 
HETATM   25  C24 UNL     1       2.205   2.138   1.026  1.00  0.00     0.013 C 
BRANCH  17  26
HETATM   26  C13 UNL     1      -2.616  -2.819  -1.273  1.00  0.00     0.268 C 
HETATM   27  C14 UNL     1      -4.079  -3.013  -1.171  1.00  0.00     0.037 C 
ENDBRANCH  17  26
BRANCH  21  28
HETATM   28  C20 UNL     1       3.773  -2.181  -0.082  1.00  0.00    -0.025 C 
HETATM   29  C21 UNL     1       4.740  -2.496   0.771  1.00  0.00     0.008 C 
ENDBRANCH  21  28
BRANCH  23  30
HETATM   30  O3  UNL     1       3.494   0.037   1.841  1.00  0.00    -0.394 OA
ATOM     31  H3  UNL     1       3.707   0.955   1.958  1.00  0.00     0.210 HD
ENDBRANCH  23  30
ENDBRANCH   5   6
ENDBRANCH   4   5
ENDBRANCH   3   4
TORSDOF 6
