REMARK  5 active torsions:
REMARK  status: ('A' for Active; 'I' for Inactive)
REMARK    1  A    between atoms: C4_6  and  N1_7 
REMARK    2  A    between atoms: N1_7  and  C5_9 
REMARK    3  A    between atoms: C5_9  and  C7_11 
REMARK    4  A    between atoms: C5_9  and  C13_17 
REMARK    5  A    between atoms: C14_21  and  O1_22 
ROOT
HETATM    1  C5  UNL     1      -0.336  -0.155  -1.324  1.00  0.00     0.129 C 
HETATM    2  C6  UNL     1      -0.042   1.210  -1.858  1.00  0.00     0.048 C 
ENDROOT
BRANCH   1   3
HETATM    3  N1  UNL     1       0.862  -0.870  -0.916  1.00  0.00    -0.365 N 
ATOM      4  H1  UNL     1       0.974  -1.851  -1.174  1.00  0.00     0.161 HD
BRANCH   3   5
HETATM    5  C4  UNL     1       1.896  -0.214  -0.152  1.00  0.00     0.106 A 
HETATM    6  S1  UNL     1       1.986   1.412   0.355  1.00  0.00    -0.057 SA
HETATM    7  C3  UNL     1       3.475   1.363   1.178  1.00  0.00     0.085 A 
HETATM    8  C2  UNL     1       3.864   0.063   1.032  1.00  0.00     0.003 A 
HETATM    9 CL1  UNL     1       4.329   2.670   2.025  1.00  0.00    -0.076 Cl
HETATM   10  C1  UNL     1       5.177  -0.396   1.641  1.00  0.00     0.054 C 
HETATM   11  C14 UNL     1       3.053  -0.754   0.347  1.00  0.00     0.107 A 
BRANCH  11  12
HETATM   12  O1  UNL     1       3.339  -2.130   0.121  1.00  0.00    -0.357 OA
ATOM     13  H1  UNL     1       2.764  -2.709  -0.365  1.00  0.00     0.217 HD
ENDBRANCH  11  12
ENDBRANCH   3   5
ENDBRANCH   1   3
BRANCH   1  14
HETATM   14  C7  UNL     1      -1.477  -0.285  -0.385  1.00  0.00     0.022 C 
HETATM   15  C8  UNL     1      -1.207   0.174   1.033  1.00  0.00     0.007 C 
HETATM   16  C9  UNL     1      -2.366  -0.374   1.887  1.00  0.00     0.000 C 
HETATM   17  C10 UNL     1      -3.700   0.095   1.406  1.00  0.00     0.000 C 
HETATM   18  C11 UNL     1      -3.467   1.107   0.318  1.00  0.00     0.000 C 
HETATM   19  C12 UNL     1      -2.698   0.502  -0.845  1.00  0.00     0.007 C 
ENDBRANCH   1  14
BRANCH   1  20
HETATM   20  C13 UNL     1      -0.773  -0.951  -2.606  1.00  0.00     0.412 C 
HETATM   21  F1  UNL     1       0.277  -0.885  -3.522  1.00  0.00    -0.168 F 
HETATM   22  F2  UNL     1      -1.168  -2.204  -2.295  1.00  0.00    -0.168 F 
HETATM   23  F3  UNL     1      -1.797  -0.245  -3.178  1.00  0.00    -0.168 F 
ENDBRANCH   1  20
TORSDOF 5
