REMARK  4 active torsions:
REMARK  status: ('A' for Active; 'I' for Inactive)
REMARK    1  A    between atoms: C2_2  and  C3_3 
REMARK    2  A    between atoms: C3_3  and  N1_5 
REMARK    3  A    between atoms: C9_10  and  C10_11 
REMARK    4  A    between atoms: C11_15  and  O1_16 
ROOT
HETATM    1  N1  UNL     1      -0.193   0.091  -0.363  1.00  0.00    -0.313 N 
HETATM    2  C5  UNL     1       0.850  -0.827  -0.086  1.00  0.00     0.088 A 
HETATM    3  C6  UNL     1       0.589  -2.097   0.427  1.00  0.00     0.031 A 
HETATM    4  C7  UNL     1       1.593  -2.997   0.721  1.00  0.00     0.022 A 
HETATM    5  C8  UNL     1       2.891  -2.594   0.487  1.00  0.00     0.020 A 
HETATM    6  C9  UNL     1       3.191  -1.328  -0.028  1.00  0.00     0.083 A 
HETATM    7  C11 UNL     1       2.158  -0.461  -0.308  1.00  0.00     0.109 A 
HETATM    8  S1  UNL     1      -1.087  -2.618   0.704  1.00  0.00    -0.113 SA
HETATM    9  C12 UNL     1      -2.156  -1.340   0.019  1.00  0.00     0.061 C 
HETATM   10  C13 UNL     1      -3.251  -2.060  -0.751  1.00  0.00     0.032 C 
HETATM   11  C14 UNL     1      -2.732  -0.563   1.186  1.00  0.00     0.032 C 
HETATM   12  C15 UNL     1      -1.413  -0.510  -0.960  1.00  0.00     0.195 C 
HETATM   13  C16 UNL     1      -2.361   0.554  -1.471  1.00  0.00     0.079 C 
HETATM   14  F4  UNL     1      -1.088  -1.282  -2.045  1.00  0.00    -0.217 F 
ENDROOT
BRANCH   1  15
HETATM   15  C3  UNL     1      -0.037   1.480  -0.057  1.00  0.00    -0.011 C 
HETATM   16  C4  UNL     1      -0.042   2.489  -1.149  1.00  0.00     0.063 C 
BRANCH  15  17
HETATM   17  C2  UNL     1       0.537   1.902   1.243  1.00  0.00     0.048 C 
HETATM   18  C1  UNL     1      -0.234   3.109   1.839  1.00  0.00     0.011 C 
ENDBRANCH  15  17
ENDBRANCH   1  15
BRANCH   7  19
HETATM   19  O1  UNL     1       2.403   0.792  -0.820  1.00  0.00    -0.358 OA
ATOM     20  H1  UNL     1       3.306   1.045  -0.973  1.00  0.00     0.217 HD
ENDBRANCH   7  19
BRANCH   6  21
HETATM   21  C10 UNL     1       4.573  -0.900  -0.286  1.00  0.00     0.420 C 
HETATM   22  F1  UNL     1       4.848  -0.595  -1.590  1.00  0.00    -0.166 F 
HETATM   23  F2  UNL     1       5.413  -1.947   0.119  1.00  0.00    -0.166 F 
HETATM   24  F3  UNL     1       4.915   0.161   0.566  1.00  0.00    -0.166 F 
ENDBRANCH   6  21
TORSDOF 4
