REMARK  5 active torsions:
REMARK  status: ('A' for Active; 'I' for Inactive)
REMARK    1  A    between atoms: C1_2  and  C2_5 
REMARK    2  A    between atoms: C4_7  and  N1_8 
REMARK    3  A    between atoms: N1_8  and  C5_10 
REMARK    4  A    between atoms: C5_10  and  N2_12 
REMARK    5  A    between atoms: N2_12  and  C6_14 
ROOT
HETATM    1  N1  UNL     1       1.462   1.549  -0.341  1.00  0.00    -0.328 N 
ATOM      2  H1  UNL     1       1.636   2.539  -0.513  1.00  0.00     0.169 HD
ENDROOT
BRANCH   1   3
HETATM    3  C4  UNL     1       2.616   0.720  -0.257  1.00  0.00     0.078 A 
HETATM    4  C3  UNL     1       3.939   1.117  -0.383  1.00  0.00     0.055 A 
HETATM    5  C2  UNL     1       4.871   0.172  -0.270  1.00  0.00     0.079 A 
HETATM    6  C12 UNL     1       4.471  -1.110  -0.039  1.00  0.00     0.091 A 
HETATM    7  S2  UNL     1       2.781  -0.948   0.012  1.00  0.00    -0.059 SA
HETATM    8 CL1  UNL     1       5.419  -2.576   0.160  1.00  0.00    -0.075 Cl
BRANCH   5   9
HETATM    9  C1  UNL     1       6.356   0.464  -0.389  1.00  0.00     0.419 C 
HETATM   10  F1  UNL     1       6.910   0.082   0.816  1.00  0.00    -0.166 F 
HETATM   11  F2  UNL     1       6.605   1.791  -0.600  1.00  0.00    -0.166 F 
HETATM   12  F3  UNL     1       6.868  -0.289  -1.436  1.00  0.00    -0.166 F 
ENDBRANCH   5   9
ENDBRANCH   1   3
BRANCH   1  13
HETATM   13  C5  UNL     1       0.129   1.180  -0.218  1.00  0.00     0.172 C 
HETATM   14  S1  UNL     1      -0.980   2.409  -0.370  1.00  0.00    -0.041 SA
BRANCH  13  15
HETATM   15  N2  UNL     1      -0.393  -0.088   0.015  1.00  0.00    -0.362 N 
ATOM     16  H2  UNL     1       0.279  -0.849   0.109  1.00  0.00     0.162 HD
BRANCH  15  17
HETATM   17  C6  UNL     1      -1.790  -0.438   0.137  1.00  0.00     0.083 C 
HETATM   18  C7  UNL     1      -2.522   0.247   1.245  1.00  0.00     0.025 C 
HETATM   19  C8  UNL     1      -3.712  -0.671   1.582  1.00  0.00     0.002 C 
HETATM   20  C9  UNL     1      -4.607  -0.627   0.345  1.00  0.00     0.000 C 
HETATM   21  C10 UNL     1      -3.904  -1.015  -0.913  1.00  0.00     0.002 C 
HETATM   22  C11 UNL     1      -2.594  -0.250  -1.124  1.00  0.00     0.025 C 
ENDBRANCH  15  17
ENDBRANCH  13  15
ENDBRANCH   1  13
TORSDOF 5
