REMARK  4 active torsions:
REMARK  status: ('A' for Active; 'I' for Inactive)
REMARK    1  A    between atoms: C3_4  and  C4_5 
REMARK    2  A    between atoms: C12_13  and  O1_14 
REMARK    3  A    between atoms: O1_14  and  C13_15 
REMARK    4  A    between atoms: C16_21  and  O2_22 
ROOT
HETATM    1  C4  UNL     1       2.040   0.533  -0.343  1.00  0.00    -0.058 C 
HETATM    2  C5  UNL     1       2.860   1.718  -0.685  1.00  0.00     0.048 C 
HETATM    3  C6  UNL     1       0.928   0.341  -1.022  1.00  0.00    -0.063 C 
HETATM    4  C7  UNL     1       0.423   1.201  -2.114  1.00  0.00     0.060 C 
HETATM    5  C8  UNL     1      -0.574   0.349  -2.882  1.00  0.00     0.086 C 
HETATM    6  C9  UNL     1      -0.386  -1.042  -2.345  1.00  0.00     0.039 C 
HETATM    7  C10 UNL     1      -0.081  -0.736  -0.873  1.00  0.00     0.055 C 
HETATM    8  C11 UNL     1      -1.370  -0.253  -0.313  1.00  0.00     0.013 A 
HETATM    9  C12 UNL     1      -1.728  -0.524   0.985  1.00  0.00     0.087 A 
HETATM   10  C14 UNL     1      -2.936  -0.074   1.519  1.00  0.00     0.040 A 
HETATM   11  C15 UNL     1      -3.795   0.660   0.731  1.00  0.00     0.041 A 
HETATM   12  C16 UNL     1      -3.434   0.939  -0.595  1.00  0.00     0.092 A 
HETATM   13  C17 UNL     1      -2.238   0.487  -1.107  1.00  0.00     0.071 A 
HETATM   14  N1  UNL     1      -1.914   0.789  -2.462  1.00  0.00    -0.382 N 
ATOM     15  H1  UNL     1      -2.558   1.271  -3.089  1.00  0.00     0.160 HD
ENDROOT
BRANCH   1  16
HETATM   16  C3  UNL     1       2.476  -0.343   0.707  1.00  0.00     0.026 C 
HETATM   17  C2  UNL     1       3.534  -0.289   1.459  1.00  0.00     0.008 C 
HETATM   18  C1  UNL     1       3.727  -1.370   2.495  1.00  0.00     0.062 C 
HETATM   19 CL1  UNL     1       4.783   0.919   1.399  1.00  0.00    -0.089 Cl
ENDBRANCH   1  16
BRANCH   9  20
HETATM   20  O1  UNL     1      -0.907  -1.256   1.820  1.00  0.00    -0.255 OA
BRANCH  20  21
HETATM   21  C13 UNL     1      -1.152  -1.583   3.147  1.00  0.00     0.530 C 
HETATM   22  F1  UNL     1      -1.298  -0.515   4.001  1.00  0.00    -0.144 F 
HETATM   23  F2  UNL     1      -2.222  -2.477   3.278  1.00  0.00    -0.144 F 
HETATM   24  F3  UNL     1      -0.040  -2.295   3.611  1.00  0.00    -0.144 F 
ENDBRANCH  20  21
ENDBRANCH   9  20
BRANCH  12  25
HETATM   25  O2  UNL     1      -4.320   1.679  -1.359  1.00  0.00    -0.358 OA
ATOM     26  H2  UNL     1      -4.075   1.868  -2.257  1.00  0.00     0.217 HD
ENDBRANCH  12  25
TORSDOF 4
