REMARK  5 active torsions:
REMARK  status: ('A' for Active; 'I' for Inactive)
REMARK    1  A    between atoms: C2_2  and  N1_5 
REMARK    2  A    between atoms: N1_5  and  C4_7 
REMARK    3  A    between atoms: C4_7  and  C5_11 
REMARK    4  A    between atoms: C9_15  and  C10_16 
REMARK    5  A    between atoms: C12_19  and  C13_20 
ROOT
HETATM    1  C5  UNL     1      -0.508  -1.023   0.754  1.00  0.00     0.008 A 
HETATM    2  C6  UNL     1      -0.424  -2.289   1.328  1.00  0.00     0.015 A 
HETATM    3  C7  UNL     1       0.760  -2.957   1.495  1.00  0.00     0.002 A 
HETATM    4  C8  UNL     1       1.902  -2.317   1.063  1.00  0.00     0.014 A 
HETATM    5  C9  UNL     1       1.889  -1.075   0.491  1.00  0.00    -0.008 A 
HETATM    6  C14 UNL     1       0.686  -0.428   0.339  1.00  0.00     0.029 A 
ENDROOT
BRANCH   1   7
HETATM    7  C4  UNL     1      -1.796  -0.397   0.609  1.00  0.00     0.106 C 
HETATM    8  N2  UNL     1      -2.829  -0.876   1.144  1.00  0.00    -0.385 N 
ATOM      9  H22 UNL     1      -3.742  -0.432   1.041  1.00  0.00     0.157 HD
ATOM     10  H21 UNL     1      -2.693  -1.683   1.753  1.00  0.00     0.157 HD
BRANCH   7  11
HETATM   11  N1  UNL     1      -1.988   0.738  -0.248  1.00  0.00    -0.354 N 
ATOM     12  H1  UNL     1      -1.173   1.251  -0.585  1.00  0.00     0.163 HD
BRANCH  11  13
HETATM   13  C2  UNL     1      -3.310   1.173  -0.646  1.00  0.00     0.101 C 
HETATM   14  C1  UNL     1      -4.162   1.584   0.546  1.00  0.00     0.056 C 
HETATM   15  C3  UNL     1      -4.086   0.112  -1.404  1.00  0.00     0.056 C 
HETATM   16 CL1  UNL     1      -3.149   2.586  -1.701  1.00  0.00    -0.096 Cl
ENDBRANCH  11  13
ENDBRANCH   7  11
ENDBRANCH   1   7
BRANCH   5  17
HETATM   17  C10 UNL     1       3.165  -0.468   0.000  1.00  0.00     0.050 A 
HETATM   18  C11 UNL     1       4.287  -1.256  -0.210  1.00  0.00     0.082 A 
HETATM   19  S1  UNL     1       5.396  -0.118  -0.816  1.00  0.00    -0.077 SA
HETATM   20  C12 UNL     1       4.378   1.289  -0.769  1.00  0.00     0.159 A 
HETATM   21  N3  UNL     1       3.259   0.779  -0.291  1.00  0.00    -0.346 N 
ATOM     22  H3  UNL     1       2.453   1.387  -0.150  1.00  0.00     0.166 HD
BRANCH  20  23
HETATM   23  C13 UNL     1       4.750   2.695  -1.174  1.00  0.00     0.439 C 
HETATM   24  F1  UNL     1       4.637   3.458  -0.022  1.00  0.00    -0.164 F 
HETATM   25  F2  UNL     1       6.086   2.661  -1.553  1.00  0.00    -0.164 F 
HETATM   26  F3  UNL     1       3.921   3.116  -2.173  1.00  0.00    -0.164 F 
ENDBRANCH  20  23
ENDBRANCH   5  17
TORSDOF 5
