REMARK  11 active torsions:
REMARK  status: ('A' for Active; 'I' for Inactive)
REMARK    1  A    between atoms: C2_2  and  C3_3 
REMARK    2  A    between atoms: C3_3  and  C4_4 
REMARK    3  A    between atoms: C4_4  and  C5_5 
REMARK    4  A    between atoms: C5_5  and  C6_6 
REMARK    5  A    between atoms: C6_6  and  C7_7 
REMARK    6  A    between atoms: C8_8  and  C9_9 
REMARK    7  A    between atoms: C9_9  and  C10_10 
REMARK    8  A    between atoms: C10_10  and  C11_11 
REMARK    9  A    between atoms: C11_11  and  C12_12 
REMARK   10  A    between atoms: C12_12  and  C13_13 
REMARK   11  A    between atoms: C13_13  and  N1_15 
ROOT
HETATM    1  C10 UNL     1       1.187   0.214  -0.849  1.00  0.00     0.004 C 
ENDROOT
BRANCH   1   2
HETATM    2  C9  UNL     1       0.191   0.737   0.154  1.00  0.00     0.027 C 
BRANCH   2   3
HETATM    3  C8  UNL     1      -1.170   0.327  -0.363  1.00  0.00    -0.031 C 
HETATM    4  C7  UNL     1      -2.074   1.232  -0.645  1.00  0.00    -0.031 C 
BRANCH   4   5
HETATM    5  C6  UNL     1      -3.422   0.996  -1.142  1.00  0.00     0.027 C 
BRANCH   5   6
HETATM    6  C5  UNL     1      -3.912  -0.403  -1.265  1.00  0.00     0.004 C 
BRANCH   6   7
HETATM    7  C4  UNL     1      -4.097  -1.103   0.049  1.00  0.00     0.004 C 
BRANCH   7   8
HETATM    8  C3  UNL     1      -5.122  -0.357   0.897  1.00  0.00     0.026 C 
BRANCH   8   9
HETATM    9  C2  UNL     1      -6.403  -0.315   0.188  1.00  0.00    -0.037 C 
HETATM   10  C1  UNL     1      -7.492  -0.861   0.715  1.00  0.00     0.007 C 
ENDBRANCH   8   9
ENDBRANCH   7   8
ENDBRANCH   6   7
ENDBRANCH   5   6
ENDBRANCH   4   5
ENDBRANCH   2   3
ENDBRANCH   1   2
BRANCH   1  11
HETATM   11  C11 UNL     1       2.613   0.531  -0.496  1.00  0.00     0.006 C 
BRANCH  11  12
HETATM   12  C12 UNL     1       3.062  -0.025   0.805  1.00  0.00     0.058 C 
BRANCH  12  13
HETATM   13  C13 UNL     1       4.476   0.353   1.038  1.00  0.00     0.024 C 
HETATM   14  C14 UNL     1       4.732   1.176   2.061  1.00  0.00     0.040 C 
BRANCH  13  15
HETATM   15  N1  UNL     1       5.556  -0.119   0.242  1.00  0.00    -0.273 N 
HETATM   16  C15 UNL     1       5.517  -1.085  -0.677  1.00  0.00     0.117 A 
HETATM   17  C16 UNL     1       6.792  -1.205  -1.210  1.00  0.00     0.038 A 
HETATM   18  C17 UNL     1       7.578  -0.274  -0.570  1.00  0.00     0.109 A 
HETATM   19  N2  UNL     1       6.784   0.360   0.302  1.00  0.00    -0.306 N 
ATOM     20  H2  UNL     1       7.086   1.109   0.925  1.00  0.00     0.186 HD
ENDBRANCH  13  15
ENDBRANCH  12  13
ENDBRANCH  11  12
ENDBRANCH   1  11
TORSDOF 11
