REMARK  11 active torsions:
REMARK  status: ('A' for Active; 'I' for Inactive)
REMARK    1  A    between atoms: C2_2  and  C3_3 
REMARK    2  A    between atoms: C3_3  and  C4_4 
REMARK    3  A    between atoms: C4_4  and  C5_5 
REMARK    4  A    between atoms: C5_5  and  C6_6 
REMARK    5  A    between atoms: C7_7  and  C8_8 
REMARK    6  A    between atoms: C8_8  and  C9_9 
REMARK    7  A    between atoms: C9_9  and  C10_10 
REMARK    8  A    between atoms: C10_10  and  C11_11 
REMARK    9  A    between atoms: C11_11  and  C12_12 
REMARK   10  A    between atoms: C13_14  and  C14_15 
REMARK   11  A    between atoms: C14_15  and  C15_16 
ROOT
HETATM    1  C9  UNL     1      -0.395  -0.020  -0.734  1.00  0.00     0.004 C 
ENDROOT
BRANCH   1   2
HETATM    2  C8  UNL     1       0.410  -0.259   0.528  1.00  0.00     0.027 C 
BRANCH   2   3
HETATM    3  C7  UNL     1       1.457   0.772   0.656  1.00  0.00    -0.031 C 
HETATM    4  C6  UNL     1       2.753   0.614   0.712  1.00  0.00    -0.031 C 
BRANCH   4   5
HETATM    5  C5  UNL     1       3.421  -0.695   0.654  1.00  0.00     0.027 C 
BRANCH   5   6
HETATM    6  C4  UNL     1       4.368  -0.796  -0.535  1.00  0.00     0.007 C 
BRANCH   6   7
HETATM    7  C3  UNL     1       5.450   0.244  -0.493  1.00  0.00     0.026 C 
BRANCH   7   8
HETATM    8  C2  UNL     1       6.254   0.091   0.726  1.00  0.00    -0.037 C 
HETATM    9  C1  UNL     1       7.554  -0.160   0.649  1.00  0.00     0.007 C 
ENDBRANCH   7   8
ENDBRANCH   6   7
ENDBRANCH   5   6
ENDBRANCH   4   5
ENDBRANCH   2   3
ENDBRANCH   1   2
BRANCH   1  10
HETATM   10  C10 UNL     1      -1.073   1.287  -0.778  1.00  0.00     0.003 C 
BRANCH  10  11
HETATM   11  C11 UNL     1      -2.060   1.609   0.270  1.00  0.00     0.034 C 
BRANCH  11  12
HETATM   12  C12 UNL     1      -3.278   0.751   0.349  1.00  0.00     0.151 A 
HETATM   13  O1  UNL     1      -3.090  -0.643   0.559  1.00  0.00    -0.375 OA
HETATM   14  C13 UNL     1      -3.742  -0.219  -0.624  1.00  0.00     0.158 A 
BRANCH  14  15
HETATM   15  C14 UNL     1      -5.229  -0.455  -0.760  1.00  0.00     0.112 C 
BRANCH  15  16
HETATM   16  C15 UNL     1      -5.828  -0.924   0.487  1.00  0.00     0.125 C 
HETATM   17  C16 UNL     1      -7.318  -1.196   0.451  1.00  0.00     0.091 C 
HETATM   18  O2  UNL     1      -5.186  -1.089   1.487  1.00  0.00    -0.298 OA
ENDBRANCH  15  16
ENDBRANCH  14  15
ENDBRANCH  11  12
ENDBRANCH  10  11
ENDBRANCH   1  10
TORSDOF 11
