REMARK  5 active torsions:
REMARK  status: ('A' for Active; 'I' for Inactive)
REMARK    1  A    between atoms: C2_7  and  N3_8 
REMARK    2  A    between atoms: C7_18  and  C8_19 
REMARK    3  A    between atoms: C8_19  and  O3_20 
REMARK    4  A    between atoms: N6_22  and  C9_24 
REMARK    5  A    between atoms: C9_24  and  O4_25 
ROOT
HETATM    1  N1  UNL     1       1.640  -1.994  -0.481  1.00  0.00    -0.384 N 
ATOM      2  H11 UNL     1       2.657  -1.949  -0.544  1.00  0.00     0.157 HD
ATOM      3  H12 UNL     1       1.177  -2.900  -0.556  1.00  0.00     0.157 HD
HETATM    4  C1  UNL     1       1.060  -0.885  -0.258  1.00  0.00     0.132 A 
HETATM    5  N2  UNL     1      -0.306  -0.946  -0.173  1.00  0.00    -0.175 N 
ATOM      6  H2  UNL     1      -0.748  -1.862  -0.249  1.00  0.00     0.186 HD
HETATM    7  C2  UNL     1      -1.091   0.109   0.002  1.00  0.00     0.692 A 
HETATM    8  N4  UNL     1      -0.486   1.305   0.099  1.00  0.00    -0.177 N 
ATOM      9  H4  UNL     1      -1.059   2.138   0.233  1.00  0.00     0.185 HD
HETATM   10  C6  UNL     1       0.840   1.439   0.026  1.00  0.00     0.150 A 
HETATM   11  N5  UNL     1       1.356   2.766   0.161  1.00  0.00    -0.081 NA
HETATM   12  C7  UNL     1       1.675   0.318  -0.159  1.00  0.00     0.100 A 
ENDROOT
BRANCH  12  13
HETATM   13  C8  UNL     1       3.084   0.501  -0.321  1.00  0.00     0.158 C 
HETATM   14  N6  UNL     1       4.235  -0.223  -0.357  1.00  0.00    -0.327 N 
ATOM     15  H6  UNL     1       5.015   0.356  -0.669  1.00  0.00     0.169 HD
BRANCH  13  16
HETATM   16  O3  UNL     1       3.324   1.843  -0.487  1.00  0.00    -0.345 OA
ATOM     17  H3  UNL     1       4.260   1.965  -0.595  1.00  0.00     0.219 HD
ENDBRANCH  13  16
BRANCH  14  18
HETATM   18  C9  UNL     1       4.659  -1.510  -0.096  1.00  0.00     0.225 C 
BRANCH  18  19
HETATM   19  O4  UNL     1       5.943  -1.782  -0.229  1.00  0.00    -0.356 OA
ATOM     20  H4  UNL     1       6.235  -2.668  -0.049  1.00  0.00     0.218 HD
ENDBRANCH  18  19
ENDBRANCH  14  18
ENDBRANCH  12  13
BRANCH   7  21
HETATM   21  N3  UNL     1      -2.516  -0.026   0.082  1.00  0.00    -0.124 N 
HETATM   22  C3  UNL     1      -3.286  -1.119   0.687  1.00  0.00     0.180 C 
HETATM   23  C4  UNL     1      -4.652  -0.996   0.055  1.00  0.00     0.201 C 
HETATM   24  O1  UNL     1      -4.755   0.404  -0.165  1.00  0.00    -0.302 OA
HETATM   25  C5  UNL     1      -3.478   0.892  -0.424  1.00  0.00     0.381 C 
HETATM   26  O2  UNL     1      -3.242   1.974  -1.013  1.00  0.00    -0.237 OA
ENDBRANCH   7  21
TORSDOF 5
