REMARK  5 active torsions:
REMARK  status: ('A' for Active; 'I' for Inactive)
REMARK    1  A    between atoms: C2_2  and  C3_3 
REMARK    2  A    between atoms: C3_3  and  N1_4 
REMARK    3  A    between atoms: N4_13  and  N5_15 
REMARK    4  A    between atoms: C7_20  and  N7_21 
REMARK    5  A    between atoms: N7_21  and  N8_23 
ROOT
HETATM    1  N1  UNL     1       1.794  -0.995   0.019  1.00  0.00    -0.289 N 
HETATM    2  C4  UNL     1       2.103  -2.202  -0.487  1.00  0.00     0.329 A 
HETATM    3  O1  UNL     1       3.218  -2.785  -0.497  1.00  0.00    -0.246 OA
HETATM    4  N2  UNL     1       0.982  -2.761  -1.027  1.00  0.00    -0.292 N 
ATOM      5  H2  UNL     1       0.913  -3.672  -1.482  1.00  0.00     0.172 HD
HETATM    6  C5  UNL     1      -0.015  -1.877  -0.843  1.00  0.00     0.156 A 
HETATM    7  N3  UNL     1      -1.311  -1.946  -1.191  1.00  0.00    -0.173 N 
ATOM      8  H3  UNL     1      -1.652  -2.777  -1.673  1.00  0.00     0.186 HD
HETATM    9  C6  UNL     1      -2.166  -0.952  -0.921  1.00  0.00     0.699 A 
HETATM   10  N4  UNL     1      -3.412  -1.003  -1.248  1.00  0.00    -0.138 N 
ATOM     11  H4  UNL     1      -4.047  -0.235  -1.033  1.00  0.00     0.205 HD
HETATM   12  N6  UNL     1      -1.698   0.152  -0.277  1.00  0.00    -0.171 N 
ATOM     13  H6  UNL     1      -2.340   0.916  -0.066  1.00  0.00     0.186 HD
HETATM   14  C7  UNL     1      -0.393   0.258   0.091  1.00  0.00     0.166 A 
HETATM   15  C10 UNL     1       0.495  -0.756  -0.181  1.00  0.00     0.130 A 
ENDROOT
BRANCH  14  16
HETATM   16  N7  UNL     1       0.022   1.303   0.690  1.00  0.00    -0.284 N 
ATOM     17  H7  UNL     1       1.008   1.342   0.948  1.00  0.00     0.188 HD
BRANCH  16  18
HETATM   18  N8  UNL     1      -0.770   2.385   1.014  1.00  0.00    -0.315 N 
HETATM   19  C8  UNL     1      -1.607   2.443   1.965  1.00  0.00     0.075 C 
HETATM   20  C9  UNL     1      -2.380   3.699   2.169  1.00  0.00     0.056 C 
ATOM     21  H8  UNL     1      -0.673   3.218   0.433  1.00  0.00     0.185 HD
ENDBRANCH  16  18
ENDBRANCH  14  16
BRANCH   1  22
HETATM   22  C3  UNL     1       2.723  -0.096   0.674  1.00  0.00     0.160 C 
BRANCH  22  23
HETATM   23  C2  UNL     1       3.358   0.838  -0.286  1.00  0.00    -0.017 C 
HETATM   24  C1  UNL     1       4.674   0.827  -0.421  1.00  0.00     0.008 C 
ENDBRANCH  22  23
ENDBRANCH   1  22
BRANCH  10  25
HETATM   25  N5  UNL     1      -3.859  -2.150  -1.908  1.00  0.00    -0.331 N 
ATOM     26  H52 UNL     1      -3.211  -2.910  -2.116  1.00  0.00     0.177 HD
ATOM     27  H51 UNL     1      -4.845  -2.190  -2.167  1.00  0.00     0.177 HD
ENDBRANCH  10  25
TORSDOF 5
