REMARK  6 active torsions:
REMARK  status: ('A' for Active; 'I' for Inactive)
REMARK    1  A    between atoms: N1_2  and  C3_4 
REMARK    2  A    between atoms: C5_11  and  N4_12 
REMARK    3  A    between atoms: C6_15  and  N5_16 
REMARK    4  A    between atoms: N5_16  and  O2_17 
REMARK    5  A    between atoms: N5_16  and  C7_19 
REMARK    6  A    between atoms: C7_19  and  N6_22 
ROOT
HETATM    1  C3  UNL     1       1.386  -0.577  -0.347  1.00  0.00     0.140 A 
HETATM    2  N2  UNL     1       2.179  -1.510  -0.945  1.00  0.00    -0.292 N 
ATOM      3  H2  UNL     1       3.039  -1.226  -1.414  1.00  0.00     0.172 HD
HETATM    4  C4  UNL     1       1.827  -2.791  -0.915  1.00  0.00     0.327 A 
HETATM    5  O1  UNL     1       2.552  -3.689  -1.469  1.00  0.00    -0.247 OA
HETATM    6  N3  UNL     1       0.711  -3.154  -0.304  1.00  0.00    -0.293 N 
ATOM      7  H3  UNL     1       0.454  -4.141  -0.289  1.00  0.00     0.172 HD
HETATM    8  C5  UNL     1      -0.107  -2.248   0.307  1.00  0.00     0.136 A 
HETATM    9  C6  UNL     1       0.232  -0.906   0.291  1.00  0.00     0.147 A 
ENDROOT
BRANCH   9  10
HETATM   10  N5  UNL     1      -0.584   0.028   0.926  1.00  0.00    -0.217 N 
BRANCH  10  11
HETATM   11  O2  UNL     1      -0.328   0.231   2.176  1.00  0.00    -0.284 OA
ATOM     12  H2  UNL     1      -0.884   0.868   2.609  1.00  0.00     0.245 HD
ENDBRANCH  10  11
BRANCH  10  13
HETATM   13  C7  UNL     1      -1.672   0.796   0.424  1.00  0.00     0.213 C 
HETATM   14  C8  UNL     1      -2.784  -0.066  -0.196  1.00  0.00     0.072 C 
HETATM   15  C9  UNL     1      -2.395   1.512   1.593  1.00  0.00     0.072 C 
BRANCH  13  16
HETATM   16  N6  UNL     1      -1.321   1.872  -0.478  1.00  0.00    -0.051 N 
ATOM     17  H63 UNL     1      -0.637   2.486  -0.036  1.00  0.00     0.277 HD
ATOM     18  H62 UNL     1      -0.766   1.508  -1.253  1.00  0.00     0.277 HD
ATOM     19  H61 UNL     1      -2.101   2.422  -0.838  1.00  0.00     0.277 HD
ENDBRANCH  13  16
ENDBRANCH  10  13
ENDBRANCH   9  10
BRANCH   1  20
HETATM   20  N1  UNL     1       1.888   0.734  -0.437  1.00  0.00    -0.374 N 
HETATM   21  C1  UNL     1       2.234   1.486   0.719  1.00  0.00     0.150 C 
HETATM   22  C2  UNL     1       2.083   1.289  -1.756  1.00  0.00     0.150 C 
ENDBRANCH   1  20
BRANCH   8  23
HETATM   23  N4  UNL     1      -1.162  -2.619   0.903  1.00  0.00    -0.383 N 
ATOM     24  H42 UNL     1      -1.412  -3.608   0.915  1.00  0.00     0.157 HD
ATOM     25  H41 UNL     1      -1.773  -1.942   1.360  1.00  0.00     0.157 HD
ENDBRANCH   8  23
TORSDOF 6
