REMARK  9 active torsions:
REMARK  status: ('A' for Active; 'I' for Inactive)
REMARK    1  A    between atoms: C2_2  and  N1_3 
REMARK    2  A    between atoms: C2_2  and  C10_15 
REMARK    3  A    between atoms: N1_3  and  C3_5 
REMARK    4  A    between atoms: C3_5  and  C4_6 
REMARK    5  A    between atoms: C4_6  and  O1_7 
REMARK    6  A    between atoms: C4_6  and  C5_9 
REMARK    7  A    between atoms: C5_9  and  O2_10 
REMARK    8  A    between atoms: O2_10  and  C6_11 
REMARK       I    between atoms: C10_15  and  N2_17 
REMARK    9  A    between atoms: N2_17  and  C11_19 
ROOT
HETATM    1  C1  UNL     1      -0.290  -0.051   1.925  1.00  0.00     0.042 C 
HETATM    2  C2  UNL     1      -0.198   1.130   0.996  1.00  0.00     0.169 C 
ENDROOT
BRANCH   2   3
HETATM    3  N1  UNL     1       0.565   1.032  -0.139  1.00  0.00    -0.387 N 
ATOM      4  H1  UNL     1       0.049   1.048  -1.019  1.00  0.00     0.159 HD
BRANCH   3   5
HETATM    5  C3  UNL     1       1.944   0.914  -0.255  1.00  0.00     0.090 C 
BRANCH   5   6
HETATM    6  C4  UNL     1       2.625  -0.259   0.456  1.00  0.00     0.179 C 
BRANCH   6   7
HETATM    7  O1  UNL     1       2.625   0.130   1.831  1.00  0.00    -0.388 OA
ATOM      8  H1  UNL     1       3.047  -0.598   2.272  1.00  0.00     0.210 HD
ENDBRANCH   6   7
BRANCH   6   9
HETATM    9  C5  UNL     1       4.022  -0.504   0.045  1.00  0.00     0.205 C 
BRANCH   9  10
HETATM   10  O2  UNL     1       4.741   0.612  -0.234  1.00  0.00    -0.379 OA
BRANCH  10  11
HETATM   11  C6  UNL     1       6.093   0.382  -0.437  1.00  0.00     0.050 C 
HETATM   12  C7  UNL     1       6.864   0.347   0.857  1.00  0.00     0.045 C 
HETATM   13  C8  UNL     1       6.291  -1.034  -1.013  1.00  0.00     0.045 C 
HETATM   14  C9  UNL     1       6.667   1.324  -1.419  1.00  0.00     0.045 C 
ENDBRANCH  10  11
ENDBRANCH   9  10
ENDBRANCH   6   9
ENDBRANCH   5   6
ENDBRANCH   3   5
ENDBRANCH   2   3
BRANCH   2  15
HETATM   15  C10 UNL     1      -1.657   1.506   0.713  1.00  0.00     0.240 C 
HETATM   16  O3  UNL     1      -2.063   2.647   0.869  1.00  0.00    -0.271 OA
HETATM   17  N2  UNL     1      -2.479   0.439   0.271  1.00  0.00    -0.350 N 
ATOM     18  H2  UNL     1      -1.939  -0.414   0.125  1.00  0.00     0.163 HD
BRANCH  17  19
HETATM   19  C11 UNL     1      -3.827   0.246  -0.017  1.00  0.00     0.037 C 
HETATM   20  C12 UNL     1      -4.599   1.165  -0.904  1.00  0.00     0.036 C 
HETATM   21  C13 UNL     1      -5.713   0.232  -1.411  1.00  0.00    -0.011 C 
HETATM   22  C14 UNL     1      -6.527  -0.367  -0.311  1.00  0.00     0.009 C 
HETATM   23  C18 UNL     1      -4.795  -0.880  -1.975  1.00  0.00     0.012 C 
HETATM   24  C15 UNL     1      -5.676  -0.942   0.798  1.00  0.00    -0.011 C 
HETATM   25  C16 UNL     1      -4.735  -1.981   0.216  1.00  0.00     0.012 C 
HETATM   26  C19 UNL     1      -4.662   0.088   1.244  1.00  0.00     0.036 C 
HETATM   27  C17 UNL     1      -3.970  -1.135  -0.752  1.00  0.00     0.014 C 
ENDBRANCH  17  19
ENDBRANCH   2  15
TORSDOF 9
