REMARK  8 active torsions:
REMARK  status: ('A' for Active; 'I' for Inactive)
REMARK    1  A    between atoms: C2_2  and  C4_4 
REMARK    2  A    between atoms: C4_4  and  N1_5 
REMARK    3  A    between atoms: C4_4  and  C17_23 
REMARK       I    between atoms: N1_5  and  C5_7 
REMARK    4  A    between atoms: C5_7  and  C6_9 
REMARK    5  A    between atoms: C6_9  and  N2_10 
REMARK    6  A    between atoms: N2_10  and  C7_13 
REMARK    7  A    between atoms: C17_23  and  O2_24 
REMARK    8  A    between atoms: C17_23  and  C18_26 
ROOT
HETATM    1  N1  UNL     1       2.329   0.047   0.956  1.00  0.00    -0.352 N 
ATOM      2  H1  UNL     1       2.112   0.670   1.734  1.00  0.00     0.163 HD
HETATM    3  C5  UNL     1       1.271  -0.363   0.105  1.00  0.00     0.243 C 
HETATM    4  O1  UNL     1       1.581  -1.138  -0.850  1.00  0.00    -0.272 OA
ENDROOT
BRANCH   3   5
HETATM    5  C6  UNL     1      -0.119   0.105   0.340  1.00  0.00     0.335 C 
BRANCH   5   6
HETATM    6  N2  UNL     1      -0.961  -0.472  -0.667  1.00  0.00    -0.058 N 
ATOM      7  H22 UNL     1      -0.603  -0.252  -1.596  1.00  0.00     0.278 HD
ATOM      8  H21 UNL     1      -0.859  -1.487  -0.674  1.00  0.00     0.278 HD
BRANCH   6   9
HETATM    9  C7  UNL     1      -2.347  -0.111  -0.569  1.00  0.00     0.127 C 
HETATM   10  C8  UNL     1      -3.003  -0.566   0.704  1.00  0.00     0.043 C 
HETATM   11  C9  UNL     1      -4.458  -0.178   0.636  1.00  0.00    -0.012 C 
HETATM   12  C10 UNL     1      -5.178  -0.893  -0.485  1.00  0.00     0.009 C 
HETATM   13  C14 UNL     1      -4.670   1.295   0.449  1.00  0.00     0.009 C 
HETATM   14  C11 UNL     1      -4.514  -0.508  -1.778  1.00  0.00    -0.012 C 
HETATM   15  C12 UNL     1      -4.632   0.984  -1.995  1.00  0.00     0.009 C 
HETATM   16  C16 UNL     1      -3.060  -0.855  -1.706  1.00  0.00     0.043 C 
HETATM   17  C13 UNL     1      -4.000   1.711  -0.844  1.00  0.00    -0.012 C 
HETATM   18  C15 UNL     1      -2.522   1.350  -0.819  1.00  0.00     0.043 C 
ENDBRANCH   6   9
ENDBRANCH   5   6
ENDBRANCH   3   5
BRANCH   1  19
HETATM   19  C4  UNL     1       3.701  -0.376   0.775  1.00  0.00     0.122 C 
BRANCH  19  20
HETATM   20  C2  UNL     1       4.036  -1.309   1.907  1.00  0.00     0.003 C 
HETATM   21  C1  UNL     1       5.439  -1.832   1.848  1.00  0.00     0.011 C 
HETATM   22  C3  UNL     1       3.099  -2.495   1.766  1.00  0.00     0.011 C 
ENDBRANCH  19  20
BRANCH  19  23
HETATM   23  C17 UNL     1       4.559   0.832   0.691  1.00  0.00     0.190 C 
BRANCH  23  24
HETATM   24  O2  UNL     1       5.902   0.590   0.517  1.00  0.00    -0.387 OA
ATOM     25  H2  UNL     1       6.451   1.363   0.463  1.00  0.00     0.210 HD
ENDBRANCH  23  24
BRANCH  23  26
HETATM   26  C18 UNL     1       4.085   1.669  -0.441  1.00  0.00     0.041 A 
HETATM   27  N3  UNL     1       3.618   2.846  -0.683  1.00  0.00    -0.367 N 
HETATM   28  C19 UNL     1       3.487   2.633  -2.091  1.00  0.00     0.090 A 
ATOM     29  H3  UNL     1       3.414   3.645  -0.083  1.00  0.00     0.165 HD
HETATM   30  C20 UNL     1       3.965   1.411  -1.880  1.00  0.00     0.045 A 
ENDBRANCH  23  26
ENDBRANCH  19  23
ENDBRANCH   1  19
TORSDOF 8
