REMARK  10 active torsions:
REMARK  status: ('A' for Active; 'I' for Inactive)
REMARK    1  A    between atoms: C5_5  and  O1_6 
REMARK    2  A    between atoms: C8_10  and  C9_11 
REMARK    3  A    between atoms: C9_11  and  O2_12 
REMARK    4  A    between atoms: C9_11  and  C10_14 
REMARK    5  A    between atoms: C10_14  and  C11_15 
REMARK    6  A    between atoms: C11_15  and  O3_17 
REMARK    7  A    between atoms: C11_15  and  C13_19 
REMARK    8  A    between atoms: C13_19  and  C14_20 
REMARK    9  A    between atoms: C14_20  and  C15_21 
REMARK   10  A    between atoms: C15_21  and  C16_22 
ROOT
HETATM    1  C1  UNL     1      -4.868   1.378   1.199  1.00  0.00     0.015 C 
HETATM    2  C2  UNL     1      -3.874   1.181   0.348  1.00  0.00    -0.083 C 
HETATM    3  C3  UNL     1      -3.568   2.220  -0.645  1.00  0.00     0.036 C 
HETATM    4  C4  UNL     1      -2.180   2.035  -1.157  1.00  0.00     0.037 C 
HETATM    5  C5  UNL     1      -2.010   0.622  -1.649  1.00  0.00     0.131 C 
HETATM    6  C6  UNL     1      -2.156  -0.405  -0.569  1.00  0.00     0.015 A 
HETATM    7  C7  UNL     1      -2.549  -1.707  -1.288  1.00  0.00     0.023 C 
HETATM    8  C8  UNL     1      -0.882  -0.707   0.119  1.00  0.00    -0.043 A 
HETATM    9  C17 UNL     1      -1.054  -0.597   1.413  1.00  0.00    -0.015 A 
HETATM   10  C18 UNL     1      -2.427  -0.216   1.781  1.00  0.00     0.013 A 
HETATM   11  C19 UNL     1      -2.427   1.067   2.580  1.00  0.00     0.015 C 
HETATM   12  C20 UNL     1      -3.140  -0.105   0.476  1.00  0.00     0.036 A 
ENDROOT
BRANCH   8  13
HETATM   13  C9  UNL     1       0.433  -1.086  -0.505  1.00  0.00     0.150 C 
BRANCH  13  14
HETATM   14  O2  UNL     1       0.196  -2.156  -1.334  1.00  0.00    -0.391 OA
ATOM     15  H2  UNL     1       1.027  -2.395  -1.728  1.00  0.00     0.210 HD
ENDBRANCH  13  14
BRANCH  13  16
HETATM   16  C10 UNL     1       1.457  -1.304   0.535  1.00  0.00     0.073 C 
BRANCH  16  17
HETATM   17  C11 UNL     1       2.814  -1.687   0.045  1.00  0.00     0.057 C 
HETATM   18  C12 UNL     1       2.777  -2.992  -0.751  1.00  0.00     0.045 C 
BRANCH  17  19
HETATM   19  O3  UNL     1       3.616  -1.956   1.144  1.00  0.00    -0.390 OA
ATOM     20  H3  UNL     1       4.480  -2.200   0.832  1.00  0.00     0.210 HD
ENDBRANCH  17  19
BRANCH  17  21
HETATM   21  C13 UNL     1       3.477  -0.683  -0.817  1.00  0.00     0.038 C 
BRANCH  21  22
HETATM   22  C14 UNL     1       3.720   0.667  -0.252  1.00  0.00     0.013 C 
BRANCH  22  23
HETATM   23  C15 UNL     1       4.581   0.729   0.955  1.00  0.00     0.113 C 
BRANCH  23  24
HETATM   24  C16 UNL     1       4.738   2.169   1.371  1.00  0.00     0.172 C 
HETATM   25  O4  UNL     1       4.157   3.038   0.680  1.00  0.00    -0.648 OA
HETATM   26  O5  UNL     1       5.499   2.521   2.477  1.00  0.00    -0.648 OA
ENDBRANCH  23  24
ENDBRANCH  22  23
ENDBRANCH  21  22
ENDBRANCH  17  21
ENDBRANCH  16  17
ENDBRANCH  13  16
ENDBRANCH   8  13
BRANCH   5  27
HETATM   27  O1  UNL     1      -2.899   0.385  -2.692  1.00  0.00    -0.394 OA
ATOM     28  H1  UNL     1      -2.792  -0.506  -3.002  1.00  0.00     0.210 HD
ENDBRANCH   5  27
TORSDOF 10
