REMARK  9 active torsions:
REMARK  status: ('A' for Active; 'I' for Inactive)
REMARK    1  A    between atoms: O1_1  and  C1_3 
REMARK    2  A    between atoms: C1_3  and  C2_4 
REMARK    3  A    between atoms: C2_4  and  N1_5 
REMARK    4  A    between atoms: N1_5  and  C3_7 
REMARK    5  A    between atoms: C6_10  and  N2_11 
REMARK    6  A    between atoms: C10_15  and  O2_16 
REMARK    7  A    between atoms: C10_15  and  C11_18 
REMARK    8  A    between atoms: C11_18  and  C12_19 
REMARK    9  A    between atoms: C12_19  and  C13_20 
ROOT
HETATM    1  N2  UNL     1       0.175  -0.022  -0.589  1.00  0.00    -0.405 N 
HETATM    2  C7  UNL     1       0.012   0.246   0.801  1.00  0.00     0.117 C 
HETATM    3  C8  UNL     1      -1.246   1.057   1.051  1.00  0.00     0.022 C 
HETATM    4  C9  UNL     1      -2.443   0.308   0.410  1.00  0.00     0.041 C 
HETATM    5  C10 UNL     1      -2.146   0.007  -1.026  1.00  0.00     0.074 C 
HETATM    6  C19 UNL     1      -0.784   0.615  -1.436  1.00  0.00     0.155 C 
ENDROOT
BRANCH   1   7
HETATM    7  C6  UNL     1       1.496  -0.161  -1.069  1.00  0.00     0.079 C 
HETATM    8  C5  UNL     1       2.360   1.042  -0.953  1.00  0.00     0.027 C 
HETATM    9  C4  UNL     1       3.480   1.033   0.003  1.00  0.00     0.027 C 
HETATM   10  C3  UNL     1       3.982  -0.254   0.499  1.00  0.00     0.076 C 
HETATM   11  C21 UNL     1       3.555  -1.345  -0.487  1.00  0.00     0.027 C 
HETATM   12  C20 UNL     1       2.067  -1.398  -0.390  1.00  0.00     0.027 C 
BRANCH  10  13
HETATM   13  N1  UNL     1       5.374  -0.369   0.724  1.00  0.00    -0.415 N 
ATOM     14  H1  UNL     1       5.941  -1.035   0.199  1.00  0.00     0.153 HD
BRANCH  13  15
HETATM   15  C2  UNL     1       5.954   0.475   1.706  1.00  0.00     0.140 C 
BRANCH  15  16
HETATM   16  C1  UNL     1       7.453   0.150   1.755  1.00  0.00     0.183 C 
BRANCH  16  17
HETATM   17  O1  UNL     1       7.630  -1.199   2.100  1.00  0.00    -0.399 OA
ATOM     18  H1  UNL     1       8.558  -1.400   2.130  1.00  0.00     0.209 HD
ENDBRANCH  16  17
ENDBRANCH  15  16
ENDBRANCH  13  15
ENDBRANCH  10  13
ENDBRANCH   1   7
BRANCH   5  19
HETATM   19  O2  UNL     1      -1.985  -1.412  -1.157  1.00  0.00    -0.388 OA
ATOM     20  H2  UNL     1      -1.797  -1.603  -2.068  1.00  0.00     0.210 HD
ENDBRANCH   5  19
BRANCH   5  21
HETATM   21  C11 UNL     1      -3.182   0.428  -1.974  1.00  0.00     0.044 C 
BRANCH  21  22
HETATM   22  C12 UNL     1      -4.535  -0.157  -1.950  1.00  0.00     0.041 C 
BRANCH  22  23
HETATM   23  C13 UNL     1      -5.379  -0.073  -0.781  1.00  0.00    -0.058 A 
HETATM   24  C14 UNL     1      -5.411  -1.136   0.123  1.00  0.00     0.007 A 
HETATM   25  C15 UNL     1      -6.217  -1.096   1.230  1.00  0.00     0.001 A 
HETATM   26  C16 UNL     1      -7.021  -0.014   1.494  1.00  0.00     0.000 A 
HETATM   27  C17 UNL     1      -6.996   1.042   0.606  1.00  0.00     0.001 A 
HETATM   28  C18 UNL     1      -6.188   1.001  -0.502  1.00  0.00     0.007 A 
ENDBRANCH  22  23
ENDBRANCH  21  22
ENDBRANCH   5  21
TORSDOF 9
