REMARK  8 active torsions:
REMARK  status: ('A' for Active; 'I' for Inactive)
REMARK    1  A    between atoms: N1_1  and  C1_4 
REMARK    2  A    between atoms: C2_7  and  O1_8 
REMARK    3  A    between atoms: O1_8  and  C3_9 
REMARK    4  A    between atoms: C3_9  and  C4_10 
REMARK    5  A    between atoms: C10_16  and  C11_17 
REMARK    6  A    between atoms: C11_17  and  C12_18 
REMARK    7  A    between atoms: C12_18  and  N3_19 
REMARK    8  A    between atoms: C19_28  and  C20_29 
ROOT
HETATM    1  C4  UNL     1      -0.119  -1.133   0.116  1.00  0.00    -0.017 C 
HETATM    2  C5  UNL     1      -0.129  -2.188  -0.986  1.00  0.00     0.016 C 
HETATM    3  C6  UNL     1       1.262  -2.640  -1.261  1.00  0.00    -0.013 C 
HETATM    4  C7  UNL     1       1.703  -3.520  -0.097  1.00  0.00     0.009 C 
HETATM    5  C8  UNL     1       1.676  -2.599   1.100  1.00  0.00    -0.013 C 
HETATM    6  C9  UNL     1       2.743  -1.548   0.893  1.00  0.00     0.014 C 
HETATM    7  C10 UNL     1       2.275  -0.600  -0.194  1.00  0.00    -0.037 C 
HETATM    8  C16 UNL     1       2.240  -1.541  -1.456  1.00  0.00     0.014 C 
HETATM    9  C17 UNL     1       0.903  -0.087  -0.094  1.00  0.00     0.021 C 
HETATM   10  C18 UNL     1       0.383  -1.941   1.375  1.00  0.00     0.016 C 
ENDROOT
BRANCH   1  11
HETATM   11  C3  UNL     1      -1.498  -0.726   0.471  1.00  0.00     0.187 C 
BRANCH  11  12
HETATM   12  O1  UNL     1      -2.342  -0.275  -0.538  1.00  0.00    -0.334 OA
BRANCH  12  13
HETATM   13  C2  UNL     1      -3.687  -0.058  -0.142  1.00  0.00     0.169 A 
HETATM   14  N2  UNL     1      -4.295  -1.181   0.323  1.00  0.00    -0.170 N 
HETATM   15  C1  UNL     1      -5.586  -1.170   0.751  1.00  0.00     0.680 A 
ATOM     16  H2  UNL     1      -3.770  -2.055   0.352  1.00  0.00     0.186 HD
HETATM   17  N5  UNL     1      -6.248  -0.024   0.701  1.00  0.00    -0.156 N 
HETATM   18  C23 UNL     1      -5.692   1.142   0.242  1.00  0.00     0.270 A 
ATOM     19  H5  UNL     1      -7.217  -0.008   1.019  1.00  0.00     0.187 HD
HETATM   20  C19 UNL     1      -4.396   1.118  -0.181  1.00  0.00     0.066 A 
HETATM   21  O2  UNL     1      -6.449   2.125   0.256  1.00  0.00    -0.267 OA
BRANCH  15  22
HETATM   22  N1  UNL     1      -6.145  -2.278   1.191  1.00  0.00    -0.234 N 
ATOM     23  H12 UNL     1      -5.635  -3.161   1.230  1.00  0.00     0.174 HD
ATOM     24  H11 UNL     1      -7.113  -2.270   1.512  1.00  0.00     0.174 HD
ENDBRANCH  15  22
BRANCH  20  25
HETATM   25  C20 UNL     1      -3.668   2.332  -0.607  1.00  0.00     0.029 A 
HETATM   26  C21 UNL     1      -3.994   3.043  -1.880  1.00  0.00     0.010 A 
HETATM   27  C22 UNL     1      -4.534   3.672  -0.641  1.00  0.00     0.010 A 
ENDBRANCH  20  25
ENDBRANCH  12  13
ENDBRANCH  11  12
ENDBRANCH   1  11
BRANCH   7  28
HETATM   28  C11 UNL     1       3.349   0.367  -0.509  1.00  0.00     0.029 C 
BRANCH  28  29
HETATM   29  C12 UNL     1       3.852   1.134   0.694  1.00  0.00     0.130 C 
BRANCH  29  30
HETATM   30  N3  UNL     1       4.961   2.004   0.380  1.00  0.00    -0.352 N 
HETATM   31  C13 UNL     1       4.970   3.287   0.006  1.00  0.00     0.108 A 
HETATM   32  C14 UNL     1       6.300   3.693  -0.167  1.00  0.00     0.106 A 
HETATM   33  N4  UNL     1       7.031   2.630   0.104  1.00  0.00    -0.361 N 
HETATM   34  C15 UNL     1       6.294   1.569   0.446  1.00  0.00     0.182 A 
ATOM     35  H4  UNL     1       8.050   2.619   0.058  1.00  0.00     0.166 HD
ENDBRANCH  29  30
ENDBRANCH  28  29
ENDBRANCH   7  28
TORSDOF 8
