REMARK  10 active torsions:
REMARK  status: ('A' for Active; 'I' for Inactive)
REMARK    1  A    between atoms: O1_2  and  C2_3 
REMARK    2  A    between atoms: C2_3  and  C3_4 
REMARK    3  A    between atoms: C3_4  and  C4_5 
REMARK    4  A    between atoms: C4_5  and  C5_6 
REMARK    5  A    between atoms: C5_6  and  C6_7 
REMARK    6  A    between atoms: C6_7  and  C7_8 
REMARK    7  A    between atoms: C7_8  and  N1_9 
REMARK    8  A    between atoms: C12_15  and  O3_16 
REMARK    9  A    between atoms: C13_18  and  O4_19 
REMARK   10  A    between atoms: C23_30  and  O5_31 
ROOT
HETATM    1  N1  UNL     1       0.853   1.274   1.016  1.00  0.00    -0.338 N 
HETATM    2  C8  UNL     1       1.547   0.726   2.130  1.00  0.00     0.220 C 
HETATM    3  O2  UNL     1       2.602   0.066   2.210  1.00  0.00    -0.273 OA
HETATM    4  C9  UNL     1       0.800   1.047   3.414  1.00  0.00     0.105 C 
HETATM    5  C10 UNL     1      -0.283   1.926   2.845  1.00  0.00     0.046 C 
HETATM    6  C11 UNL     1      -0.537   1.316   1.444  1.00  0.00     0.090 C 
HETATM    7  C12 UNL     1      -1.473   2.199   0.749  1.00  0.00     0.178 C 
HETATM    8  C13 UNL     1      -2.291   1.593  -0.343  1.00  0.00     0.155 C 
HETATM    9  C14 UNL     1      -2.361   0.110  -0.366  1.00  0.00     0.035 C 
HETATM   10  C15 UNL     1      -3.530  -0.369  -1.216  1.00  0.00    -0.041 C 
HETATM   11  C16 UNL     1      -3.724   0.511  -2.452  1.00  0.00     0.015 C 
HETATM   12  C17 UNL     1      -3.227  -1.750  -1.823  1.00  0.00     0.015 C 
HETATM   13  C18 UNL     1      -4.826  -0.366  -0.485  1.00  0.00     0.009 C 
HETATM   14  C19 UNL     1      -4.793  -0.596   0.964  1.00  0.00     0.002 C 
HETATM   15  C20 UNL     1      -3.587  -0.176   1.715  1.00  0.00     0.012 C 
HETATM   16  C21 UNL     1      -2.311  -0.460   0.983  1.00  0.00    -0.009 C 
HETATM   17  C22 UNL     1      -2.224  -2.001   0.995  1.00  0.00     0.018 C 
HETATM   18  C23 UNL     1      -1.058  -0.055   1.699  1.00  0.00     0.157 C 
ENDROOT
BRANCH   1  19
HETATM   19  C7  UNL     1       1.462   1.669  -0.206  1.00  0.00     0.127 C 
BRANCH  19  20
HETATM   20  C6  UNL     1       1.577   0.736  -1.321  1.00  0.00     0.020 C 
BRANCH  20  21
HETATM   21  C5  UNL     1       2.436  -0.476  -1.206  1.00  0.00     0.002 C 
BRANCH  21  22
HETATM   22  C4  UNL     1       3.909  -0.164  -1.037  1.00  0.00     0.002 C 
BRANCH  22  23
HETATM   23  C3  UNL     1       4.636  -1.484  -0.929  1.00  0.00     0.026 C 
BRANCH  23  24
HETATM   24  C2  UNL     1       6.123  -1.243  -0.757  1.00  0.00     0.167 C 
BRANCH  24  25
HETATM   25  O1  UNL     1       6.829  -2.420  -0.654  1.00  0.00    -0.396 OA
HETATM   26  C1  UNL     1       8.180  -2.117  -0.499  1.00  0.00     0.201 C 
ENDBRANCH  24  25
ENDBRANCH  23  24
ENDBRANCH  22  23
ENDBRANCH  21  22
ENDBRANCH  20  21
ENDBRANCH  19  20
ENDBRANCH   1  19
BRANCH   7  27
HETATM   27  O3  UNL     1      -1.008   3.431   0.322  1.00  0.00    -0.390 OA
ATOM     28  H3  UNL     1      -1.616   4.005  -0.129  1.00  0.00     0.210 HD
ENDBRANCH   7  27
BRANCH  18  29
HETATM   29  O5  UNL     1      -0.078  -0.985   1.360  1.00  0.00    -0.392 OA
ATOM     30  H5  UNL     1      -0.410  -1.860   1.523  1.00  0.00     0.210 HD
ENDBRANCH  18  29
BRANCH   8  31
HETATM   31  O4  UNL     1      -3.556   2.183  -0.325  1.00  0.00    -0.392 OA
ATOM     32  H4  UNL     1      -4.077   1.797  -1.020  1.00  0.00     0.210 HD
ENDBRANCH   8  31
TORSDOF 10
