REMARK  9 active torsions:
REMARK  status: ('A' for Active; 'I' for Inactive)
REMARK    1  A    between atoms: C2_2  and  C3_3 
REMARK    2  A    between atoms: C2_2  and  C15_30 
REMARK    3  A    between atoms: C3_3  and  C4_4 
REMARK    4  A    between atoms: C4_4  and  N1_5 
REMARK    5  A    between atoms: N2_8  and  C7_9 
REMARK    6  A    between atoms: C7_9  and  C8_10 
REMARK    7  A    between atoms: C8_10  and  C9_11 
REMARK    8  A    between atoms: C9_11  and  N3_12 
REMARK    9  A    between atoms: C11_19  and  N6_20 
REMARK       I    between atoms: N6_20  and  C12_22 
ROOT
HETATM    1  C8  UNL     1       2.824  -2.377   0.962  1.00  0.00     0.050 C 
ENDROOT
BRANCH   1   2
HETATM    2  C7  UNL     1       1.568  -2.569   0.115  1.00  0.00     0.274 C 
BRANCH   2   3
HETATM    3  N2  UNL     1       1.544  -1.595  -0.952  1.00  0.00     0.094 N 
HETATM    4  C6  UNL     1       0.530  -1.904  -1.959  1.00  0.00     0.292 C 
HETATM    5  C5  UNL     1      -0.810  -2.080  -1.381  1.00  0.00     0.152 C 
HETATM    6  N1  UNL     1      -1.203  -1.165  -0.346  1.00  0.00    -0.390 N 
HETATM    7  C14 UNL     1      -0.253  -0.273   0.133  1.00  0.00     0.088 C 
HETATM    8  C13 UNL     1       1.117  -0.282  -0.443  1.00  0.00     0.316 C 
BRANCH   6   9
HETATM    9  C4  UNL     1      -2.577  -0.846  -0.366  1.00  0.00     0.122 C 
BRANCH   9  10
HETATM   10  C3  UNL     1      -2.979  -0.011   0.791  1.00  0.00     0.024 C 
BRANCH  10  11
HETATM   11  C2  UNL     1      -4.457   0.294   0.815  1.00  0.00    -0.013 C 
HETATM   12  C1  UNL     1      -5.134  -1.092   0.876  1.00  0.00     0.010 C 
BRANCH  11  13
HETATM   13  C15 UNL     1      -5.015   0.991  -0.377  1.00  0.00    -0.011 C 
HETATM   14  C16 UNL     1      -4.521   2.362  -0.612  1.00  0.00     0.005 C 
HETATM   15  C17 UNL     1      -5.507   3.467  -0.496  1.00  0.00     0.000 C 
HETATM   16  C18 UNL     1      -6.879   3.085  -0.066  1.00  0.00     0.000 C 
HETATM   17  C19 UNL     1      -7.281   1.904  -0.958  1.00  0.00     0.000 C 
HETATM   18  C20 UNL     1      -6.486   0.760  -0.380  1.00  0.00     0.005 C 
ENDBRANCH  11  13
ENDBRANCH  10  11
ENDBRANCH   9  10
ENDBRANCH   6   9
ENDBRANCH   2   3
ENDBRANCH   1   2
BRANCH   1  19
HETATM   19  C9  UNL     1       3.987  -2.612  -0.024  1.00  0.00     0.123 C 
BRANCH  19  20
HETATM   20  N3  UNL     1       5.243  -2.507   0.657  1.00  0.00    -0.369 N 
HETATM   21  C10 UNL     1       6.006  -1.480   0.413  1.00  0.00     0.162 A 
HETATM   22  N4  UNL     1       7.201  -1.203   0.938  1.00  0.00    -0.278 N 
HETATM   23  S1  UNL     1       5.785  -0.128  -0.647  1.00  0.00    -0.015 SA
HETATM   24  N5  UNL     1       7.818  -0.149   0.583  1.00  0.00    -0.277 N 
ATOM     25  H4  UNL     1       7.618  -1.834   1.622  1.00  0.00     0.189 HD
HETATM   26  C11 UNL     1       7.257   0.666  -0.310  1.00  0.00     0.169 A 
ATOM     27  H5  UNL     1       8.733   0.070   0.978  1.00  0.00     0.189 HD
ATOM     28  H3  UNL     1       5.535  -3.224   1.321  1.00  0.00     0.161 HD
BRANCH  26  29
HETATM   29  N6  UNL     1       7.727   1.785  -0.803  1.00  0.00    -0.310 N 
HETATM   30  C12 UNL     1       8.982   2.237  -0.378  1.00  0.00     0.187 C 
HETATM   31  N7  UNL     1       9.149   2.939   0.693  1.00  0.00    -0.373 N 
HETATM   32  N8  UNL     1      10.106   1.901  -1.170  1.00  0.00    -0.064 NA
ATOM     33  H72 UNL     1       8.339   3.181   1.264  1.00  0.00     0.158 HD
ATOM     34  H71 UNL     1      10.063   3.268   1.003  1.00  0.00     0.158 HD
ATOM     35  H6  UNL     1       7.188   2.318  -1.485  1.00  0.00     0.170 HD
ENDBRANCH  26  29
ENDBRANCH  19  20
ENDBRANCH   1  19
TORSDOF 9
