REMARK  9 active torsions:
REMARK  status: ('A' for Active; 'I' for Inactive)
REMARK    1  A    between atoms: C2_2  and  C3_3 
REMARK    2  A    between atoms: C2_2  and  C14_16 
REMARK    3  A    between atoms: C3_3  and  N1_4 
REMARK    4  A    between atoms: C6_7  and  C7_8 
REMARK    5  A    between atoms: C14_16  and  O2_17 
REMARK    6  A    between atoms: C14_16  and  N2_19 
REMARK    7  A    between atoms: N2_19  and  C15_22 
REMARK    8  A    between atoms: C15_22  and  C16_23 
REMARK    9  A    between atoms: C20_30  and  C21_31 
ROOT
HETATM    1  N2  UNL     1      -1.207  -1.030  -0.073  1.00  0.00    -0.047 N 
ATOM      2  H21 UNL     1      -2.074  -1.539   0.100  1.00  0.00     0.280 HD
ATOM      3  H22 UNL     1      -1.373  -0.768  -1.045  1.00  0.00     0.280 HD
ENDROOT
BRANCH   1   4
HETATM    4  C14 UNL     1      -0.065  -1.875   0.058  1.00  0.00     0.323 C 
BRANCH   4   5
HETATM    5  C2  UNL     1       1.250  -1.279  -0.361  1.00  0.00     0.056 C 
HETATM    6  C1  UNL     1       1.226  -0.967  -1.812  1.00  0.00     0.016 C 
BRANCH   5   7
HETATM    7  C3  UNL     1       2.328  -2.258   0.036  1.00  0.00     0.134 C 
BRANCH   7   8
HETATM    8  N1  UNL     1       3.666  -1.804  -0.268  1.00  0.00    -0.351 N 
HETATM    9  C4  UNL     1       4.339  -2.081  -1.519  1.00  0.00     0.127 C 
HETATM   10  C5  UNL     1       5.574  -1.206  -1.536  1.00  0.00     0.039 C 
HETATM   11  C6  UNL     1       5.902  -1.094  -0.088  1.00  0.00     0.112 C 
HETATM   12  C13 UNL     1       4.549  -1.042   0.543  1.00  0.00     0.228 C 
HETATM   13  O1  UNL     1       4.284  -0.430   1.591  1.00  0.00    -0.273 OA
BRANCH  11  14
HETATM   14  C7  UNL     1       6.713   0.095   0.243  1.00  0.00    -0.045 A 
HETATM   15  C8  UNL     1       6.379   1.361  -0.151  1.00  0.00     0.008 A 
HETATM   16  C9  UNL     1       7.180   2.434   0.191  1.00  0.00     0.001 A 
HETATM   17  C10 UNL     1       8.333   2.253   0.936  1.00  0.00     0.000 A 
HETATM   18  C11 UNL     1       8.676   0.995   1.333  1.00  0.00     0.001 A 
HETATM   19  C12 UNL     1       7.862  -0.088   0.985  1.00  0.00     0.008 A 
ENDBRANCH  11  14
ENDBRANCH   7   8
ENDBRANCH   5   7
ENDBRANCH   4   5
BRANCH   4  20
HETATM   20  O2  UNL     1      -0.347  -3.058  -0.631  1.00  0.00    -0.369 OA
ATOM     21  H2  UNL     1      -1.178  -3.435  -0.366  1.00  0.00     0.212 HD
ENDBRANCH   4  20
ENDBRANCH   1   4
BRANCH   1  22
HETATM   22  C15 UNL     1      -1.091   0.114   0.768  1.00  0.00     0.268 C 
BRANCH  22  23
HETATM   23  C16 UNL     1      -2.366   0.978   0.660  1.00  0.00     0.217 C 
HETATM   24  N3  UNL     1      -2.147   2.089   1.533  1.00  0.00    -0.069 N 
HETATM   25  C17 UNL     1      -3.278   2.957   1.595  1.00  0.00     0.233 C 
ATOM     26  H32 UNL     1      -1.869   1.778   2.464  1.00  0.00     0.277 HD
ATOM     27  H31 UNL     1      -1.303   2.600   1.275  1.00  0.00     0.277 HD
HETATM   28  C18 UNL     1      -4.455   2.216   2.146  1.00  0.00     0.028 C 
HETATM   29  C19 UNL     1      -4.312   0.732   2.149  1.00  0.00     0.010 C 
HETATM   30  C20 UNL     1      -3.585   0.169   0.971  1.00  0.00     0.040 C 
BRANCH  30  31
HETATM   31  C21 UNL     1      -4.460  -0.029  -0.257  1.00  0.00     0.082 C 
HETATM   32  C22 UNL     1      -5.685  -0.840   0.053  1.00  0.00     0.025 C 
HETATM   33  C23 UNL     1      -6.431  -0.975  -1.284  1.00  0.00     0.004 C 
HETATM   34  C24 UNL     1      -6.997   0.413  -1.553  1.00  0.00     0.019 C 
HETATM   35  C25 UNL     1      -6.054   1.520  -1.234  1.00  0.00     0.114 C 
HETATM   36  N4  UNL     1      -4.703   1.159  -1.003  1.00  0.00    -0.417 N 
ATOM     37  H4  UNL     1      -3.935   1.728  -1.358  1.00  0.00     0.153 HD
ENDBRANCH  30  31
ENDBRANCH  22  23
ENDBRANCH   1  22
TORSDOF 9
