REMARK  10 active torsions:
REMARK  status: ('A' for Active; 'I' for Inactive)
REMARK    1  A    between atoms: N1_2  and  C2_4 
REMARK    2  A    between atoms: C2_4  and  O1_5 
REMARK    3  A    between atoms: C2_4  and  C3_7 
REMARK    4  A    between atoms: C3_7  and  N2_9 
REMARK    5  A    between atoms: C5_11  and  C6_12 
REMARK    6  A    between atoms: C5_11  and  C14_20 
REMARK    7  A    between atoms: C6_12  and  C7_13 
REMARK    8  A    between atoms: C7_13  and  C8_14 
REMARK    9  A    between atoms: C14_20  and  O3_22 
REMARK   10  A    between atoms: O3_22  and  C15_23 
ROOT
HETATM    1  N2  UNL     1      -1.724   1.182   1.501  1.00  0.00    -0.380 N 
ATOM      2  H2  UNL     1      -2.174   1.330   2.404  1.00  0.00     0.160 HD
HETATM    3  C5  UNL     1      -1.167  -0.037   1.288  1.00  0.00     0.082 C 
ENDROOT
BRANCH   3   4
HETATM    4  C6  UNL     1      -1.735  -0.942   0.242  1.00  0.00     0.068 C 
BRANCH   4   5
HETATM    5  C7  UNL     1      -3.170  -1.246   0.631  1.00  0.00     0.044 C 
BRANCH   5   6
HETATM    6  C8  UNL     1      -3.823  -2.198  -0.271  1.00  0.00    -0.058 A 
HETATM    7  C9  UNL     1      -3.707  -3.567   0.023  1.00  0.00     0.007 A 
HETATM    8  C10 UNL     1      -4.319  -4.485  -0.817  1.00  0.00     0.001 A 
HETATM    9  C11 UNL     1      -5.036  -4.096  -1.926  1.00  0.00     0.000 A 
HETATM   10  C12 UNL     1      -5.152  -2.755  -2.212  1.00  0.00     0.001 A 
HETATM   11  C13 UNL     1      -4.533  -1.834  -1.363  1.00  0.00     0.007 A 
ENDBRANCH   5   6
ENDBRANCH   4   5
ENDBRANCH   3   4
BRANCH   3  12
HETATM   12  C14 UNL     1       0.293  -0.257   1.505  1.00  0.00     0.305 C 
HETATM   13  O2  UNL     1       0.773   0.165   2.585  1.00  0.00    -0.258 OA
BRANCH  12  14
HETATM   14  O3  UNL     1       1.126  -0.868   0.631  1.00  0.00    -0.311 OA
BRANCH  14  15
HETATM   15  C15 UNL     1       2.493  -1.158   0.747  1.00  0.00     0.138 C 
HETATM   16  C16 UNL     1       2.681  -2.509   0.136  1.00  0.00     0.033 C 
HETATM   17  C17 UNL     1       4.041  -2.955  -0.212  1.00  0.00     0.003 C 
HETATM   18  C18 UNL     1       4.969  -1.858  -0.731  1.00  0.00     0.007 C 
HETATM   19  C19 UNL     1       4.785  -0.710   0.201  1.00  0.00     0.027 C 
HETATM   20  C20 UNL     1       3.376  -0.184  -0.063  1.00  0.00     0.050 C 
HETATM   21  C24 UNL     1       5.620   0.478   0.041  1.00  0.00     0.229 C 
HETATM   22  C21 UNL     1       3.443   1.170   0.532  1.00  0.00     0.280 C 
HETATM   23  N3  UNL     1       4.797   1.624   0.396  1.00  0.00     0.094 N 
HETATM   24  C22 UNL     1       5.174   2.301  -0.793  1.00  0.00     0.275 C 
HETATM   25  C23 UNL     1       5.914   1.059  -1.294  1.00  0.00     0.066 C 
ENDBRANCH  14  15
ENDBRANCH  12  14
ENDBRANCH   3  12
BRANCH   1  26
HETATM   26  C3  UNL     1      -1.742   2.259   0.603  1.00  0.00     0.126 C 
HETATM   27  C4  UNL     1      -1.923   1.970  -0.853  1.00  0.00     0.036 C 
BRANCH  26  28
HETATM   28  C2  UNL     1      -2.846   3.220   1.042  1.00  0.00     0.235 C 
BRANCH  28  29
HETATM   29  N1  UNL     1      -2.974   4.391   0.232  1.00  0.00    -0.400 N 
HETATM   30  C1  UNL     1      -4.306   4.668  -0.257  1.00  0.00     0.142 C 
ATOM     31  H1  UNL     1      -2.179   4.991   0.014  1.00  0.00     0.155 HD
ENDBRANCH  28  29
BRANCH  28  32
HETATM   32  O1  UNL     1      -4.049   2.520   0.991  1.00  0.00    -0.375 OA
ATOM     33  H1  UNL     1      -3.964   1.742   1.529  1.00  0.00     0.212 HD
ENDBRANCH  28  32
ENDBRANCH  26  28
ENDBRANCH   1  26
TORSDOF 10
