REMARK  14 active torsions:
REMARK  status: ('A' for Active; 'I' for Inactive)
REMARK       I    between atoms: C1_4  and  N3_6 
REMARK    1  A    between atoms: N3_6  and  C2_8 
REMARK    2  A    between atoms: C2_8  and  C3_9 
REMARK    3  A    between atoms: C3_9  and  C4_10 
REMARK    4  A    between atoms: C4_10  and  C5_11 
REMARK    5  A    between atoms: C5_11  and  C6_12 
REMARK    6  A    between atoms: C6_12  and  C7_13 
REMARK       I    between atoms: C7_13  and  N4_15 
REMARK    7  A    between atoms: N4_15  and  C8_17 
REMARK    8  A    between atoms: C8_17  and  C9_18 
REMARK    9  A    between atoms: C9_18  and  N5_19 
REMARK   10  A    between atoms: C11_21  and  C12_22 
REMARK   11  A    between atoms: C12_22  and  C13_23 
REMARK   12  A    between atoms: C16_30  and  N8_31 
REMARK   13  A    between atoms: C17_35  and  C18_36 
REMARK   14  A    between atoms: C18_36  and  N9_37 
ROOT
HETATM    1  N5  UNL     1      -2.044   0.358  -2.294  1.00  0.00     0.099 N 
HETATM    2  C10 UNL     1      -2.590  -0.857  -2.893  1.00  0.00     0.280 C 
HETATM    3  C11 UNL     1      -3.856  -1.190  -2.111  1.00  0.00     0.052 C 
HETATM    4  C16 UNL     1      -4.338   0.170  -1.658  1.00  0.00     0.224 C 
HETATM    5  C17 UNL     1      -3.041   0.966  -1.514  1.00  0.00     0.278 C 
ENDROOT
BRANCH   1   6
HETATM    6  C9  UNL     1      -0.833  -0.037  -1.647  1.00  0.00     0.292 C 
BRANCH   6   7
HETATM    7  C8  UNL     1      -0.149   1.052  -0.891  1.00  0.00     0.152 C 
BRANCH   7   8
HETATM    8  N4  UNL     1       1.084   0.522  -0.252  1.00  0.00    -0.359 N 
HETATM    9  C7  UNL     1       1.834   1.411   0.508  1.00  0.00     0.217 C 
HETATM   10  O1  UNL     1       1.534   2.590   0.674  1.00  0.00    -0.274 OA
ATOM     11  H4  UNL     1       1.367  -0.451  -0.366  1.00  0.00     0.162 HD
BRANCH   9  12
HETATM   12  C6  UNL     1       3.100   0.891   1.173  1.00  0.00     0.103 C 
BRANCH  12  13
HETATM   13  C5  UNL     1       3.730   1.962   1.977  1.00  0.00     0.009 C 
BRANCH  13  14
HETATM   14  C4  UNL     1       4.907   1.604   2.761  1.00  0.00     0.002 C 
BRANCH  14  15
HETATM   15  C3  UNL     1       6.173   1.132   2.205  1.00  0.00     0.020 C 
BRANCH  15  16
HETATM   16  C2  UNL     1       6.167  -0.155   1.465  1.00  0.00     0.122 C 
BRANCH  16  17
HETATM   17  N3  UNL     1       5.669  -1.225   2.306  1.00  0.00    -0.365 N 
HETATM   18  C1  UNL     1       6.477  -1.672   3.401  1.00  0.00     0.181 C 
HETATM   19  N1  UNL     1       7.517  -2.416   3.107  1.00  0.00    -0.374 N 
HETATM   20  N2  UNL     1       6.235  -1.378   4.755  1.00  0.00    -0.064 NA
ATOM     21  H12 UNL     1       8.092  -2.734   3.887  1.00  0.00     0.158 HD
ATOM     22  H11 UNL     1       7.692  -2.629   2.125  1.00  0.00     0.158 HD
ATOM     23  H3  UNL     1       4.761  -1.651   2.122  1.00  0.00     0.162 HD
ENDBRANCH  16  17
ENDBRANCH  15  16
ENDBRANCH  14  15
ENDBRANCH  13  14
ENDBRANCH  12  13
ENDBRANCH   9  12
ENDBRANCH   7   8
ENDBRANCH   6   7
ENDBRANCH   1   6
BRANCH   5  24
HETATM   24  C18 UNL     1      -3.423   2.383  -1.948  1.00  0.00     0.267 C 
BRANCH  24  25
HETATM   25  N9  UNL     1      -2.333   3.318  -1.900  1.00  0.00    -0.077 N 
ATOM     26  H93 UNL     1      -1.909   3.328  -0.972  1.00  0.00     0.274 HD
ATOM     27  H92 UNL     1      -1.542   2.976  -2.446  1.00  0.00     0.274 HD
ATOM     28  H91 UNL     1      -2.588   4.262  -2.189  1.00  0.00     0.274 HD
ENDBRANCH  24  25
ENDBRANCH   5  24
BRANCH   3  29
HETATM   29  C12 UNL     1      -3.573  -2.110  -0.966  1.00  0.00     0.067 C 
BRANCH  29  30
HETATM   30  C13 UNL     1      -4.856  -2.438  -0.267  1.00  0.00     0.026 A 
HETATM   31  C14 UNL     1      -6.149  -2.097  -0.566  1.00  0.00     0.114 A 
HETATM   32  N6  UNL     1      -6.992  -2.619   0.375  1.00  0.00    -0.360 N 
HETATM   33  C15 UNL     1      -6.225  -3.280   1.251  1.00  0.00     0.180 A 
ATOM     34  H6  UNL     1      -8.007  -2.524   0.404  1.00  0.00     0.166 HD
HETATM   35  N7  UNL     1      -4.941  -3.183   0.883  1.00  0.00    -0.355 N 
ATOM     36  H7  UNL     1      -4.151  -3.597   1.379  1.00  0.00     0.166 HD
ENDBRANCH  29  30
ENDBRANCH   3  29
BRANCH   4  37
HETATM   37  N8  UNL     1      -5.088   0.728  -2.788  1.00  0.00    -0.072 N 
ATOM     38  H83 UNL     1      -4.556   0.753  -3.658  1.00  0.00     0.274 HD
ATOM     39  H82 UNL     1      -5.837   0.120  -3.120  1.00  0.00     0.274 HD
ATOM     40  H81 UNL     1      -5.413   1.645  -2.482  1.00  0.00     0.274 HD
ENDBRANCH   4  37
TORSDOF 14
