REMARK  25 active torsions:
REMARK  status: ('A' for Active; 'I' for Inactive)
REMARK    1  A    between atoms: C2_2  and  C4_4 
REMARK       I    between atoms: C4_4  and  N1_6 
REMARK    2  A    between atoms: N1_6  and  C5_8 
REMARK    3  A    between atoms: C6_11  and  C7_12 
REMARK    4  A    between atoms: C8_13  and  C9_14 
REMARK    5  A    between atoms: C9_14  and  C10_15 
REMARK    6  A    between atoms: C10_15  and  C11_16 
REMARK    7  A    between atoms: C11_16  and  C12_17 
REMARK    8  A    between atoms: C15_20  and  O2_21 
REMARK    9  A    between atoms: O2_21  and  C16_22 
REMARK       I    between atoms: C16_22  and  N3_24 
REMARK   10  A    between atoms: N3_24  and  C17_26 
REMARK   11  A    between atoms: C17_26  and  C18_27 
REMARK   12  A    between atoms: C18_27  and  C19_28 
REMARK   13  A    between atoms: C19_28  and  N4_29 
REMARK   14  A    between atoms: N4_29  and  C20_31 
REMARK   15  A    between atoms: C20_31  and  C21_32 
REMARK   16  A    between atoms: C21_32  and  C22_33 
REMARK   17  A    between atoms: C22_33  and  C23_34 
REMARK   18  A    between atoms: C23_34  and  N5_35 
REMARK   19  A    between atoms: N5_35  and  C24_37 
REMARK   20  A    between atoms: C24_37  and  C25_38 
REMARK   21  A    between atoms: C25_38  and  N6_39 
REMARK   22  A    between atoms: C26_43  and  O4_44 
REMARK   23  A    between atoms: C27_48  and  N8_49 
REMARK   24  A    between atoms: N8_49  and  C28_51 
REMARK   25  A    between atoms: C28_51  and  C29_52 
ROOT
HETATM    1  C10 UNL     1      -2.926   1.290   2.855  1.00  0.00     0.012 C 
ENDROOT
BRANCH   1   2
HETATM    2  C9  UNL     1      -3.967   2.363   2.582  1.00  0.00     0.094 C 
BRANCH   2   3
HETATM    3  C8  UNL     1      -4.890   1.769   1.589  1.00  0.00    -0.098 C 
HETATM    4  C7  UNL     1      -5.625   1.292   0.762  1.00  0.00    -0.029 C 
BRANCH   4   5
HETATM    5  C6  UNL     1      -6.485   0.723  -0.250  1.00  0.00     0.191 A 
HETATM    6  N2  UNL     1      -6.664  -0.604  -0.351  1.00  0.00    -0.167 N 
HETATM    7  C5  UNL     1      -7.474  -1.099  -1.315  1.00  0.00     0.701 A 
ATOM      8  H2  UNL     1      -6.192  -1.236   0.296  1.00  0.00     0.186 HD
HETATM    9  N9  UNL     1      -8.094  -0.253  -2.163  1.00  0.00    -0.022 N 
HETATM   10  C27 UNL     1      -7.941   1.076  -2.094  1.00  0.00     0.695 A 
ATOM     11  H9  UNL     1      -8.703  -0.640  -2.884  1.00  0.00     0.203 HD
HETATM   12  N7  UNL     1      -7.129   1.533  -1.125  1.00  0.00    -0.168 N 
ATOM     13  H7  UNL     1      -6.991   2.540  -1.044  1.00  0.00     0.186 HD
BRANCH   7  14
HETATM   14  N1  UNL     1      -7.688  -2.360  -1.467  1.00  0.00    -0.159 N 
HETATM   15  C4  UNL     1      -7.081  -3.339  -0.623  1.00  0.00     0.239 C 
HETATM   16  O1  UNL     1      -6.217  -4.078  -1.210  1.00  0.00    -0.272 OA
ATOM     17  H1  UNL     1      -8.311  -2.669  -2.214  1.00  0.00     0.187 HD
BRANCH  15  18
HETATM   18  C2  UNL     1      -7.389  -3.520   0.801  1.00  0.00     0.070 C 
HETATM   19  C1  UNL     1      -6.529  -4.649   1.340  1.00  0.00     0.019 C 
HETATM   20  C3  UNL     1      -8.854  -3.878   1.019  1.00  0.00     0.019 C 
ENDBRANCH  15  18
ENDBRANCH   7  14
BRANCH  10  21
HETATM   21  N8  UNL     1      -8.535   1.907  -2.909  1.00  0.00    -0.221 N 
ATOM     22  H8  UNL     1      -9.145   1.531  -3.635  1.00  0.00     0.178 HD
BRANCH  21  23
HETATM   23  C28 UNL     1      -8.361   3.325  -2.820  1.00  0.00     0.176 C 
BRANCH  23  24
HETATM   24  C29 UNL     1      -9.226   3.951  -1.800  1.00  0.00    -0.040 A 
HETATM   25  C30 UNL     1      -9.061   5.267  -1.435  1.00  0.00     0.012 A 
HETATM   26  C31 UNL     1      -9.891   5.846  -0.468  1.00  0.00     0.043 A 
HETATM   27  C32 UNL     1     -10.883   5.084   0.120  1.00  0.00     0.116 A 
HETATM   28  F1  UNL     1     -11.680   5.678   1.064  1.00  0.00    -0.206 F 
HETATM   29  C33 UNL     1     -11.048   3.778  -0.242  1.00  0.00     0.043 A 
HETATM   30  C34 UNL     1     -10.219   3.223  -1.199  1.00  0.00     0.012 A 
ENDBRANCH  23  24
ENDBRANCH  21  23
ENDBRANCH  10  21
ENDBRANCH   4   5
ENDBRANCH   2   3
ENDBRANCH   1   2
BRANCH   1  31
HETATM   31  C11 UNL     1      -2.265   0.987   1.547  1.00  0.00     0.008 C 
BRANCH  31  32
HETATM   32  C12 UNL     1      -1.215  -0.060   1.725  1.00  0.00     0.017 C 
HETATM   33  C13 UNL     1      -0.148   0.378   2.667  1.00  0.00     0.010 C 
HETATM   34  C14 UNL     1       1.166   0.216   1.940  1.00  0.00     0.036 C 
HETATM   35  C15 UNL     1       0.859  -0.730   0.766  1.00  0.00     0.162 C 
HETATM   36  C26 UNL     1      -0.539  -0.412   0.393  1.00  0.00     0.151 C 
BRANCH  35  37
HETATM   37  O2  UNL     1       1.848  -0.511  -0.177  1.00  0.00    -0.296 OA
BRANCH  37  38
HETATM   38  C16 UNL     1       2.799  -1.473  -0.494  1.00  0.00     0.360 C 
HETATM   39  O3  UNL     1       2.682  -2.550   0.152  1.00  0.00    -0.239 OA
HETATM   40  N3  UNL     1       3.812  -1.248  -1.465  1.00  0.00    -0.337 N 
ATOM     41  H3  UNL     1       3.818  -0.345  -1.939  1.00  0.00     0.164 HD
BRANCH  40  42
HETATM   42  C17 UNL     1       4.821  -2.188  -1.827  1.00  0.00     0.126 C 
BRANCH  42  43
HETATM   43  C18 UNL     1       5.714  -2.563  -0.648  1.00  0.00     0.039 C 
BRANCH  43  44
HETATM   44  C19 UNL     1       6.398  -1.323  -0.112  1.00  0.00     0.115 C 
BRANCH  44  45
HETATM   45  N4  UNL     1       7.258  -1.538   0.992  1.00  0.00    -0.421 N 
ATOM     46  H4  UNL     1       7.030  -1.177   1.918  1.00  0.00     0.153 HD
BRANCH  45  47
HETATM   47  C20 UNL     1       8.450  -2.274   0.762  1.00  0.00     0.113 C 
BRANCH  47  48
HETATM   48  C21 UNL     1       9.454  -1.587  -0.102  1.00  0.00     0.021 C 
BRANCH  48  49
HETATM   49  C22 UNL     1       9.926  -0.277   0.436  1.00  0.00     0.021 C 
BRANCH  49  50
HETATM   50  C23 UNL     1      10.958   0.272  -0.597  1.00  0.00     0.119 C 
BRANCH  50  51
HETATM   51  N5  UNL     1      11.462   1.519  -0.185  1.00  0.00    -0.401 N 
ATOM     52  H5  UNL     1      11.234   1.922   0.724  1.00  0.00     0.158 HD
BRANCH  51  53
HETATM   53  C24 UNL     1      12.296   2.173  -1.099  1.00  0.00     0.082 C 
BRANCH  53  54
HETATM   54  C25 UNL     1      13.626   1.556  -1.326  1.00  0.00     0.273 C 
BRANCH  54  55
HETATM   55  N6  UNL     1      13.651   0.245  -1.871  1.00  0.00    -0.075 N 
ATOM     56  H63 UNL     1      13.085  -0.374  -1.290  1.00  0.00     0.274 HD
ATOM     57  H62 UNL     1      13.118   0.230  -2.740  1.00  0.00     0.274 HD
ATOM     58  H61 UNL     1      14.565  -0.179  -2.027  1.00  0.00     0.274 HD
ENDBRANCH  54  55
ENDBRANCH  53  54
ENDBRANCH  51  53
ENDBRANCH  50  51
ENDBRANCH  49  50
ENDBRANCH  48  49
ENDBRANCH  47  48
ENDBRANCH  45  47
ENDBRANCH  44  45
ENDBRANCH  43  44
ENDBRANCH  42  43
ENDBRANCH  40  42
ENDBRANCH  37  38
ENDBRANCH  35  37
BRANCH  36  59
HETATM   59  O4  UNL     1      -1.235  -1.525  -0.093  1.00  0.00    -0.393 OA
ATOM     60  H4  UNL     1      -0.817  -1.743  -0.918  1.00  0.00     0.210 HD
ENDBRANCH  36  59
ENDBRANCH  31  32
ENDBRANCH   1  31
TORSDOF 25
