REMARK  20 active torsions:
REMARK  status: ('A' for Active; 'I' for Inactive)
REMARK    1  A    between atoms: C2_2  and  C4_4 
REMARK    2  A    between atoms: C4_4  and  C5_6 
REMARK    3  A    between atoms: C5_6  and  C6_7 
REMARK    4  A    between atoms: C5_6  and  N1_11 
REMARK    5  A    between atoms: C6_7  and  C7_8 
REMARK    6  A    between atoms: N1_11  and  C8_13 
REMARK    7  A    between atoms: C8_13  and  O4_14 
REMARK    8  A    between atoms: C8_13  and  C9_16 
REMARK    9  A    between atoms: C9_16  and  C10_17 
REMARK   10  A    between atoms: C10_17  and  C11_18 
REMARK   11  A    between atoms: C10_17  and  C18_25 
REMARK   12  A    between atoms: C11_18  and  C12_19 
REMARK       I    between atoms: C18_25  and  N2_27 
REMARK   13  A    between atoms: N2_27  and  C19_29 
REMARK   14  A    between atoms: C19_29  and  C21_31 
REMARK   15  A    between atoms: C21_31  and  O6_32 
REMARK   16  A    between atoms: C22_34  and  N3_35 
REMARK   17  A    between atoms: C22_34  and  C30_46 
REMARK   18  A    between atoms: N3_35  and  C23_37 
REMARK   19  A    between atoms: C30_46  and  C31_48 
REMARK   20  A    between atoms: C31_48  and  O8_51 
ROOT
HETATM    1  C23 UNL     1       6.056   0.113   0.483  1.00  0.00     0.117 C 
HETATM    2  C24 UNL     1       6.432  -0.494  -0.853  1.00  0.00     0.195 C 
HETATM    3  O7  UNL     1       6.922   0.567  -1.646  1.00  0.00    -0.369 OA
HETATM    4  C25 UNL     1       6.854   1.739  -0.912  1.00  0.00     0.237 C 
HETATM    5  C26 UNL     1       7.918   2.681  -1.269  1.00  0.00     0.092 C 
HETATM    6  N4  UNL     1       8.771   3.414  -1.536  1.00  0.00    -0.194 NA
HETATM    7  C27 UNL     1       7.040   1.252   0.509  1.00  0.00     0.014 C 
HETATM    8  C28 UNL     1       8.469   0.685   0.532  1.00  0.00     0.020 C 
HETATM    9  C29 UNL     1       6.859   2.287   1.535  1.00  0.00     0.020 C 
ENDROOT
BRANCH   1  10
HETATM   10  N3  UNL     1       4.729   0.309   0.616  1.00  0.00    -0.378 N 
ATOM     11  H3  UNL     1       4.413   1.270   0.485  1.00  0.00     0.160 HD
BRANCH  10  12
HETATM   12  C22 UNL     1       3.734  -0.610   0.906  1.00  0.00     0.102 C 
HETATM   13  C21 UNL     1       3.348  -1.816   0.229  1.00  0.00     0.117 C 
BRANCH  13  14
HETATM   14  C19 UNL     1       2.421  -1.897  -0.915  1.00  0.00     0.043 C 
HETATM   15  C20 UNL     1       3.042  -1.987  -2.297  1.00  0.00     0.071 C 
BRANCH  14  16
HETATM   16  N2  UNL     1       1.276  -1.012  -0.938  1.00  0.00    -0.328 N 
HETATM   17  C18 UNL     1       0.009  -1.422  -1.337  1.00  0.00     0.226 C 
HETATM   18  O5  UNL     1      -0.139  -2.644  -1.695  1.00  0.00    -0.273 OA
ATOM     19  H2  UNL     1       1.405  -0.043  -0.648  1.00  0.00     0.168 HD
BRANCH  17  20
HETATM   20  C10 UNL     1      -1.163  -0.565  -1.378  1.00  0.00     0.082 C 
BRANCH  20  21
HETATM   21  C9  UNL     1      -1.831  -0.245  -0.081  1.00  0.00     0.067 C 
BRANCH  21  22
HETATM   22  C8  UNL     1      -2.619  -1.418   0.466  1.00  0.00     0.214 C 
BRANCH  22  23
HETATM   23  N1  UNL     1      -3.287  -1.169   1.665  1.00  0.00    -0.385 N 
ATOM     24  H1  UNL     1      -3.063  -1.684   2.516  1.00  0.00     0.156 HD
BRANCH  23  25
HETATM   25  C5  UNL     1      -4.311  -0.149   1.648  1.00  0.00     0.159 C 
BRANCH  25  26
HETATM   26  C4  UNL     1      -5.434  -0.422   0.759  1.00  0.00     0.153 C 
HETATM   27  O1  UNL     1      -5.475  -1.483   0.138  1.00  0.00    -0.295 OA
BRANCH  26  28
HETATM   28  C2  UNL     1      -6.604   0.445   0.484  1.00  0.00     0.049 C 
HETATM   29  C1  UNL     1      -7.642   0.549   1.542  1.00  0.00     0.017 C 
HETATM   30  C3  UNL     1      -6.128   1.879   0.151  1.00  0.00     0.017 C 
ENDBRANCH  26  28
ENDBRANCH  25  26
BRANCH  25  31
HETATM   31  C6  UNL     1      -4.715   0.157   3.096  1.00  0.00     0.145 C 
BRANCH  31  32
HETATM   32  C7  UNL     1      -5.428  -0.944   3.730  1.00  0.00     0.174 C 
HETATM   33  O2  UNL     1      -5.773  -0.768   4.952  1.00  0.00    -0.648 OA
HETATM   34  O3  UNL     1      -5.784  -2.153   3.196  1.00  0.00    -0.648 OA
ENDBRANCH  31  32
ENDBRANCH  25  31
ENDBRANCH  23  25
ENDBRANCH  22  23
BRANCH  22  35
HETATM   35  O4  UNL     1      -1.593  -2.415   0.682  1.00  0.00    -0.377 OA
ATOM     36  H4  UNL     1      -1.138  -2.585  -0.135  1.00  0.00     0.212 HD
ENDBRANCH  22  35
ENDBRANCH  21  22
ENDBRANCH  20  21
BRANCH  20  37
HETATM   37  C11 UNL     1      -2.116  -0.941  -2.500  1.00  0.00     0.018 C 
BRANCH  37  38
HETATM   38  C12 UNL     1      -3.068   0.197  -2.830  1.00  0.00    -0.014 C 
HETATM   39  C13 UNL     1      -2.295   1.431  -3.249  1.00  0.00     0.005 C 
HETATM   40  C14 UNL     1      -3.218   2.396  -3.980  1.00  0.00     0.000 C 
HETATM   41  C15 UNL     1      -4.665   2.115  -3.687  1.00  0.00     0.000 C 
HETATM   42  C16 UNL     1      -5.074   0.733  -4.120  1.00  0.00     0.000 C 
HETATM   43  C17 UNL     1      -3.909  -0.195  -4.036  1.00  0.00     0.005 C 
ENDBRANCH  37  38
ENDBRANCH  20  37
ENDBRANCH  17  20
ENDBRANCH  14  16
ENDBRANCH  13  14
BRANCH  13  44
HETATM   44  O6  UNL     1       4.395  -2.781   0.107  1.00  0.00    -0.357 OA
ATOM     45  H6  UNL     1       4.992  -2.729   0.844  1.00  0.00     0.218 HD
ENDBRANCH  13  44
BRANCH  12  46
HETATM   46  C30 UNL     1       3.659  -0.647   2.446  1.00  0.00     0.156 C 
HETATM   47  F1  UNL     1       4.385  -1.613   3.030  1.00  0.00    -0.205 F 
BRANCH  46  48
HETATM   48  C31 UNL     1       2.320  -0.469   3.042  1.00  0.00     0.106 C 
HETATM   49  C32 UNL     1       1.662   0.843   2.626  1.00  0.00     0.053 C 
HETATM   50  C33 UNL     1       1.357  -1.579   3.054  1.00  0.00     0.053 C 
BRANCH  48  51
HETATM   51  O8  UNL     1       2.610  -0.218   4.446  1.00  0.00    -0.383 OA
ATOM     52  H8  UNL     1       1.748  -0.103   4.829  1.00  0.00     0.211 HD
ENDBRANCH  48  51
ENDBRANCH  46  48
ENDBRANCH  12  46
ENDBRANCH  10  12
ENDBRANCH   1  10
TORSDOF 20
