REMARK  12 active torsions:
REMARK  status: ('A' for Active; 'I' for Inactive)
REMARK    1  A    between atoms: C2_2  and  C4_4 
REMARK    2  A    between atoms: C5_5  and  C6_6 
REMARK    3  A    between atoms: C6_6  and  C7_7 
REMARK    4  A    between atoms: C7_7  and  O1_8 
REMARK    5  A    between atoms: C7_7  and  C8_10 
REMARK    6  A    between atoms: C9_11  and  C10_12 
REMARK    7  A    between atoms: C13_15  and  N1_16 
REMARK    8  A    between atoms: C15_18  and  C16_19 
REMARK    9  A    between atoms: C17_20  and  C18_21 
REMARK   10  A    between atoms: C18_21  and  C19_22 
REMARK   11  A    between atoms: C24_31  and  O4_32 
REMARK   12  A    between atoms: C25_34  and  O5_35 
ROOT
HETATM    1  C10 UNL     1      -1.434   0.039   0.497  1.00  0.00     0.061 C 
HETATM    2  C11 UNL     1      -0.640   0.573   1.665  1.00  0.00    -0.018 C 
HETATM    3  C12 UNL     1       0.590   0.065   1.776  1.00  0.00    -0.002 C 
HETATM    4  C13 UNL     1       0.992  -0.937   0.751  1.00  0.00     0.147 C 
HETATM    5  C24 UNL     1       0.635  -0.518  -0.655  1.00  0.00     0.174 C 
HETATM    6  C25 UNL     1      -0.625   0.317  -0.725  1.00  0.00     0.160 C 
ENDROOT
BRANCH   4   7
HETATM    7  N1  UNL     1       2.430  -1.092   0.853  1.00  0.00    -0.298 N 
HETATM    8  C14 UNL     1       3.203  -0.060   0.502  1.00  0.00     0.113 A 
HETATM    9  C15 UNL     1       4.617  -0.120   0.568  1.00  0.00     0.047 A 
HETATM   10  C22 UNL     1       5.109  -1.309   1.014  1.00  0.00     0.261 A 
HETATM   11  O2  UNL     1       6.323  -1.571   1.139  1.00  0.00    -0.267 OA
HETATM   12  N2  UNL     1       4.282  -2.353   1.368  1.00  0.00    -0.275 N 
HETATM   13  C23 UNL     1       2.970  -2.241   1.287  1.00  0.00     0.330 A 
ATOM     14  H2  UNL     1       4.691  -3.227   1.698  1.00  0.00     0.173 HD
HETATM   15  O3  UNL     1       2.174  -3.175   1.602  1.00  0.00    -0.246 OA
BRANCH   9  16
HETATM   16  C16 UNL     1       5.412   0.972   0.129  1.00  0.00     0.014 C 
HETATM   17  C17 UNL     1       6.590   1.426   0.189  1.00  0.00    -0.025 C 
BRANCH  17  18
HETATM   18  C18 UNL     1       7.847   1.050   0.789  1.00  0.00     0.031 C 
BRANCH  18  19
HETATM   19  C19 UNL     1       8.931   0.725  -0.226  1.00  0.00    -0.011 A 
HETATM   20  C20 UNL     1       8.767  -0.367  -1.217  1.00  0.00     0.005 A 
HETATM   21  C21 UNL     1       9.645  -0.573   0.008  1.00  0.00     0.005 A 
ENDBRANCH  18  19
ENDBRANCH  17  18
ENDBRANCH   9  16
ENDBRANCH   4   7
BRANCH   5  22
HETATM   22  O4  UNL     1       0.460  -1.654  -1.472  1.00  0.00    -0.391 OA
ATOM     23  H4  UNL     1       0.235  -1.390  -2.357  1.00  0.00     0.210 HD
ENDBRANCH   5  22
BRANCH   6  24
HETATM   24  O5  UNL     1      -0.243   1.672  -0.670  1.00  0.00    -0.392 OA
ATOM     25  H5  UNL     1       0.272   1.849  -1.448  1.00  0.00     0.210 HD
ENDBRANCH   6  24
BRANCH   1  26
HETATM   26  C9  UNL     1      -2.782   0.626   0.486  1.00  0.00    -0.017 C 
HETATM   27  C8  UNL     1      -3.230   1.338  -0.527  1.00  0.00     0.001 C 
BRANCH  27  28
HETATM   28  C7  UNL     1      -4.594   1.912  -0.496  1.00  0.00     0.144 C 
BRANCH  28  29
HETATM   29  C6  UNL     1      -5.508   0.949  -1.264  1.00  0.00     0.062 C 
BRANCH  29  30
HETATM   30  C5  UNL     1      -6.907   1.365  -1.209  1.00  0.00    -0.027 C 
HETATM   31  C4  UNL     1      -7.976   0.802  -0.747  1.00  0.00    -0.027 C 
BRANCH  31  32
HETATM   32  C2  UNL     1      -8.289  -0.446  -0.092  1.00  0.00    -0.001 C 
HETATM   33  C1  UNL     1      -7.224  -1.416   0.233  1.00  0.00     0.013 C 
HETATM   34  C3  UNL     1      -9.296  -1.206  -0.990  1.00  0.00     0.013 C 
ENDBRANCH  31  32
ENDBRANCH  29  30
ENDBRANCH  28  29
BRANCH  28  35
HETATM   35  O1  UNL     1      -5.040   1.905   0.824  1.00  0.00    -0.391 OA
ATOM     36  H1  UNL     1      -4.474   2.501   1.300  1.00  0.00     0.210 HD
ENDBRANCH  28  35
ENDBRANCH  27  28
ENDBRANCH   1  26
TORSDOF 12
