REMARK  12 active torsions:
REMARK  status: ('A' for Active; 'I' for Inactive)
REMARK    1  A    between atoms: C2_2  and  O1_4 
REMARK    2  A    between atoms: O1_4  and  C4_5 
REMARK    3  A    between atoms: C5_6  and  O2_7 
REMARK    4  A    between atoms: C6_9  and  O3_10 
REMARK    5  A    between atoms: C7_12  and  O4_13 
REMARK    6  A    between atoms: N1_16  and  C9_17 
REMARK    7  A    between atoms: N1_16  and  C18_26 
REMARK    8  A    between atoms: C9_17  and  C10_18 
REMARK    9  A    between atoms: C10_18  and  C11_19 
REMARK   10  A    between atoms: C11_19  and  C12_20 
REMARK   11  A    between atoms: C18_26  and  C19_27 
REMARK   12  A    between atoms: C25_33  and  O5_34 
ROOT
HETATM    1  C4  UNL     1       2.978   0.359  -0.366  1.00  0.00     0.187 C 
HETATM    2  C5  UNL     1       3.336   0.571   1.063  1.00  0.00     0.181 C 
HETATM    3  C6  UNL     1       2.522   1.626   1.768  1.00  0.00     0.183 C 
HETATM    4  C7  UNL     1       1.051   1.167   1.740  1.00  0.00     0.197 C 
HETATM    5  C8  UNL     1       0.639   0.460   0.549  1.00  0.00     0.051 C 
HETATM    6  N1  UNL     1      -0.607   0.127   0.118  1.00  0.00    -0.358 N 
HETATM    7  C25 UNL     1       1.533   0.820  -0.633  1.00  0.00     0.198 C 
ENDROOT
BRANCH   4   8
HETATM    8  O4  UNL     1       0.236   2.228   2.153  1.00  0.00    -0.387 OA
ATOM      9  H4  UNL     1      -0.671   1.945   2.136  1.00  0.00     0.210 HD
ENDBRANCH   4   8
BRANCH   6  10
HETATM   10  C9  UNL     1      -1.232  -0.912   0.937  1.00  0.00     0.128 C 
BRANCH  10  11
HETATM   11  C10 UNL     1      -1.709  -0.574   2.270  1.00  0.00     0.025 C 
BRANCH  11  12
HETATM   12  C11 UNL     1      -2.341  -1.814   2.942  1.00  0.00     0.040 C 
BRANCH  12  13
HETATM   13  C12 UNL     1      -3.492  -2.338   2.180  1.00  0.00    -0.058 A 
HETATM   14  C13 UNL     1      -3.405  -3.322   1.217  1.00  0.00     0.007 A 
HETATM   15  C14 UNL     1      -4.526  -3.760   0.546  1.00  0.00     0.001 A 
HETATM   16  C15 UNL     1      -5.778  -3.259   0.781  1.00  0.00     0.000 A 
HETATM   17  C16 UNL     1      -5.887  -2.274   1.741  1.00  0.00     0.001 A 
HETATM   18  C17 UNL     1      -4.776  -1.828   2.419  1.00  0.00     0.007 A 
ENDBRANCH  12  13
ENDBRANCH  11  12
ENDBRANCH  10  11
ENDBRANCH   6  10
BRANCH   6  19
HETATM   19  C18 UNL     1      -1.660   0.983  -0.226  1.00  0.00     0.102 C 
BRANCH  19  20
HETATM   20  C19 UNL     1      -1.532   1.857  -1.379  1.00  0.00    -0.021 A 
HETATM   21  C20 UNL     1      -1.658   3.253  -1.258  1.00  0.00     0.013 A 
HETATM   22  C21 UNL     1      -1.583   4.117  -2.307  1.00  0.00     0.001 A 
HETATM   23  C22 UNL     1      -1.371   3.653  -3.576  1.00  0.00     0.000 A 
HETATM   24  C23 UNL     1      -1.239   2.293  -3.757  1.00  0.00     0.001 A 
HETATM   25  C24 UNL     1      -1.319   1.436  -2.685  1.00  0.00     0.013 A 
ENDBRANCH  19  20
ENDBRANCH   6  19
BRANCH   7  26
HETATM   26  O5  UNL     1       1.641   2.196  -0.763  1.00  0.00    -0.387 OA
ATOM     27  H5  UNL     1       0.750   2.480  -0.928  1.00  0.00     0.210 HD
ENDBRANCH   7  26
BRANCH   3  28
HETATM   28  O3  UNL     1       2.935   1.659   3.126  1.00  0.00    -0.390 OA
ATOM     29  H3  UNL     1       2.422   2.324   3.570  1.00  0.00     0.210 HD
ENDBRANCH   3  28
BRANCH   1  30
HETATM   30  O1  UNL     1       3.139  -0.902  -0.850  1.00  0.00    -0.376 OA
BRANCH  30  31
HETATM   31  C2  UNL     1       3.962  -1.060  -1.921  1.00  0.00     0.114 C 
HETATM   32  C1  UNL     1       3.381  -1.830  -3.070  1.00  0.00     0.039 C 
HETATM   33  C3  UNL     1       5.186  -1.852  -1.447  1.00  0.00     0.039 C 
ENDBRANCH  30  31
ENDBRANCH   1  30
BRANCH   2  34
HETATM   34  O2  UNL     1       4.683   0.997   1.162  1.00  0.00    -0.390 OA
ATOM     35  H2  UNL     1       4.912   1.132   2.074  1.00  0.00     0.210 HD
ENDBRANCH   2  34
TORSDOF 12
