REMARK  11 active torsions:
REMARK  status: ('A' for Active; 'I' for Inactive)
REMARK    1  A    between atoms: C2_2  and  C3_3 
REMARK    2  A    between atoms: C3_3  and  N1_4 
REMARK    3  A    between atoms: N1_4  and  C4_7 
REMARK    4  A    between atoms: C6_9  and  C7_10 
REMARK    5  A    between atoms: C7_10  and  C8_11 
REMARK    6  A    between atoms: C8_11  and  C9_13 
REMARK    7  A    between atoms: N2_15  and  C11_16 
REMARK    8  A    between atoms: C11_16  and  C12_17 
REMARK    9  A    between atoms: C12_17  and  C13_18 
REMARK   10  A    between atoms: C13_18  and  N3_19 
REMARK   11  A    between atoms: C18_26  and  N5_27 
ROOT
HETATM    1  C9  UNL     1       0.605  -1.445  -0.058  1.00  0.00     0.111 A 
HETATM    2  C10 UNL     1       1.336  -0.263  -0.082  1.00  0.00     0.142 A 
HETATM    3  N2  UNL     1       2.552  -0.475  -0.552  1.00  0.00    -0.191 N 
HETATM    4  C18 UNL     1       2.628  -1.808  -0.842  1.00  0.00     0.678 A 
HETATM    5  N6  UNL     1       1.448  -2.372  -0.537  1.00  0.00    -0.187 N 
ATOM      6  H6  UNL     1       1.225  -3.361  -0.653  1.00  0.00     0.184 HD
ENDROOT
BRANCH   1   7
HETATM    7  C8  UNL     1      -0.778  -1.663   0.332  1.00  0.00     0.178 C 
HETATM    8  O1  UNL     1      -1.235  -2.829   0.147  1.00  0.00    -0.291 OA
BRANCH   7   9
HETATM    9  C7  UNL     1      -1.585  -0.619   0.896  1.00  0.00     0.095 C 
BRANCH   9  10
HETATM   10  C6  UNL     1      -3.038  -0.908   0.992  1.00  0.00    -0.031 C 
HETATM   11  C5  UNL     1      -3.586  -1.171  -0.413  1.00  0.00     0.043 C 
HETATM   12  C4  UNL     1      -5.090  -0.981  -0.318  1.00  0.00     0.191 C 
HETATM   13  C24 UNL     1      -5.634  -1.087   1.050  1.00  0.00     0.024 C 
HETATM   14  C20 UNL     1      -5.146   0.019   1.971  1.00  0.00    -0.007 C 
HETATM   15  C22 UNL     1      -4.963  -2.037   1.983  1.00  0.00    -0.007 C 
HETATM   16  C19 UNL     1      -3.745   0.325   1.587  1.00  0.00     0.015 C 
HETATM   17  C21 UNL     1      -5.207  -1.023   3.087  1.00  0.00     0.010 C 
HETATM   18  C23 UNL     1      -3.442  -2.082   1.827  1.00  0.00     0.015 C 
BRANCH  12  19
HETATM   19  N1  UNL     1      -5.355   0.367  -0.807  1.00  0.00    -0.070 N 
ATOM     20  H12 UNL     1      -4.561   0.726  -1.338  1.00  0.00     0.277 HD
ATOM     21  H11 UNL     1      -5.359   1.040  -0.040  1.00  0.00     0.277 HD
BRANCH  19  22
HETATM   22  C3  UNL     1      -6.580   0.452  -1.581  1.00  0.00     0.232 C 
BRANCH  22  23
HETATM   23  C2  UNL     1      -6.684   1.906  -2.014  1.00  0.00     0.023 C 
HETATM   24  C1  UNL     1      -6.723   2.727  -0.725  1.00  0.00     0.007 C 
ENDBRANCH  22  23
ENDBRANCH  19  22
ENDBRANCH  12  19
ENDBRANCH   9  10
ENDBRANCH   7   9
ENDBRANCH   1   7
BRANCH   3  25
HETATM   25  C11 UNL     1       3.611   0.477  -0.748  1.00  0.00     0.149 C 
BRANCH  25  26
HETATM   26  C12 UNL     1       4.489   0.639   0.470  1.00  0.00     0.051 C 
BRANCH  26  27
HETATM   27  C13 UNL     1       5.616   1.621   0.232  1.00  0.00     0.274 C 
BRANCH  27  28
HETATM   28  N3  UNL     1       6.477   1.215  -0.827  1.00  0.00     0.091 N 
HETATM   29  C14 UNL     1       7.606   2.112  -0.945  1.00  0.00     0.291 C 
HETATM   30  C15 UNL     1       8.497   2.052   0.277  1.00  0.00     0.144 C 
HETATM   31  N4  UNL     1       8.398   0.857   1.039  1.00  0.00    -0.418 N 
HETATM   32  C16 UNL     1       7.967  -0.320   0.376  1.00  0.00     0.144 C 
ATOM     33  H4  UNL     1       8.630   0.846   2.032  1.00  0.00     0.153 HD
HETATM   34  C17 UNL     1       6.973  -0.132  -0.726  1.00  0.00     0.291 C 
ENDBRANCH  27  28
ENDBRANCH  26  27
ENDBRANCH  25  26
ENDBRANCH   3  25
BRANCH   4  35
HETATM   35  N5  UNL     1       3.663  -2.411  -1.320  1.00  0.00    -0.234 N 
ATOM     36  H52 UNL     1       4.559  -1.983  -1.552  1.00  0.00     0.174 HD
ATOM     37  H51 UNL     1       3.720  -3.406  -1.536  1.00  0.00     0.174 HD
ENDBRANCH   4  35
TORSDOF 11
