REMARK  9 active torsions:
REMARK  status: ('A' for Active; 'I' for Inactive)
REMARK    1  A    between atoms: C1_2  and  C2_4 
REMARK    2  A    between atoms: C2_4  and  N1_5 
REMARK    3  A    between atoms: N1_5  and  C3_7 
REMARK    4  A    between atoms: C3_7  and  C4_8 
REMARK    5  A    between atoms: C3_7  and  C16_23 
REMARK    6  A    between atoms: C4_8  and  C5_9 
REMARK    7  A    between atoms: C5_9  and  O3_10 
REMARK    8  A    between atoms: C6_12  and  C7_13 
REMARK       I    between atoms: C16_23  and  N2_25 
REMARK    9  A    between atoms: C19_28  and  C20_29 
ROOT
HETATM    1  C3  UNL     1       1.608   0.095   0.370  1.00  0.00     0.179 C 
ENDROOT
BRANCH   1   2
HETATM    2  N1  UNL     1       1.434   0.559  -0.890  1.00  0.00    -0.380 N 
ATOM      3  H1  UNL     1       1.473  -0.142  -1.630  1.00  0.00     0.160 HD
BRANCH   2   4
HETATM    4  C2  UNL     1       1.208   1.873  -1.309  1.00  0.00     0.169 C 
BRANCH   4   5
HETATM    5  C1  UNL     1       1.477   1.876  -2.797  1.00  0.00     0.214 C 
HETATM    6  O1  UNL     1       1.157   0.894  -3.465  1.00  0.00    -0.644 OA
HETATM    7  O2  UNL     1       2.075   2.979  -3.358  1.00  0.00    -0.644 OA
ENDBRANCH   4   5
ENDBRANCH   2   4
ENDBRANCH   1   2
BRANCH   1   8
HETATM    8  C4  UNL     1       0.398   0.063   1.334  1.00  0.00     0.099 C 
BRANCH   8   9
HETATM    9  C5  UNL     1      -0.645  -0.902   1.058  1.00  0.00     0.048 C 
HETATM   10  C6  UNL     1      -1.915  -0.932   0.448  1.00  0.00     0.064 C 
BRANCH   9  11
HETATM   11  O3  UNL     1      -0.033  -2.244   1.060  1.00  0.00    -0.365 OA
ATOM     12  H3  UNL     1      -0.718  -2.877   0.879  1.00  0.00     0.217 HD
ENDBRANCH   9  11
BRANCH  10  13
HETATM   13  C7  UNL     1      -3.095  -0.184   0.900  1.00  0.00     0.050 C 
HETATM   14  C8  UNL     1      -3.071   1.255   0.839  1.00  0.00     0.065 C 
HETATM   15  C9  UNL     1      -4.422   1.938   0.970  1.00  0.00     0.009 C 
HETATM   16  C10 UNL     1      -5.587   1.086   0.611  1.00  0.00     0.039 C 
HETATM   17  C11 UNL     1      -5.275  -0.237   0.006  1.00  0.00     0.067 C 
HETATM   18  C12 UNL     1      -5.176  -0.107  -1.486  1.00  0.00     0.038 C 
HETATM   19  C15 UNL     1      -6.503  -1.149   0.240  1.00  0.00     0.038 C 
HETATM   20  O4  UNL     1      -4.231  -0.888   0.567  1.00  0.00    -0.344 OA
HETATM   21  C13 UNL     1      -6.474  -0.659  -2.049  1.00  0.00     0.003 C 
HETATM   22  C14 UNL     1      -6.811  -1.774  -1.104  1.00  0.00     0.003 C 
ENDBRANCH  10  13
ENDBRANCH   8   9
ENDBRANCH   1   8
BRANCH   1  23
HETATM   23  C16 UNL     1       2.763   0.663   1.126  1.00  0.00     0.242 C 
HETATM   24  O5  UNL     1       2.565   1.647   1.874  1.00  0.00    -0.271 OA
HETATM   25  N2  UNL     1       4.038   0.047   0.936  1.00  0.00    -0.350 N 
HETATM   26  C17 UNL     1       4.244  -0.729  -0.267  1.00  0.00     0.127 C 
HETATM   27  C22 UNL     1       5.027   0.168   1.977  1.00  0.00     0.127 C 
HETATM   28  C18 UNL     1       5.680  -0.949  -0.645  1.00  0.00     0.035 C 
HETATM   29  C19 UNL     1       6.672  -0.282   0.275  1.00  0.00     0.090 C 
HETATM   30  C21 UNL     1       6.224  -0.725   1.683  1.00  0.00     0.035 C 
BRANCH  29  31
HETATM   31  C20 UNL     1       8.010  -0.748  -0.057  1.00  0.00     0.177 C 
HETATM   32  O6  UNL     1       8.192  -1.650  -0.931  1.00  0.00    -0.648 OA
HETATM   33  O7  UNL     1       9.135  -0.233   0.558  1.00  0.00    -0.648 OA
ENDBRANCH  29  31
ENDBRANCH   1  23
TORSDOF 9
