REMARK  9 active torsions:
REMARK  status: ('A' for Active; 'I' for Inactive)
REMARK    1  A    between atoms: C1_2  and  C2_4 
REMARK    2  A    between atoms: C2_4  and  C3_5 
REMARK    3  A    between atoms: N2_11  and  C9_12 
REMARK    4  A    between atoms: C9_12  and  C10_13 
REMARK    5  A    between atoms: C10_13  and  O2_14 
REMARK    6  A    between atoms: O2_14  and  C11_15 
REMARK    7  A    between atoms: C11_15  and  O3_16 
REMARK    8  A    between atoms: C11_15  and  C12_18 
REMARK    9  A    between atoms: C11_15  and  C18_24 
ROOT
HETATM    1  O2  UNL     1      -1.797  -0.665   0.776  1.00  0.00    -0.346 OA
ENDROOT
BRANCH   1   2
HETATM    2  C10 UNL     1      -0.993  -1.612   0.243  1.00  0.00     0.202 C 
BRANCH   2   3
HETATM    3  C9  UNL     1      -0.099  -1.244  -0.888  1.00  0.00     0.298 C 
BRANCH   3   4
HETATM    4  N2  UNL     1       0.812  -0.180  -0.537  1.00  0.00     0.090 N 
HETATM    5  C8  UNL     1       1.675   0.177  -1.642  1.00  0.00     0.273 C 
HETATM    6  C7  UNL     1       3.131  -0.057  -1.338  1.00  0.00     0.049 C 
HETATM    7  C2  UNL     1       3.574   0.711  -0.100  1.00  0.00     0.045 C 
HETATM    8  C25 UNL     1       2.466   0.764   0.875  1.00  0.00     0.049 C 
HETATM    9  C24 UNL     1       1.558  -0.432   0.664  1.00  0.00     0.273 C 
BRANCH   7  10
HETATM   10  C1  UNL     1       3.849   2.127  -0.553  1.00  0.00     0.240 C 
HETATM   11  N1  UNL     1       4.757   2.344  -1.623  1.00  0.00    -0.061 NA
HETATM   12  O1  UNL     1       3.299   3.114  -0.012  1.00  0.00    -0.276 OA
ENDBRANCH   7  10
BRANCH   7  13
HETATM   13  C3  UNL     1       4.867   0.155   0.340  1.00  0.00     0.003 C 
HETATM   14  C4  UNL     1       4.973  -1.222   0.869  1.00  0.00     0.006 C 
HETATM   15  C5  UNL     1       6.177  -0.710   1.684  1.00  0.00     0.001 C 
HETATM   16  C6  UNL     1       5.451   0.647   1.648  1.00  0.00     0.006 C 
ENDBRANCH   7  13
ENDBRANCH   3   4
ENDBRANCH   2   3
ENDBRANCH   1   2
BRANCH   1  17
HETATM   17  C11 UNL     1      -2.738  -0.056   0.017  1.00  0.00     0.220 C 
BRANCH  17  18
HETATM   18  O3  UNL     1      -2.267   0.650  -1.080  1.00  0.00    -0.358 OA
ATOM     19  H3  UNL     1      -2.927   1.077  -1.613  1.00  0.00     0.213 HD
ENDBRANCH  17  18
BRANCH  17  20
HETATM   20  C12 UNL     1      -3.733  -1.044  -0.545  1.00  0.00     0.008 A 
HETATM   21  C13 UNL     1      -4.032  -1.108  -1.887  1.00  0.00     0.013 A 
HETATM   22  C14 UNL     1      -4.925  -1.988  -2.436  1.00  0.00     0.001 A 
HETATM   23  C15 UNL     1      -5.564  -2.865  -1.581  1.00  0.00     0.000 A 
HETATM   24  C16 UNL     1      -5.304  -2.847  -0.223  1.00  0.00     0.001 A 
HETATM   25  C17 UNL     1      -4.396  -1.942   0.281  1.00  0.00     0.013 A 
ENDBRANCH  17  20
BRANCH  17  26
HETATM   26  C18 UNL     1      -3.511   0.946   0.834  1.00  0.00     0.008 A 
HETATM   27  C19 UNL     1      -3.272   1.097   2.180  1.00  0.00     0.013 A 
HETATM   28  C20 UNL     1      -3.973   2.010   2.951  1.00  0.00     0.001 A 
HETATM   29  C21 UNL     1      -4.944   2.797   2.352  1.00  0.00     0.000 A 
HETATM   30  C22 UNL     1      -5.199   2.663   1.006  1.00  0.00     0.001 A 
HETATM   31  C23 UNL     1      -4.476   1.733   0.253  1.00  0.00     0.013 A 
ENDBRANCH  17  26
ENDBRANCH   1  17
TORSDOF 9
