REMARK  8 active torsions:
REMARK  status: ('A' for Active; 'I' for Inactive)
REMARK    1  A    between atoms: N1_2  and  C2_5 
REMARK    2  A    between atoms: C6_10  and  C7_11 
REMARK    3  A    between atoms: C7_11  and  O2_12 
REMARK    4  A    between atoms: N2_16  and  C10_17 
REMARK    5  A    between atoms: C10_17  and  C11_18 
REMARK    6  A    between atoms: C11_18  and  C12_19 
REMARK    7  A    between atoms: C12_19  and  C13_20 
REMARK    8  A    between atoms: C12_19  and  C19_26 
ROOT
HETATM    1  C2  UNL     1      -3.960   0.113   0.668  1.00  0.00     0.202 C 
HETATM    2  C3  UNL     1      -5.068   0.234  -0.308  1.00  0.00     0.037 C 
HETATM    3  C4  UNL     1      -4.834  -0.394  -1.645  1.00  0.00     0.035 C 
HETATM    4  C5  UNL     1      -3.426  -0.421  -2.105  1.00  0.00     0.132 C 
HETATM    5  O1  UNL     1      -2.876  -1.658  -1.769  1.00  0.00    -0.377 OA
HETATM    6  C6  UNL     1      -2.485  -1.597  -0.451  1.00  0.00     0.161 C 
HETATM    7  C8  UNL     1      -2.655  -0.199   0.049  1.00  0.00     0.059 C 
HETATM    8  C9  UNL     1      -1.444   0.354   0.723  1.00  0.00     0.083 C 
HETATM    9  N2  UNL     1      -0.554   0.610  -0.339  1.00  0.00    -0.353 N 
HETATM   10  C25 UNL     1      -1.159   0.553  -1.580  1.00  0.00     0.076 C 
HETATM   11  C26 UNL     1      -2.630   0.562  -1.285  1.00  0.00     0.072 C 
ENDROOT
BRANCH   9  12
HETATM   12  C10 UNL     1       0.762   0.953  -0.112  1.00  0.00     0.069 C 
BRANCH  12  13
HETATM   13  C11 UNL     1       1.670  -0.077   0.463  1.00  0.00     0.059 C 
BRANCH  13  14
HETATM   14  C12 UNL     1       3.079   0.430   0.654  1.00  0.00     0.056 C 
BRANCH  14  15
HETATM   15  C13 UNL     1       3.959  -0.597   1.255  1.00  0.00    -0.049 A 
HETATM   16  C14 UNL     1       3.655  -1.010   2.533  1.00  0.00     0.008 A 
HETATM   17  C15 UNL     1       4.466  -1.955   3.122  1.00  0.00     0.001 A 
HETATM   18  C16 UNL     1       5.563  -2.498   2.481  1.00  0.00     0.000 A 
HETATM   19  C17 UNL     1       5.879  -2.095   1.204  1.00  0.00     0.001 A 
HETATM   20  C18 UNL     1       5.044  -1.135   0.622  1.00  0.00     0.008 A 
ENDBRANCH  14  15
BRANCH  14  21
HETATM   21  C19 UNL     1       3.667   1.076  -0.515  1.00  0.00    -0.049 A 
HETATM   22  C20 UNL     1       4.372   2.258  -0.452  1.00  0.00     0.008 A 
HETATM   23  C21 UNL     1       4.923   2.847  -1.579  1.00  0.00     0.001 A 
HETATM   24  C22 UNL     1       4.761   2.233  -2.802  1.00  0.00     0.000 A 
HETATM   25  C23 UNL     1       4.052   1.032  -2.911  1.00  0.00     0.001 A 
HETATM   26  C24 UNL     1       3.524   0.485  -1.763  1.00  0.00     0.008 A 
ENDBRANCH  14  21
ENDBRANCH  13  14
ENDBRANCH  12  13
ENDBRANCH   9  12
BRANCH   1  27
HETATM   27  N1  UNL     1      -3.812   1.391   1.368  1.00  0.00    -0.074 N 
HETATM   28  C1  UNL     1      -5.006   1.713   2.121  1.00  0.00     0.267 C 
ATOM     29  H12 UNL     1      -3.557   2.143   0.728  1.00  0.00     0.277 HD
ATOM     30  H11 UNL     1      -2.981   1.402   1.959  1.00  0.00     0.277 HD
ENDBRANCH   1  27
BRANCH   6  31
HETATM   31  C7  UNL     1      -3.166  -2.642   0.383  1.00  0.00     0.197 C 
BRANCH  31  32
HETATM   32  O2  UNL     1      -2.780  -2.592   1.720  1.00  0.00    -0.398 OA
ATOM     33  H2  UNL     1      -3.211  -3.254   2.248  1.00  0.00     0.209 HD
ENDBRANCH  31  32
ENDBRANCH   6  31
TORSDOF 8
