REMARK  9 active torsions:
REMARK  status: ('A' for Active; 'I' for Inactive)
REMARK    1  A    between atoms: O1_1  and  C1_3 
REMARK    2  A    between atoms: C1_3  and  C2_4 
REMARK    3  A    between atoms: C1_3  and  C21_27 
REMARK    4  A    between atoms: C2_4  and  N1_5 
REMARK    5  A    between atoms: N1_5  and  C3_8 
REMARK    6  A    between atoms: C3_8  and  C4_9 
REMARK    7  A    between atoms: C4_9  and  C5_10 
REMARK    8  A    between atoms: N2_14  and  C9_15 
REMARK    9  A    between atoms: C21_27  and  N3_28 
ROOT
HETATM    1  C5  UNL     1      -0.918  -2.004   0.324  1.00  0.00     0.015 C 
HETATM    2  C6  UNL     1      -1.573  -2.876  -0.762  1.00  0.00     0.008 C 
HETATM    3  C7  UNL     1      -1.601  -2.108  -2.078  1.00  0.00     0.031 C 
HETATM    4  C8  UNL     1      -2.277  -0.771  -1.894  1.00  0.00     0.273 C 
HETATM    5  N2  UNL     1      -2.822  -0.763  -0.538  1.00  0.00     0.097 N 
HETATM    6  C20 UNL     1      -1.620  -0.697   0.314  1.00  0.00     0.278 C 
ENDROOT
BRANCH   1   7
HETATM    7  C4  UNL     1       0.528  -2.018   0.046  1.00  0.00     0.034 C 
BRANCH   7   8
HETATM    8  C3  UNL     1       1.405  -1.223   0.972  1.00  0.00     0.232 C 
BRANCH   8   9
HETATM    9  N1  UNL     1       2.759  -1.411   0.491  1.00  0.00    -0.073 N 
ATOM     10  H12 UNL     1       2.821  -1.186  -0.502  1.00  0.00     0.277 HD
ATOM     11  H11 UNL     1       2.993  -2.403   0.458  1.00  0.00     0.277 HD
BRANCH   9  12
HETATM   12  C2  UNL     1       3.754  -0.681   1.238  1.00  0.00     0.265 C 
BRANCH  12  13
HETATM   13  C1  UNL     1       5.095  -1.063   0.597  1.00  0.00     0.172 C 
BRANCH  13  14
HETATM   14  O1  UNL     1       5.252  -2.455   0.727  1.00  0.00    -0.392 OA
ATOM     15  H1  UNL     1       6.082  -2.691   0.330  1.00  0.00     0.210 HD
ENDBRANCH  13  14
BRANCH  13  16
HETATM   16  C21 UNL     1       6.258  -0.343   1.210  1.00  0.00     0.305 C 
BRANCH  16  17
HETATM   17  N3  UNL     1       6.178   1.100   1.107  1.00  0.00     0.090 N 
HETATM   18  C22 UNL     1       6.317   1.583  -0.248  1.00  0.00     0.272 C 
HETATM   19  C23 UNL     1       7.704   2.121  -0.383  1.00  0.00     0.032 C 
HETATM   20  C24 UNL     1       8.333   1.944   0.958  1.00  0.00     0.032 C 
HETATM   21  C25 UNL     1       7.184   1.758   1.890  1.00  0.00     0.272 C 
ENDBRANCH  16  17
ENDBRANCH  13  16
ENDBRANCH  12  13
ENDBRANCH   9  12
ENDBRANCH   8   9
ENDBRANCH   7   8
ENDBRANCH   1   7
BRANCH   5  22
HETATM   22  C9  UNL     1      -3.660   0.337  -0.255  1.00  0.00     0.256 C 
HETATM   23  C10 UNL     1      -3.867   0.506   1.236  1.00  0.00     0.041 C 
HETATM   24  C11 UNL     1      -5.228   1.097   1.538  1.00  0.00     0.003 C 
HETATM   25  C12 UNL     1      -5.346   2.556   1.185  1.00  0.00     0.005 C 
HETATM   26  C13 UNL     1      -5.669   2.723  -0.308  1.00  0.00     0.039 C 
HETATM   27  C14 UNL     1      -5.874   1.348  -0.910  1.00  0.00    -0.050 A 
HETATM   28  C15 UNL     1      -7.100   1.234  -1.518  1.00  0.00     0.007 A 
HETATM   29  C19 UNL     1      -4.998   0.284  -0.886  1.00  0.00    -0.019 A 
HETATM   30  C16 UNL     1      -7.476   0.044  -2.117  1.00  0.00     0.001 A 
HETATM   31  C17 UNL     1      -6.579  -1.013  -2.080  1.00  0.00     0.001 A 
HETATM   32  C18 UNL     1      -5.352  -0.896  -1.470  1.00  0.00     0.010 A 
ENDBRANCH   5  22
TORSDOF 9
