REMARK  10 active torsions:
REMARK  status: ('A' for Active; 'I' for Inactive)
REMARK    1  A    between atoms: C3_4  and  O2_5 
REMARK    2  A    between atoms: O2_5  and  C4_6 
REMARK    3  A    between atoms: C7_9  and  C8_10 
REMARK    4  A    between atoms: C9_11  and  C10_12 
REMARK    5  A    between atoms: C9_11  and  C21_23 
REMARK    6  A    between atoms: C10_12  and  C11_13 
REMARK    7  A    between atoms: C12_14  and  C13_15 
REMARK    8  A    between atoms: C14_16  and  C15_17 
REMARK    9  A    between atoms: C25_29  and  O5_30 
REMARK   10  A    between atoms: C26_32  and  O6_33 
ROOT
HETATM    1  C4  UNL     1      -2.665  -0.624  -0.487  1.00  0.00     0.072 A 
HETATM    2  C5  UNL     1      -2.423   0.001   0.712  1.00  0.00     0.037 A 
HETATM    3  C6  UNL     1      -1.166  -0.018   1.295  1.00  0.00     0.014 A 
HETATM    4  C7  UNL     1      -0.090  -0.676   0.682  1.00  0.00    -0.035 A 
HETATM    5  C22 UNL     1      -0.346  -1.298  -0.521  1.00  0.00     0.014 A 
HETATM    6  C23 UNL     1      -1.592  -1.284  -1.106  1.00  0.00     0.037 A 
ENDROOT
BRANCH   4   7
HETATM    7  C8  UNL     1       1.204  -0.598   1.319  1.00  0.00     0.025 C 
HETATM    8  C9  UNL     1       1.950  -1.585   1.699  1.00  0.00     0.022 C 
BRANCH   8   9
HETATM    9  C10 UNL     1       3.294  -1.244   2.347  1.00  0.00     0.072 C 
BRANCH   9  10
HETATM   10  C11 UNL     1       4.394  -1.720   1.531  1.00  0.00    -0.022 C 
HETATM   11  C12 UNL     1       5.327  -0.956   0.998  1.00  0.00    -0.004 C 
BRANCH  11  12
HETATM   12  C13 UNL     1       5.350   0.454   1.175  1.00  0.00     0.001 C 
HETATM   13  C14 UNL     1       6.173   1.335   0.722  1.00  0.00     0.011 C 
BRANCH  13  14
HETATM   14  C15 UNL     1       7.339   1.306  -0.101  1.00  0.00    -0.036 A 
HETATM   15  C16 UNL     1       7.804   0.256  -0.821  1.00  0.00     0.011 A 
HETATM   16  C17 UNL     1       8.993   0.272  -1.572  1.00  0.00     0.001 A 
HETATM   17  C18 UNL     1       9.748   1.406  -1.596  1.00  0.00     0.000 A 
HETATM   18  C19 UNL     1       9.300   2.489  -0.876  1.00  0.00     0.001 A 
HETATM   19  C20 UNL     1       8.140   2.469  -0.145  1.00  0.00     0.011 A 
ENDBRANCH  13  14
ENDBRANCH  11  12
ENDBRANCH   9  10
ENDBRANCH   8   9
BRANCH   8  20
HETATM   20  C21 UNL     1       1.608  -2.970   1.655  1.00  0.00     0.205 C 
HETATM   21  O3  UNL     1       2.447  -3.877   2.051  1.00  0.00    -0.644 OA
HETATM   22  O4  UNL     1       0.414  -3.533   1.221  1.00  0.00    -0.644 OA
ENDBRANCH   8  20
ENDBRANCH   4   7
BRANCH   1  23
HETATM   23  O2  UNL     1      -3.911  -0.612  -1.076  1.00  0.00    -0.320 OA
BRANCH  23  24
HETATM   24  C3  UNL     1      -5.056  -0.013  -0.587  1.00  0.00     0.269 C 
HETATM   25  O1  UNL     1      -5.582   0.946  -1.492  1.00  0.00    -0.353 OA
HETATM   26  C2  UNL     1      -6.527   1.678  -0.752  1.00  0.00     0.151 C 
HETATM   27  C1  UNL     1      -7.172   2.764  -1.559  1.00  0.00     0.042 C 
HETATM   28  C26 UNL     1      -7.598   0.757  -0.193  1.00  0.00     0.175 C 
HETATM   29  C25 UNL     1      -7.414  -0.586  -0.847  1.00  0.00     0.154 C 
HETATM   30  C24 UNL     1      -6.084  -1.137  -0.382  1.00  0.00     0.095 C 
BRANCH  28  31
HETATM   31  O6  UNL     1      -8.872   1.283  -0.450  1.00  0.00    -0.390 OA
ATOM     32  H6  UNL     1      -9.542   0.707  -0.100  1.00  0.00     0.210 HD
ENDBRANCH  28  31
BRANCH  29  33
HETATM   33  O5  UNL     1      -8.457  -1.466  -0.588  1.00  0.00    -0.393 OA
ATOM     34  H5  UNL     1      -9.292  -1.120  -0.880  1.00  0.00     0.210 HD
ENDBRANCH  29  33
ENDBRANCH  23  24
ENDBRANCH   1  23
TORSDOF 10
