REMARK  9 active torsions:
REMARK  status: ('A' for Active; 'I' for Inactive)
REMARK    1  A    between atoms: C1_4  and  C2_6 
REMARK    2  A    between atoms: C5_9  and  O1_10 
REMARK    3  A    between atoms: O1_10  and  C6_11 
REMARK    4  A    between atoms: C6_11  and  C7_12 
REMARK    5  A    between atoms: C7_12  and  O2_13 
REMARK    6  A    between atoms: C7_12  and  C8_15 
REMARK    7  A    between atoms: C8_15  and  N3_16 
REMARK    8  A    between atoms: C11_19  and  C12_20 
REMARK    9  A    between atoms: C17_25  and  N4_26 
ROOT
HETATM    1  N3  UNL     1       0.621   0.046  -0.732  1.00  0.00    -0.391 N 
HETATM    2  C9  UNL     1       0.450  -0.042   0.673  1.00  0.00     0.122 C 
HETATM    3  C10 UNL     1      -0.668  -0.993   1.013  1.00  0.00     0.029 C 
HETATM    4  C11 UNL     1      -1.953  -0.770   0.303  1.00  0.00     0.024 C 
HETATM    5  C23 UNL     1      -1.716  -0.302  -1.123  1.00  0.00     0.029 C 
HETATM    6  C24 UNL     1      -0.289  -0.717  -1.508  1.00  0.00     0.122 C 
ENDROOT
BRANCH   1   7
HETATM    7  C8  UNL     1       1.850   0.361  -1.286  1.00  0.00     0.091 C 
BRANCH   7   8
HETATM    8  C7  UNL     1       2.418   1.721  -1.128  1.00  0.00     0.180 C 
BRANCH   8   9
HETATM    9  C6  UNL     1       2.834   2.133   0.239  1.00  0.00     0.212 C 
BRANCH   9  10
HETATM   10  O1  UNL     1       3.615   1.293   0.971  1.00  0.00    -0.348 OA
BRANCH  10  11
HETATM   11  C5  UNL     1       4.846   0.756   0.865  1.00  0.00     0.068 A 
HETATM   12  C4  UNL     1       5.760   0.970  -0.161  1.00  0.00     0.037 A 
HETATM   13  C3  UNL     1       6.995   0.364  -0.166  1.00  0.00     0.017 A 
HETATM   14  C2  UNL     1       7.360  -0.478   0.854  1.00  0.00     0.005 A 
HETATM   15  C26 UNL     1       6.460  -0.699   1.881  1.00  0.00     0.017 A 
HETATM   16  C25 UNL     1       5.236  -0.109   1.903  1.00  0.00     0.037 A 
BRANCH  14  17
HETATM   17  C1  UNL     1       8.662  -1.121   0.855  1.00  0.00     0.120 C 
HETATM   18  N1  UNL     1       8.973  -1.901   1.813  1.00  0.00    -0.387 N 
ATOM     19  H12 UNL     1       9.888  -2.353   1.814  1.00  0.00     0.157 HD
ATOM     20  H11 UNL     1       8.316  -2.075   2.573  1.00  0.00     0.157 HD
HETATM   21  N2  UNL     1       9.569  -0.881  -0.194  1.00  0.00    -0.082 NA
ENDBRANCH  14  17
ENDBRANCH  10  11
ENDBRANCH   9  10
ENDBRANCH   8   9
BRANCH   8  22
HETATM   22  O2  UNL     1       1.596   2.738  -1.654  1.00  0.00    -0.388 OA
ATOM     23  H2  UNL     1       1.330   2.475  -2.527  1.00  0.00     0.210 HD
ENDBRANCH   8  22
ENDBRANCH   7   8
ENDBRANCH   1   7
BRANCH   4  24
HETATM   24  C12 UNL     1      -2.917   0.127   0.995  1.00  0.00    -0.027 A 
HETATM   25  C13 UNL     1      -2.514   0.832   2.106  1.00  0.00     0.010 A 
HETATM   26  C14 UNL     1      -3.353   1.701   2.786  1.00  0.00     0.001 A 
HETATM   27  C15 UNL     1      -4.637   1.856   2.326  1.00  0.00     0.002 A 
HETATM   28  C16 UNL     1      -5.037   1.157   1.227  1.00  0.00     0.030 A 
HETATM   29  C17 UNL     1      -4.189   0.272   0.531  1.00  0.00     0.036 A 
BRANCH  29  30
HETATM   30  N4  UNL     1      -4.751  -0.412  -0.589  1.00  0.00    -0.380 N 
HETATM   31  C18 UNL     1      -4.958  -1.837  -0.561  1.00  0.00     0.123 C 
HETATM   32  C19 UNL     1      -6.348  -2.212  -1.039  1.00  0.00     0.020 C 
HETATM   33  C20 UNL     1      -7.235  -0.997  -1.181  1.00  0.00     0.003 C 
HETATM   34  C21 UNL     1      -6.635   0.070  -2.067  1.00  0.00     0.020 C 
HETATM   35  C22 UNL     1      -5.165   0.298  -1.785  1.00  0.00     0.123 C 
ENDBRANCH  29  30
ENDBRANCH   4  24
TORSDOF 9
