REMARK  10 active torsions:
REMARK  status: ('A' for Active; 'I' for Inactive)
REMARK    1  A    between atoms: N1_2  and  C3_4 
REMARK    2  A    between atoms: C3_4  and  N2_6 
REMARK    3  A    between atoms: N2_6  and  C4_8 
REMARK    4  A    between atoms: C4_8  and  C5_9 
REMARK    5  A    between atoms: C4_8  and  C19_31 
REMARK    6  A    between atoms: C5_9  and  N3_10 
REMARK    7  A    between atoms: N3_10  and  C6_13 
REMARK    8  A    between atoms: C8_15  and  N4_16 
REMARK    9  A    between atoms: N4_16  and  C9_19 
REMARK   10  A    between atoms: C9_19  and  C10_20 
ROOT
HETATM    1  C10 UNL     1       5.664   0.776  -0.145  1.00  0.00    -0.012 A 
HETATM    2  C11 UNL     1       6.325  -0.123  -0.964  1.00  0.00     0.010 A 
HETATM    3  C12 UNL     1       7.586   0.208  -1.373  1.00  0.00     0.001 A 
HETATM    4  C13 UNL     1       8.157   1.396  -0.972  1.00  0.00     0.002 A 
HETATM    5  C14 UNL     1       7.481   2.289  -0.148  1.00  0.00     0.023 A 
HETATM    6  C15 UNL     1       6.219   1.965   0.265  1.00  0.00     0.052 A 
HETATM    7  C16 UNL     1       5.500   2.864   1.117  1.00  0.00     0.100 C 
HETATM    8  N5  UNL     1       4.918   3.593   1.782  1.00  0.00    -0.191 NA
ENDROOT
BRANCH   1   9
HETATM    9  C9  UNL     1       4.265   0.488   0.337  1.00  0.00     0.272 C 
BRANCH   9  10
HETATM   10  N4  UNL     1       3.888  -0.809  -0.194  1.00  0.00    -0.067 N 
ATOM     11  H42 UNL     1       4.560  -1.531   0.067  1.00  0.00     0.277 HD
ATOM     12  H41 UNL     1       4.003  -0.847  -1.207  1.00  0.00     0.277 HD
BRANCH  10  13
HETATM   13  C8  UNL     1       2.524  -1.172   0.207  1.00  0.00     0.192 C 
HETATM   14  C7  UNL     1       1.604  -0.180  -0.390  1.00  0.00     0.094 C 
HETATM   15  C6  UNL     1       0.190  -0.607  -0.581  1.00  0.00     0.322 C 
HETATM   16  O1  UNL     1       0.013  -1.918  -0.894  1.00  0.00    -0.359 OA
HETATM   17  C18 UNL     1       0.749  -2.857  -0.242  1.00  0.00     0.172 C 
HETATM   18  C17 UNL     1       2.237  -2.554  -0.277  1.00  0.00     0.059 C 
BRANCH  15  19
HETATM   19  N3  UNL     1      -0.592  -0.201   0.597  1.00  0.00    -0.047 N 
ATOM     20  H32 UNL     1      -0.671   0.814   0.653  1.00  0.00     0.280 HD
ATOM     21  H31 UNL     1      -0.074  -0.373   1.459  1.00  0.00     0.280 HD
BRANCH  19  22
HETATM   22  C5  UNL     1      -1.856  -0.809   0.637  1.00  0.00     0.265 C 
BRANCH  22  23
HETATM   23  C4  UNL     1      -3.001  -0.398  -0.178  1.00  0.00     0.143 C 
BRANCH  23  24
HETATM   24  N2  UNL     1      -3.644   0.839  -0.018  1.00  0.00    -0.357 N 
ATOM     25  H2  UNL     1      -4.579   0.773   0.385  1.00  0.00     0.162 HD
BRANCH  24  26
HETATM   26  C3  UNL     1      -3.241   2.141  -0.308  1.00  0.00     0.169 C 
HETATM   27  S1  UNL     1      -1.817   2.492  -0.987  1.00  0.00    -0.041 SA
BRANCH  26  28
HETATM   28  N1  UNL     1      -4.141   3.259  -0.017  1.00  0.00    -0.367 N 
HETATM   29  C1  UNL     1      -3.696   4.589  -0.329  1.00  0.00     0.151 C 
HETATM   30  C2  UNL     1      -5.446   3.048   0.568  1.00  0.00     0.151 C 
ENDBRANCH  26  28
ENDBRANCH  24  26
ENDBRANCH  23  24
BRANCH  23  31
HETATM   31  C19 UNL     1      -4.029  -1.511  -0.042  1.00  0.00    -0.034 A 
HETATM   32  C20 UNL     1      -4.068  -2.554  -0.947  1.00  0.00     0.009 A 
HETATM   33  C21 UNL     1      -4.994  -3.564  -0.816  1.00  0.00     0.001 A 
HETATM   34  C22 UNL     1      -5.903  -3.564   0.217  1.00  0.00     0.000 A 
HETATM   35  C23 UNL     1      -5.868  -2.530   1.117  1.00  0.00     0.001 A 
HETATM   36  C24 UNL     1      -4.939  -1.520   0.983  1.00  0.00     0.009 A 
ENDBRANCH  23  31
ENDBRANCH  22  23
ENDBRANCH  19  22
ENDBRANCH  15  19
ENDBRANCH  10  13
ENDBRANCH   9  10
ENDBRANCH   1   9
TORSDOF 10
