REMARK  11 active torsions:
REMARK  status: ('A' for Active; 'I' for Inactive)
REMARK    1  A    between atoms: C2_2  and  O1_4 
REMARK    2  A    between atoms: C2_2  and  C4_6 
REMARK    3  A    between atoms: C4_6  and  O2_7 
REMARK    4  A    between atoms: C4_6  and  C15_18 
REMARK    5  A    between atoms: O2_7  and  C5_8 
REMARK    6  A    between atoms: C15_18  and  O3_19 
REMARK    7  A    between atoms: C15_18  and  C16_21 
REMARK    8  A    between atoms: C16_21  and  N1_22 
REMARK    9  A    between atoms: C18_24  and  O4_25 
REMARK   10  A    between atoms: C20_28  and  C21_29 
REMARK   11  A    between atoms: C21_29  and  C22_30 
ROOT
HETATM    1  C15 UNL     1      -0.406  -0.627   0.924  1.00  0.00     0.168 C 
ENDROOT
BRANCH   1   2
HETATM    2  C4  UNL     1      -1.306  -0.862  -0.264  1.00  0.00     0.192 C 
BRANCH   2   3
HETATM    3  C2  UNL     1      -1.083  -2.176  -0.972  1.00  0.00     0.080 C 
HETATM    4  C1  UNL     1      -1.495  -3.322  -0.050  1.00  0.00     0.048 C 
HETATM    5  C3  UNL     1      -2.054  -2.263  -2.159  1.00  0.00     0.048 C 
BRANCH   3   6
HETATM    6  O1  UNL     1       0.155  -2.413  -1.463  1.00  0.00    -0.388 OA
ATOM      7  H1  UNL     1       0.411  -1.700  -2.036  1.00  0.00     0.210 HD
ENDBRANCH   3   6
ENDBRANCH   2   3
BRANCH   2   8
HETATM    8  O2  UNL     1      -2.668  -0.780   0.137  1.00  0.00    -0.340 OA
BRANCH   8   9
HETATM    9  C5  UNL     1      -3.622   0.092  -0.304  1.00  0.00     0.070 A 
HETATM   10  C6  UNL     1      -3.405   1.065  -1.238  1.00  0.00     0.037 A 
HETATM   11  C7  UNL     1      -4.414   1.944  -1.666  1.00  0.00     0.015 A 
HETATM   12  C8  UNL     1      -5.666   1.807  -1.113  1.00  0.00    -0.026 A 
HETATM   13  C9  UNL     1      -6.692   2.645  -1.498  1.00  0.00     0.012 A 
HETATM   14  C13 UNL     1      -5.930   0.841  -0.167  1.00  0.00    -0.023 A 
HETATM   15  C10 UNL     1      -7.946   2.511  -0.947  1.00  0.00     0.001 A 
HETATM   16  C11 UNL     1      -8.216   1.546  -0.002  1.00  0.00     0.001 A 
HETATM   17  C12 UNL     1      -7.205   0.700   0.397  1.00  0.00     0.012 A 
HETATM   18  C14 UNL     1      -4.918  -0.001   0.227  1.00  0.00     0.049 A 
ENDBRANCH   8   9
ENDBRANCH   2   8
ENDBRANCH   1   2
BRANCH   1  19
HETATM   19  O3  UNL     1      -0.614  -1.600   1.878  1.00  0.00    -0.391 OA
ATOM     20  H3  UNL     1      -0.047  -1.452   2.626  1.00  0.00     0.210 HD
ENDBRANCH   1  19
BRANCH   1  21
HETATM   21  C16 UNL     1       0.990  -0.388   0.508  1.00  0.00     0.151 C 
BRANCH  21  22
HETATM   22  N1  UNL     1       1.871   0.060   1.534  1.00  0.00    -0.403 N 
HETATM   23  C17 UNL     1       1.691   1.339   2.073  1.00  0.00     0.149 C 
HETATM   24  C18 UNL     1       3.069   1.785   2.573  1.00  0.00     0.137 C 
HETATM   25  C19 UNL     1       3.971   0.582   2.388  1.00  0.00     0.058 C 
HETATM   26  C20 UNL     1       3.273  -0.186   1.322  1.00  0.00     0.086 C 
BRANCH  24  27
HETATM   27  O4  UNL     1       3.572   2.838   1.835  1.00  0.00    -0.394 OA
ATOM     28  H4  UNL     1       4.426   3.115   2.145  1.00  0.00     0.210 HD
ENDBRANCH  24  27
BRANCH  26  29
HETATM   29  C21 UNL     1       3.586   0.287  -0.069  1.00  0.00     0.063 C 
BRANCH  29  30
HETATM   30  C22 UNL     1       5.005   0.072  -0.403  1.00  0.00    -0.056 A 
HETATM   31  C23 UNL     1       5.384  -1.166  -0.922  1.00  0.00     0.007 A 
HETATM   32  C24 UNL     1       6.681  -1.447  -1.281  1.00  0.00     0.001 A 
HETATM   33  C25 UNL     1       7.645  -0.486  -1.131  1.00  0.00     0.000 A 
HETATM   34  C26 UNL     1       7.325   0.776  -0.617  1.00  0.00     0.001 A 
HETATM   35  C27 UNL     1       6.008   1.001  -0.272  1.00  0.00     0.007 A 
ENDBRANCH  29  30
ENDBRANCH  26  29
ENDBRANCH  21  22
ENDBRANCH   1  21
TORSDOF 11
