REMARK  10 active torsions:
REMARK  status: ('A' for Active; 'I' for Inactive)
REMARK    1  A    between atoms: C2_2  and  O1_3 
REMARK    2  A    between atoms: O1_3  and  C3_4 
REMARK    3  A    between atoms: C10_11  and  C11_12 
REMARK    4  A    between atoms: C12_13  and  C13_14 
REMARK    5  A    between atoms: C13_14  and  C14_15 
REMARK    6  A    between atoms: C15_16  and  O2_17 
REMARK    7  A    between atoms: C17_20  and  O3_21 
REMARK    8  A    between atoms: C18_23  and  C19_24 
REMARK    9  A    between atoms: C19_24  and  C20_25 
REMARK   10  A    between atoms: C20_25  and  C21_26 
ROOT
HETATM    1  C11 UNL     1      -1.235   0.257  -0.770  1.00  0.00    -0.026 C 
HETATM    2  C12 UNL     1      -1.902   0.591   0.284  1.00  0.00    -0.030 C 
ENDROOT
BRANCH   1   3
HETATM    3  C10 UNL     1       0.229   0.468  -0.958  1.00  0.00     0.008 C 
HETATM    4  C9  UNL     1       0.849  -0.837  -1.354  1.00  0.00     0.013 C 
HETATM    5  C8  UNL     1       2.301  -0.940  -0.974  1.00  0.00    -0.007 C 
HETATM    6  C7  UNL     1       2.540  -1.730   0.291  1.00  0.00     0.005 C 
HETATM    7  C24 UNL     1       2.928   0.410  -0.909  1.00  0.00     0.019 C 
HETATM    8  C6  UNL     1       4.029  -1.996   0.367  1.00  0.00     0.007 C 
HETATM    9  C5  UNL     1       4.835  -1.189  -0.593  1.00  0.00     0.020 C 
HETATM   10  C4  UNL     1       6.223  -1.003   0.036  1.00  0.00     0.068 C 
HETATM   11  C25 UNL     1       4.397   0.251  -0.710  1.00  0.00     0.133 C 
HETATM   12  C3  UNL     1       6.105   0.314   0.721  1.00  0.00     0.260 C 
HETATM   13  O6  UNL     1       4.874   0.857   0.446  1.00  0.00    -0.355 OA
HETATM   14  C23 UNL     1       2.309   1.302   0.139  1.00  0.00     0.008 C 
HETATM   15  C22 UNL     1       0.812   1.095   0.242  1.00  0.00     0.009 C 
BRANCH  12  16
HETATM   16  O1  UNL     1       7.162   1.130   0.328  1.00  0.00    -0.362 OA
BRANCH  16  17
HETATM   17  C2  UNL     1       7.972   1.501   1.398  1.00  0.00     0.166 C 
HETATM   18  C1  UNL     1       9.077   2.376   0.863  1.00  0.00     0.033 C 
ENDBRANCH  16  17
ENDBRANCH  12  16
ENDBRANCH   1   3
BRANCH   2  19
HETATM   19  C13 UNL     1      -3.309   0.420   0.531  1.00  0.00     0.034 C 
BRANCH  19  20
HETATM   20  C14 UNL     1      -4.146  -0.156  -0.563  1.00  0.00     0.024 C 
HETATM   21  C15 UNL     1      -4.197   0.672  -1.821  1.00  0.00     0.125 C 
HETATM   22  C16 UNL     1      -5.685   0.813  -2.194  1.00  0.00     0.064 C 
HETATM   23  C17 UNL     1      -6.319  -0.384  -1.461  1.00  0.00     0.125 C 
HETATM   24  C18 UNL     1      -5.598  -0.253  -0.140  1.00  0.00     0.022 C 
BRANCH  21  25
HETATM   25  O2  UNL     1      -3.688   1.936  -1.590  1.00  0.00    -0.395 OA
ATOM     26  H2  UNL     1      -3.720   2.458  -2.383  1.00  0.00     0.210 HD
ENDBRANCH  21  25
BRANCH  23  27
HETATM   27  O3  UNL     1      -5.941  -1.509  -2.173  1.00  0.00    -0.395 OA
ATOM     28  H3  UNL     1      -6.332  -2.247  -1.721  1.00  0.00     0.210 HD
ENDBRANCH  23  27
BRANCH  24  29
HETATM   29  C19 UNL     1      -5.816  -1.451   0.746  1.00  0.00     0.018 C 
BRANCH  29  30
HETATM   30  C20 UNL     1      -7.218  -1.624   1.206  1.00  0.00     0.113 C 
BRANCH  30  31
HETATM   31  C21 UNL     1      -7.779  -0.530   1.996  1.00  0.00     0.172 C 
HETATM   32  O4  UNL     1      -8.995  -0.634   2.379  1.00  0.00    -0.648 OA
HETATM   33  O5  UNL     1      -7.140   0.624   2.386  1.00  0.00    -0.648 OA
ENDBRANCH  30  31
ENDBRANCH  29  30
ENDBRANCH  24  29
ENDBRANCH  19  20
ENDBRANCH   2  19
TORSDOF 10
