REMARK  10 active torsions:
REMARK  status: ('A' for Active; 'I' for Inactive)
REMARK    1  A    between atoms: C2_5  and  C3_6 
REMARK    2  A    between atoms: C2_5  and  N4_17 
REMARK    3  A    between atoms: C3_6  and  C4_7 
REMARK    4  A    between atoms: C4_7  and  C5_8 
REMARK    5  A    between atoms: C5_8  and  C6_9 
REMARK    6  A    between atoms: N4_17  and  C11_19 
REMARK    7  A    between atoms: C11_19  and  C12_20 
REMARK    8  A    between atoms: C11_19  and  C17_27 
REMARK    9  A    between atoms: C20_30  and  C21_31 
REMARK   10  A    between atoms: C21_31  and  N6_32 
ROOT
HETATM    1  N1  UNL     1      -0.115   0.436  -4.674  1.00  0.00    -0.172 NA
HETATM    2  C1  UNL     1       0.451   0.168  -3.711  1.00  0.00     0.183 C 
HETATM    3  N2  UNL     1       1.142  -0.142  -2.598  1.00  0.00    -0.283 N 
ATOM      4  H2  UNL     1       2.132  -0.296  -2.789  1.00  0.00     0.179 HD
HETATM    5  C2  UNL     1       0.863  -0.288  -1.378  1.00  0.00     0.086 C 
ENDROOT
BRANCH   5   6
HETATM    6  C3  UNL     1       2.037  -0.654  -0.468  1.00  0.00     0.077 C 
BRANCH   6   7
HETATM    7  C4  UNL     1       2.219   0.498   0.481  1.00  0.00     0.008 C 
BRANCH   7   8
HETATM    8  C5  UNL     1       3.379   0.247   1.440  1.00  0.00     0.005 C 
BRANCH   8   9
HETATM    9  C6  UNL     1       4.690   0.059   0.727  1.00  0.00    -0.011 C 
HETATM   10  C7  UNL     1       4.988   1.300  -0.061  1.00  0.00     0.032 C 
HETATM   11  C8  UNL     1       6.404   1.411  -0.521  1.00  0.00     0.232 C 
HETATM   12  N3  UNL     1       7.214   0.296  -0.024  1.00  0.00    -0.075 N 
HETATM   13  C9  UNL     1       7.106   0.211   1.412  1.00  0.00     0.232 C 
ATOM     14  H32 UNL     1       6.973  -0.585  -0.479  1.00  0.00     0.277 HD
ATOM     15  H31 UNL     1       8.184   0.361  -0.332  1.00  0.00     0.277 HD
HETATM   16  C10 UNL     1       5.730  -0.204   1.810  1.00  0.00     0.032 C 
ENDBRANCH   8   9
ENDBRANCH   7   8
ENDBRANCH   6   7
ENDBRANCH   5   6
BRANCH   5  17
HETATM   17  N4  UNL     1      -0.374  -0.147  -0.737  1.00  0.00    -0.370 N 
ATOM     18  H4  UNL     1      -0.402   0.356   0.150  1.00  0.00     0.161 HD
BRANCH  17  19
HETATM   19  C11 UNL     1      -1.597  -0.666  -1.254  1.00  0.00     0.126 C 
BRANCH  19  20
HETATM   20  C12 UNL     1      -1.507  -2.089  -1.651  1.00  0.00    -0.019 A 
HETATM   21  C13 UNL     1      -2.167  -2.544  -2.807  1.00  0.00     0.012 A 
HETATM   22  C14 UNL     1      -2.054  -3.867  -3.149  1.00  0.00     0.018 A 
HETATM   23  C15 UNL     1      -1.323  -4.767  -2.411  1.00  0.00     0.087 A 
HETATM   24  N5  UNL     1      -0.704  -4.339  -1.326  1.00  0.00    -0.375 N 
HETATM   25  C16 UNL     1      -0.801  -3.045  -0.971  1.00  0.00     0.096 A 
ATOM     26  H5  UNL     1      -0.155  -4.986  -0.760  1.00  0.00     0.164 HD
ENDBRANCH  19  20
BRANCH  19  27
HETATM   27  C17 UNL     1      -2.779  -0.376  -0.364  1.00  0.00     0.046 C 
HETATM   28  C18 UNL     1      -2.575  -0.988   0.994  1.00  0.00     0.012 C 
HETATM   29  C19 UNL     1      -3.965  -0.925   1.656  1.00  0.00     0.011 C 
HETATM   30  C20 UNL     1      -4.145   0.521   2.055  1.00  0.00     0.044 C 
HETATM   31  C22 UNL     1      -3.673   1.449   0.995  1.00  0.00    -0.046 A 
HETATM   32  C23 UNL     1      -3.920   2.790   1.225  1.00  0.00     0.008 A 
HETATM   33  C27 UNL     1      -3.029   1.049  -0.157  1.00  0.00    -0.045 A 
HETATM   34  C24 UNL     1      -3.542   3.761   0.331  1.00  0.00     0.001 A 
HETATM   35  C25 UNL     1      -2.905   3.381  -0.812  1.00  0.00     0.001 A 
HETATM   36  C26 UNL     1      -2.655   2.032  -1.045  1.00  0.00     0.008 A 
BRANCH  30  37
HETATM   37  C21 UNL     1      -5.583   0.761   2.456  1.00  0.00     0.239 C 
BRANCH  37  38
HETATM   38  N6  UNL     1      -6.526   0.493   1.418  1.00  0.00    -0.079 N 
ATOM     39  H63 UNL     1      -6.295   1.023   0.578  1.00  0.00     0.274 HD
ATOM     40  H62 UNL     1      -6.407  -0.455   1.061  1.00  0.00     0.274 HD
ATOM     41  H61 UNL     1      -7.496   0.655   1.689  1.00  0.00     0.274 HD
ENDBRANCH  37  38
ENDBRANCH  30  37
ENDBRANCH  19  27
ENDBRANCH  17  19
ENDBRANCH   5  17
TORSDOF 10
