REMARK  8 active torsions:
REMARK  status: ('A' for Active; 'I' for Inactive)
REMARK    1  A    between atoms: O1_1  and  C1_3 
REMARK    2  A    between atoms: C1_3  and  C2_4 
REMARK    3  A    between atoms: C2_4  and  N1_5 
REMARK    4  A    between atoms: C4_7  and  C5_8 
REMARK    5  A    between atoms: C5_8  and  O2_9 
REMARK    6  A    between atoms: C5_8  and  C6_11 
REMARK    7  A    between atoms: C9_14  and  C10_15 
REMARK    8  A    between atoms: C10_15  and  C11_16 
ROOT
HETATM    1  C6  UNL     1      -0.200   0.713  -0.761  1.00  0.00    -0.029 A 
HETATM    2  C7  UNL     1       0.273  -0.568  -0.618  1.00  0.00     0.010 A 
HETATM    3  C8  UNL     1       1.526  -0.807  -0.040  1.00  0.00     0.008 A 
HETATM    4  C9  UNL     1       2.321   0.225   0.403  1.00  0.00    -0.054 A 
HETATM    5  C18 UNL     1       1.856   1.526   0.264  1.00  0.00     0.008 A 
HETATM    6  C19 UNL     1       0.632   1.741  -0.302  1.00  0.00     0.010 A 
ENDROOT
BRANCH   1   7
HETATM    7  C5  UNL     1      -1.517   1.005  -1.350  1.00  0.00     0.157 C 
BRANCH   7   8
HETATM    8  C4  UNL     1      -2.624   1.200  -0.342  1.00  0.00     0.048 C 
HETATM    9  C3  UNL     1      -3.065  -0.079   0.254  1.00  0.00     0.280 C 
HETATM   10  N1  UNL     1      -4.273  -0.561  -0.362  1.00  0.00     0.096 N 
HETATM   11  C23 UNL     1      -5.350   0.328  -0.118  1.00  0.00     0.227 A 
HETATM   12  C21 UNL     1      -5.095   1.717  -0.506  1.00  0.00     0.021 A 
HETATM   13  C22 UNL     1      -5.320   1.378   0.925  1.00  0.00     0.043 A 
HETATM   14  C20 UNL     1      -3.710   2.056  -0.916  1.00  0.00     0.016 C 
BRANCH  10  15
HETATM   15  C2  UNL     1      -4.542  -1.939  -0.161  1.00  0.00     0.298 C 
BRANCH  15  16
HETATM   16  C1  UNL     1      -4.886  -2.342   1.240  1.00  0.00     0.194 C 
BRANCH  16  17
HETATM   17  O1  UNL     1      -5.115  -3.733   1.240  1.00  0.00    -0.399 OA
ATOM     18  H1  UNL     1      -5.333  -3.989   2.129  1.00  0.00     0.209 HD
ENDBRANCH  16  17
ENDBRANCH  15  16
ENDBRANCH  10  15
ENDBRANCH   7   8
BRANCH   7  19
HETATM   19  O2  UNL     1      -1.847   0.194  -2.416  1.00  0.00    -0.390 OA
ATOM     20  H2  UNL     1      -1.150   0.071  -3.050  1.00  0.00     0.210 HD
ENDBRANCH   7  19
ENDBRANCH   1   7
BRANCH   4  21
HETATM   21  C10 UNL     1       3.649  -0.059   1.025  1.00  0.00     0.078 C 
BRANCH  21  22
HETATM   22  C11 UNL     1       4.675  -0.067  -0.026  1.00  0.00    -0.039 A 
HETATM   23  C12 UNL     1       4.385   0.098  -1.349  1.00  0.00     0.025 A 
HETATM   24  C13 UNL     1       5.420   0.069  -2.258  1.00  0.00     0.090 A 
HETATM   25  N2  UNL     1       6.688  -0.113  -1.893  1.00  0.00    -0.352 N 
HETATM   26  C14 UNL     1       7.004  -0.277  -0.603  1.00  0.00     0.115 A 
ATOM     27  H2  UNL     1       7.422  -0.127  -2.601  1.00  0.00     0.166 HD
HETATM   28  N3  UNL     1       8.175  -0.475   0.034  1.00  0.00    -0.352 N 
HETATM   29  C17 UNL     1       6.007  -0.256   0.340  1.00  0.00     0.016 A 
HETATM   30  C15 UNL     1       7.944  -0.577   1.339  1.00  0.00     0.090 A 
ATOM     31  H3  UNL     1       9.090  -0.537  -0.413  1.00  0.00     0.166 HD
HETATM   32  C16 UNL     1       6.591  -0.445   1.570  1.00  0.00     0.033 A 
ENDBRANCH  21  22
ENDBRANCH   4  21
TORSDOF 8
