REMARK  8 active torsions:
REMARK  status: ('A' for Active; 'I' for Inactive)
REMARK    1  A    between atoms: N1_4  and  C4_5 
REMARK    2  A    between atoms: C4_5  and  C6_7 
REMARK    3  A    between atoms: C6_7  and  O1_8 
REMARK    4  A    between atoms: C10_13  and  C11_14 
REMARK    5  A    between atoms: C11_14  and  N2_15 
REMARK    6  A    between atoms: N2_15  and  C13_17 
REMARK    7  A    between atoms: C13_17  and  C14_18 
REMARK    8  A    between atoms: C18_24  and  N4_25 
ROOT
HETATM    1  N2  UNL     1      -1.027  -0.731   1.163  1.00  0.00    -0.373 N 
HETATM    2  C12 UNL     1      -0.823  -0.768   2.548  1.00  0.00     0.154 C 
ENDROOT
BRANCH   1   3
HETATM    3  C11 UNL     1      -0.161  -1.494   0.388  1.00  0.00     0.068 C 
BRANCH   3   4
HETATM    4  C10 UNL     1       1.283  -1.047   0.289  1.00  0.00     0.029 C 
HETATM    5  C2  UNL     1       1.472   0.322  -0.263  1.00  0.00     0.019 C 
HETATM    6  C1  UNL     1       1.463   0.322  -1.794  1.00  0.00     0.012 C 
HETATM    7  C3  UNL     1       2.840   0.881   0.131  1.00  0.00     0.278 C 
HETATM    8  N1  UNL     1       3.924  -0.015  -0.252  1.00  0.00     0.095 N 
HETATM    9  C7  UNL     1       4.324  -0.699   0.974  1.00  0.00     0.273 C 
HETATM   10  C8  UNL     1       3.433  -1.910   1.103  1.00  0.00     0.031 C 
HETATM   11  C9  UNL     1       2.047  -1.385   1.512  1.00  0.00     0.012 C 
BRANCH   8  12
HETATM   12  C4  UNL     1       5.026   0.737  -0.835  1.00  0.00     0.242 C 
HETATM   13  C5  UNL     1       5.655   1.691   0.151  1.00  0.00     0.045 C 
BRANCH  12  14
HETATM   14  C6  UNL     1       6.095  -0.173  -1.377  1.00  0.00     0.199 C 
BRANCH  14  15
HETATM   15  O1  UNL     1       7.104   0.643  -1.919  1.00  0.00    -0.399 OA
ATOM     16  H1  UNL     1       7.779   0.069  -2.261  1.00  0.00     0.209 HD
ENDBRANCH  14  15
ENDBRANCH  12  14
ENDBRANCH   8  12
ENDBRANCH   3   4
ENDBRANCH   1   3
BRANCH   1  17
HETATM   17  C13 UNL     1      -2.056   0.011   0.617  1.00  0.00     0.105 C 
BRANCH  17  18
HETATM   18  C14 UNL     1      -3.272  -0.517   0.073  1.00  0.00     0.030 A 
HETATM   19  C15 UNL     1      -4.162   0.392  -0.516  1.00  0.00    -0.035 A 
HETATM   20  C16 UNL     1      -5.367  -0.051  -1.017  1.00  0.00    -0.035 A 
HETATM   21  C22 UNL     1      -3.759   1.803  -0.582  1.00  0.00     0.040 C 
HETATM   22  C17 UNL     1      -5.725  -1.380  -0.955  1.00  0.00     0.097 A 
HETATM   23  C19 UNL     1      -6.338   0.884  -1.650  1.00  0.00     0.040 C 
HETATM   24  N3  UNL     1      -4.883  -2.230  -0.398  1.00  0.00    -0.351 N 
HETATM   25  C18 UNL     1      -3.677  -1.824   0.111  1.00  0.00     0.111 A 
ATOM     26  H3  UNL     1      -5.137  -3.216  -0.345  1.00  0.00     0.166 HD
HETATM   27  C20 UNL     1      -6.236   2.184  -0.841  1.00  0.00     0.005 C 
HETATM   28  C21 UNL     1      -4.842   2.703  -1.096  1.00  0.00     0.005 C 
BRANCH  25  29
HETATM   29  N4  UNL     1      -2.981  -2.757   0.652  1.00  0.00    -0.385 N 
ATOM     30  H42 UNL     1      -2.083  -2.455   1.031  1.00  0.00     0.157 HD
ATOM     31  H41 UNL     1      -3.283  -3.731   0.680  1.00  0.00     0.157 HD
ENDBRANCH  25  29
ENDBRANCH  17  18
ENDBRANCH   1  17
TORSDOF 8
