REMARK  6 active torsions:
REMARK  status: ('A' for Active; 'I' for Inactive)
REMARK    1  A    between atoms: N1_2  and  C3_4 
REMARK    2  A    between atoms: C3_4  and  C4_5 
REMARK    3  A    between atoms: C4_5  and  C5_6 
REMARK    4  A    between atoms: C5_6  and  N2_7 
REMARK       I    between atoms: N2_7  and  C6_9 
REMARK    5  A    between atoms: C6_9  and  C7_11 
REMARK    6  A    between atoms: C17_24  and  C18_25 
ROOT
HETATM    1  C7  UNL     1       0.404  -0.166   0.097  1.00  0.00     0.078 C 
HETATM    2  C8  UNL     1       0.088   1.054  -0.644  1.00  0.00     0.014 C 
HETATM    3  C9  UNL     1      -0.606   2.188   0.002  1.00  0.00     0.001 C 
HETATM    4  C10 UNL     1      -2.088   2.025   0.173  1.00  0.00     0.000 C 
HETATM    5  C11 UNL     1      -2.971   3.110  -0.304  1.00  0.00     0.000 C 
HETATM    6  C12 UNL     1      -4.325   2.459  -0.651  1.00  0.00     0.000 C 
HETATM    7  C13 UNL     1      -4.798   1.474   0.350  1.00  0.00     0.000 C 
HETATM    8  C14 UNL     1      -5.414   0.210  -0.245  1.00  0.00     0.009 C 
HETATM    9  C15 UNL     1      -4.558  -1.032   0.064  1.00  0.00     0.103 C 
HETATM   10  C16 UNL     1      -3.846  -1.451  -1.175  1.00  0.00     0.217 C 
HETATM   11  O2  UNL     1      -4.626  -1.512  -2.198  1.00  0.00    -0.274 OA
HETATM   12  N3  UNL     1      -2.478  -1.762  -1.296  1.00  0.00    -0.356 N 
ATOM     13  H3  UNL     1      -1.983  -1.219  -2.004  1.00  0.00     0.162 HD
HETATM   14  C17 UNL     1      -1.670  -2.698  -0.605  1.00  0.00     0.094 C 
HETATM   15  C19 UNL     1      -0.888  -2.309   0.551  1.00  0.00     0.027 C 
HETATM   16  C20 UNL     1      -0.596  -0.889   0.881  1.00  0.00     0.016 C 
ENDROOT
BRANCH   1  17
HETATM   17  C6  UNL     1       1.667   0.069   0.889  1.00  0.00     0.221 C 
HETATM   18  N2  UNL     1       2.871  -0.603   0.702  1.00  0.00    -0.360 N 
ATOM     19  H2  UNL     1       2.929  -1.318  -0.023  1.00  0.00     0.162 HD
HETATM   20  O1  UNL     1       1.598   0.959   1.794  1.00  0.00    -0.273 OA
BRANCH  18  21
HETATM   21  C5  UNL     1       4.043  -0.321   1.501  1.00  0.00     0.128 C 
BRANCH  21  22
HETATM   22  C4  UNL     1       4.528   1.105   1.375  1.00  0.00     0.064 C 
BRANCH  22  23
HETATM   23  C3  UNL     1       4.898   1.434  -0.059  1.00  0.00     0.058 C 
BRANCH  23  24
HETATM   24  N1  UNL     1       5.924   0.620  -0.575  1.00  0.00    -0.402 N 
HETATM   25  C1  UNL     1       7.230   0.754  -0.059  1.00  0.00     0.148 C 
HETATM   26  C2  UNL     1       5.748   0.008  -1.836  1.00  0.00     0.148 C 
ENDBRANCH  23  24
ENDBRANCH  22  23
ENDBRANCH  21  22
ENDBRANCH  18  21
ENDBRANCH   1  17
BRANCH  14  27
HETATM   27  C18 UNL     1      -2.497  -3.946  -0.207  1.00  0.00     0.111 C 
HETATM   28  S1  UNL     1      -3.158  -4.723  -1.701  1.00  0.00    -0.096 SA
ENDBRANCH  14  27
TORSDOF 6
