REMARK  9 active torsions:
REMARK  status: ('A' for Active; 'I' for Inactive)
REMARK    1  A    between atoms: C3_3  and  C4_4 
REMARK    2  A    between atoms: C4_4  and  O1_5 
REMARK    3  A    between atoms: C4_4  and  C5_7 
REMARK    4  A    between atoms: C7_9  and  C8_10 
REMARK    5  A    between atoms: C9_11  and  C10_12 
REMARK    6  A    between atoms: C12_18  and  C13_19 
REMARK       I    between atoms: N3_22  and  C16_23 
REMARK    7  A    between atoms: C16_23  and  C17_25 
REMARK    8  A    between atoms: C18_26  and  C19_27 
REMARK    9  A    between atoms: C19_27  and  C20_28 
ROOT
HETATM    1  C10 UNL     1      -0.895   2.233   0.215  1.00  0.00     0.059 A 
HETATM    2  C11 UNL     1      -0.574   3.558   0.469  1.00  0.00     0.129 A 
HETATM    3  N1  UNL     1       0.451   3.910  -0.352  1.00  0.00    -0.310 N 
ATOM      4  H1  UNL     1       0.891   4.830  -0.382  1.00  0.00     0.186 HD
HETATM    5  N2  UNL     1       0.789   2.881  -1.104  1.00  0.00    -0.303 N 
ATOM      6  H2  UNL     1       1.528   2.872  -1.807  1.00  0.00     0.186 HD
HETATM    7  C12 UNL     1      -0.004   1.849  -0.788  1.00  0.00     0.050 A 
ENDROOT
BRANCH   7   8
HETATM    8  C13 UNL     1       0.019   0.484  -1.348  1.00  0.00     0.042 C 
HETATM    9  C14 UNL     1       0.820   0.329  -2.599  1.00  0.00     0.030 C 
HETATM   10  C15 UNL     1       2.278   0.247  -2.479  1.00  0.00     0.127 C 
HETATM   11  N3  UNL     1       2.801   0.006  -1.187  1.00  0.00    -0.349 N 
HETATM   12  C16 UNL     1       4.259   0.047  -1.077  1.00  0.00     0.243 C 
HETATM   13  C22 UNL     1       1.999  -0.277  -0.045  1.00  0.00     0.127 C 
HETATM   14  O2  UNL     1       4.869   0.258  -2.149  1.00  0.00    -0.268 OA
HETATM   15  C23 UNL     1       0.546  -0.513  -0.308  1.00  0.00     0.030 C 
BRANCH  12  16
HETATM   16  C17 UNL     1       4.867  -0.147   0.201  1.00  0.00     0.070 C 
HETATM   17  C18 UNL     1       6.126  -0.157   0.498  1.00  0.00    -0.021 C 
BRANCH  17  18
HETATM   18  C19 UNL     1       7.257   0.031  -0.420  1.00  0.00     0.027 C 
BRANCH  18  19
HETATM   19  C20 UNL     1       8.159  -1.204  -0.399  1.00  0.00    -0.001 C 
HETATM   20  C21 UNL     1       8.649  -1.377   1.011  1.00  0.00     0.005 C 
ENDBRANCH  18  19
ENDBRANCH  17  18
ENDBRANCH  12  16
ENDBRANCH   7   8
BRANCH   1  21
HETATM   21  C9  UNL     1      -1.936   1.468   0.848  1.00  0.00    -0.063 C 
HETATM   22  C8  UNL     1      -2.832   0.836   1.364  1.00  0.00    -0.096 C 
BRANCH  22  23
HETATM   23  C7  UNL     1      -3.953   0.070   1.973  1.00  0.00     0.072 A 
HETATM   24  C5  UNL     1      -5.110  -0.269   1.095  1.00  0.00     0.035 A 
HETATM   25  C6  UNL     1      -5.241   0.811   2.080  1.00  0.00     0.026 A 
BRANCH  24  26
HETATM   26  C4  UNL     1      -5.928  -1.510   1.280  1.00  0.00     0.146 C 
BRANCH  26  27
HETATM   27  C3  UNL     1      -7.365  -1.090   1.255  1.00  0.00     0.000 C 
HETATM   28  C2  UNL     1      -8.076  -0.999   0.167  1.00  0.00    -0.033 C 
HETATM   29  C1  UNL     1      -9.495  -0.574   0.240  1.00  0.00     0.036 C 
ENDBRANCH  26  27
BRANCH  26  30
HETATM   30  O1  UNL     1      -5.646  -2.465   0.304  1.00  0.00    -0.391 OA
ATOM     31  H1  UNL     1      -4.734  -2.731   0.320  1.00  0.00     0.210 HD
ENDBRANCH  26  30
ENDBRANCH  24  26
ENDBRANCH  22  23
ENDBRANCH   1  21
TORSDOF 9
