REMARK  8 active torsions:
REMARK  status: ('A' for Active; 'I' for Inactive)
REMARK    1  A    between atoms: C2_2  and  C3_3 
REMARK    2  A    between atoms: C3_3  and  N1_4 
REMARK    3  A    between atoms: N1_4  and  C4_6 
REMARK    4  A    between atoms: C4_6  and  C5_10 
REMARK    5  A    between atoms: C5_10  and  C6_11 
REMARK    6  A    between atoms: C6_11  and  C7_12 
REMARK    7  A    between atoms: C11_17  and  C12_18 
REMARK    8  A    between atoms: C12_18  and  N4_22 
ROOT
HETATM    1  C7  UNL     1       1.549  -2.221   0.870  1.00  0.00     0.042 C 
HETATM    2  C8  UNL     1       1.031  -3.347  -0.003  1.00  0.00     0.176 C 
HETATM    3  O1  UNL     1       1.856  -3.451  -1.119  1.00  0.00    -0.390 OA
HETATM    4  C9  UNL     1       1.673  -2.266  -1.866  1.00  0.00     0.172 C 
HETATM    5  C10 UNL     1       2.395  -1.113  -1.200  1.00  0.00     0.065 C 
HETATM    6  C11 UNL     1       2.683  -1.576   0.221  1.00  0.00    -0.028 C 
ENDROOT
BRANCH   1   7
HETATM    7  C6  UNL     1       0.416  -1.482   1.418  1.00  0.00     0.019 C 
BRANCH   7   8
HETATM    8  C5  UNL     1      -0.555  -0.825   0.519  1.00  0.00     0.076 C 
BRANCH   8   9
HETATM    9  C4  UNL     1      -1.599  -0.159   1.388  1.00  0.00     0.070 C 
HETATM   10  N2  UNL     1      -1.497  -0.254   2.665  1.00  0.00    -0.389 N 
ATOM     11  H22 UNL     1      -2.201   0.195   3.251  1.00  0.00     0.157 HD
ATOM     12  H21 UNL     1      -0.715  -0.776   3.060  1.00  0.00     0.157 HD
BRANCH   9  13
HETATM   13  N1  UNL     1      -2.674   0.559   0.845  1.00  0.00    -0.379 N 
ATOM     14  H1  UNL     1      -2.475   1.452   0.395  1.00  0.00     0.160 HD
BRANCH  13  15
HETATM   15  C3  UNL     1      -4.051   0.108   0.885  1.00  0.00     0.130 C 
BRANCH  15  16
HETATM   16  C2  UNL     1      -4.978   1.104   0.216  1.00  0.00    -0.024 C 
HETATM   17  C1  UNL     1      -4.935   2.453   0.878  1.00  0.00     0.017 C 
HETATM   18  C18 UNL     1      -4.615   1.302  -1.241  1.00  0.00     0.037 C 
HETATM   19  C19 UNL     1      -5.879   1.704  -1.970  1.00  0.00     0.168 C 
HETATM   20  O2  UNL     1      -6.649   0.553  -2.140  1.00  0.00    -0.391 OA
HETATM   21  C20 UNL     1      -6.731  -0.205  -0.985  1.00  0.00     0.168 C 
HETATM   22  C21 UNL     1      -6.396   0.593   0.259  1.00  0.00     0.037 C 
ENDBRANCH  15  16
ENDBRANCH  13  15
ENDBRANCH   9  13
ENDBRANCH   8   9
ENDBRANCH   7   8
ENDBRANCH   1   7
BRANCH   6  23
HETATM   23  C12 UNL     1       3.520  -0.644   0.956  1.00  0.00     0.099 C 
HETATM   24  N3  UNL     1       3.495  -0.468   2.212  1.00  0.00    -0.385 N 
ATOM     25  H32 UNL     1       2.818  -1.017   2.741  1.00  0.00     0.157 HD
ATOM     26  H31 UNL     1       4.083   0.187   2.728  1.00  0.00     0.157 HD
BRANCH  23  27
HETATM   27  N4  UNL     1       4.463   0.120   0.219  1.00  0.00    -0.367 N 
HETATM   28  C13 UNL     1       5.722  -0.463  -0.208  1.00  0.00     0.124 C 
HETATM   29  C14 UNL     1       6.446   0.492  -1.128  1.00  0.00     0.020 C 
HETATM   30  C15 UNL     1       6.696   1.781  -0.381  1.00  0.00     0.003 C 
HETATM   31  C16 UNL     1       5.466   2.271   0.347  1.00  0.00     0.020 C 
HETATM   32  C17 UNL     1       4.239   1.509  -0.153  1.00  0.00     0.124 C 
ENDBRANCH  23  27
ENDBRANCH   6  23
TORSDOF 8
