REMARK  8 active torsions:
REMARK  status: ('A' for Active; 'I' for Inactive)
REMARK    1  A    between atoms: C2_2  and  C3_3 
REMARK    2  A    between atoms: C3_3  and  C4_4 
REMARK    3  A    between atoms: C4_4  and  C5_5 
REMARK    4  A    between atoms: C4_4  and  N2_14 
REMARK    5  A    between atoms: C5_5  and  C6_6 
REMARK       I    between atoms: C6_6  and  N1_8 
REMARK    6  A    between atoms: N2_14  and  C11_16 
REMARK    7  A    between atoms: C11_16  and  N3_18 
REMARK    8  A    between atoms: N3_18  and  C12_20 
ROOT
HETATM    1  N2  UNL     1       0.326   0.427   0.497  1.00  0.00    -0.362 N 
ATOM      2  H2  UNL     1       0.306   0.417   1.517  1.00  0.00     0.162 HD
ENDROOT
BRANCH   1   3
HETATM    3  C4  UNL     1       1.602   0.574  -0.089  1.00  0.00     0.092 C 
BRANCH   3   4
HETATM    4  C3  UNL     1       2.321  -0.627  -0.561  1.00  0.00     0.025 C 
BRANCH   4   5
HETATM    5  C2  UNL     1       1.684  -1.536  -1.536  1.00  0.00    -0.002 C 
HETATM    6  C1  UNL     1       2.675  -2.697  -1.847  1.00  0.00     0.005 C 
ENDBRANCH   4   5
ENDBRANCH   3   4
BRANCH   3   7
HETATM    7  C5  UNL     1       2.580   1.255   0.910  1.00  0.00     0.128 C 
BRANCH   7   8
HETATM    8  C6  UNL     1       3.807   1.578   0.140  1.00  0.00     0.221 C 
HETATM    9  O1  UNL     1       3.615   2.187  -0.949  1.00  0.00    -0.273 OA
HETATM   10  N1  UNL     1       5.126   1.265   0.514  1.00  0.00    -0.348 N 
HETATM   11  C7  UNL     1       6.217   1.675  -0.343  1.00  0.00     0.152 C 
HETATM   12  C10 UNL     1       5.504   0.533   1.707  1.00  0.00     0.152 C 
HETATM   13  C8  UNL     1       7.149   0.502  -0.564  1.00  0.00     0.187 C 
HETATM   14  O2  UNL     1       7.481  -0.125   0.636  1.00  0.00    -0.388 OA
HETATM   15  C9  UNL     1       6.328  -0.667   1.212  1.00  0.00     0.187 C 
ENDBRANCH   7   8
ENDBRANCH   3   7
ENDBRANCH   1   3
BRANCH   1  16
HETATM   16  C11 UNL     1      -0.938   0.291  -0.146  1.00  0.00     0.168 C 
HETATM   17  S1  UNL     1      -1.147   0.328  -1.764  1.00  0.00    -0.041 SA
BRANCH  16  18
HETATM   18  N3  UNL     1      -2.134   0.130   0.630  1.00  0.00    -0.363 N 
ATOM     19  H3  UNL     1      -2.040   0.106   1.645  1.00  0.00     0.162 HD
BRANCH  18  20
HETATM   20  C12 UNL     1      -3.461  -0.000   0.077  1.00  0.00     0.083 C 
HETATM   21  C13 UNL     1      -4.421  -0.430   1.214  1.00  0.00     0.025 C 
HETATM   22  C14 UNL     1      -5.242  -1.605   0.831  1.00  0.00     0.002 C 
HETATM   23  C15 UNL     1      -6.707  -1.356   0.680  1.00  0.00     0.000 C 
HETATM   24  C16 UNL     1      -7.096  -0.030   0.130  1.00  0.00     0.000 C 
HETATM   25  C17 UNL     1      -6.115   0.373  -0.971  1.00  0.00     0.000 C 
HETATM   26  C18 UNL     1      -5.358   1.562  -0.530  1.00  0.00     0.002 C 
HETATM   27  C19 UNL     1      -3.880   1.370  -0.395  1.00  0.00     0.025 C 
ENDBRANCH  18  20
ENDBRANCH  16  18
ENDBRANCH   1  16
TORSDOF 8
