REMARK  5 active torsions:
REMARK  status: ('A' for Active; 'I' for Inactive)
REMARK    1  A    between atoms: C2_2  and  C3_3 
REMARK    2  A    between atoms: C4_4  and  O1_5 
REMARK    3  A    between atoms: O1_5  and  C5_6 
REMARK    4  A    between atoms: C13_14  and  N1_15 
REMARK       I    between atoms: N1_15  and  C14_17 
REMARK       I    between atoms: C14_17  and  N2_19 
REMARK    5  A    between atoms: C18_28  and  N5_29 
ROOT
HETATM    1  C5  UNL     1      -1.657  -1.209   0.202  1.00  0.00     0.163 C 
HETATM    2  C6  UNL     1      -2.312  -2.119  -0.777  1.00  0.00     0.018 C 
HETATM    3  C7  UNL     1      -2.314  -1.468  -2.139  1.00  0.00     0.012 C 
HETATM    4  C8  UNL     1      -3.104  -0.170  -2.015  1.00  0.00    -0.011 C 
HETATM    5  C9  UNL     1      -4.520  -0.526  -1.682  1.00  0.00     0.009 C 
HETATM    6  C10 UNL     1      -4.531  -1.183  -0.331  1.00  0.00    -0.011 C 
HETATM    7  C11 UNL     1      -3.739  -2.457  -0.413  1.00  0.00     0.012 C 
HETATM    8  C12 UNL     1      -3.920  -0.328   0.742  1.00  0.00     0.038 C 
HETATM    9  C13 UNL     1      -2.509   0.069   0.360  1.00  0.00     0.062 C 
HETATM   10  C16 UNL     1      -2.490   0.748  -0.989  1.00  0.00     0.038 C 
ENDROOT
BRANCH   1  11
HETATM   11  O1  UNL     1      -0.411  -0.782  -0.309  1.00  0.00    -0.327 OA
BRANCH  11  12
HETATM   12  C4  UNL     1       0.788  -1.020   0.323  1.00  0.00     0.157 A 
HETATM   13  C3  UNL     1       1.974  -0.547  -0.272  1.00  0.00     0.058 A 
HETATM   14  C18 UNL     1       3.171  -0.768   0.334  1.00  0.00     0.118 A 
HETATM   15  N4  UNL     1       3.187  -1.464   1.531  1.00  0.00    -0.338 N 
HETATM   16  C17 UNL     1       2.066  -1.909   2.088  1.00  0.00     0.184 A 
ATOM     17  H4  UNL     1       4.078  -1.639   1.995  1.00  0.00     0.168 HD
HETATM   18  N3  UNL     1       0.913  -1.677   1.476  1.00  0.00    -0.332 N 
ATOM     19  H3  UNL     1       0.062  -2.026   1.918  1.00  0.00     0.168 HD
BRANCH  13  20
HETATM   20  C2  UNL     1       1.813   0.176  -1.512  1.00  0.00     0.009 C 
HETATM   21  C1  UNL     1       2.578   0.097  -2.557  1.00  0.00     0.012 C 
ENDBRANCH  13  20
BRANCH  14  22
HETATM   22  N5  UNL     1       4.394  -0.294  -0.161  1.00  0.00    -0.366 N 
HETATM   23  C19 UNL     1       4.780   1.077  -0.341  1.00  0.00     0.124 C 
HETATM   24  C20 UNL     1       6.101   1.044   0.473  1.00  0.00     0.021 C 
HETATM   25  C21 UNL     1       6.751  -0.185  -0.185  1.00  0.00     0.021 C 
HETATM   26  C22 UNL     1       5.545  -1.073  -0.544  1.00  0.00     0.124 C 
ENDBRANCH  14  22
ENDBRANCH  11  12
ENDBRANCH   1  11
BRANCH   9  27
HETATM   27  N1  UNL     1      -1.960   0.869   1.416  1.00  0.00    -0.331 N 
HETATM   28  C14 UNL     1      -2.469   2.128   1.764  1.00  0.00     0.316 C 
HETATM   29  O2  UNL     1      -3.437   2.635   1.154  1.00  0.00    -0.247 OA
HETATM   30  N2  UNL     1      -1.890   2.893   2.845  1.00  0.00    -0.347 N 
HETATM   31  C15 UNL     1      -2.420   4.180   3.191  1.00  0.00     0.151 C 
ATOM     32  H2  UNL     1      -1.099   2.515   3.366  1.00  0.00     0.163 HD
ATOM     33  H1  UNL     1      -1.163   0.505   1.938  1.00  0.00     0.165 HD
ENDBRANCH   9  27
TORSDOF 5
