REMARK  7 active torsions:
REMARK  status: ('A' for Active; 'I' for Inactive)
REMARK    1  A    between atoms: C4_4  and  C6_7 
REMARK    2  A    between atoms: C6_7  and  O1_8 
REMARK    3  A    between atoms: C6_7  and  C7_10 
REMARK    4  A    between atoms: C7_10  and  C8_11 
REMARK    5  A    between atoms: C8_11  and  C9_12 
REMARK    6  A    between atoms: C9_12  and  C10_13 
REMARK       I    between atoms: C10_13  and  N2_15 
REMARK    7  A    between atoms: N2_15  and  C11_17 
ROOT
HETATM    1  C1  UNL     1      -3.271  -2.976   3.644  1.00  0.00     0.044 C 
HETATM    2  C2  UNL     1      -2.176  -2.384   2.755  1.00  0.00    -0.068 C 
HETATM    3  C3  UNL     1      -0.811  -2.626   3.268  1.00  0.00     0.044 C 
HETATM    4  C4  UNL     1      -2.519  -1.771   1.684  1.00  0.00     0.052 C 
HETATM    5  C5  UNL     1      -3.954  -1.686   1.389  1.00  0.00     0.098 C 
HETATM    6  N1  UNL     1      -5.080  -1.610   1.139  1.00  0.00    -0.192 NA
ENDROOT
BRANCH   4   7
HETATM    7  C6  UNL     1      -1.638  -1.106   0.638  1.00  0.00     0.162 C 
BRANCH   7   8
HETATM    8  O1  UNL     1      -0.361  -1.137   1.318  1.00  0.00    -0.390 OA
ATOM      9  H1  UNL     1       0.189  -0.722   0.665  1.00  0.00     0.210 HD
ENDBRANCH   7   8
BRANCH   7  10
HETATM   10  C7  UNL     1      -2.091   0.280   0.502  1.00  0.00     0.047 C 
BRANCH  10  11
HETATM   11  C8  UNL     1      -1.603   1.272  -0.448  1.00  0.00    -0.028 C 
HETATM   12  C17 UNL     1      -2.165   1.050  -1.856  1.00  0.00     0.025 C 
HETATM   13  C18 UNL     1      -2.155   2.319  -2.651  1.00  0.00     0.141 C 
HETATM   14  S1  UNL     1      -3.640   3.206  -2.115  1.00  0.00     0.144 S 
HETATM   15  O3  UNL     1      -4.830   2.756  -2.868  1.00  0.00    -0.228 OA
HETATM   16  O4  UNL     1      -3.407   4.669  -2.105  1.00  0.00    -0.228 OA
HETATM   17  C19 UNL     1      -3.702   2.695  -0.378  1.00  0.00     0.141 C 
HETATM   18  C20 UNL     1      -2.266   2.610   0.029  1.00  0.00     0.025 C 
BRANCH  11  19
HETATM   19  C9  UNL     1      -0.167   1.584  -0.466  1.00  0.00     0.112 C 
BRANCH  19  20
HETATM   20  C10 UNL     1       0.806   0.600  -0.891  1.00  0.00     0.218 C 
HETATM   21  O2  UNL     1       0.534  -0.425  -1.602  1.00  0.00    -0.274 OA
HETATM   22  N2  UNL     1       2.181   0.709  -0.534  1.00  0.00    -0.356 N 
ATOM     23  H2  UNL     1       2.466   1.508   0.032  1.00  0.00     0.162 HD
BRANCH  22  24
HETATM   24  C11 UNL     1       3.192  -0.238  -0.923  1.00  0.00     0.084 C 
HETATM   25  C12 UNL     1       4.036  -0.760   0.189  1.00  0.00     0.025 C 
HETATM   26  C13 UNL     1       5.009  -1.769  -0.378  1.00  0.00     0.002 C 
HETATM   27  C14 UNL     1       5.819  -1.223  -1.509  1.00  0.00     0.000 C 
HETATM   28  C15 UNL     1       4.975  -0.551  -2.569  1.00  0.00     0.002 C 
HETATM   29  C16 UNL     1       4.144   0.513  -1.869  1.00  0.00     0.025 C 
ENDBRANCH  22  24
ENDBRANCH  19  20
ENDBRANCH  11  19
ENDBRANCH  10  11
ENDBRANCH   7  10
ENDBRANCH   4   7
TORSDOF 7
