REMARK  8 active torsions:
REMARK  status: ('A' for Active; 'I' for Inactive)
REMARK    1  A    between atoms: C7_7  and  C9_9 
REMARK    2  A    between atoms: C9_9  and  N1_10 
REMARK    3  A    between atoms: N1_10  and  C10_11 
REMARK    4  A    between atoms: N1_10  and  C16_19 
REMARK    5  A    between atoms: C10_11  and  C11_12 
REMARK    6  A    between atoms: C10_11  and  C12_15 
REMARK    7  A    between atoms: C11_12  and  O1_13 
REMARK    8  A    between atoms: C16_19  and  O2_20 
ROOT
HETATM    1  N1  UNL     1      -0.724   0.141  -0.264  1.00  0.00    -0.330 N 
ENDROOT
BRANCH   1   2
HETATM    2  C9  UNL     1       0.523  -0.094  -0.967  1.00  0.00     0.076 C 
BRANCH   2   3
HETATM    3  C7  UNL     1       1.860  -0.012  -0.435  1.00  0.00    -0.011 C 
HETATM    4  C6  UNL     1       2.489   1.166   0.141  1.00  0.00     0.019 C 
HETATM    5  C4  UNL     1       3.969   0.988   0.399  1.00  0.00    -0.017 C 
HETATM    6  C3  UNL     1       4.315  -0.226   1.157  1.00  0.00     0.008 C 
HETATM    7  C5  UNL     1       4.374   2.204   1.264  1.00  0.00     0.010 C 
HETATM    8  C2  UNL     1       3.474  -1.436   0.941  1.00  0.00    -0.017 C 
HETATM    9  C1  UNL     1       4.236  -2.518   0.156  1.00  0.00     0.010 C 
HETATM   10  C23 UNL     1       2.096  -1.255   0.462  1.00  0.00     0.019 C 
HETATM   11  C8  UNL     1       2.781  -0.370  -1.660  1.00  0.00     0.021 C 
ENDBRANCH   2   3
ENDBRANCH   1   2
BRANCH   1  12
HETATM   12  C10 UNL     1      -1.000   1.455   0.030  1.00  0.00     0.022 C 
BRANCH  12  13
HETATM   13  C11 UNL     1      -1.395   2.383  -1.130  1.00  0.00     0.217 C 
BRANCH  13  14
HETATM   14  O1  UNL     1      -0.455   2.554  -2.105  1.00  0.00    -0.395 OA
ATOM     15  H1  UNL     1      -0.699   3.128  -2.822  1.00  0.00     0.209 HD
ENDBRANCH  13  14
ENDBRANCH  12  13
BRANCH  12  16
HETATM   16  C12 UNL     1      -1.497   2.029   1.279  1.00  0.00    -0.010 C 
HETATM   17  C13 UNL     1      -1.646   3.558   1.293  1.00  0.00     0.021 C 
HETATM   18  C14 UNL     1      -2.900   1.644   1.721  1.00  0.00     0.021 C 
HETATM   19  C15 UNL     1      -0.661   1.792   2.521  1.00  0.00     0.021 C 
ENDBRANCH  12  16
ENDBRANCH   1  12
BRANCH   1  20
HETATM   20  C16 UNL     1      -1.664  -0.833  -0.695  1.00  0.00     0.167 C 
HETATM   21  C17 UNL     1      -1.306  -2.279  -0.361  1.00  0.00     0.333 C 
HETATM   22  N2  UNL     1      -2.359  -3.183  -0.785  1.00  0.00     0.093 N 
HETATM   23  C18 UNL     1      -3.422  -3.134   0.207  1.00  0.00     0.273 C 
HETATM   24  C22 UNL     1      -2.950  -2.877  -2.048  1.00  0.00     0.273 C 
HETATM   25  C19 UNL     1      -3.830  -1.705   0.322  1.00  0.00     0.040 C 
HETATM   26  C20 UNL     1      -3.100  -0.794  -0.691  1.00  0.00     0.047 C 
HETATM   27  C21 UNL     1      -3.626  -1.541  -1.980  1.00  0.00     0.040 C 
BRANCH  20  28
HETATM   28  O2  UNL     1      -1.375  -0.876  -2.127  1.00  0.00    -0.368 OA
ATOM     29  H2  UNL     1      -2.004  -1.527  -2.415  1.00  0.00     0.212 HD
ENDBRANCH  20  28
ENDBRANCH   1  20
TORSDOF 8
