REMARK  7 active torsions:
REMARK  status: ('A' for Active; 'I' for Inactive)
REMARK    1  A    between atoms: O1_2  and  C2_3 
REMARK    2  A    between atoms: C3_4  and  O2_6 
REMARK    3  A    between atoms: C8_11  and  C9_12 
REMARK    4  A    between atoms: C9_12  and  N1_13 
REMARK    5  A    between atoms: C9_12  and  C10_17 
REMARK    6  A    between atoms: N2_22  and  C14_23 
REMARK    7  A    between atoms: C14_23  and  C15_24 
ROOT
HETATM    1  C2  UNL     1      -1.123   2.463   0.078  1.00  0.00     0.192 C 
HETATM    2  C3  UNL     1      -2.423   2.857  -0.493  1.00  0.00     0.083 C 
HETATM    3  C4  UNL     1      -2.286   3.463  -1.894  1.00  0.00     0.049 C 
HETATM    4  C5  UNL     1      -3.543   1.873  -0.456  1.00  0.00     0.041 C 
HETATM    5  C6  UNL     1      -3.092   0.464  -0.097  1.00  0.00     0.015 C 
HETATM    6  C7  UNL     1      -1.780   0.244  -0.741  1.00  0.00     0.062 C 
HETATM    7  C8  UNL     1      -1.409  -1.172  -1.084  1.00  0.00     0.028 C 
HETATM    8  C13 UNL     1       0.031  -1.417  -0.816  1.00  0.00     0.272 C 
HETATM    9  O3  UNL     1       0.461  -2.535  -0.549  1.00  0.00    -0.266 OA
HETATM   10  N2  UNL     1       0.922  -0.310  -0.877  1.00  0.00    -0.221 N 
HETATM   11  O4  UNL     1       0.491   0.918  -0.569  1.00  0.00    -0.261 OA
HETATM   12  C21 UNL     1      -0.747   1.000   0.057  1.00  0.00     0.122 C 
HETATM   13  C22 UNL     1      -0.551   0.488   1.451  1.00  0.00     0.052 C 
ENDROOT
BRANCH   7  14
HETATM   14  C9  UNL     1      -2.339  -2.249  -0.775  1.00  0.00     0.221 C 
BRANCH  14  15
HETATM   15  N1  UNL     1      -1.682  -3.500  -1.276  1.00  0.00    -0.071 N 
ATOM     16  H13 UNL     1      -1.415  -3.458  -2.260  1.00  0.00     0.275 HD
ATOM     17  H12 UNL     1      -0.744  -3.648  -0.904  1.00  0.00     0.275 HD
ATOM     18  H11 UNL     1      -2.333  -4.254  -1.060  1.00  0.00     0.275 HD
ENDBRANCH  14  15
BRANCH  14  19
HETATM   19  C10 UNL     1      -2.782  -2.603   0.576  1.00  0.00     0.012 C 
HETATM   20  C11 UNL     1      -3.776  -3.778   0.356  1.00  0.00     0.012 C 
HETATM   21  C12 UNL     1      -1.756  -3.216   1.499  1.00  0.00     0.012 C 
ENDBRANCH  14  19
ENDBRANCH   7  14
BRANCH  10  22
HETATM   22  C14 UNL     1       2.303  -0.456  -1.284  1.00  0.00     0.164 C 
BRANCH  22  23
HETATM   23  C15 UNL     1       3.284  -0.729  -0.204  1.00  0.00     0.006 C 
HETATM   24  C16 UNL     1       4.644  -0.859  -0.930  1.00  0.00     0.006 C 
HETATM   25  C17 UNL     1       5.760  -1.034   0.044  1.00  0.00     0.000 C 
HETATM   26  C18 UNL     1       5.865   0.259   0.848  1.00  0.00     0.000 C 
HETATM   27  C19 UNL     1       4.601   0.377   1.638  1.00  0.00     0.000 C 
HETATM   28  C20 UNL     1       3.435   0.499   0.678  1.00  0.00     0.006 C 
ENDBRANCH  22  23
ENDBRANCH  10  22
BRANCH   1  29
HETATM   29  O1  UNL     1      -0.949   2.927   1.381  1.00  0.00    -0.385 OA
HETATM   30  C1  UNL     1       0.034   3.873   1.523  1.00  0.00     0.202 C 
ENDBRANCH   1  29
BRANCH   2  31
HETATM   31  O2  UNL     1      -2.876   3.956   0.295  1.00  0.00    -0.388 OA
ATOM     32  H2  UNL     1      -3.714   4.210  -0.073  1.00  0.00     0.210 HD
ENDBRANCH   2  31
TORSDOF 7
