REMARK  7 active torsions:
REMARK  status: ('A' for Active; 'I' for Inactive)
REMARK    1  A    between atoms: C2_2  and  C3_3 
REMARK    2  A    between atoms: C2_2  and  C9_13 
REMARK    3  A    between atoms: C3_3  and  S1_4 
REMARK    4  A    between atoms: S1_4  and  C4_5 
REMARK       I    between atoms: C4_5  and  N1_7 
REMARK       I    between atoms: C9_13  and  N2_15 
REMARK    5  A    between atoms: N2_15  and  C10_17 
REMARK    6  A    between atoms: C10_17  and  N3_19 
REMARK    7  A    between atoms: N3_19  and  C11_21 
ROOT
HETATM    1  C9  UNL     1      -0.036   0.685   1.716  1.00  0.00     0.228 C 
HETATM    2  O3  UNL     1      -0.546   0.997   2.821  1.00  0.00    -0.273 OA
HETATM    3  N2  UNL     1      -0.879   0.289   0.654  1.00  0.00    -0.304 N 
ATOM      4  H2  UNL     1      -0.449   0.040  -0.237  1.00  0.00     0.171 HD
ENDROOT
BRANCH   1   5
HETATM    5  C2  UNL     1       1.464   0.727   1.508  1.00  0.00     0.084 C 
HETATM    6  C1  UNL     1       1.757   1.672   0.391  1.00  0.00     0.020 C 
BRANCH   5   7
HETATM    7  C3  UNL     1       1.984  -0.654   1.377  1.00  0.00     0.097 C 
BRANCH   7   8
HETATM    8  S1  UNL     1       3.739  -0.853   1.237  1.00  0.00    -0.068 SA
BRANCH   8   9
HETATM    9  C4  UNL     1       4.479  -0.394  -0.289  1.00  0.00     0.282 C 
HETATM   10  O1  UNL     1       3.738  -0.088  -1.272  1.00  0.00    -0.260 OA
HETATM   11  N1  UNL     1       5.893  -0.360  -0.457  1.00  0.00    -0.339 N 
HETATM   12  C5  UNL     1       6.805  -0.691   0.607  1.00  0.00     0.152 C 
HETATM   13  C8  UNL     1       6.433   0.019  -1.735  1.00  0.00     0.152 C 
HETATM   14  C6  UNL     1       7.904  -1.532  -0.012  1.00  0.00     0.187 C 
HETATM   15  O2  UNL     1       7.526  -2.072  -1.228  1.00  0.00    -0.388 OA
HETATM   16  C7  UNL     1       7.304  -1.133  -2.205  1.00  0.00     0.187 C 
ENDBRANCH   8   9
ENDBRANCH   7   8
ENDBRANCH   5   7
ENDBRANCH   1   5
BRANCH   3  17
HETATM   17  C10 UNL     1      -2.295   0.220   0.762  1.00  0.00     0.174 C 
HETATM   18  S2  UNL     1      -2.988   0.617   2.183  1.00  0.00    -0.041 SA
BRANCH  17  19
HETATM   19  N3  UNL     1      -3.046  -0.182  -0.367  1.00  0.00    -0.362 N 
ATOM     20  H3  UNL     1      -2.524  -0.404  -1.215  1.00  0.00     0.162 HD
BRANCH  19  21
HETATM   21  C11 UNL     1      -4.471  -0.307  -0.431  1.00  0.00     0.087 C 
HETATM   22  C12 UNL     1      -4.999  -1.334   0.504  1.00  0.00     0.025 C 
HETATM   23  C13 UNL     1      -6.246  -0.925   1.243  1.00  0.00     0.002 C 
HETATM   24  C14 UNL     1      -7.257  -0.241   0.372  1.00  0.00     0.001 C 
HETATM   25  C15 UNL     1      -6.647   0.764  -0.568  1.00  0.00     0.006 C 
HETATM   26  C16 UNL     1      -5.181   1.017  -0.236  1.00  0.00     0.004 C 
HETATM   27  C17 UNL     1      -4.663   2.013  -1.236  1.00  0.00     0.012 C 
ENDBRANCH  19  21
ENDBRANCH  17  19
ENDBRANCH   3  17
TORSDOF 7
