REMARK  6 active torsions:
REMARK  status: ('A' for Active; 'I' for Inactive)
REMARK    1  A    between atoms: C1_2  and  C2_3 
REMARK       I    between atoms: C1_2  and  N2_11 
REMARK    2  A    between atoms: C2_3  and  C3_4 
REMARK    3  A    between atoms: N2_11  and  C7_13 
REMARK    4  A    between atoms: N3_15  and  C9_16 
REMARK    5  A    between atoms: C9_16  and  C10_17 
REMARK    6  A    between atoms: C10_17  and  C11_18 
ROOT
HETATM    1  C7  UNL     1       1.388  -0.078  -0.826  1.00  0.00     0.184 C 
HETATM    2  C8  UNL     1       0.663   0.116   0.490  1.00  0.00     0.305 C 
HETATM    3  N3  UNL     1      -0.448  -0.783   0.523  1.00  0.00     0.098 N 
HETATM    4  C19 UNL     1      -0.237  -1.745  -0.505  1.00  0.00     0.352 C 
HETATM    5  C20 UNL     1       0.434  -0.935  -1.584  1.00  0.00     0.179 C 
HETATM    6  O2  UNL     1       0.240  -0.977  -2.775  1.00  0.00    -0.294 OA
ENDROOT
BRANCH   1   7
HETATM    7  N2  UNL     1       2.598  -0.807  -0.517  1.00  0.00    -0.348 N 
HETATM    8  C1  UNL     1       3.851  -0.218  -0.827  1.00  0.00     0.220 C 
HETATM    9  O1  UNL     1       3.916   0.915  -1.359  1.00  0.00    -0.274 OA
ATOM     10  H2  UNL     1       2.551  -1.729  -0.083  1.00  0.00     0.163 HD
BRANCH   8  11
HETATM   11  C2  UNL     1       5.113  -0.933  -0.526  1.00  0.00     0.135 C 
BRANCH  11  12
HETATM   12  C3  UNL     1       6.278  -0.082  -0.933  1.00  0.00     0.194 C 
HETATM   13  C4  UNL     1       6.192   1.208  -0.136  1.00  0.00     0.035 C 
HETATM   14  C5  UNL     1       7.504   1.276   0.599  1.00  0.00     0.029 C 
HETATM   15  C6  UNL     1       8.387   0.418  -0.283  1.00  0.00     0.233 C 
HETATM   16  N1  UNL     1       7.531  -0.718  -0.568  1.00  0.00    -0.070 N 
ATOM     17  H12 UNL     1       7.461  -1.403   0.185  1.00  0.00     0.277 HD
ATOM     18  H11 UNL     1       7.899  -1.370  -1.261  1.00  0.00     0.277 HD
ENDBRANCH  11  12
ENDBRANCH   8  11
ENDBRANCH   1   7
BRANCH   3  19
HETATM   19  C9  UNL     1      -1.668  -0.027   0.417  1.00  0.00     0.273 C 
BRANCH  19  20
HETATM   20  C10 UNL     1      -2.840  -0.919   0.548  1.00  0.00     0.040 C 
BRANCH  20  21
HETATM   21  C11 UNL     1      -4.170  -0.202   0.475  1.00  0.00    -0.035 C 
HETATM   22  C12 UNL     1      -5.278  -1.249   0.628  1.00  0.00     0.010 C 
HETATM   23  C13 UNL     1      -6.622  -0.618   0.780  1.00  0.00     0.001 C 
HETATM   24  C14 UNL     1      -6.874   0.425  -0.279  1.00  0.00     0.000 C 
HETATM   25  C15 UNL     1      -5.775   0.473  -1.318  1.00  0.00     0.005 C 
HETATM   26  C16 UNL     1      -4.406   0.679  -0.703  1.00  0.00    -0.006 C 
HETATM   27  C17 UNL     1      -4.393   1.920   0.190  1.00  0.00     0.006 C 
HETATM   28  C18 UNL     1      -4.317   0.990   1.380  1.00  0.00     0.010 C 
ENDBRANCH  20  21
ENDBRANCH  19  20
ENDBRANCH   3  19
TORSDOF 6
