REMARK  6 active torsions:
REMARK  status: ('A' for Active; 'I' for Inactive)
REMARK    1  A    between atoms: C2_2  and  S1_3 
REMARK    2  A    between atoms: S1_3  and  C3_6 
REMARK    3  A    between atoms: C3_6  and  C4_7 
REMARK    4  A    between atoms: C4_7  and  C5_8 
REMARK    5  A    between atoms: C5_8  and  N1_9 
REMARK       I    between atoms: N1_9  and  C6_11 
REMARK       I    between atoms: C6_11  and  N2_13 
REMARK    6  A    between atoms: N2_13  and  C7_15 
ROOT
HETATM    1  N1  UNL     1       1.943   1.018   0.404  1.00  0.00    -0.343 N 
ATOM      2  H1  UNL     1       2.076   1.977   0.084  1.00  0.00     0.164 HD
HETATM    3  C6  UNL     1       0.667   0.442   0.412  1.00  0.00     0.316 C 
HETATM    4  O3  UNL     1       0.517  -0.733   0.804  1.00  0.00    -0.247 OA
HETATM    5  N2  UNL     1      -0.438   1.199  -0.026  1.00  0.00    -0.334 N 
ATOM      6  H2  UNL     1      -0.258   2.154  -0.336  1.00  0.00     0.165 HD
ENDROOT
BRANCH   5   7
HETATM    7  C7  UNL     1      -1.805   0.733  -0.072  1.00  0.00     0.035 C 
HETATM    8  C8  UNL     1      -1.880  -0.450  -0.979  1.00  0.00     0.035 C 
HETATM    9  C9  UNL     1      -3.285  -0.919  -1.282  1.00  0.00    -0.012 C 
HETATM   10  C10 UNL     1      -3.810  -1.882  -0.272  1.00  0.00     0.005 C 
HETATM   11  C15 UNL     1      -4.237   0.196  -1.605  1.00  0.00     0.009 C 
HETATM   12  C11 UNL     1      -3.877  -1.453   1.118  1.00  0.00     0.005 C 
HETATM   13  C12 UNL     1      -3.699  -0.010   1.421  1.00  0.00    -0.012 C 
HETATM   14  C13 UNL     1      -4.636   0.895   0.686  1.00  0.00     0.009 C 
HETATM   15  C17 UNL     1      -2.251   0.441   1.326  1.00  0.00     0.035 C 
HETATM   16  C14 UNL     1      -4.113   1.351  -0.637  1.00  0.00    -0.012 C 
HETATM   17  C16 UNL     1      -2.704   1.829  -0.622  1.00  0.00     0.035 C 
ENDBRANCH   5   7
BRANCH   1  18
HETATM   18  C5  UNL     1       3.075   0.228   0.858  1.00  0.00     0.125 C 
BRANCH  18  19
HETATM   19  C4  UNL     1       4.355   0.979   0.789  1.00  0.00     0.035 C 
BRANCH  19  20
HETATM   20  C3  UNL     1       5.497   0.163   1.299  1.00  0.00     0.146 C 
BRANCH  20  21
HETATM   21  S1  UNL     1       5.755  -1.308   0.392  1.00  0.00     0.165 S 
HETATM   22  O1  UNL     1       4.674  -2.310   0.499  1.00  0.00    -0.224 OA
HETATM   23  O2  UNL     1       7.016  -2.030   0.907  1.00  0.00    -0.224 OA
BRANCH  21  24
HETATM   24  C2  UNL     1       6.050  -0.910  -1.301  1.00  0.00     0.098 C 
HETATM   25  C1  UNL     1       7.245  -1.003  -1.826  1.00  0.00     0.023 C 
ENDBRANCH  21  24
ENDBRANCH  20  21
ENDBRANCH  19  20
ENDBRANCH  18  19
ENDBRANCH   1  18
TORSDOF 6
