REMARK  6 active torsions:
REMARK  status: ('A' for Active; 'I' for Inactive)
REMARK    1  A    between atoms: C1_2  and  C2_4 
REMARK    2  A    between atoms: C2_4  and  C3_5 
REMARK    3  A    between atoms: C3_5  and  C4_6 
REMARK       I    between atoms: N1_11  and  C9_12 
REMARK    4  A    between atoms: C9_12  and  C10_14 
REMARK    5  A    between atoms: C10_14  and  N2_15 
REMARK    6  A    between atoms: N2_15  and  C11_17 
ROOT
HETATM    1  C4  UNL     1       3.677  -0.009   0.247  1.00  0.00     0.087 C 
HETATM    2  C5  UNL     1       3.907  -0.225   1.754  1.00  0.00     0.025 C 
HETATM    3  C6  UNL     1       3.467   0.954   2.533  1.00  0.00     0.004 C 
HETATM    4  C7  UNL     1       2.239   1.661   2.112  1.00  0.00     0.020 C 
HETATM    5  C8  UNL     1       2.046   1.711   0.639  1.00  0.00     0.126 C 
HETATM    6  N1  UNL     1       2.311   0.395   0.106  1.00  0.00    -0.346 N 
HETATM    7  C9  UNL     1       1.295  -0.355  -0.487  1.00  0.00     0.237 C 
HETATM    8  O3  UNL     1       1.413  -1.440  -1.071  1.00  0.00    -0.272 OA
ENDROOT
BRANCH   7   9
HETATM    9  C10 UNL     1      -0.125   0.165  -0.432  1.00  0.00     0.218 C 
BRANCH   9  10
HETATM   10  N2  UNL     1      -1.069  -0.696  -1.047  1.00  0.00    -0.404 N 
ATOM     11  H2  UNL     1      -0.791  -1.500  -1.610  1.00  0.00     0.154 HD
BRANCH  10  12
HETATM   12  C11 UNL     1      -2.441  -0.353  -0.820  1.00  0.00     0.027 C 
HETATM   13  C12 UNL     1      -3.126  -1.691  -0.545  1.00  0.00     0.035 C 
HETATM   14  C13 UNL     1      -4.570  -1.555  -0.202  1.00  0.00    -0.012 C 
HETATM   15  C14 UNL     1      -4.692  -0.761   1.075  1.00  0.00     0.009 C 
HETATM   16  C18 UNL     1      -5.278  -0.880  -1.329  1.00  0.00     0.009 C 
HETATM   17  C15 UNL     1      -4.057   0.585   0.816  1.00  0.00    -0.012 C 
HETATM   18  C16 UNL     1      -4.857   1.248  -0.277  1.00  0.00     0.009 C 
HETATM   19  C20 UNL     1      -2.600   0.462   0.461  1.00  0.00     0.035 C 
HETATM   20  C17 UNL     1      -4.622   0.469  -1.547  1.00  0.00    -0.012 C 
HETATM   21  C19 UNL     1      -3.155   0.346  -1.911  1.00  0.00     0.035 C 
ENDBRANCH  10  12
ENDBRANCH   9  10
ENDBRANCH   7   9
BRANCH   1  22
HETATM   22  C3  UNL     1       4.117  -1.154  -0.556  1.00  0.00     0.036 C 
BRANCH  22  23
HETATM   23  C2  UNL     1       5.580  -1.494  -0.416  1.00  0.00     0.115 C 
BRANCH  23  24
HETATM   24  C1  UNL     1       6.515  -0.433  -0.816  1.00  0.00     0.172 C 
HETATM   25  O1  UNL     1       7.754  -0.629  -0.507  1.00  0.00    -0.648 OA
HETATM   26  O2  UNL     1       6.153   0.706  -1.477  1.00  0.00    -0.648 OA
ENDBRANCH  23  24
ENDBRANCH  22  23
ENDBRANCH   1  22
TORSDOF 6
