REMARK  6 active torsions:
REMARK  status: ('A' for Active; 'I' for Inactive)
REMARK    1  A    between atoms: C5_6  and  C6_7 
REMARK    2  A    between atoms: C6_7  and  N2_8 
REMARK       I    between atoms: N2_8  and  C7_10 
REMARK       I    between atoms: C7_10  and  N3_12 
REMARK    3  A    between atoms: N3_12  and  C8_14 
REMARK    4  A    between atoms: C8_14  and  C9_15 
REMARK    5  A    between atoms: C11_17  and  C12_18 
REMARK    6  A    between atoms: C12_18  and  C13_19 
ROOT
HETATM    1  N2  UNL     1       2.961   0.057   2.079  1.00  0.00    -0.343 N 
ATOM      2  H2  UNL     1       2.719  -0.385   2.966  1.00  0.00     0.164 HD
HETATM    3  C7  UNL     1       1.928   0.221   1.149  1.00  0.00     0.316 C 
HETATM    4  O1  UNL     1       2.146   0.765   0.018  1.00  0.00    -0.247 OA
HETATM    5  N3  UNL     1       0.589  -0.194   1.384  1.00  0.00    -0.341 N 
ATOM      6  H3  UNL     1       0.376  -0.634   2.280  1.00  0.00     0.164 HD
ENDROOT
BRANCH   5   7
HETATM    7  C8  UNL     1      -0.476  -0.036   0.450  1.00  0.00     0.156 C 
BRANCH   7   8
HETATM    8  C9  UNL     1      -1.754  -0.584   1.023  1.00  0.00     0.139 C 
HETATM    9  C10 UNL     1      -2.927  -0.352   0.058  1.00  0.00     0.040 C 
HETATM   10  C11 UNL     1      -3.358   1.019   0.447  1.00  0.00     0.012 C 
HETATM   11  C18 UNL     1      -2.884   1.140   1.878  1.00  0.00     0.172 C 
HETATM   12  O2  UNL     1      -2.151   0.026   2.181  1.00  0.00    -0.384 OA
BRANCH  10  13
HETATM   13  C12 UNL     1      -4.821   1.283   0.428  1.00  0.00     0.011 C 
BRANCH  13  14
HETATM   14  C13 UNL     1      -5.507   1.113  -0.885  1.00  0.00    -0.014 C 
HETATM   15  C14 UNL     1      -7.002   1.431  -0.717  1.00  0.00     0.005 C 
HETATM   16  C15 UNL     1      -7.751   0.502  -1.613  1.00  0.00     0.000 C 
HETATM   17  C16 UNL     1      -6.700  -0.229  -2.410  1.00  0.00     0.000 C 
HETATM   18  C17 UNL     1      -5.559  -0.301  -1.388  1.00  0.00     0.005 C 
ENDBRANCH  13  14
ENDBRANCH  10  13
ENDBRANCH   7   8
ENDBRANCH   5   7
BRANCH   1  19
HETATM   19  C6  UNL     1       4.320   0.451   1.902  1.00  0.00     0.130 C 
BRANCH  19  20
HETATM   20  C5  UNL     1       4.976  -0.231   0.726  1.00  0.00     0.032 C 
HETATM   21  C4  UNL     1       4.980  -1.740   0.879  1.00  0.00     0.010 C 
HETATM   22  C3  UNL     1       5.439  -2.286  -0.480  1.00  0.00     0.031 C 
HETATM   23  C2  UNL     1       6.788  -1.747  -0.802  1.00  0.00     0.272 C 
HETATM   24  N1  UNL     1       6.962  -0.354  -0.603  1.00  0.00     0.084 N 
HETATM   25  C1  UNL     1       6.682   0.476  -1.729  1.00  0.00     0.309 C 
HETATM   26  C19 UNL     1       6.428   0.181   0.602  1.00  0.00     0.278 C 
ENDBRANCH  19  20
ENDBRANCH   1  19
TORSDOF 6
