REMARK  8 active torsions:
REMARK  status: ('A' for Active; 'I' for Inactive)
REMARK    1  A    between atoms: C2_2  and  C3_3 
REMARK    2  A    between atoms: C3_3  and  N1_4 
REMARK    3  A    between atoms: N1_4  and  C4_6 
REMARK    4  A    between atoms: C4_6  and  N2_8 
REMARK    5  A    between atoms: N2_8  and  C5_10 
REMARK    6  A    between atoms: C5_10  and  C6_11 
REMARK    7  A    between atoms: C6_11  and  C7_12 
REMARK    8  A    between atoms: C7_12  and  N3_13 
ROOT
HETATM    1  C4  UNL     1       1.263  -2.191   0.623  1.00  0.00     0.168 C 
HETATM    2  S1  UNL     1       2.713  -2.875   0.926  1.00  0.00    -0.041 SA
ENDROOT
BRANCH   1   3
HETATM    3  N1  UNL     1       1.179  -0.885   0.137  1.00  0.00    -0.358 N 
ATOM      4  H1  UNL     1       0.243  -0.514  -0.023  1.00  0.00     0.162 HD
BRANCH   3   5
HETATM    5  C3  UNL     1       2.307   0.009  -0.167  1.00  0.00     0.032 C 
HETATM    6  C13 UNL     1       2.966  -0.518  -1.398  1.00  0.00     0.031 C 
HETATM    7  C14 UNL     1       4.364  -0.030  -1.629  1.00  0.00     0.007 C 
HETATM    8  C15 UNL     1       5.197  -0.300  -0.432  1.00  0.00    -0.019 C 
HETATM    9  C16 UNL     1       6.599   0.248  -0.656  1.00  0.00     0.010 C 
HETATM   10  C17 UNL     1       4.623   0.067   0.887  1.00  0.00     0.007 C 
HETATM   11  C18 UNL     1       3.175   0.295   0.992  1.00  0.00     0.031 C 
BRANCH   5  12
HETATM   12  C2  UNL     1       1.629   1.336  -0.542  1.00  0.00     0.026 C 
HETATM   13  C1  UNL     1       2.576   2.424  -0.885  1.00  0.00     0.007 C 
ENDBRANCH   5  12
ENDBRANCH   3   5
ENDBRANCH   1   3
BRANCH   1  14
HETATM   14  N2  UNL     1       0.116  -2.955   0.879  1.00  0.00    -0.367 N 
ATOM     15  H2  UNL     1       0.255  -3.909   1.212  1.00  0.00     0.161 HD
BRANCH  14  16
HETATM   16  C5  UNL     1      -1.224  -2.511   0.713  1.00  0.00     0.127 C 
BRANCH  16  17
HETATM   17  C6  UNL     1      -1.727  -1.510   1.707  1.00  0.00     0.064 C 
BRANCH  17  18
HETATM   18  C7  UNL     1      -3.176  -1.203   1.343  1.00  0.00     0.060 C 
BRANCH  18  19
HETATM   19  N3  UNL     1      -3.363  -0.637   0.074  1.00  0.00    -0.390 N 
HETATM   20  C8  UNL     1      -2.941   0.712  -0.103  1.00  0.00     0.141 C 
HETATM   21  C9  UNL     1      -4.017   1.739  -0.166  1.00  0.00     0.136 C 
HETATM   22  N4  UNL     1      -5.335   1.347   0.177  1.00  0.00    -0.414 N 
HETATM   23  C10 UNL     1      -6.367   2.202  -0.364  1.00  0.00     0.143 C 
HETATM   24  C11 UNL     1      -5.654  -0.043   0.105  1.00  0.00     0.136 C 
HETATM   25  C12 UNL     1      -4.590  -0.855  -0.598  1.00  0.00     0.141 C 
ENDBRANCH  18  19
ENDBRANCH  17  18
ENDBRANCH  16  17
ENDBRANCH  14  16
ENDBRANCH   1  14
TORSDOF 8
