REMARK  19 active torsions:
REMARK  status: ('A' for Active; 'I' for Inactive)
REMARK    1  A    between atoms: C2_3  and  O1_4 
REMARK    2  A    between atoms: C3_6  and  O2_7 
REMARK    3  A    between atoms: C6_11  and  O3_12 
REMARK    4  A    between atoms: N2_15  and  O4_17 
REMARK    5  A    between atoms: O4_17  and  C8_18 
REMARK    6  A    between atoms: C8_18  and  N3_19 
REMARK    7  A    between atoms: C8_18  and  N4_23 
REMARK    8  A    between atoms: C9_27  and  N5_28 
REMARK    9  A    between atoms: N5_28  and  O5_29 
REMARK   10  A    between atoms: O5_29  and  C10_30 
REMARK   11  A    between atoms: C10_30  and  N6_31 
REMARK   12  A    between atoms: C10_30  and  C12_41 
REMARK   13  A    between atoms: N6_31  and  C11_34 
REMARK   14  A    between atoms: C11_34  and  N7_35 
REMARK   15  A    between atoms: C11_34  and  O6_39 
REMARK   16  A    between atoms: C13_44  and  C14_45 
REMARK   17  A    between atoms: C14_45  and  O7_46 
REMARK   18  A    between atoms: C14_45  and  O8_48 
REMARK   19  A    between atoms: C15_53  and  N10_54 
ROOT
HETATM    1  N1  UNL     1      -6.300   1.858  -0.977  1.00  0.00    -0.096 NA
HETATM    2  C1  UNL     1      -4.971   1.905  -0.458  1.00  0.00     0.116 A 
HETATM    3  C2  UNL     1      -4.534   3.119   0.032  1.00  0.00     0.126 A 
HETATM    4  C3  UNL     1      -3.236   3.186   0.544  1.00  0.00     0.108 A 
HETATM    5  C4  UNL     1      -2.451   2.065   0.545  1.00  0.00    -0.005 A 
HETATM    6  C5  UNL     1      -2.894   0.839   0.049  1.00  0.00     0.035 A 
HETATM    7  C6  UNL     1      -4.176   0.781  -0.455  1.00  0.00     0.105 A 
HETATM    8  C7  UNL     1      -2.019  -0.338   0.067  1.00  0.00     0.069 C 
HETATM    9  N2  UNL     1      -2.393  -1.352  -0.634  1.00  0.00    -0.264 N 
ATOM     10  H2  UNL     1      -3.268  -1.266  -1.151  1.00  0.00     0.194 HD
HETATM   11  C9  UNL     1      -0.758  -0.369   0.851  1.00  0.00     0.190 C 
HETATM   12  C15 UNL     1      -0.844   0.775   1.836  1.00  0.00     0.215 C 
HETATM   13  C16 UNL     1      -1.076   2.080   1.074  1.00  0.00     0.077 C 
ENDROOT
BRANCH  11  14
HETATM   14  N5  UNL     1       0.353  -0.249  -0.056  1.00  0.00    -0.085 NA
BRANCH  14  15
HETATM   15  O5  UNL     1       1.541  -0.265   0.538  1.00  0.00    -0.243 OA
BRANCH  15  16
HETATM   16  C10 UNL     1       2.518   0.471  -0.152  1.00  0.00     0.426 C 
BRANCH  16  17
HETATM   17  N6  UNL     1       2.906   1.556   0.704  1.00  0.00     0.013 N 
ATOM     18  H62 UNL     1       2.088   2.096   0.986  1.00  0.00     0.286 HD
ATOM     19  H61 UNL     1       3.205   1.202   1.613  1.00  0.00     0.286 HD
BRANCH  17  20
HETATM   20  C11 UNL     1       3.909   2.421   0.150  1.00  0.00     0.522 C 
BRANCH  20  21
HETATM   21  N7  UNL     1       3.503   3.055  -1.085  1.00  0.00    -0.027 N 
ATOM     22  H73 UNL     1       3.208   2.358  -1.769  1.00  0.00     0.279 HD
ATOM     23  H72 UNL     1       2.622   3.555  -0.962  1.00  0.00     0.279 HD
ATOM     24  H71 UNL     1       4.216   3.670  -1.479  1.00  0.00     0.279 HD
ENDBRANCH  20  21
BRANCH  20  25
HETATM   25  O6  UNL     1       5.145   1.772   0.027  1.00  0.00    -0.349 OA
ATOM     26  H6  UNL     1       5.809   2.344  -0.340  1.00  0.00     0.213 HD
ENDBRANCH  20  25
ENDBRANCH  17  20
ENDBRANCH  16  17
BRANCH  16  27
HETATM   27  C12 UNL     1       3.632  -0.385  -0.577  1.00  0.00     0.207 A 
HETATM   28  N8  UNL     1       4.283  -1.325   0.130  1.00  0.00    -0.319 N 
HETATM   29  C13 UNL     1       5.245  -1.886  -0.623  1.00  0.00     0.159 A 
ATOM     30  H8  UNL     1       4.077  -1.576   1.097  1.00  0.00     0.169 HD
HETATM   31  N9  UNL     1       5.165  -1.263  -1.813  1.00  0.00    -0.242 N 
HETATM   32  O9  UNL     1       4.207  -0.384  -1.757  1.00  0.00    -0.218 OA
ATOM     33  H9  UNL     1       5.756  -1.449  -2.623  1.00  0.00     0.196 HD
BRANCH  29  34
HETATM   34  C14 UNL     1       6.217  -2.961  -0.282  1.00  0.00     0.325 C 
BRANCH  34  35
HETATM   35  O7  UNL     1       6.280  -3.897  -1.338  1.00  0.00    -0.365 OA
ATOM     36  H7  UNL     1       6.900  -4.583  -1.120  1.00  0.00     0.213 HD
ENDBRANCH  34  35
BRANCH  34  37
HETATM   37  O8  UNL     1       5.882  -3.620   0.882  1.00  0.00    -0.365 OA
ATOM     38  H8  UNL     1       6.502  -4.306   1.100  1.00  0.00     0.213 HD
ENDBRANCH  34  37
ENDBRANCH  29  34
ENDBRANCH  16  27
ENDBRANCH  15  16
ENDBRANCH  14  15
ENDBRANCH  11  14
BRANCH  12  39
HETATM   39  N10 UNL     1      -2.030   0.558   2.644  1.00  0.00    -0.073 N 
ATOM     40 3H10 UNL     1      -2.877   0.446   2.087  1.00  0.00     0.274 HD
ATOM     41 2H10 UNL     1      -2.045  -0.358   3.093  1.00  0.00     0.274 HD
ATOM     42 1H10 UNL     1      -2.088   1.330   3.308  1.00  0.00     0.274 HD
ENDBRANCH  12  39
BRANCH   9  43
HETATM   43  O4  UNL     1      -1.720  -2.523  -0.742  1.00  0.00    -0.220 OA
BRANCH  43  44
HETATM   44  C8  UNL     1      -2.183  -3.717  -0.141  1.00  0.00     0.542 C 
BRANCH  44  45
HETATM   45  N3  UNL     1      -1.179  -4.246   0.763  1.00  0.00    -0.025 N 
ATOM     46  H33 UNL     1      -0.280  -4.377   0.299  1.00  0.00     0.279 HD
ATOM     47  H32 UNL     1      -0.891  -3.557   1.458  1.00  0.00     0.279 HD
ATOM     48  H31 UNL     1      -1.513  -5.107   1.196  1.00  0.00     0.279 HD
ENDBRANCH  44  45
BRANCH  44  49
HETATM   49  N4  UNL     1      -2.436  -4.743  -1.135  1.00  0.00    -0.025 N 
ATOM     50  H43 UNL     1      -3.077  -4.415  -1.858  1.00  0.00     0.279 HD
ATOM     51  H42 UNL     1      -1.616  -4.911  -1.717  1.00  0.00     0.279 HD
ATOM     52  H41 UNL     1      -2.770  -5.604  -0.702  1.00  0.00     0.279 HD
ENDBRANCH  44  49
ENDBRANCH  43  44
ENDBRANCH   9  43
BRANCH   7  53
HETATM   53  O3  UNL     1      -4.678  -0.395  -0.959  1.00  0.00    -0.358 OA
ATOM     54  H3  UNL     1      -4.129  -1.171  -0.957  1.00  0.00     0.217 HD
ENDBRANCH   7  53
BRANCH   4  55
HETATM   55  O2  UNL     1      -2.791   4.392   1.034  1.00  0.00    -0.357 OA
ATOM     56  H2  UNL     1      -1.908   4.438   1.382  1.00  0.00     0.217 HD
ENDBRANCH   4  55
BRANCH   3  57
HETATM   57  O1  UNL     1      -5.364   4.234   0.012  1.00  0.00    -0.356 OA
ATOM     58  H1  UNL     1      -5.063   5.070   0.349  1.00  0.00     0.218 HD
ENDBRANCH   3  57
TORSDOF 19
