REMARK  18 active torsions:
REMARK  status: ('A' for Active; 'I' for Inactive)
REMARK    1  A    between atoms: N1_1  and  N2_4 
REMARK    2  A    between atoms: N2_4  and  C1_5 
REMARK    3  A    between atoms: C1_5  and  N3_6 
REMARK    4  A    between atoms: C2_11  and  S1_12 
REMARK    5  A    between atoms: S1_12  and  C3_13 
REMARK    6  A    between atoms: C4_17  and  C5_18 
REMARK    7  A    between atoms: C5_18  and  N5_19 
REMARK    8  A    between atoms: C5_18  and  C12_37 
REMARK    9  A    between atoms: N5_19  and  C6_21 
REMARK   10  A    between atoms: C7_24  and  C8_25 
REMARK   11  A    between atoms: C9_28  and  O4_29 
REMARK   12  A    between atoms: C10_31  and  O5_32 
REMARK   13  A    between atoms: C11_34  and  O6_35 
REMARK   14  A    between atoms: C12_37  and  O7_38 
REMARK   15  A    between atoms: C12_37  and  O8_40 
REMARK   16  A    between atoms: C13_44  and  C14_45 
REMARK   17  A    between atoms: C14_45  and  O11_46 
REMARK   18  A    between atoms: C15_48  and  O12_49 
ROOT
HETATM    1  C3  UNL     1      -0.360  -1.352   1.099  1.00  0.00     0.395 C 
HETATM    2  N4  UNL     1       0.190  -0.831  -0.170  1.00  0.00    -0.011 N 
ATOM      3  H41 UNL     1      -0.351  -0.288  -0.843  1.00  0.00     0.284 HD
ATOM      4  H42 UNL     1       0.436  -1.419  -0.966  1.00  0.00     0.284 HD
HETATM    5  C4  UNL     1       1.150  -0.261   0.728  1.00  0.00     0.355 C 
HETATM    6  O9  UNL     1       0.059  -0.097   1.627  1.00  0.00    -0.315 OA
ENDROOT
BRANCH   5   7
HETATM    7  C5  UNL     1       1.881   0.963   0.358  1.00  0.00     0.194 C 
BRANCH   7   8
HETATM    8  N5  UNL     1       2.959   0.633  -0.554  1.00  0.00    -0.360 N 
ATOM      9  H5  UNL     1       2.890   1.008  -1.500  1.00  0.00     0.162 HD
BRANCH   8  10
HETATM   10  C6  UNL     1       4.074  -0.140  -0.271  1.00  0.00     0.139 A 
HETATM   11  N6  UNL     1       4.263  -0.654   0.956  1.00  0.00    -0.333 N 
HETATM   12  C7  UNL     1       5.301  -1.397   1.337  1.00  0.00     0.147 A 
ATOM     13  H6  UNL     1       3.549  -0.458   1.657  1.00  0.00     0.168 HD
HETATM   14  C9  UNL     1       6.262  -1.650   0.361  1.00  0.00     0.136 A 
HETATM   15  C10 UNL     1       6.159  -1.172  -0.915  1.00  0.00     0.139 A 
HETATM   16  C11 UNL     1       5.028  -0.400  -1.215  1.00  0.00     0.146 A 
BRANCH  12  17
HETATM   17  C8  UNL     1       5.460  -1.927   2.665  1.00  0.00     0.229 C 
HETATM   18  O2  UNL     1       6.459  -2.616   2.951  1.00  0.00    -0.643 OA
HETATM   19  O3  UNL     1       4.512  -1.679   3.634  1.00  0.00    -0.643 OA
ENDBRANCH  12  17
BRANCH  14  20
HETATM   20  O4  UNL     1       7.366  -2.417   0.694  1.00  0.00    -0.356 OA
ATOM     21  H4  UNL     1       8.021  -2.590   0.028  1.00  0.00     0.218 HD
ENDBRANCH  14  20
BRANCH  15  22
HETATM   22  O5  UNL     1       7.101  -1.412  -1.899  1.00  0.00    -0.355 OA
ATOM     23  H5  UNL     1       7.029  -1.080  -2.786  1.00  0.00     0.218 HD
ENDBRANCH  15  22
BRANCH  16  24
HETATM   24  O6  UNL     1       4.954   0.065  -2.505  1.00  0.00    -0.355 OA
ATOM     25  H6  UNL     1       5.617  -0.116  -3.161  1.00  0.00     0.218 HD
ENDBRANCH  16  24
ENDBRANCH   8  10
ENDBRANCH   7   8
BRANCH   7  26
HETATM   26  C12 UNL     1       1.029   2.082  -0.119  1.00  0.00     0.280 C 
BRANCH  26  27
HETATM   27  O7  UNL     1       1.744   3.276  -0.274  1.00  0.00    -0.369 OA
ATOM     28  H7  UNL     1       1.199   3.992  -0.579  1.00  0.00     0.212 HD
ENDBRANCH  26  27
BRANCH  26  29
HETATM   29  O8  UNL     1       0.416   1.846  -1.352  1.00  0.00    -0.369 OA
ATOM     30  H8  UNL     1      -0.129   2.562  -1.657  1.00  0.00     0.212 HD
ENDBRANCH  26  29
ENDBRANCH   7  26
ENDBRANCH   5   7
BRANCH   1  31
HETATM   31  S1  UNL     1      -2.105  -1.668   1.140  1.00  0.00    -0.049 SA
BRANCH  31  32
HETATM   32  C2  UNL     1      -3.142  -0.213   1.037  1.00  0.00     0.334 C 
HETATM   33  O1  UNL     1      -4.496  -0.509   1.099  1.00  0.00    -0.298 OA
HETATM   34  C1  UNL     1      -5.127  -0.496  -0.120  1.00  0.00     0.348 C 
HETATM   35  C15 UNL     1      -5.018   0.836  -0.827  1.00  0.00     0.232 C 
HETATM   36  C13 UNL     1      -3.750   1.501  -0.385  1.00  0.00     0.184 C 
HETATM   37  O10 UNL     1      -2.802   0.534  -0.072  1.00  0.00    -0.342 OA
BRANCH  34  38
HETATM   38  N2  UNL     1      -4.743  -1.532  -1.022  1.00  0.00    -0.078 NA
BRANCH  38  39
HETATM   39  N1  UNL     1      -4.952  -2.816  -0.514  1.00  0.00    -0.344 N 
ATOM     40  H12 UNL     1      -5.342  -2.980   0.414  1.00  0.00     0.172 HD
ATOM     41  H11 UNL     1      -4.677  -3.557  -1.159  1.00  0.00     0.172 HD
ENDBRANCH  38  39
ENDBRANCH  34  38
BRANCH  34  42
HETATM   42  N3  UNL     1      -6.563  -0.682   0.152  1.00  0.00    -0.027 N 
ATOM     43  H33 UNL     1      -7.132  -0.711  -0.694  1.00  0.00     0.279 HD
ATOM     44  H32 UNL     1      -6.791  -1.616   0.492  1.00  0.00     0.279 HD
ATOM     45  H31 UNL     1      -6.838   0.059   0.797  1.00  0.00     0.279 HD
ENDBRANCH  34  42
BRANCH  35  46
HETATM   46  O12 UNL     1      -5.108   0.681  -2.210  1.00  0.00    -0.386 OA
ATOM     47  H12 UNL     1      -5.040   1.518  -2.654  1.00  0.00     0.210 HD
ENDBRANCH  35  46
BRANCH  36  48
HETATM   48  C14 UNL     1      -3.223   2.295  -1.566  1.00  0.00     0.199 C 
BRANCH  48  49
HETATM   49  O11 UNL     1      -4.159   3.278  -1.913  1.00  0.00    -0.398 OA
ATOM     50  H11 UNL     1      -3.829   3.775  -2.652  1.00  0.00     0.209 HD
ENDBRANCH  48  49
ENDBRANCH  36  48
ENDBRANCH  31  32
ENDBRANCH   1  31
TORSDOF 18
