REMARK  17 active torsions:
REMARK  status: ('A' for Active; 'I' for Inactive)
REMARK    1  A    between atoms: N1_1  and  C1_4 
REMARK    2  A    between atoms: C2_7  and  C3_8 
REMARK    3  A    between atoms: N6_15  and  C4_16 
REMARK    4  A    between atoms: C5_18  and  N7_19 
REMARK    5  A    between atoms: N7_19  and  N8_21 
REMARK    6  A    between atoms: N8_21  and  C6_22 
REMARK    7  A    between atoms: C6_22  and  O2_23 
REMARK    8  A    between atoms: C6_22  and  C7_25 
REMARK    9  A    between atoms: C7_25  and  C8_26 
REMARK   10  A    between atoms: C9_27  and  O3_28 
REMARK   11  A    between atoms: C10_31  and  C11_32 
REMARK   12  A    between atoms: C11_32  and  O5_33 
REMARK   13  A    between atoms: C12_35  and  O6_36 
REMARK   14  A    between atoms: C13_38  and  O7_39 
REMARK   15  A    between atoms: C14_41  and  O8_42 
REMARK   16  A    between atoms: C15_44  and  N9_45 
REMARK   17  A    between atoms: N9_45  and  N10_47 
ROOT
HETATM    1  C4  UNL     1      -1.407  -0.639   1.072  1.00  0.00     0.281 C 
HETATM    2  O1  UNL     1      -1.094   0.443   0.336  1.00  0.00    -0.334 OA
HETATM    3  C5  UNL     1       0.042   0.088  -0.398  1.00  0.00     0.267 C 
HETATM    4  C13 UNL     1      -0.220  -1.309  -0.865  1.00  0.00     0.201 C 
HETATM    5  C14 UNL     1      -1.073  -1.850   0.250  1.00  0.00     0.202 C 
ENDROOT
BRANCH   1   6
HETATM    6  N6  UNL     1      -2.678  -0.714   1.711  1.00  0.00    -0.225 N 
HETATM    7  C3  UNL     1      -3.901  -0.383   1.382  1.00  0.00     0.172 A 
HETATM    8  N3  UNL     1      -4.711  -0.726   2.430  1.00  0.00    -0.267 N 
HETATM    9  N4  UNL     1      -3.995  -1.255   3.380  1.00  0.00    -0.226 N 
ATOM     10  H3  UNL     1      -5.721  -0.588   2.462  1.00  0.00     0.190 HD
HETATM   11  N5  UNL     1      -2.766  -1.252   2.955  1.00  0.00    -0.222 N 
ATOM     12  H4  UNL     1      -4.331  -1.602   4.278  1.00  0.00     0.210 HD
ATOM     13  H5  UNL     1      -1.971  -1.607   3.487  1.00  0.00     0.210 HD
BRANCH   7  14
HETATM   14  C2  UNL     1      -4.370   0.224   0.151  1.00  0.00     0.127 A 
HETATM   15  N2  UNL     1      -3.634   0.580  -0.894  1.00  0.00    -0.186 N 
HETATM   16  C1  UNL     1      -4.142   1.117  -1.994  1.00  0.00     0.677 A 
ATOM     17  H2  UNL     1      -2.626   0.433  -0.848  1.00  0.00     0.184 HD
HETATM   18  N12 UNL     1      -5.457   1.339  -2.122  1.00  0.00    -0.177 N 
HETATM   19  C16 UNL     1      -6.257   1.002  -1.100  1.00  0.00     0.162 A 
ATOM     20  H12 UNL     1      -5.839   1.753  -2.973  1.00  0.00     0.185 HD
HETATM   21  C15 UNL     1      -5.741   0.445   0.044  1.00  0.00     0.120 A 
HETATM   22  N11 UNL     1      -7.666   1.239  -1.249  1.00  0.00    -0.080 NA
BRANCH  16  23
HETATM   23  N1  UNL     1      -3.409   1.465  -3.018  1.00  0.00    -0.234 N 
ATOM     24  H12 UNL     1      -2.408   1.296  -2.921  1.00  0.00     0.174 HD
ATOM     25  H11 UNL     1      -3.800   1.878  -3.865  1.00  0.00     0.174 HD
ENDBRANCH  16  23
BRANCH  21  26
HETATM   26  N9  UNL     1      -6.674   0.126   1.079  1.00  0.00    -0.302 N 
ATOM     27  H9  UNL     1      -7.005  -0.831   1.206  1.00  0.00     0.186 HD
BRANCH  26  28
HETATM   28  N10 UNL     1      -7.122   1.151   1.911  1.00  0.00    -0.345 N 
ATOM     29 2H10 UNL     1      -6.782   2.102   1.771  1.00  0.00     0.176 HD
ATOM     30 1H10 UNL     1      -7.788   0.923   2.650  1.00  0.00     0.176 HD
ENDBRANCH  26  28
ENDBRANCH  21  26
ENDBRANCH   7  14
ENDBRANCH   1   6
BRANCH   5  31
HETATM   31  O8  UNL     1      -2.212  -2.526  -0.214  1.00  0.00    -0.388 OA
ATOM     32  H8  UNL     1      -2.001  -3.292  -0.734  1.00  0.00     0.210 HD
ENDBRANCH   5  31
BRANCH   3  33
HETATM   33  N7  UNL     1       1.193   0.302   0.381  1.00  0.00    -0.306 N 
ATOM     34  H7  UNL     1       1.145   0.710   1.315  1.00  0.00     0.178 HD
BRANCH  33  35
HETATM   35  N8  UNL     1       2.412  -0.079  -0.203  1.00  0.00    -0.111 NA
BRANCH  35  36
HETATM   36  C6  UNL     1       3.043  -0.952   0.771  1.00  0.00     0.235 C 
BRANCH  36  37
HETATM   37  O2  UNL     1       3.225  -0.288   1.994  1.00  0.00    -0.378 OA
ATOM     38  H2  UNL     1       3.638  -0.859   2.631  1.00  0.00     0.211 HD
ENDBRANCH  36  37
BRANCH  36  39
HETATM   39  C7  UNL     1       4.349  -1.454   0.270  1.00  0.00     0.097 C 
BRANCH  39  40
HETATM   40  C8  UNL     1       5.336  -0.392  -0.012  1.00  0.00     0.040 A 
HETATM   41  C9  UNL     1       5.414   0.440  -1.099  1.00  0.00     0.192 A 
HETATM   42  O4  UNL     1       6.467   1.233  -0.922  1.00  0.00    -0.287 OA
HETATM   43  C10 UNL     1       7.065   0.970   0.190  1.00  0.00     0.113 A 
HETATM   44  C12 UNL     1       6.403  -0.044   0.813  1.00  0.00     0.108 A 
BRANCH  41  45
HETATM   45  O3  UNL     1       4.618   0.531  -2.215  1.00  0.00    -0.340 OA
ATOM     46  H3  UNL     1       4.672   1.107  -2.968  1.00  0.00     0.220 HD
ENDBRANCH  41  45
BRANCH  43  47
HETATM   47  C11 UNL     1       8.275   1.654   0.716  1.00  0.00     0.232 C 
BRANCH  47  48
HETATM   48  O5  UNL     1       8.724   2.647  -0.151  1.00  0.00    -0.394 OA
ATOM     49  H5  UNL     1       9.497   3.084   0.185  1.00  0.00     0.209 HD
ENDBRANCH  47  48
ENDBRANCH  43  47
BRANCH  44  50
HETATM   50  O6  UNL     1       6.689  -0.638   2.010  1.00  0.00    -0.357 OA
ATOM     51  H6  UNL     1       7.417  -0.401   2.573  1.00  0.00     0.217 HD
ENDBRANCH  44  50
ENDBRANCH  39  40
ENDBRANCH  36  39
ENDBRANCH  35  36
ENDBRANCH  33  35
ENDBRANCH   3  33
BRANCH   4  52
HETATM   52  O7  UNL     1      -0.884  -1.343  -2.093  1.00  0.00    -0.388 OA
ATOM     53  H7  UNL     1      -1.050  -2.230  -2.390  1.00  0.00     0.210 HD
ENDBRANCH   4  52
TORSDOF 17
