REMARK  7 active torsions:
REMARK  status: ('A' for Active; 'I' for Inactive)
REMARK    1  A    between atoms: C4_4  and  O1_5 
REMARK    2  A    between atoms: C9_11  and  C10_12 
REMARK    3  A    between atoms: C10_12  and  C12_14 
REMARK    4  A    between atoms: C10_12  and  C18_21 
REMARK    5  A    between atoms: C13_15  and  C14_16 
REMARK    6  A    between atoms: C18_21  and  C19_22 
REMARK    7  A    between atoms: C19_22  and  C20_23 
ROOT
HETATM    1  C14 UNL     1       1.211   3.692   0.318  1.00  0.00     0.040 C 
HETATM    2  C15 UNL     1       1.403   4.092   1.694  1.00  0.00     0.099 C 
HETATM    3  N1  UNL     1       1.577   4.409   2.800  1.00  0.00    -0.191 NA
HETATM    4  C16 UNL     1       1.311   4.640  -0.598  1.00  0.00    -0.008 C 
HETATM    5  C17 UNL     1       1.605   6.048  -0.246  1.00  0.00     0.037 C 
ENDROOT
BRANCH   1   6
HETATM    6  C13 UNL     1       0.923   2.313  -0.031  1.00  0.00     0.019 C 
HETATM    7  C12 UNL     1       0.834   1.407   0.919  1.00  0.00    -0.016 C 
BRANCH   7   8
HETATM    8  C10 UNL     1       0.547  -0.018   0.686  1.00  0.00    -0.022 C 
HETATM    9  C11 UNL     1       0.880  -0.763   1.983  1.00  0.00     0.020 C 
BRANCH   8  10
HETATM   10  C9  UNL     1      -0.875  -0.316   0.376  1.00  0.00    -0.001 C 
HETATM   11  C8  UNL     1      -1.431   0.303  -0.853  1.00  0.00     0.015 C 
HETATM   12  C6  UNL     1      -2.791  -0.362  -0.993  1.00  0.00    -0.034 C 
HETATM   13  C5  UNL     1      -3.895   0.370  -0.359  1.00  0.00     0.041 C 
HETATM   14  C7  UNL     1      -3.077  -0.423  -2.502  1.00  0.00     0.016 C 
HETATM   15  C25 UNL     1      -2.563  -1.761  -0.528  1.00  0.00     0.022 C 
HETATM   16  C4  UNL     1      -4.191   0.112   1.061  1.00  0.00     0.122 C 
HETATM   17  C3  UNL     1      -3.970  -1.291   1.528  1.00  0.00     0.065 C 
HETATM   18  C2  UNL     1      -3.625  -2.190   0.402  1.00  0.00    -0.082 C 
HETATM   19  C1  UNL     1      -4.264  -3.339   0.256  1.00  0.00     0.015 C 
HETATM   20  C24 UNL     1      -1.187  -1.778   0.161  1.00  0.00     0.015 C 
BRANCH  16  21
HETATM   21  O1  UNL     1      -5.566   0.392   1.269  1.00  0.00    -0.395 OA
ATOM     22  H1  UNL     1      -5.706   1.283   0.972  1.00  0.00     0.210 HD
ENDBRANCH  16  21
ENDBRANCH   8  10
BRANCH   8  23
HETATM   23  C18 UNL     1       1.481  -0.620  -0.351  1.00  0.00     0.017 C 
BRANCH  23  24
HETATM   24  C19 UNL     1       2.925  -0.306  -0.025  1.00  0.00     0.028 C 
BRANCH  24  25
HETATM   25  C20 UNL     1       3.859  -0.881  -1.020  1.00  0.00    -0.025 C 
HETATM   26  C21 UNL     1       4.803  -1.746  -0.758  1.00  0.00    -0.091 C 
HETATM   27  C22 UNL     1       5.674  -2.249  -1.836  1.00  0.00     0.042 C 
HETATM   28  C23 UNL     1       5.004  -2.226   0.624  1.00  0.00     0.042 C 
ENDBRANCH  24  25
ENDBRANCH  23  24
ENDBRANCH   8  23
ENDBRANCH   7   8
ENDBRANCH   1   6
TORSDOF 7
