REMARK  7 active torsions:
REMARK  status: ('A' for Active; 'I' for Inactive)
REMARK    1  A    between atoms: O1_2  and  C2_3 
REMARK    2  A    between atoms: C2_3  and  C3_4 
REMARK    3  A    between atoms: C3_4  and  C4_5 
REMARK    4  A    between atoms: C4_5  and  C5_6 
REMARK    5  A    between atoms: C5_6  and  C6_7 
REMARK    6  A    between atoms: C6_7  and  C7_8 
REMARK    7  A    between atoms: C18_19  and  O2_20 
ROOT
HETATM    1  C7  UNL     1      -2.146   0.202  -0.108  1.00  0.00    -0.014 C 
HETATM    2  C8  UNL     1      -1.434   1.488  -0.354  1.00  0.00     0.005 C 
HETATM    3  C9  UNL     1       0.065   1.371  -0.356  1.00  0.00     0.010 C 
HETATM    4  C10 UNL     1       0.506   0.562   0.846  1.00  0.00    -0.036 C 
HETATM    5  C11 UNL     1       0.177   1.396   2.077  1.00  0.00     0.016 C 
HETATM    6  C12 UNL     1      -0.179  -0.764   0.899  1.00  0.00    -0.006 C 
HETATM    7  C13 UNL     1       0.744  -1.932   1.042  1.00  0.00     0.006 C 
HETATM    8  C14 UNL     1       1.812  -1.989  -0.004  1.00  0.00     0.006 C 
HETATM    9  C15 UNL     1       2.425  -0.637  -0.233  1.00  0.00    -0.005 C 
HETATM   10  C16 UNL     1       3.938  -0.808  -0.074  1.00  0.00     0.001 C 
HETATM   11  C17 UNL     1       4.455  -1.942  -0.902  1.00  0.00     0.037 C 
HETATM   12  C18 UNL     1       5.432  -1.356  -1.893  1.00  0.00     0.119 C 
HETATM   13  C19 UNL     1       5.186   0.139  -1.892  1.00  0.00     0.041 C 
HETATM   14  C20 UNL     1       4.620   0.448  -0.531  1.00  0.00    -0.038 C 
HETATM   15  C21 UNL     1       5.734   0.761   0.438  1.00  0.00     0.015 C 
HETATM   16  C22 UNL     1       3.621   1.564  -0.585  1.00  0.00     0.010 C 
HETATM   17  C23 UNL     1       2.802   1.573   0.712  1.00  0.00     0.006 C 
HETATM   18  C24 UNL     1       1.992   0.332   0.856  1.00  0.00    -0.002 C 
HETATM   19  C25 UNL     1      -1.113  -0.916  -0.310  1.00  0.00     0.010 C 
ENDROOT
BRANCH   1  20
HETATM   20  C6  UNL     1      -3.348  -0.011  -0.991  1.00  0.00     0.005 C 
BRANCH  20  21
HETATM   21  C5  UNL     1      -4.312   1.128  -0.726  1.00  0.00     0.000 C 
BRANCH  21  22
HETATM   22  C4  UNL     1      -4.754   1.169   0.703  1.00  0.00     0.002 C 
BRANCH  22  23
HETATM   23  C3  UNL     1      -5.448  -0.053   1.184  1.00  0.00     0.026 C 
BRANCH  23  24
HETATM   24  C2  UNL     1      -6.714  -0.419   0.490  1.00  0.00     0.167 C 
BRANCH  24  25
HETATM   25  O1  UNL     1      -6.632  -0.684  -0.847  1.00  0.00    -0.396 OA
HETATM   26  C1  UNL     1      -7.885  -1.006  -1.337  1.00  0.00     0.201 C 
ENDBRANCH  24  25
ENDBRANCH  23  24
ENDBRANCH  22  23
ENDBRANCH  21  22
ENDBRANCH  20  21
ENDBRANCH   1  20
BRANCH  12  27
HETATM   27  O2  UNL     1       6.742  -1.645  -1.561  1.00  0.00    -0.396 OA
ATOM     28  H2  UNL     1       7.357  -1.276  -2.184  1.00  0.00     0.210 HD
ENDBRANCH  12  27
TORSDOF 7
