REMARK  7 active torsions:
REMARK  status: ('A' for Active; 'I' for Inactive)
REMARK    1  A    between atoms: C2_2  and  C3_3 
REMARK    2  A    between atoms: C4_4  and  C5_5 
REMARK    3  A    between atoms: C5_5  and  O1_6 
REMARK    4  A    between atoms: C20_22  and  C21_23 
REMARK    5  A    between atoms: C22_24  and  C23_25 
REMARK    6  A    between atoms: C23_25  and  C24_26 
REMARK    7  A    between atoms: C24_26  and  N1_27 
ROOT
HETATM    1  C5  UNL     1      -1.630   0.274   0.356  1.00  0.00     0.090 C 
HETATM    2  C6  UNL     1      -2.027   0.956   1.607  1.00  0.00    -0.012 C 
HETATM    3  C7  UNL     1      -2.048  -0.057   2.748  1.00  0.00     0.018 C 
HETATM    4  C8  UNL     1      -1.041   2.053   2.038  1.00  0.00     0.018 C 
HETATM    5  C9  UNL     1      -3.378   1.617   1.632  1.00  0.00     0.012 C 
HETATM    6  C10 UNL     1      -4.485   0.799   1.063  1.00  0.00     0.007 C 
HETATM    7  C11 UNL     1      -3.973  -0.312   0.167  1.00  0.00     0.005 C 
HETATM    8  C12 UNL     1      -5.065  -0.921  -0.664  1.00  0.00    -0.043 C 
HETATM    9  C13 UNL     1      -4.998  -2.442  -0.598  1.00  0.00     0.015 C 
HETATM   10  C14 UNL     1      -6.455  -0.542  -0.184  1.00  0.00     0.015 C 
HETATM   11  C15 UNL     1      -4.997  -0.556  -2.131  1.00  0.00     0.009 C 
HETATM   12  C16 UNL     1      -3.637  -0.733  -2.730  1.00  0.00     0.002 C 
HETATM   13  C17 UNL     1      -2.520  -0.721  -1.721  1.00  0.00     0.013 C 
HETATM   14  C18 UNL     1      -2.857   0.268  -0.622  1.00  0.00    -0.004 C 
HETATM   15  C19 UNL     1      -3.086   1.586  -1.245  1.00  0.00     0.019 C 
ENDROOT
BRANCH   1  16
HETATM   16  C4  UNL     1      -0.482   0.772  -0.373  1.00  0.00     0.013 C 
HETATM   17  C3  UNL     1       0.801   0.728  -0.310  1.00  0.00     0.006 C 
BRANCH  17  18
HETATM   18  C2  UNL     1       1.813   0.166   0.513  1.00  0.00    -0.062 C 
HETATM   19  C1  UNL     1       1.712  -0.649   1.724  1.00  0.00     0.048 C 
HETATM   20  C20 UNL     1       3.101   0.415   0.129  1.00  0.00     0.006 C 
BRANCH  20  21
HETATM   21  C21 UNL     1       4.186  -0.103   0.888  1.00  0.00    -0.003 C 
HETATM   22  C22 UNL     1       5.441   0.080   0.596  1.00  0.00    -0.025 C 
BRANCH  22  23
HETATM   23  C23 UNL     1       5.883   0.853  -0.568  1.00  0.00     0.057 C 
BRANCH  23  24
HETATM   24  C24 UNL     1       6.704  -0.057  -1.480  1.00  0.00     0.275 C 
BRANCH  24  25
HETATM   25  N1  UNL     1       7.833  -0.533  -0.741  1.00  0.00     0.080 N 
HETATM   26  C25 UNL     1       8.769   0.500  -0.455  1.00  0.00     0.309 C 
HETATM   27  C26 UNL     1       8.391  -1.756  -1.222  1.00  0.00     0.309 C 
ENDBRANCH  24  25
ENDBRANCH  23  24
ENDBRANCH  22  23
ENDBRANCH  20  21
ENDBRANCH  17  18
ENDBRANCH   1  16
BRANCH   1  28
HETATM   28  O1  UNL     1      -1.451  -1.122   0.533  1.00  0.00    -0.384 OA
ATOM     29  H1  UNL     1      -2.204  -1.449   1.011  1.00  0.00     0.211 HD
ENDBRANCH   1  28
TORSDOF 7
