REMARK  7 active torsions:
REMARK  status: ('A' for Active; 'I' for Inactive)
REMARK    1  A    between atoms: C6_7  and  O2_9 
REMARK    2  A    between atoms: C8_11  and  C9_12 
REMARK    3  A    between atoms: C10_13  and  C11_14 
REMARK    4  A    between atoms: C11_14  and  C13_16 
REMARK    5  A    between atoms: C14_17  and  C15_18 
REMARK    6  A    between atoms: C16_19  and  C18_21 
REMARK    7  A    between atoms: C19_22  and  C20_23 
ROOT
HETATM    1  C11 UNL     1       1.686  -1.613   0.317  1.00  0.00     0.026 C 
HETATM    2  C12 UNL     1       2.214  -3.053   0.287  1.00  0.00     0.018 C 
ENDROOT
BRANCH   1   3
HETATM    3  C10 UNL     1       2.749  -0.661   0.811  1.00  0.00    -0.022 C 
HETATM    4  C9  UNL     1       3.920  -1.072   1.154  1.00  0.00    -0.018 C 
BRANCH   4   5
HETATM    5  C8  UNL     1       5.072  -0.298   1.658  1.00  0.00     0.073 C 
HETATM    6  C2  UNL     1       6.133  -0.499   0.599  1.00  0.00    -0.076 C 
HETATM    7  C1  UNL     1       7.246  -1.152   0.804  1.00  0.00     0.015 C 
HETATM    8  C3  UNL     1       5.824   0.104  -0.711  1.00  0.00     0.068 C 
HETATM    9  C4  UNL     1       5.636   1.570  -0.507  1.00  0.00     0.158 A 
HETATM   10  O1  UNL     1       4.378   2.139  -0.380  1.00  0.00    -0.372 OA
HETATM   11  C5  UNL     1       5.215   2.063   0.737  1.00  0.00     0.186 A 
HETATM   12  C6  UNL     1       4.896   1.156   1.866  1.00  0.00     0.093 C 
HETATM   13  C7  UNL     1       5.913   1.532   2.977  1.00  0.00     0.050 C 
BRANCH  12  14
HETATM   14  O2  UNL     1       3.673   1.527   2.440  1.00  0.00    -0.387 OA
ATOM     15  H2  UNL     1       3.469   0.946   3.163  1.00  0.00     0.210 HD
ENDBRANCH  12  14
ENDBRANCH   4   5
ENDBRANCH   1   3
BRANCH   1  16
HETATM   16  C13 UNL     1       1.330  -1.249  -1.049  1.00  0.00    -0.019 C 
HETATM   17  C14 UNL     1       0.152  -0.869  -1.446  1.00  0.00    -0.003 C 
BRANCH  17  18
HETATM   18  C15 UNL     1      -0.965  -0.756  -0.565  1.00  0.00     0.006 C 
HETATM   19  C16 UNL     1      -2.223  -0.366  -0.903  1.00  0.00    -0.062 C 
HETATM   20  C17 UNL     1      -2.536  -0.015  -2.283  1.00  0.00     0.048 C 
BRANCH  19  21
HETATM   21  C18 UNL     1      -3.160  -0.300   0.180  1.00  0.00     0.007 C 
HETATM   22  C19 UNL     1      -4.332  -0.053   0.520  1.00  0.00     0.009 C 
BRANCH  22  23
HETATM   23  C20 UNL     1      -5.601   0.361  -0.052  1.00  0.00    -0.041 A 
HETATM   24  C21 UNL     1      -6.788   0.581   0.560  1.00  0.00    -0.057 A 
HETATM   25  C22 UNL     1      -7.263   0.494   1.993  1.00  0.00     0.048 C 
HETATM   26  C23 UNL     1      -7.448   0.968  -0.636  1.00  0.00    -0.006 A 
HETATM   27  C24 UNL     1      -6.179   0.639  -1.340  1.00  0.00    -0.002 A 
HETATM   28  C25 UNL     1      -5.718   1.853  -2.127  1.00  0.00     0.024 C 
HETATM   29  C26 UNL     1      -6.368  -0.589  -2.250  1.00  0.00     0.024 C 
ENDBRANCH  22  23
ENDBRANCH  19  21
ENDBRANCH  17  18
ENDBRANCH   1  16
TORSDOF 7
