REMARK  7 active torsions:
REMARK  status: ('A' for Active; 'I' for Inactive)
REMARK    1  A    between atoms: C2_2  and  C3_3 
REMARK    2  A    between atoms: C3_3  and  C4_4 
REMARK    3  A    between atoms: C4_4  and  O1_7 
REMARK    4  A    between atoms: C8_10  and  C9_11 
REMARK    5  A    between atoms: C18_20  and  C20_22 
REMARK    6  A    between atoms: C20_22  and  C21_23 
REMARK    7  A    between atoms: C21_23  and  C22_24 
ROOT
HETATM    1  C3  UNL     1      -2.231   1.114   0.203  1.00  0.00     0.109 C 
HETATM    2  C7  UNL     1      -2.645  -0.203   0.842  1.00  0.00     0.055 C 
HETATM    3  C8  UNL     1      -2.445  -1.267  -0.242  1.00  0.00     0.027 C 
HETATM    4  C12 UNL     1      -0.975  -1.380  -0.526  1.00  0.00    -0.009 C 
HETATM    5  C13 UNL     1      -0.350  -2.489   0.325  1.00  0.00     0.018 C 
HETATM    6  C14 UNL     1      -0.746  -1.726  -1.950  1.00  0.00     0.013 C 
HETATM    7  C15 UNL     1       0.736  -2.054  -2.061  1.00  0.00     0.006 C 
HETATM    8  C16 UNL     1       1.623  -0.948  -1.635  1.00  0.00    -0.008 C 
HETATM    9  C17 UNL     1       2.263  -0.420  -2.932  1.00  0.00     0.011 C 
HETATM   10  C18 UNL     1       1.073   0.116  -0.787  1.00  0.00    -0.013 C 
HETATM   11  C19 UNL     1       1.030   1.384  -1.670  1.00  0.00     0.018 C 
HETATM   12  C26 UNL     1      -0.260  -0.106  -0.134  1.00  0.00     0.140 C 
HETATM   13  O2  UNL     1      -1.060   0.951  -0.528  1.00  0.00    -0.366 OA
ENDROOT
BRANCH   1  14
HETATM   14  C2  UNL     1      -3.289   1.502  -0.770  1.00  0.00     0.004 C 
HETATM   15  C1  UNL     1      -4.586   1.365  -0.587  1.00  0.00     0.010 C 
ENDBRANCH   1  14
BRANCH   1  16
HETATM   16  C4  UNL     1      -2.117   2.195   1.230  1.00  0.00     0.085 C 
HETATM   17  C5  UNL     1      -1.875   3.528   0.547  1.00  0.00     0.049 C 
HETATM   18  C6  UNL     1      -3.381   2.339   2.033  1.00  0.00     0.049 C 
BRANCH  16  19
HETATM   19  O1  UNL     1      -1.098   1.889   2.120  1.00  0.00    -0.387 OA
ATOM     20  H1  UNL     1      -1.026   2.576   2.772  1.00  0.00     0.210 HD
ENDBRANCH  16  19
ENDBRANCH   1  16
BRANCH   3  21
HETATM   21  C9  UNL     1      -3.166  -2.493   0.059  1.00  0.00    -0.088 C 
HETATM   22  C10 UNL     1      -3.742  -2.688   1.264  1.00  0.00     0.014 C 
HETATM   23  C11 UNL     1      -3.354  -3.566  -0.939  1.00  0.00     0.043 C 
ENDBRANCH   3  21
BRANCH  10  24
HETATM   24  C20 UNL     1       2.016   0.485   0.357  1.00  0.00     0.016 C 
BRANCH  24  25
HETATM   25  C21 UNL     1       3.351   0.978  -0.048  1.00  0.00     0.028 C 
BRANCH  25  26
HETATM   26  C22 UNL     1       4.079   1.280   1.242  1.00  0.00    -0.025 C 
HETATM   27  C23 UNL     1       5.212   0.674   1.575  1.00  0.00    -0.091 C 
HETATM   28  C24 UNL     1       5.907   0.988   2.848  1.00  0.00     0.042 C 
HETATM   29  C25 UNL     1       5.812  -0.339   0.675  1.00  0.00     0.042 C 
ENDBRANCH  25  26
ENDBRANCH  24  25
ENDBRANCH  10  24
TORSDOF 7
