REMARK  8 active torsions:
REMARK  status: ('A' for Active; 'I' for Inactive)
REMARK    1  A    between atoms: C2_2  and  C4_4 
REMARK    2  A    between atoms: C7_7  and  C8_8 
REMARK    3  A    between atoms: C9_11  and  C10_12 
REMARK    4  A    between atoms: C11_13  and  C12_14 
REMARK    5  A    between atoms: C13_15  and  C14_16 
REMARK    6  A    between atoms: C15_17  and  C16_18 
REMARK    7  A    between atoms: C21_23  and  C22_24 
REMARK    8  A    between atoms: C22_24  and  O3_27 
ROOT
HETATM    1  C14 UNL     1       0.758  -0.730  -1.643  1.00  0.00    -0.003 C 
HETATM    2  C15 UNL     1       2.019  -0.523  -1.905  1.00  0.00    -0.014 C 
ENDROOT
BRANCH   1   3
HETATM    3  C13 UNL     1       0.017  -0.207  -0.514  1.00  0.00    -0.000 C 
HETATM    4  C12 UNL     1      -1.281  -0.492  -0.354  1.00  0.00    -0.000 C 
BRANCH   4   5
HETATM    5  C11 UNL     1      -1.986   0.045   0.779  1.00  0.00    -0.004 C 
HETATM    6  C10 UNL     1      -3.252  -0.186   1.008  1.00  0.00    -0.021 C 
BRANCH   6   7
HETATM    7  C9  UNL     1      -4.159  -0.997   0.199  1.00  0.00     0.027 C 
HETATM    8  C4  UNL     1      -5.273  -0.313  -0.486  1.00  0.00    -0.003 C 
HETATM    9  C5  UNL     1      -6.420  -1.305  -0.411  1.00  0.00     0.006 C 
HETATM   10  C6  UNL     1      -5.826  -2.624   0.016  1.00  0.00     0.016 C 
HETATM   11  C7  UNL     1      -4.753  -2.160   0.969  1.00  0.00     0.095 C 
BRANCH   8  12
HETATM   12  C2  UNL     1      -5.682   1.032   0.068  1.00  0.00    -0.018 C 
HETATM   13  C1  UNL     1      -6.890   1.564  -0.738  1.00  0.00     0.010 C 
HETATM   14  C3  UNL     1      -4.602   2.072  -0.129  1.00  0.00     0.010 C 
ENDBRANCH   8  12
BRANCH  11  15
HETATM   15  C8  UNL     1      -5.370  -1.828   2.240  1.00  0.00     0.177 C 
HETATM   16  O1  UNL     1      -6.610  -1.952   2.384  1.00  0.00    -0.648 OA
HETATM   17  O2  UNL     1      -4.695  -1.362   3.374  1.00  0.00    -0.648 OA
ENDBRANCH  11  15
ENDBRANCH   6   7
ENDBRANCH   4   5
ENDBRANCH   1   3
BRANCH   2  18
HETATM   18  C16 UNL     1       2.912   0.316  -1.043  1.00  0.00     0.007 C 
HETATM   19  C17 UNL     1       2.470   1.737  -0.950  1.00  0.00     0.017 C 
HETATM   20  C18 UNL     1       3.616   2.198  -1.809  1.00  0.00     0.007 C 
HETATM   21  C19 UNL     1       4.171   0.769  -1.775  1.00  0.00     0.003 C 
HETATM   22  C20 UNL     1       5.409   0.675  -0.948  1.00  0.00     0.047 C 
HETATM   23  C21 UNL     1       5.178  -0.151   0.291  1.00  0.00     0.094 C 
HETATM   24  C25 UNL     1       4.080   0.428   1.154  1.00  0.00     0.074 C 
HETATM   25  O4  UNL     1       4.373  -1.240   0.069  1.00  0.00    -0.370 OA
HETATM   26  C26 UNL     1       3.258  -0.396   0.222  1.00  0.00     0.138 C 
BRANCH  23  27
HETATM   27  C22 UNL     1       6.421  -0.387   1.094  1.00  0.00     0.082 C 
HETATM   28  C23 UNL     1       7.322  -1.422   0.457  1.00  0.00     0.049 C 
HETATM   29  C24 UNL     1       7.141   0.928   1.266  1.00  0.00     0.049 C 
BRANCH  27  30
HETATM   30  O3  UNL     1       6.033  -0.863   2.345  1.00  0.00    -0.388 OA
ATOM     31  H3  UNL     1       6.821  -1.013   2.854  1.00  0.00     0.210 HD
ENDBRANCH  27  30
ENDBRANCH  23  27
ENDBRANCH   2  18
TORSDOF 8
