REMARK  9 active torsions:
REMARK  status: ('A' for Active; 'I' for Inactive)
REMARK    1  A    between atoms: C2_2  and  C4_4 
REMARK    2  A    between atoms: C4_4  and  C5_5 
REMARK    3  A    between atoms: C5_5  and  C6_6 
REMARK    4  A    between atoms: C6_6  and  C7_7 
REMARK    5  A    between atoms: C7_7  and  C9_9 
REMARK    6  A    between atoms: C11_11  and  C12_12 
REMARK    7  A    between atoms: C12_12  and  C13_13 
REMARK    8  A    between atoms: C14_14  and  C15_15 
REMARK    9  A    between atoms: C23_25  and  O3_27 
ROOT
HETATM    1  C13 UNL     1      -1.780   1.283  -1.020  1.00  0.00    -0.003 C 
HETATM    2  C14 UNL     1      -3.046   0.944  -0.851  1.00  0.00    -0.019 C 
ENDROOT
BRANCH   1   3
HETATM    3  C12 UNL     1      -0.693   0.941  -0.123  1.00  0.00     0.009 C 
BRANCH   3   4
HETATM    4  C11 UNL     1       0.558   1.335  -0.385  1.00  0.00    -0.027 C 
HETATM    5  C10 UNL     1       1.778   1.114   0.354  1.00  0.00     0.042 C 
HETATM    6  C9  UNL     1       2.802   1.477  -0.377  1.00  0.00     0.051 C 
HETATM    7  O4  UNL     1       2.338   1.949  -1.616  1.00  0.00    -0.345 OA
HETATM    8  C25 UNL     1       0.940   2.130  -1.577  1.00  0.00     0.157 C 
HETATM    9  C26 UNL     1       0.546   3.556  -1.351  1.00  0.00     0.045 C 
BRANCH   6  10
HETATM   10  C7  UNL     1       4.237   1.423  -0.014  1.00  0.00     0.038 C 
HETATM   11  C8  UNL     1       4.828   2.833  -0.064  1.00  0.00     0.017 C 
BRANCH  10  12
HETATM   12  C6  UNL     1       5.008   0.596  -1.003  1.00  0.00     0.011 C 
BRANCH  12  13
HETATM   13  C5  UNL     1       4.501  -0.816  -1.035  1.00  0.00     0.001 C 
BRANCH  13  14
HETATM   14  C4  UNL     1       4.636  -1.464   0.303  1.00  0.00     0.004 C 
BRANCH  14  15
HETATM   15  C2  UNL     1       6.086  -1.482   0.716  1.00  0.00    -0.023 C 
HETATM   16  C1  UNL     1       6.836  -2.270  -0.347  1.00  0.00     0.009 C 
HETATM   17  C3  UNL     1       6.207  -2.180   2.063  1.00  0.00     0.009 C 
ENDBRANCH  14  15
ENDBRANCH  13  14
ENDBRANCH  12  13
ENDBRANCH  10  12
ENDBRANCH   6  10
ENDBRANCH   3   4
ENDBRANCH   1   3
BRANCH   2  18
HETATM   18  C15 UNL     1      -3.544   0.164   0.280  1.00  0.00     0.048 C 
HETATM   19  C16 UNL     1      -4.052  -1.197  -0.107  1.00  0.00     0.025 C 
HETATM   20  C17 UNL     1      -4.307  -1.345  -1.587  1.00  0.00     0.184 C 
HETATM   21  C20 UNL     1      -5.307  -1.600   0.623  1.00  0.00     0.002 C 
HETATM   22  O1  UNL     1      -4.374  -2.760  -1.827  1.00  0.00    -0.321 OA
HETATM   23  C18 UNL     1      -5.129  -3.539  -0.930  1.00  0.00     0.259 C 
HETATM   24  O2  UNL     1      -5.482  -4.675  -1.310  1.00  0.00    -0.265 OA
HETATM   25  C19 UNL     1      -5.513  -3.080   0.411  1.00  0.00     0.116 C 
HETATM   26  C21 UNL     1      -5.095  -1.264   2.084  1.00  0.00     0.008 C 
HETATM   27  C22 UNL     1      -5.131   0.227   2.219  1.00  0.00     0.038 C 
HETATM   28  C23 UNL     1      -4.586   0.976   1.049  1.00  0.00     0.061 C 
HETATM   29  C24 UNL     1      -5.640   1.552   0.157  1.00  0.00     0.046 C 
BRANCH  28  30
HETATM   30  O3  UNL     1      -3.862   2.073   1.578  1.00  0.00    -0.390 OA
ATOM     31  H3  UNL     1      -4.510   2.578   2.056  1.00  0.00     0.210 HD
ENDBRANCH  28  30
ENDBRANCH   2  18
TORSDOF 9
