REMARK  9 active torsions:
REMARK  status: ('A' for Active; 'I' for Inactive)
REMARK    1  A    between atoms: C2_2  and  C3_3 
REMARK    2  A    between atoms: C2_2  and  C13_20 
REMARK    3  A    between atoms: C3_3  and  C4_4 
REMARK    4  A    between atoms: C4_4  and  C5_5 
REMARK    5  A    between atoms: C5_5  and  C6_6 
REMARK    6  A    between atoms: C6_6  and  N2_16 
REMARK       I    between atoms: N1_7  and  C7_9 
REMARK    7  A    between atoms: C7_9  and  O2_11 
REMARK    8  A    between atoms: O2_11  and  C8_12 
REMARK    9  A    between atoms: N2_16  and  C12_18 
ROOT
HETATM    1  C3  UNL     1      -0.091   0.962  -1.264  1.00  0.00     0.005 C 
ENDROOT
BRANCH   1   2
HETATM    2  C2  UNL     1      -0.921   0.501  -0.099  1.00  0.00    -0.014 C 
HETATM    3  C1  UNL     1      -0.512   1.075   1.207  1.00  0.00     0.010 C 
BRANCH   2   4
HETATM    4  C13 UNL     1      -2.342   0.845  -0.397  1.00  0.00    -0.002 C 
HETATM    5  C14 UNL     1      -2.755   0.278  -1.764  1.00  0.00     0.006 C 
HETATM    6  C15 UNL     1      -4.258   0.220  -1.740  1.00  0.00     0.007 C 
HETATM    7  C16 UNL     1      -4.610   0.688  -0.390  1.00  0.00     0.009 C 
HETATM    8  C17 UNL     1      -5.929   0.313   0.142  1.00  0.00     0.017 C 
HETATM    9  C23 UNL     1      -3.404   0.235   0.446  1.00  0.00    -0.035 C 
HETATM   10  C18 UNL     1      -6.958   1.223  -0.548  1.00  0.00     0.023 C 
HETATM   11  C19 UNL     1      -6.378  -1.081  -0.052  1.00  0.00     0.023 C 
HETATM   12  C20 UNL     1      -5.983   0.672   1.586  1.00  0.00     0.135 C 
HETATM   13  O4  UNL     1      -6.952   1.264   2.081  1.00  0.00    -0.297 OA
HETATM   14  C21 UNL     1      -4.865   0.321   2.464  1.00  0.00     0.080 C 
HETATM   15  C22 UNL     1      -3.511   0.713   1.850  1.00  0.00     0.017 C 
HETATM   16  C24 UNL     1      -3.298  -1.284   0.462  1.00  0.00     0.016 C 
ENDBRANCH   2   4
ENDBRANCH   1   2
BRANCH   1  17
HETATM   17  C4  UNL     1       1.353   0.646  -1.181  1.00  0.00     0.008 C 
BRANCH  17  18
HETATM   18  C5  UNL     1       1.650  -0.852  -1.088  1.00  0.00     0.076 C 
BRANCH  18  19
HETATM   19  C6  UNL     1       3.121  -0.992  -1.017  1.00  0.00     0.087 C 
HETATM   20  N1  UNL     1       3.891   0.067  -0.993  1.00  0.00    -0.292 N 
HETATM   21  C7  UNL     1       5.292  -0.019  -0.925  1.00  0.00     0.366 C 
ATOM     22  H1  UNL     1       3.457   0.990  -1.025  1.00  0.00     0.172 HD
HETATM   23  O1  UNL     1       6.027  -0.385  -1.897  1.00  0.00    -0.238 OA
BRANCH  21  24
HETATM   24  O2  UNL     1       5.943   0.306   0.251  1.00  0.00    -0.294 OA
BRANCH  24  25
HETATM   25  C8  UNL     1       7.326   0.263   0.445  1.00  0.00     0.061 C 
HETATM   26  C9  UNL     1       8.076   1.179  -0.501  1.00  0.00     0.046 C 
HETATM   27  C10 UNL     1       7.611   0.775   1.860  1.00  0.00     0.046 C 
HETATM   28  C11 UNL     1       7.915  -1.115   0.355  1.00  0.00     0.046 C 
ENDBRANCH  24  25
ENDBRANCH  21  24
BRANCH  19  29
HETATM   29  N2  UNL     1       3.739  -2.253  -0.969  1.00  0.00    -0.324 N 
ATOM     30  H2  UNL     1       4.757  -2.296  -0.915  1.00  0.00     0.169 HD
BRANCH  29  31
HETATM   31  C12 UNL     1       3.018  -3.454  -0.992  1.00  0.00     0.354 C 
HETATM   32  O3  UNL     1       1.786  -3.467  -1.058  1.00  0.00    -0.283 OA
ENDBRANCH  29  31
ENDBRANCH  19  29
ENDBRANCH  18  19
ENDBRANCH  17  18
ENDBRANCH   1  17
TORSDOF 9
