REMARK  7 active torsions:
REMARK  status: ('A' for Active; 'I' for Inactive)
REMARK    1  A    between atoms: C17_21  and  C18_22 
REMARK    2  A    between atoms: C18_22  and  C19_23 
REMARK    3  A    between atoms: C19_23  and  C20_24 
REMARK    4  A    between atoms: C20_24  and  N3_25 
REMARK    5  A    between atoms: N3_25  and  C21_28 
REMARK    6  A    between atoms: C21_28  and  C22_29 
REMARK    7  A    between atoms: C22_29  and  C23_30 
ROOT
HETATM    1  C1  UNL     1      -6.013   1.717   1.114  1.00  0.00     0.066 C 
HETATM    2  C2  UNL     1      -4.763   1.316   0.373  1.00  0.00     0.015 C 
HETATM    3  N1  UNL     1      -3.787   2.128   0.663  1.00  0.00    -0.274 N 
ATOM      4  H1  UNL     1      -4.019   2.874   1.319  1.00  0.00     0.193 HD
HETATM    5  O1  UNL     1      -2.476   2.124   0.207  1.00  0.00    -0.267 OA
HETATM    6  C3  UNL     1      -1.847   0.874  -0.213  1.00  0.00     0.110 C 
HETATM    7  C4  UNL     1      -1.896   0.227   1.150  1.00  0.00     0.055 C 
HETATM    8  C5  UNL     1      -1.021  -0.972   1.010  1.00  0.00    -0.023 C 
HETATM    9  C6  UNL     1      -0.289  -1.195   2.354  1.00  0.00     0.019 C 
HETATM   10  C7  UNL     1      -1.881  -2.117   0.828  1.00  0.00    -0.021 C 
HETATM   11  C8  UNL     1      -2.684  -2.397  -0.335  1.00  0.00    -0.025 C 
HETATM   12  C9  UNL     1      -3.859  -1.689  -0.777  1.00  0.00     0.015 A 
HETATM   13  C10 UNL     1      -4.955  -1.238   0.148  1.00  0.00     0.024 A 
HETATM   14  C11 UNL     1      -4.924   0.178  -0.455  1.00  0.00     0.002 A 
HETATM   15  C12 UNL     1      -6.275   0.359  -1.197  1.00  0.00     0.022 C 
HETATM   16  C13 UNL     1      -3.831  -0.315  -1.294  1.00  0.00     0.028 A 
HETATM   17  C14 UNL     1      -2.569   0.457  -1.350  1.00  0.00     0.136 C 
HETATM   18  C15 UNL     1      -1.821  -0.139  -2.499  1.00  0.00     0.067 C 
HETATM   19  N2  UNL     1      -1.261  -0.618  -3.422  1.00  0.00    -0.197 NA
HETATM   20  C16 UNL     1      -0.017  -0.510   0.026  1.00  0.00     0.021 C 
HETATM   21  C17 UNL     1      -0.354   0.948  -0.214  1.00  0.00     0.025 C 
ENDROOT
BRANCH  21  22
HETATM   22  C18 UNL     1       0.366   1.712  -1.178  1.00  0.00     0.009 C 
BRANCH  22  23
HETATM   23  C19 UNL     1       1.879   1.605  -0.922  1.00  0.00     0.028 C 
BRANCH  23  24
HETATM   24  C20 UNL     1       2.316   2.123   0.392  1.00  0.00     0.232 C 
BRANCH  24  25
HETATM   25  N3  UNL     1       3.748   1.998   0.498  1.00  0.00    -0.075 N 
ATOM     26  H32 UNL     1       4.208   2.479  -0.275  1.00  0.00     0.277 HD
ATOM     27  H31 UNL     1       4.100   2.552   1.279  1.00  0.00     0.277 HD
BRANCH  25  28
HETATM   28  C21 UNL     1       4.208   0.642   0.594  1.00  0.00     0.232 C 
BRANCH  28  29
HETATM   29  C22 UNL     1       5.744   0.607   0.671  1.00  0.00     0.032 C 
BRANCH  29  30
HETATM   30  C23 UNL     1       6.214  -0.807   0.769  1.00  0.00    -0.013 C 
HETATM   31  C24 UNL     1       7.736  -0.852   0.837  1.00  0.00     0.005 C 
HETATM   32  C25 UNL     1       7.711  -0.959  -0.687  1.00  0.00     0.001 C 
HETATM   33  C26 UNL     1       6.335  -1.555  -0.546  1.00  0.00     0.005 C 
ENDBRANCH  29  30
ENDBRANCH  28  29
ENDBRANCH  25  28
ENDBRANCH  24  25
ENDBRANCH  23  24
ENDBRANCH  22  23
ENDBRANCH  21  22
TORSDOF 7
