REMARK  12 active torsions:
REMARK  status: ('A' for Active; 'I' for Inactive)
REMARK    1  A    between atoms: C2_2  and  C3_3 
REMARK    2  A    between atoms: C3_3  and  C4_4 
REMARK    3  A    between atoms: C9_9  and  C10_10 
REMARK    4  A    between atoms: C11_11  and  C12_12 
REMARK    5  A    between atoms: C12_12  and  C13_13 
REMARK    6  A    between atoms: C13_13  and  C15_15 
REMARK    7  A    between atoms: C15_15  and  C16_16 
REMARK    8  A    between atoms: C16_16  and  C17_17 
REMARK    9  A    between atoms: C20_20  and  O1_21 
REMARK   10  A    between atoms: C20_20  and  C21_23 
REMARK   11  A    between atoms: C21_23  and  C22_24 
REMARK   12  A    between atoms: C28_30  and  O2_31 
ROOT
HETATM    1  C17 UNL     1       2.880  -0.258   0.011  1.00  0.00     0.017 C 
HETATM    2  C18 UNL     1       3.043   0.829  -0.920  1.00  0.00    -0.035 C 
HETATM    3  C19 UNL     1       1.918   1.380  -1.591  1.00  0.00     0.048 C 
HETATM    4  C20 UNL     1       4.470   1.242  -1.040  1.00  0.00     0.091 C 
HETATM    5  C26 UNL     1       5.268  -0.022  -1.203  1.00  0.00     0.057 C 
HETATM    6  C27 UNL     1       6.592   0.127  -1.876  1.00  0.00     0.016 C 
HETATM    7  C28 UNL     1       5.318  -0.940  -0.013  1.00  0.00     0.199 C 
HETATM    8  C29 UNL     1       4.022  -0.694   0.737  1.00  0.00     0.188 C 
HETATM    9  O3  UNL     1       3.943  -0.862   1.950  1.00  0.00    -0.289 OA
ENDROOT
BRANCH   1  10
HETATM   10  C16 UNL     1       1.562  -0.646   0.120  1.00  0.00     0.017 C 
BRANCH  10  11
HETATM   11  C15 UNL     1       1.117  -1.784   0.870  1.00  0.00     0.016 C 
BRANCH  11  12
HETATM   12  C13 UNL     1      -0.204  -1.849   0.779  1.00  0.00    -0.017 C 
HETATM   13  C14 UNL     1      -0.193  -3.674   1.090  1.00  0.00     0.057 C 
BRANCH  12  14
HETATM   14  C12 UNL     1      -1.418  -1.909   0.695  1.00  0.00    -0.122 C 
BRANCH  14  15
HETATM   15  C11 UNL     1      -2.783  -2.307   0.653  1.00  0.00     0.054 C 
HETATM   16  C10 UNL     1      -3.588  -1.188   0.472  1.00  0.00     0.014 C 
BRANCH  16  17
HETATM   17  C9  UNL     1      -5.005  -1.100   0.379  1.00  0.00     0.155 C 
HETATM   18  C7  UNL     1      -5.639  -2.193  -0.413  1.00  0.00     0.018 C 
HETATM   19  C6  UNL     1      -6.905  -1.795  -1.120  1.00  0.00     0.036 C 
HETATM   20  C8  UNL     1      -5.943  -3.331   0.553  1.00  0.00     0.013 C 
HETATM   21  C5  UNL     1      -7.378  -0.429  -0.871  1.00  0.00     0.006 C 
HETATM   22  C4  UNL     1      -6.631   0.548  -0.423  1.00  0.00     0.043 C 
HETATM   23  O4  UNL     1      -5.303   0.200  -0.164  1.00  0.00    -0.346 OA
BRANCH  22  24
HETATM   24  C3  UNL     1      -6.998   1.945  -0.160  1.00  0.00     0.064 C 
BRANCH  24  25
HETATM   25  C2  UNL     1      -8.444   2.287  -0.258  1.00  0.00     0.002 C 
HETATM   26  C1  UNL     1      -9.265   1.545   0.756  1.00  0.00     0.005 C 
ENDBRANCH  24  25
ENDBRANCH  22  24
ENDBRANCH  16  17
ENDBRANCH  14  15
ENDBRANCH  12  14
ENDBRANCH  11  12
ENDBRANCH  10  11
ENDBRANCH   1  10
BRANCH   4  27
HETATM   27  O1  UNL     1       4.632   1.948  -2.253  1.00  0.00    -0.384 OA
ATOM     28  H1  UNL     1       5.542   2.211  -2.329  1.00  0.00     0.211 HD
ENDBRANCH   4  27
BRANCH   4  29
HETATM   29  C21 UNL     1       4.818   2.169   0.054  1.00  0.00     0.070 C 
BRANCH  29  30
HETATM   30  C22 UNL     1       6.208   2.675  -0.008  1.00  0.00    -0.021 C 
HETATM   31  C23 UNL     1       7.132   2.539   0.919  1.00  0.00    -0.091 C 
HETATM   32  C24 UNL     1       8.493   3.129   0.685  1.00  0.00     0.042 C 
HETATM   33  C25 UNL     1       6.964   1.815   2.217  1.00  0.00     0.042 C 
ENDBRANCH  29  30
ENDBRANCH   4  29
BRANCH   7  34
HETATM   34  O2  UNL     1       5.260  -2.265  -0.493  1.00  0.00    -0.387 OA
ATOM     35  H2  UNL     1       5.292  -2.845   0.259  1.00  0.00     0.210 HD
ENDBRANCH   7  34
TORSDOF 12
