REMARK  10 active torsions:
REMARK  status: ('A' for Active; 'I' for Inactive)
REMARK    1  A    between atoms: C2_2  and  C3_3 
REMARK    2  A    between atoms: C3_3  and  C4_4 
REMARK    3  A    between atoms: C4_4  and  C5_5 
REMARK    4  A    between atoms: C5_5  and  O1_6 
REMARK    5  A    between atoms: C5_5  and  C6_8 
REMARK    6  A    between atoms: C5_5  and  C28_34 
REMARK    7  A    between atoms: C7_9  and  C8_10 
REMARK    8  A    between atoms: C13_15  and  C14_16 
REMARK    9  A    between atoms: C15_17  and  C16_18 
REMARK   10  A    between atoms: C26_30  and  O4_31 
ROOT
HETATM    1  C14 UNL     1      -0.984  -0.571  -0.437  1.00  0.00    -0.021 C 
HETATM    2  C15 UNL     1      -1.661  -0.288   0.632  1.00  0.00    -0.001 C 
ENDROOT
BRANCH   1   3
HETATM    3  C13 UNL     1       0.484  -0.832  -0.491  1.00  0.00     0.016 C 
HETATM    4  C8  UNL     1       1.243  -0.487   0.731  1.00  0.00     0.015 C 
HETATM    5  C9  UNL     1       1.415  -1.590   1.729  1.00  0.00     0.009 C 
HETATM    6  C10 UNL     1       1.706  -2.930   1.097  1.00  0.00     0.001 C 
HETATM    7  C11 UNL     1       0.707  -3.284   0.024  1.00  0.00     0.001 C 
HETATM    8  C12 UNL     1       0.764  -2.225  -1.025  1.00  0.00     0.009 C 
BRANCH   4   9
HETATM    9  C7  UNL     1       2.668  -0.189   0.251  1.00  0.00    -0.022 C 
HETATM   10  C6  UNL     1       3.203   0.968   0.450  1.00  0.00     0.011 C 
BRANCH  10  11
HETATM   11  C5  UNL     1       4.690   1.152  -0.097  1.00  0.00     0.093 C 
BRANCH  11  12
HETATM   12  C4  UNL     1       5.412   0.133   0.638  1.00  0.00     0.011 C 
BRANCH  12  13
HETATM   13  C3  UNL     1       6.848  -0.007   0.781  1.00  0.00    -0.028 C 
BRANCH  13  14
HETATM   14  C2  UNL     1       7.768  -0.157  -0.334  1.00  0.00     0.022 C 
HETATM   15  C1  UNL     1       7.960   1.024  -1.193  1.00  0.00     0.009 C 
ENDBRANCH  13  14
ENDBRANCH  12  13
ENDBRANCH  11  12
BRANCH  11  16
HETATM   16  O1  UNL     1       4.962   2.483   0.216  1.00  0.00    -0.382 OA
ATOM     17  H1  UNL     1       4.489   3.151  -0.266  1.00  0.00     0.211 HD
ENDBRANCH  11  16
BRANCH  11  18
HETATM   18  C28 UNL     1       4.504   0.946  -1.549  1.00  0.00     0.042 C 
HETATM   19  C29 UNL     1       3.744   2.121  -2.181  1.00  0.00     0.009 C 
ENDBRANCH  11  18
ENDBRANCH  10  11
ENDBRANCH   4   9
ENDBRANCH   1   3
BRANCH   2  20
HETATM   20  C16 UNL     1      -3.084  -0.026   0.711  1.00  0.00    -0.072 C 
HETATM   21  C17 UNL     1      -3.549   0.866   1.845  1.00  0.00     0.034 C 
HETATM   22  C18 UNL     1      -4.936   0.393   2.239  1.00  0.00     0.005 C 
HETATM   23  C19 UNL     1      -5.852   0.057   1.131  1.00  0.00     0.014 C 
HETATM   24  C20 UNL     1      -5.283  -0.517  -0.119  1.00  0.00    -0.016 C 
HETATM   25  C21 UNL     1      -5.019  -2.008   0.203  1.00  0.00     0.020 C 
HETATM   26  C22 UNL     1      -6.267  -0.548  -1.199  1.00  0.00    -0.011 C 
HETATM   27  C27 UNL     1      -3.927   0.043  -0.496  1.00  0.00     0.057 C 
HETATM   28  C23 UNL     1      -6.908   0.291  -1.982  1.00  0.00     0.079 C 
HETATM   29  C24 UNL     1      -6.868   1.753  -2.073  1.00  0.00     0.282 C 
HETATM   30  O2  UNL     1      -7.909   2.214  -2.564  1.00  0.00    -0.260 OA
HETATM   31  O3  UNL     1      -5.886   2.698  -1.713  1.00  0.00    -0.316 OA
HETATM   32  C25 UNL     1      -4.760   2.472  -0.829  1.00  0.00     0.211 C 
HETATM   33  C26 UNL     1      -3.970   1.321  -1.234  1.00  0.00     0.151 C 
BRANCH  33  34
HETATM   34  O4  UNL     1      -2.639   1.776  -1.406  1.00  0.00    -0.393 OA
ATOM     35  H4  UNL     1      -2.123   1.024  -1.671  1.00  0.00     0.210 HD
ENDBRANCH  33  34
ENDBRANCH   2  20
TORSDOF 10
