REMARK  4 active torsions:
REMARK  status: ('A' for Active; 'I' for Inactive)
REMARK    1  A    between atoms: C2_2  and  O2_4 
REMARK    2  A    between atoms: O2_4  and  C3_5 
REMARK    3  A    between atoms: C5_7  and  O3_9 
REMARK    4  A    between atoms: C8_12  and  O4_13 
ROOT
HETATM    1  C3  UNL     1       2.175   0.139  -0.166  1.00  0.00     0.163 C 
HETATM    2  C4  UNL     1       1.461   1.362   0.261  1.00  0.00     0.074 C 
HETATM    3  C5  UNL     1       0.401   1.958  -0.613  1.00  0.00     0.059 C 
HETATM    4  C6  UNL     1       0.989   3.314  -1.105  1.00  0.00     0.046 C 
HETATM    5  C7  UNL     1      -0.843   2.401   0.131  1.00  0.00     0.069 C 
HETATM    6  C8  UNL     1      -2.092   1.558  -0.197  1.00  0.00     0.121 C 
HETATM    7  C9  UNL     1      -1.903   0.357   0.646  1.00  0.00     0.040 C 
HETATM    8  C10 UNL     1      -2.612  -0.890   0.503  1.00  0.00    -0.045 C 
HETATM    9  C11 UNL     1      -3.976  -0.815  -0.146  1.00  0.00     0.015 C 
HETATM   10  C12 UNL     1      -2.876  -1.501   1.894  1.00  0.00     0.015 C 
HETATM   11  C13 UNL     1      -1.759  -1.921  -0.204  1.00  0.00     0.012 C 
HETATM   12  C14 UNL     1      -0.302  -1.920   0.112  1.00  0.00     0.028 C 
HETATM   13  C15 UNL     1       0.562  -1.588  -1.065  1.00  0.00    -0.022 C 
HETATM   14  C16 UNL     1       1.566  -0.755  -1.179  1.00  0.00    -0.058 C 
HETATM   15  C17 UNL     1       2.216  -0.722  -2.558  1.00  0.00     0.046 C 
ENDROOT
BRANCH   1  16
HETATM   16  O2  UNL     1       2.599  -0.627   0.978  1.00  0.00    -0.312 OA
BRANCH  16  17
HETATM   17  C2  UNL     1       3.894  -0.809   1.369  1.00  0.00     0.255 C 
HETATM   18  C1  UNL     1       4.141  -1.631   2.577  1.00  0.00     0.126 C 
HETATM   19  O1  UNL     1       4.780  -0.265   0.675  1.00  0.00    -0.266 OA
ENDBRANCH  16  17
ENDBRANCH   1  16
BRANCH   3  20
HETATM   20  O3  UNL     1       0.121   1.319  -1.785  1.00  0.00    -0.390 OA
ATOM     21  H3  UNL     1      -0.551   1.697  -2.339  1.00  0.00     0.210 HD
ENDBRANCH   3  20
BRANCH   6  22
HETATM   22  O4  UNL     1      -2.241   1.409  -1.533  1.00  0.00    -0.395 OA
ATOM     23  H4  UNL     1      -3.010   0.890  -1.735  1.00  0.00     0.210 HD
ENDBRANCH   6  22
TORSDOF 4
