REMARK  3 active torsions:
REMARK  status: ('A' for Active; 'I' for Inactive)
REMARK    1  A    between atoms: C3_3  and  C4_4 
REMARK    2  A    between atoms: C7_7  and  O1_8 
REMARK    3  A    between atoms: C14_17  and  O2_18 
ROOT
HETATM    1  C1  UNL     1       1.424   2.460   0.287  1.00  0.00     0.049 C 
HETATM    2  C2  UNL     1       0.808   1.080   0.155  1.00  0.00    -0.044 A 
HETATM    3  C3  UNL     1       1.697   0.053  -0.009  1.00  0.00    -0.015 A 
HETATM    4  C7  UNL     1       1.224  -1.236  -0.232  1.00  0.00     0.079 A 
HETATM    5  C8  UNL     1      -0.200  -1.404  -0.290  1.00  0.00    -0.018 A 
HETATM    6  C9  UNL     1      -0.658  -2.791  -0.382  1.00  0.00     0.052 C 
HETATM    7  C10 UNL     1      -1.079  -0.371  -0.143  1.00  0.00    -0.007 A 
HETATM    8  C11 UNL     1      -0.536   0.894   0.098  1.00  0.00    -0.019 A 
HETATM    9  C12 UNL     1      -1.404   2.051   0.388  1.00  0.00     0.181 C 
HETATM   10  C13 UNL     1      -1.011   2.774   1.631  1.00  0.00     0.073 C 
HETATM   11  N1  UNL     1      -0.744   3.328   2.585  1.00  0.00    -0.196 NA
HETATM   12  C14 UNL     1      -2.792   1.458   0.722  1.00  0.00     0.280 C 
HETATM   13  O3  UNL     1      -3.138   0.710  -0.341  1.00  0.00    -0.345 OA
HETATM   14  C15 UNL     1      -2.494  -0.568  -0.392  1.00  0.00     0.085 C 
HETATM   15  C16 UNL     1      -2.795  -0.889  -1.877  1.00  0.00     0.051 C 
HETATM   16  C17 UNL     1      -3.284  -1.406   0.523  1.00  0.00     0.051 C 
ENDROOT
BRANCH  12  17
HETATM   17  O2  UNL     1      -3.690   2.499   0.966  1.00  0.00    -0.369 OA
ATOM     18  H2  UNL     1      -4.543   2.135   1.171  1.00  0.00     0.212 HD
ENDBRANCH  12  17
BRANCH   3  19
HETATM   19  C4  UNL     1       3.139   0.324   0.149  1.00  0.00     0.014 C 
HETATM   20  C5  UNL     1       3.890   0.098  -1.175  1.00  0.00     0.015 C 
HETATM   21  C6  UNL     1       3.793  -0.711   1.112  1.00  0.00     0.015 C 
ENDBRANCH   3  19
BRANCH   4  22
HETATM   22  O1  UNL     1       2.024  -2.256  -0.382  1.00  0.00    -0.360 OA
ATOM     23  H1  UNL     1       1.701  -3.136  -0.534  1.00  0.00     0.217 HD
ENDBRANCH   4  22
TORSDOF 3
