REMARK  4 active torsions:
REMARK  status: ('A' for Active; 'I' for Inactive)
REMARK    1  A    between atoms: C4_6  and  N2_7 
REMARK    2  A    between atoms: N2_7  and  C5_8 
REMARK    3  A    between atoms: C5_8  and  O1_9 
REMARK    4  A    between atoms: C5_8  and  C6_11 
ROOT
HETATM    1  C5  UNL     1       0.660  -1.866   0.393  1.00  0.00     0.230 C 
ENDROOT
BRANCH   1   2
HETATM    2  N2  UNL     1       1.422  -0.845   0.622  1.00  0.00    -0.355 NA
BRANCH   2   3
HETATM    3  C4  UNL     1       2.146   0.106   0.891  1.00  0.00     0.225 A 
HETATM    4  N1  UNL     1       2.589   1.085   0.071  1.00  0.00    -0.334 N 
HETATM    5  C3  UNL     1       3.348   2.007   0.539  1.00  0.00     0.105 A 
ATOM      6  H1  UNL     1       2.322   1.091  -0.913  1.00  0.00     0.168 HD
HETATM    7  C2  UNL     1       3.692   1.977   1.862  1.00  0.00    -0.001 A 
HETATM    8  C1  UNL     1       4.566   2.952   2.615  1.00  0.00     0.058 C 
HETATM    9  S2  UNL     1       2.888   0.584   2.399  1.00  0.00    -0.043 SA
ENDBRANCH   2   3
ENDBRANCH   1   2
BRANCH   1  10
HETATM   10  O1  UNL     1       1.263  -3.036   0.605  1.00  0.00    -0.335 OA
ATOM     11  H1  UNL     1       0.704  -3.785   0.437  1.00  0.00     0.220 HD
ENDBRANCH   1  10
BRANCH   1  12
HETATM   12  C6  UNL     1      -0.773  -2.005  -0.066  1.00  0.00     0.068 A 
HETATM   13  C7  UNL     1      -1.323  -3.272  -0.221  1.00  0.00     0.103 A 
HETATM   14  N3  UNL     1      -0.688  -4.554   0.003  1.00  0.00    -0.093 NA
HETATM   15  S1  UNL     1      -2.917  -2.976  -0.735  1.00  0.00    -0.078 SA
HETATM   16  C8  UNL     1      -2.880  -1.293  -0.752  1.00  0.00    -0.008 A 
HETATM   17  C9  UNL     1      -1.593  -0.964  -0.346  1.00  0.00    -0.027 A 
HETATM   18  C13 UNL     1      -3.889  -0.213  -1.092  1.00  0.00     0.046 C 
HETATM   19  C10 UNL     1      -1.419   0.549  -0.317  1.00  0.00     0.041 C 
HETATM   20  C11 UNL     1      -1.842   1.115  -1.635  1.00  0.00     0.005 C 
HETATM   21  C12 UNL     1      -3.231   0.745  -2.045  1.00  0.00     0.005 C 
ENDBRANCH   1  12
TORSDOF 4
