REMARK  6 active torsions:
REMARK  status: ('A' for Active; 'I' for Inactive)
REMARK    1  A    between atoms: N1_2  and  C2_3 
REMARK    2  A    between atoms: C2_3  and  C3_4 
REMARK    3  A    between atoms: C3_4  and  C4_5 
REMARK    4  A    between atoms: C4_5  and  C5_6 
REMARK    5  A    between atoms: C5_6  and  N2_7 
REMARK    6  A    between atoms: N2_7  and  C6_9 
ROOT
HETATM    1  C1  UNL     1      -0.808   1.310  -1.035  1.00  0.00     0.297 C 
HETATM    2  N1  UNL     1      -0.904   0.637   0.243  1.00  0.00     0.010 N 
HETATM    3  C7  UNL     1      -1.360   1.627   1.233  1.00  0.00     0.264 C 
HETATM    4  C8  UNL     1      -2.810   1.786   0.848  1.00  0.00     0.089 C 
HETATM    5  C9  UNL     1      -3.177   0.450   0.312  1.00  0.00     0.185 C 
HETATM    6  C10 UNL     1      -4.265  -0.242   1.115  1.00  0.00     0.292 C 
HETATM    7  N4  UNL     1      -4.620  -1.320   0.177  1.00  0.00    -0.050 N 
ATOM      8  H41 UNL     1      -5.598  -1.606   0.223  1.00  0.00     0.279 HD
ATOM      9  H42 UNL     1      -4.224  -2.228   0.419  1.00  0.00     0.279 HD
HETATM   10  C11 UNL     1      -4.208  -0.821  -1.131  1.00  0.00     0.402 C 
HETATM   11  O1  UNL     1      -3.762   0.466  -0.949  1.00  0.00    -0.334 OA
HETATM   12  N5  UNL     1      -1.953  -0.280   0.301  1.00  0.00    -0.006 NA
ENDROOT
BRANCH   2  13
HETATM   13  C2  UNL     1       0.303  -0.023   0.616  1.00  0.00     0.260 C 
BRANCH  13  14
HETATM   14  C3  UNL     1       1.320  -0.094  -0.506  1.00  0.00     0.031 C 
BRANCH  14  15
HETATM   15  C4  UNL     1       2.566  -0.806  -0.024  1.00  0.00     0.021 C 
BRANCH  15  16
HETATM   16  C5  UNL     1       3.615  -0.917  -1.098  1.00  0.00     0.121 C 
BRANCH  16  17
HETATM   17  N2  UNL     1       4.776  -1.583  -0.561  1.00  0.00    -0.369 N 
ATOM     18  H2  UNL     1       4.986  -2.532  -0.871  1.00  0.00     0.161 HD
BRANCH  17  19
HETATM   19  C6  UNL     1       5.631  -0.968   0.378  1.00  0.00     0.180 C 
HETATM   20  N3  UNL     1       5.431   0.342   0.859  1.00  0.00    -0.070 NA
HETATM   21  S1  UNL     1       6.928  -1.799   0.954  1.00  0.00    -0.044 SA
ENDBRANCH  17  19
ENDBRANCH  16  17
ENDBRANCH  15  16
ENDBRANCH  14  15
ENDBRANCH  13  14
ENDBRANCH   2  13
TORSDOF 6
