REMARK  7 active torsions:
REMARK  status: ('A' for Active; 'I' for Inactive)
REMARK    1  A    between atoms: C2_2  and  C3_3 
REMARK    2  A    between atoms: C3_3  and  N1_4 
REMARK    3  A    between atoms: N2_6  and  C5_8 
REMARK    4  A    between atoms: C5_8  and  C6_12 
REMARK    5  A    between atoms: C6_12  and  N4_13 
REMARK    6  A    between atoms: N4_13  and  C9_16 
REMARK    7  A    between atoms: C9_16  and  N5_17 
ROOT
HETATM    1  N1  UNL     1       2.117   0.073   0.388  1.00  0.00    -0.333 N 
HETATM    2  C4  UNL     1       0.871   0.570  -0.169  1.00  0.00     0.176 C 
HETATM    3  N2  UNL     1       0.065  -0.211  -0.733  1.00  0.00    -0.327 N 
ATOM      4  H2  UNL     1       0.394  -1.176  -0.738  1.00  0.00     0.169 HD
HETATM    5  C10 UNL     1       0.837   2.000   0.094  1.00  0.00     0.287 C 
HETATM    6  O1  UNL     1      -0.096   2.809  -0.239  1.00  0.00    -0.264 OA
HETATM    7  N6  UNL     1       2.019   2.325   0.782  1.00  0.00    -0.328 N 
ATOM      8  H6  UNL     1       2.194   3.185   1.302  1.00  0.00     0.165 HD
HETATM    9  C11 UNL     1       2.944   1.224   0.623  1.00  0.00     0.103 C 
HETATM   10  C12 UNL     1       3.793   1.570  -0.592  1.00  0.00     0.063 C 
HETATM   11  C13 UNL     1       3.769   1.133   1.878  1.00  0.00     0.063 C 
ENDROOT
BRANCH   3  12
HETATM   12  C5  UNL     1      -1.166  -0.067  -1.349  1.00  0.00     0.103 C 
HETATM   13  N3  UNL     1      -1.322   0.933  -2.177  1.00  0.00    -0.387 N 
ATOM     14  H32 UNL     1      -0.538   1.570  -2.322  1.00  0.00     0.157 HD
ATOM     15  H31 UNL     1      -2.229   1.039  -2.631  1.00  0.00     0.157 HD
BRANCH  12  16
HETATM   16  C6  UNL     1      -2.292  -0.982  -1.140  1.00  0.00     0.314 C 
BRANCH  16  17
HETATM   17  N4  UNL     1      -3.251  -0.662  -0.139  1.00  0.00    -0.045 N 
HETATM   18  C7  UNL     1      -4.488  -0.133  -0.732  1.00  0.00     0.274 C 
HETATM   19  C8  UNL     1      -3.685  -1.942   0.469  1.00  0.00     0.274 C 
BRANCH  17  20
HETATM   20  C9  UNL     1      -2.864   0.183   0.930  1.00  0.00     0.464 C 
BRANCH  20  21
HETATM   21  N5  UNL     1      -3.202   1.552   0.804  1.00  0.00    -0.055 N 
ATOM     22  H53 UNL     1      -2.834   1.918  -0.074  1.00  0.00     0.276 HD
ATOM     23  H52 UNL     1      -4.204   1.645   0.638  1.00  0.00     0.276 HD
ATOM     24  H51 UNL     1      -2.923   2.160   1.574  1.00  0.00     0.276 HD
ENDBRANCH  20  21
ENDBRANCH  17  20
ENDBRANCH  16  17
ENDBRANCH  12  16
ENDBRANCH   3  12
BRANCH   1  25
HETATM   25  C3  UNL     1       2.469  -1.308   0.646  1.00  0.00     0.153 C 
BRANCH  25  26
HETATM   26  C2  UNL     1       2.643  -2.068  -0.621  1.00  0.00    -0.017 C 
HETATM   27  C1  UNL     1       3.800  -2.611  -0.884  1.00  0.00     0.008 C 
ENDBRANCH  25  26
ENDBRANCH   1  25
TORSDOF 7
