REMARK  8 active torsions:
REMARK  status: ('A' for Active; 'I' for Inactive)
REMARK       I    between atoms: N1_2  and  C3_4 
REMARK    1  A    between atoms: N3_6  and  C4_8 
REMARK    2  A    between atoms: C4_8  and  N4_10 
REMARK    3  A    between atoms: N4_10  and  C5_12 
REMARK    4  A    between atoms: C5_12  and  C6_13 
REMARK    5  A    between atoms: C6_13  and  C7_14 
REMARK    6  A    between atoms: C7_14  and  N5_15 
REMARK    7  A    between atoms: N5_15  and  S2_17 
REMARK    8  A    between atoms: S2_17  and  N6_18 
ROOT
HETATM    1  N4  UNL     1      -0.182  -0.184  -0.439  1.00  0.00    -0.367 N 
ATOM      2  H4  UNL     1       0.221  -0.955  -0.972  1.00  0.00     0.161 HD
ENDROOT
BRANCH   1   3
HETATM    3  C4  UNL     1      -1.455   0.336  -0.803  1.00  0.00     0.174 C 
HETATM    4  S1  UNL     1      -2.288  -0.298  -2.083  1.00  0.00    -0.041 SA
BRANCH   3   5
HETATM    5  N3  UNL     1      -1.995   1.408  -0.050  1.00  0.00    -0.307 N 
HETATM    6  C3  UNL     1      -3.075   1.190   0.660  1.00  0.00     0.191 C 
HETATM    7  N1  UNL     1      -3.708  -0.081   0.689  1.00  0.00    -0.364 N 
HETATM    8  N2  UNL     1      -3.591   2.280   1.402  1.00  0.00    -0.063 NA
HETATM    9  C1  UNL     1      -4.987  -0.258   0.047  1.00  0.00     0.151 C 
HETATM   10  C2  UNL     1      -3.022  -1.158   1.377  1.00  0.00     0.151 C 
ATOM     11  H3  UNL     1      -1.554   2.328  -0.060  1.00  0.00     0.171 HD
ENDBRANCH   3   5
ENDBRANCH   1   3
BRANCH   1  12
HETATM   12  C5  UNL     1       0.539   0.365   0.669  1.00  0.00     0.123 C 
BRANCH  12  13
HETATM   13  C6  UNL     1       1.863  -0.337   0.846  1.00  0.00     0.040 C 
BRANCH  13  14
HETATM   14  C7  UNL     1       2.684  -0.157  -0.395  1.00  0.00     0.135 C 
BRANCH  14  15
HETATM   15  N5  UNL     1       3.980  -0.807  -0.293  1.00  0.00    -0.303 N 
ATOM     16  H5  UNL     1       4.288  -1.324   0.530  1.00  0.00     0.173 HD
BRANCH  15  17
HETATM   17  S2  UNL     1       4.928  -0.614  -1.692  1.00  0.00     0.312 S 
HETATM   18  O1  UNL     1       5.910  -1.727  -1.896  1.00  0.00    -0.183 OA
HETATM   19  O2  UNL     1       4.129  -0.478  -2.943  1.00  0.00    -0.183 OA
BRANCH  17  20
HETATM   20  N6  UNL     1       5.868   0.842  -1.492  1.00  0.00    -0.312 N 
ATOM     21  H62 UNL     1       5.843   1.456  -0.678  1.00  0.00     0.170 HD
ATOM     22  H61 UNL     1       6.436   0.958  -2.331  1.00  0.00     0.170 HD
ENDBRANCH  17  20
ENDBRANCH  15  17
ENDBRANCH  14  15
ENDBRANCH  13  14
ENDBRANCH  12  13
ENDBRANCH   1  12
TORSDOF 8
