REMARK  9 active torsions:
REMARK  status: ('A' for Active; 'I' for Inactive)
REMARK    1  A    between atoms: N1_2  and  C2_3 
REMARK    2  A    between atoms: C2_3  and  C3_4 
REMARK    3  A    between atoms: C4_5  and  C5_6 
REMARK    4  A    between atoms: C6_7  and  C7_8 
REMARK    5  A    between atoms: C7_8  and  O1_9 
REMARK    6  A    between atoms: O1_9  and  C8_10 
REMARK    7  A    between atoms: C8_10  and  C9_11 
REMARK    8  A    between atoms: C9_11  and  N2_12 
REMARK       I    between atoms: N2_12  and  C10_14 
REMARK    9  A    between atoms: C13_21  and  O2_22 
ROOT
HETATM    1  C5  UNL     1       0.647  -0.341   0.539  1.00  0.00    -0.013 C 
HETATM    2  C6  UNL     1       1.732  -0.862   0.637  1.00  0.00    -0.066 C 
ENDROOT
BRANCH   1   3
HETATM    3  C4  UNL     1      -0.634   0.249   0.434  1.00  0.00    -0.013 C 
HETATM    4  C3  UNL     1      -1.750   0.741   0.350  1.00  0.00    -0.065 C 
BRANCH   4   5
HETATM    5  C2  UNL     1      -3.097   1.307   0.255  1.00  0.00     0.331 C 
BRANCH   5   6
HETATM    6  N1  UNL     1      -3.949   0.416  -0.517  1.00  0.00    -0.059 N 
HETATM    7  C1  UNL     1      -3.511   0.460  -1.900  1.00  0.00     0.273 C 
HETATM    8  C11 UNL     1      -3.867  -0.898   0.039  1.00  0.00     0.240 C 
HETATM    9  C12 UNL     1      -5.061  -0.975   0.979  1.00  0.00     0.061 C 
HETATM   10  C13 UNL     1      -6.128  -0.304   0.105  1.00  0.00     0.145 C 
HETATM   11  C14 UNL     1      -5.318   0.846  -0.475  1.00  0.00     0.269 C 
BRANCH  10  12
HETATM   12  O2  UNL     1      -6.448  -1.137  -0.969  1.00  0.00    -0.394 OA
ATOM     13  H2  UNL     1      -7.109  -0.721  -1.510  1.00  0.00     0.210 HD
ENDBRANCH  10  12
ENDBRANCH   5   6
ENDBRANCH   4   5
ENDBRANCH   1   3
BRANCH   2  14
HETATM   14  C7  UNL     1       3.043  -1.514   0.743  1.00  0.00     0.262 C 
BRANCH  14  15
HETATM   15  O1  UNL     1       3.835  -0.900   1.701  1.00  0.00    -0.378 OA
BRANCH  15  16
HETATM   16  C8  UNL     1       4.080   0.430   1.435  1.00  0.00     0.188 C 
BRANCH  16  17
HETATM   17  C9  UNL     1       4.781   0.674   0.144  1.00  0.00     0.148 C 
BRANCH  17  18
HETATM   18  N2  UNL     1       6.066   0.008   0.135  1.00  0.00    -0.363 N 
HETATM   19  C10 UNL     1       6.854   0.146  -1.025  1.00  0.00     0.181 C 
HETATM   20  N3  UNL     1       6.359  -0.111  -2.167  1.00  0.00    -0.374 N 
HETATM   21  N4  UNL     1       8.192   0.570  -0.911  1.00  0.00    -0.064 NA
ATOM     22  H32 UNL     1       5.390  -0.418  -2.250  1.00  0.00     0.158 HD
ATOM     23  H31 UNL     1       6.929  -0.011  -3.007  1.00  0.00     0.158 HD
ATOM     24  H2  UNL     1       6.387  -0.538   0.934  1.00  0.00     0.162 HD
ENDBRANCH  17  18
ENDBRANCH  16  17
ENDBRANCH  15  16
ENDBRANCH  14  15
ENDBRANCH   2  14
TORSDOF 9
