REMARK  8 active torsions:
REMARK  status: ('A' for Active; 'I' for Inactive)
REMARK    1  A    between atoms: O1_2  and  C2_3 
REMARK    2  A    between atoms: C2_3  and  C3_5 
REMARK    3  A    between atoms: C6_9  and  O3_10 
REMARK    4  A    between atoms: O3_10  and  C7_11 
REMARK    5  A    between atoms: C13_18  and  N2_19 
REMARK    6  A    between atoms: C15_21  and  N3_22 
REMARK    7  A    between atoms: C17_27  and  O4_29 
REMARK    8  A    between atoms: C21_32  and  O5_33 
ROOT
HETATM    1  C3  UNL     1      -0.786   3.324  -0.903  1.00  0.00     0.076 A 
HETATM    2  C4  UNL     1       0.571   3.617  -0.708  1.00  0.00     0.042 A 
HETATM    3  C5  UNL     1       1.380   2.733  -0.078  1.00  0.00     0.047 A 
HETATM    4 BR1  UNL     1       3.204   3.262   0.136  1.00  0.00    -0.048 Br
HETATM    5  C6  UNL     1       0.959   1.507   0.410  1.00  0.00     0.116 A 
HETATM    6  C13 UNL     1      -0.364   1.219   0.219  1.00  0.00     0.100 A 
HETATM    7  C21 UNL     1      -1.250   2.112  -0.433  1.00  0.00     0.111 A 
ENDROOT
BRANCH   6   8
HETATM    8  N2  UNL     1      -0.983  -0.031   0.613  1.00  0.00    -0.371 N 
HETATM    9  C14 UNL     1      -1.481  -0.155   1.954  1.00  0.00     0.156 C 
HETATM   10  C15 UNL     1      -2.698  -0.990   2.118  1.00  0.00     0.204 C 
HETATM   11  C16 UNL     1      -2.589  -2.248   1.331  1.00  0.00     0.073 C 
HETATM   12  C17 UNL     1      -2.260  -2.021  -0.134  1.00  0.00     0.074 C 
HETATM   13  C18 UNL     1      -1.830  -3.409  -0.646  1.00  0.00     0.047 C 
HETATM   14  C20 UNL     1      -1.112  -1.103  -0.328  1.00  0.00     0.161 C 
BRANCH  10  15
HETATM   15  N3  UNL     1      -3.951  -0.287   1.931  1.00  0.00    -0.073 N 
ATOM     16  H33 UNL     1      -3.995   0.525   2.547  1.00  0.00     0.274 HD
ATOM     17  H32 UNL     1      -3.962   0.178   1.023  1.00  0.00     0.274 HD
ATOM     18  H31 UNL     1      -4.787  -0.861   2.044  1.00  0.00     0.274 HD
ENDBRANCH  10  15
BRANCH  12  19
HETATM   19  O4  UNL     1      -3.438  -1.685  -0.754  1.00  0.00    -0.384 OA
HETATM   20  C19 UNL     1      -3.392  -1.445  -2.097  1.00  0.00     0.202 C 
ENDBRANCH  12  19
ENDBRANCH   6   8
BRANCH   5  21
HETATM   21  O3  UNL     1       1.781   0.644   1.035  1.00  0.00    -0.342 OA
BRANCH  21  22
HETATM   22  C7  UNL     1       2.568  -0.410   0.680  1.00  0.00     0.132 C 
HETATM   23  C8  UNL     1       4.038  -0.064   0.993  1.00  0.00     0.062 C 
HETATM   24  C9  UNL     1       4.788  -1.322   1.413  1.00  0.00     0.274 C 
HETATM   25  N1  UNL     1       4.401  -2.424   0.593  1.00  0.00     0.084 N 
HETATM   26  C10 UNL     1       4.742  -2.277  -0.784  1.00  0.00     0.309 C 
HETATM   27  C11 UNL     1       3.022  -2.798   0.824  1.00  0.00     0.274 C 
HETATM   28  C12 UNL     1       2.319  -1.664   1.539  1.00  0.00     0.062 C 
ENDBRANCH  21  22
ENDBRANCH   5  21
BRANCH   7  29
HETATM   29  O5  UNL     1      -2.550   1.765  -0.588  1.00  0.00    -0.357 OA
ATOM     30  H5  UNL     1      -2.869   0.931  -0.265  1.00  0.00     0.217 HD
ENDBRANCH   7  29
BRANCH   1  31
HETATM   31  C2  UNL     1      -1.606   4.314  -1.585  1.00  0.00     0.295 C 
HETATM   32  O2  UNL     1      -2.806   4.160  -1.808  1.00  0.00    -0.259 OA
BRANCH  31  33
HETATM   33  O1  UNL     1      -1.038   5.517  -2.025  1.00  0.00    -0.322 OA
HETATM   34  C1  UNL     1      -1.766   6.510  -2.684  1.00  0.00     0.213 C 
ENDBRANCH  31  33
ENDBRANCH   1  31
TORSDOF 8
