REMARK  9 active torsions:
REMARK  status: ('A' for Active; 'I' for Inactive)
REMARK    1  A    between atoms: N1_9  and  C9_10 
REMARK    2  A    between atoms: C9_10  and  C10_11 
REMARK    3  A    between atoms: C10_11  and  O1_12 
REMARK    4  A    between atoms: C10_11  and  O3_16 
REMARK    5  A    between atoms: O1_12  and  C11_13 
REMARK    6  A    between atoms: O3_16  and  C13_17 
REMARK    7  A    between atoms: C19_26  and  C20_27 
REMARK    8  A    between atoms: C20_27  and  O6_28 
REMARK    9  A    between atoms: C21_30  and  O7_31 
ROOT
HETATM    1  C9  UNL     1       0.155  -0.554   0.221  1.00  0.00     0.187 C 
ENDROOT
BRANCH   1   2
HETATM    2  N1  UNL     1      -1.179  -0.228  -0.244  1.00  0.00    -0.348 N 
HETATM    3  C6  UNL     1      -1.783  -1.372  -0.998  1.00  0.00     0.027 C 
HETATM    4  C5  UNL     1      -3.193  -1.187  -0.682  1.00  0.00     0.031 C 
HETATM    5  C7  UNL     1      -1.323  -2.688  -0.433  1.00  0.00     0.038 C 
HETATM    6  C8  UNL     1      -1.476  -1.325  -2.463  1.00  0.00     0.038 C 
HETATM    7  C4  UNL     1      -4.391  -1.865  -1.050  1.00  0.00     0.007 C 
HETATM    8  C3  UNL     1      -5.406  -0.727  -0.700  1.00  0.00     0.039 C 
HETATM    9  C2  UNL     1      -4.998  -0.108   0.631  1.00  0.00    -0.056 C 
HETATM   10  C1  UNL     1      -5.468  -0.854   1.625  1.00  0.00     0.020 C 
HETATM   11  C23 UNL     1      -4.233   1.117   0.909  1.00  0.00    -0.015 C 
HETATM   12  C22 UNL     1      -3.005   1.537   0.660  1.00  0.00     0.004 C 
HETATM   13  C24 UNL     1      -4.959   2.197   1.651  1.00  0.00    -0.056 C 
HETATM   14  C21 UNL     1      -1.830   1.010   0.001  1.00  0.00     0.146 C 
HETATM   15  C27 UNL     1      -2.951   2.936   1.351  1.00  0.00     0.048 C 
HETATM   16  C26 UNL     1      -4.335   3.434   1.049  1.00  0.00     0.043 C 
HETATM   17  C25 UNL     1      -5.874   2.236   2.563  1.00  0.00     0.020 C 
BRANCH  14  18
HETATM   18  O7  UNL     1      -1.072   1.947  -0.581  1.00  0.00    -0.346 OA
ATOM     19  H7  UNL     1      -1.508   2.775  -0.417  1.00  0.00     0.219 HD
ENDBRANCH  14  18
ENDBRANCH   1   2
BRANCH   1  20
HETATM   20  C10 UNL     1       1.344  -0.190  -0.543  1.00  0.00     0.288 C 
BRANCH  20  21
HETATM   21  O1  UNL     1       1.523  -0.696  -1.837  1.00  0.00    -0.288 OA
BRANCH  21  22
HETATM   22  C11 UNL     1       2.051   0.058  -2.883  1.00  0.00     0.257 C 
HETATM   23  C12 UNL     1       2.206  -0.561  -4.222  1.00  0.00     0.126 C 
HETATM   24  O2  UNL     1       2.370   1.228  -2.640  1.00  0.00    -0.266 OA
ENDBRANCH  21  22
ENDBRANCH  20  21
BRANCH  20  25
HETATM   25  O3  UNL     1       2.425  -0.812   0.168  1.00  0.00    -0.346 OA
BRANCH  25  26
HETATM   26  C13 UNL     1       3.347   0.083   0.634  1.00  0.00     0.204 C 
HETATM   27  C14 UNL     1       3.430  -0.090   2.123  1.00  0.00     0.163 C 
HETATM   28  O4  UNL     1       2.707  -0.862   2.730  1.00  0.00    -0.295 OA
HETATM   29  C15 UNL     1       4.420   0.708   2.856  1.00  0.00     0.163 C 
HETATM   30  C16 UNL     1       5.705   0.718   2.114  1.00  0.00     0.173 C 
HETATM   31  O5  UNL     1       6.726   0.914   2.746  1.00  0.00    -0.294 OA
HETATM   32  C17 UNL     1       5.811   0.505   0.656  1.00  0.00     0.168 C 
HETATM   33  C18 UNL     1       5.849   1.893   0.001  1.00  0.00     0.061 C 
HETATM   34  F1  UNL     1       7.029  -0.068   0.391  1.00  0.00    -0.234 F 
HETATM   35  C19 UNL     1       4.709  -0.332   0.096  1.00  0.00     0.093 C 
BRANCH  35  36
HETATM   36  C20 UNL     1       4.918  -1.774   0.461  1.00  0.00     0.175 C 
BRANCH  36  37
HETATM   37  O6  UNL     1       6.147  -2.201  -0.017  1.00  0.00    -0.400 OA
ATOM     38  H6  UNL     1       6.279  -3.113   0.214  1.00  0.00     0.209 HD
ENDBRANCH  36  37
ENDBRANCH  35  36
ENDBRANCH  25  26
ENDBRANCH  20  25
ENDBRANCH   1  20
TORSDOF 9
