REMARK  7 active torsions:
REMARK  status: ('A' for Active; 'I' for Inactive)
REMARK    1  A    between atoms: C2_2  and  O1_3 
REMARK    2  A    between atoms: O1_3  and  C3_4 
REMARK    3  A    between atoms: C3_4  and  C4_6 
REMARK    4  A    between atoms: C5_8  and  N1_9 
REMARK       I    between atoms: N1_9  and  C6_11 
REMARK       I    between atoms: C6_11  and  N2_13 
REMARK    5  A    between atoms: N2_13  and  S2_15 
REMARK    6  A    between atoms: S2_15  and  C7_18 
REMARK    7  A    between atoms: C11_24  and  O6_25 
ROOT
HETATM    1  N1  UNL     1       0.336   1.093   0.013  1.00  0.00    -0.288 N 
ATOM      2  H1  UNL     1      -0.065   2.030   0.061  1.00  0.00     0.172 HD
HETATM    3  C6  UNL     1      -0.565   0.015   0.005  1.00  0.00     0.335 C 
HETATM    4  O3  UNL     1      -0.437  -0.973  -0.748  1.00  0.00    -0.246 OA
HETATM    5  N2  UNL     1      -1.658   0.069   0.889  1.00  0.00    -0.231 N 
ATOM      6  H2  UNL     1      -1.727   0.888   1.493  1.00  0.00     0.183 HD
ENDROOT
BRANCH   1   7
HETATM    7  C5  UNL     1       1.617   1.010  -0.034  1.00  0.00     0.153 A 
HETATM    8  S1  UNL     1       2.664  -0.319  -0.124  1.00  0.00    -0.046 SA
HETATM    9  C4  UNL     1       4.170   0.521  -0.118  1.00  0.00     0.105 A 
HETATM   10  C13 UNL     1       3.737   1.825  -0.045  1.00  0.00     0.030 A 
HETATM   11  N3  UNL     1       2.467   2.054  -0.003  1.00  0.00    -0.339 N 
HETATM   12  C14 UNL     1       4.774   2.935  -0.024  1.00  0.00     0.070 C 
ATOM     13  H3  UNL     1       2.114   3.009   0.053  1.00  0.00     0.168 HD
BRANCH   9  14
HETATM   14  C3  UNL     1       5.534   0.025  -0.186  1.00  0.00     0.302 C 
HETATM   15  O2  UNL     1       6.511   0.835  -0.135  1.00  0.00    -0.259 OA
BRANCH  14  16
HETATM   16  O1  UNL     1       5.816  -1.298  -0.303  1.00  0.00    -0.317 OA
BRANCH  16  17
HETATM   17  C2  UNL     1       7.169  -1.780  -0.364  1.00  0.00     0.174 C 
HETATM   18  C1  UNL     1       7.112  -3.276  -0.530  1.00  0.00     0.034 C 
ENDBRANCH  16  17
ENDBRANCH  14  16
ENDBRANCH   9  14
ENDBRANCH   1   7
BRANCH   5  19
HETATM   19  S2  UNL     1      -2.894  -1.130   1.042  1.00  0.00     0.276 S 
HETATM   20  O4  UNL     1      -2.906  -2.110  -0.062  1.00  0.00    -0.199 OA
HETATM   21  O5  UNL     1      -2.769  -1.809   2.397  1.00  0.00    -0.199 OA
BRANCH  19  22
HETATM   22  C7  UNL     1      -4.453  -0.273   1.099  1.00  0.00     0.155 A 
HETATM   23  S3  UNL     1      -5.311   0.305   2.453  1.00  0.00    -0.066 SA
HETATM   24  C8  UNL     1      -6.638   1.011   1.655  1.00  0.00     0.061 A 
HETATM   25 BR1  UNL     1      -8.126   1.934   2.453  1.00  0.00    -0.042 Br
HETATM   26  C9  UNL     1      -6.373   0.774   0.333  1.00  0.00    -0.002 A 
HETATM   27  C10 UNL     1      -7.353   1.282  -0.713  1.00  0.00     0.053 C 
HETATM   28  C11 UNL     1      -5.235   0.105   0.050  1.00  0.00     0.106 A 
BRANCH  28  29
HETATM   29  O6  UNL     1      -4.858  -0.199  -1.294  1.00  0.00    -0.353 OA
HETATM   30  C12 UNL     1      -5.302  -1.432  -1.871  1.00  0.00     0.210 C 
ENDBRANCH  28  29
ENDBRANCH  19  22
ENDBRANCH   5  19
TORSDOF 7
