REMARK  9 active torsions:
REMARK  status: ('A' for Active; 'I' for Inactive)
REMARK    1  A    between atoms: C2_4  and  C3_5 
REMARK    2  A    between atoms: C2_4  and  C4_8 
REMARK    3  A    between atoms: C4_8  and  C5_9 
REMARK    4  A    between atoms: C4_8  and  C21_33 
REMARK    5  A    between atoms: C5_9  and  C14_26 
REMARK    6  A    between atoms: N2_10  and  N3_12 
REMARK       I    between atoms: N3_12  and  C6_14 
REMARK    7  A    between atoms: C6_14  and  C7_16 
REMARK       I    between atoms: C7_16  and  N4_18 
REMARK    8  A    between atoms: N4_18  and  C8_20 
REMARK    9  A    between atoms: C26_38  and  N5_39 
ROOT
HETATM    1  C5  UNL     1      -1.408   0.022  -0.399  1.00  0.00     0.050 C 
HETATM    2  N2  UNL     1      -0.408  -0.688  -0.481  1.00  0.00    -0.300 N 
ATOM      3  H2  UNL     1      -0.676  -1.668  -0.567  1.00  0.00     0.186 HD
ENDROOT
BRANCH   1   4
HETATM    4  C4  UNL     1      -2.841  -0.764  -0.447  1.00  0.00     0.128 C 
BRANCH   4   5
HETATM    5  C2  UNL     1      -3.290  -0.385  -1.749  1.00  0.00     0.082 C 
HETATM    6  N1  UNL     1      -4.576  -0.122  -1.887  1.00  0.00    -0.393 N 
HETATM    7  C1  UNL     1      -5.592  -0.172  -0.924  1.00  0.00     0.146 C 
ATOM      8  H1  UNL     1      -4.870   0.156  -2.823  1.00  0.00     0.159 HD
BRANCH   5   9
HETATM    9  C3  UNL     1      -2.558  -0.228  -2.983  1.00  0.00     0.265 C 
HETATM   10  O1  UNL     1      -1.342  -0.403  -3.192  1.00  0.00    -0.273 OA
HETATM   11 CL1  UNL     1      -3.437   0.281  -4.441  1.00  0.00    -0.037 Cl
ENDBRANCH   5   9
ENDBRANCH   4   5
BRANCH   4  12
HETATM   12  C21 UNL     1      -2.515  -2.056   0.071  1.00  0.00    -0.009 A 
HETATM   13  C22 UNL     1      -1.724  -2.002   1.255  1.00  0.00     0.011 A 
HETATM   14  C23 UNL     1      -1.437  -3.095   2.015  1.00  0.00     0.001 A 
HETATM   15  C24 UNL     1      -1.918  -4.324   1.654  1.00  0.00     0.002 A 
HETATM   16  C25 UNL     1      -2.671  -4.417   0.540  1.00  0.00     0.037 A 
HETATM   17  C26 UNL     1      -2.965  -3.268  -0.252  1.00  0.00     0.110 A 
BRANCH  17  18
HETATM   18  N5  UNL     1      -3.777  -3.585  -1.324  1.00  0.00    -0.115 N 
HETATM   19  O4  UNL     1      -3.693  -3.256  -2.463  1.00  0.00    -0.532 OA
HETATM   20  O5  UNL     1      -4.797  -4.538  -1.114  1.00  0.00    -0.532 OA
ENDBRANCH  17  18
ENDBRANCH   4  12
ENDBRANCH   1   4
BRANCH   1  21
HETATM   21  C14 UNL     1      -1.484   1.456  -0.414  1.00  0.00    -0.011 A 
HETATM   22  C15 UNL     1      -2.622   2.142  -0.064  1.00  0.00     0.014 A 
HETATM   23  C16 UNL     1      -2.628   3.536  -0.172  1.00  0.00     0.007 A 
HETATM   24  C17 UNL     1      -1.559   4.259  -0.609  1.00  0.00    -0.062 A 
HETATM   25  C18 UNL     1      -1.627   5.758  -0.706  1.00  0.00     0.048 C 
HETATM   26  C19 UNL     1      -0.404   3.593  -0.966  1.00  0.00     0.007 A 
HETATM   27  C20 UNL     1      -0.389   2.220  -0.863  1.00  0.00     0.014 A 
ENDBRANCH   1  21
BRANCH   2  28
HETATM   28  N3  UNL     1       0.914  -0.570  -0.492  1.00  0.00    -0.262 N 
HETATM   29  C6  UNL     1       1.852  -0.490   0.558  1.00  0.00     0.328 C 
HETATM   30  O2  UNL     1       1.493  -0.522   1.753  1.00  0.00    -0.261 OA
ATOM     31  H3  UNL     1       1.324  -0.530  -1.425  1.00  0.00     0.190 HD
BRANCH  29  32
HETATM   32  C7  UNL     1       3.299  -0.368   0.312  1.00  0.00     0.315 C 
HETATM   33  O3  UNL     1       3.624  -0.318  -0.893  1.00  0.00    -0.262 OA
HETATM   34  N4  UNL     1       4.228  -0.314   1.345  1.00  0.00    -0.319 N 
ATOM     35  H4  UNL     1       3.857  -0.366   2.294  1.00  0.00     0.169 HD
BRANCH  34  36
HETATM   36  C8  UNL     1       5.621  -0.195   1.222  1.00  0.00     0.035 A 
HETATM   37  C9  UNL     1       6.435  -0.484   2.327  1.00  0.00     0.029 A 
HETATM   38  C10 UNL     1       7.793  -0.394   2.337  1.00  0.00     0.002 A 
HETATM   39  C11 UNL     1       8.448   0.004   1.202  1.00  0.00     0.000 A 
HETATM   40  C12 UNL     1       7.700   0.299   0.094  1.00  0.00     0.002 A 
HETATM   41  C13 UNL     1       6.303   0.202   0.097  1.00  0.00     0.029 A 
ENDBRANCH  34  36
ENDBRANCH  29  32
ENDBRANCH   2  28
TORSDOF 9
