REMARK  12 active torsions:
REMARK  status: ('A' for Active; 'I' for Inactive)
REMARK    1  A    between atoms: C3_3  and  O1_4 
REMARK    2  A    between atoms: O1_4  and  C4_5 
REMARK    3  A    between atoms: C6_7  and  N1_8 
REMARK    4  A    between atoms: C12_17  and  C13_18 
REMARK    5  A    between atoms: C13_18  and  O2_19 
REMARK    6  A    between atoms: O2_19  and  C14_20 
REMARK    7  A    between atoms: C14_20  and  C15_22 
REMARK    8  A    between atoms: C15_22  and  N2_23 
REMARK    9  A    between atoms: C15_22  and  N3_32 
REMARK       I    between atoms: N2_23  and  C16_25 
REMARK   10  A    between atoms: C16_25  and  O5_27 
REMARK   11  A    between atoms: O5_27  and  C17_28 
REMARK       I    between atoms: N3_32  and  C21_34 
REMARK   12  A    between atoms: C21_34  and  C22_36 
ROOT
HETATM    1  C13 UNL     1      -0.697   0.039   1.825  1.00  0.00     0.194 C 
ENDROOT
BRANCH   1   2
HETATM    2  C12 UNL     1      -2.139  -0.090   1.475  1.00  0.00     0.015 C 
HETATM    3  C2  UNL     1      -2.554   0.798   0.344  1.00  0.00    -0.041 C 
HETATM    4  C1  UNL     1      -1.932   1.925   0.061  1.00  0.00     0.018 C 
HETATM    5  C3  UNL     1      -3.740   0.194  -0.325  1.00  0.00     0.116 C 
HETATM    6  C6  UNL     1      -5.014   0.894   0.112  1.00  0.00     0.223 C 
HETATM    7  C10 UNL     1      -3.830  -1.200   0.338  1.00  0.00     0.028 C 
HETATM    8  C7  UNL     1      -4.986   1.158   1.614  1.00  0.00     0.041 C 
HETATM    9  C8  UNL     1      -4.479  -0.017   2.363  1.00  0.00    -0.003 C 
HETATM   10  C9  UNL     1      -4.742  -1.239   1.507  1.00  0.00     0.013 C 
HETATM   11  C25 UNL     1      -3.003   0.127   2.672  1.00  0.00    -0.030 C 
HETATM   12  C26 UNL     1      -2.689   1.468   3.282  1.00  0.00     0.016 C 
HETATM   13  C27 UNL     1      -2.709  -0.905   3.741  1.00  0.00     0.016 C 
HETATM   14  C11 UNL     1      -2.419  -1.461   0.835  1.00  0.00     0.025 C 
BRANCH   5  15
HETATM   15  O1  UNL     1      -3.672  -0.067  -1.620  1.00  0.00    -0.373 OA
BRANCH  15  16
HETATM   16  C4  UNL     1      -3.460   0.746  -2.623  1.00  0.00     0.165 C 
HETATM   17  C5  UNL     1      -3.518  -0.078  -3.927  1.00  0.00     0.033 C 
ENDBRANCH  15  16
ENDBRANCH   5  15
BRANCH   6  18
HETATM   18  N1  UNL     1      -5.244   2.160  -0.504  1.00  0.00    -0.072 N 
ATOM     19  H13 UNL     1      -4.440   2.772  -0.365  1.00  0.00     0.274 HD
ATOM     20  H12 UNL     1      -5.223   2.068  -1.520  1.00  0.00     0.274 HD
ATOM     21  H11 UNL     1      -6.100   2.630  -0.210  1.00  0.00     0.274 HD
ENDBRANCH   6  18
ENDBRANCH   1   2
BRANCH   1  22
HETATM   22  O2  UNL     1       0.152  -0.288   0.710  1.00  0.00    -0.317 OA
BRANCH  22  23
HETATM   23  C14 UNL     1       1.530  -0.269   0.831  1.00  0.00     0.301 C 
HETATM   24  O3  UNL     1       2.072   0.032   1.906  1.00  0.00    -0.261 OA
BRANCH  23  25
HETATM   25  C15 UNL     1       2.325  -0.632  -0.400  1.00  0.00     0.290 C 
BRANCH  25  26
HETATM   26  N2  UNL     1       3.726  -0.597  -0.120  1.00  0.00    -0.307 N 
HETATM   27  C16 UNL     1       4.577  -1.723  -0.247  1.00  0.00     0.363 C 
HETATM   28  O4  UNL     1       4.091  -2.810  -0.623  1.00  0.00    -0.238 OA
ATOM     29  H2  UNL     1       4.135   0.285   0.188  1.00  0.00     0.167 HD
BRANCH  27  30
HETATM   30  O5  UNL     1       5.929  -1.639   0.040  1.00  0.00    -0.294 OA
BRANCH  30  31
HETATM   31  C17 UNL     1       6.830  -2.710  -0.064  1.00  0.00     0.061 C 
HETATM   32  C18 UNL     1       8.194  -2.186   0.357  1.00  0.00     0.046 C 
HETATM   33  C19 UNL     1       6.867  -3.172  -1.514  1.00  0.00     0.046 C 
HETATM   34  C20 UNL     1       6.357  -3.821   0.839  1.00  0.00     0.046 C 
ENDBRANCH  30  31
ENDBRANCH  27  30
ENDBRANCH  25  26
BRANCH  25  35
HETATM   35  N3  UNL     1       2.039   0.336  -1.425  1.00  0.00    -0.331 N 
HETATM   36  C21 UNL     1       1.746   1.686  -1.150  1.00  0.00     0.223 C 
HETATM   37  O6  UNL     1       1.730   2.114   0.014  1.00  0.00    -0.273 OA
ATOM     38  H3  UNL     1       2.049   0.030  -2.398  1.00  0.00     0.165 HD
BRANCH  36  39
HETATM   39  C22 UNL     1       1.452   2.615  -2.258  1.00  0.00     0.070 C 
HETATM   40  C23 UNL     1       1.366   4.059  -1.735  1.00  0.00     0.019 C 
HETATM   41  C24 UNL     1       2.463   2.578  -3.353  1.00  0.00     0.019 C 
ENDBRANCH  36  39
ENDBRANCH  25  35
ENDBRANCH  23  25
ENDBRANCH  22  23
ENDBRANCH   1  22
TORSDOF 12
