REMARK  9 active torsions:
REMARK  status: ('A' for Active; 'I' for Inactive)
REMARK    1  A    between atoms: O1_2  and  C2_3 
REMARK    2  A    between atoms: C2_3  and  C3_7 
REMARK    3  A    between atoms: C4_8  and  C5_9 
REMARK    4  A    between atoms: C8_12  and  N2_13 
REMARK       I    between atoms: N2_13  and  C9_15 
REMARK       I    between atoms: C9_15  and  N3_17 
REMARK    5  A    between atoms: C15_26  and  S1_27 
REMARK    6  A    between atoms: S1_27  and  N5_29 
REMARK    7  A    between atoms: S1_27  and  S2_33 
REMARK    8  A    between atoms: S2_33  and  C17_34 
REMARK    9  A    between atoms: C17_34  and  C18_35 
ROOT
HETATM    1  N5  UNL     1       0.271  -1.383  -2.315  1.00  0.00    -0.240 N 
ATOM      2  H5  UNL     1       1.270  -1.313  -2.508  1.00  0.00     0.189 HD
HETATM    3  C16 UNL     1      -0.547  -2.273  -3.067  1.00  0.00     0.190 C 
HETATM    4  N6  UNL     1      -1.215  -2.992  -3.683  1.00  0.00    -0.171 NA
ENDROOT
BRANCH   1   5
HETATM    5  S1  UNL     1      -0.365  -0.535  -1.217  1.00  0.00     0.139 S 
HETATM    6  O3  UNL     1      -1.695  -0.101  -1.823  1.00  0.00    -0.231 OA
BRANCH   5   7
HETATM    7  C15 UNL     1       0.394   0.890  -0.673  1.00  0.00     0.146 A 
HETATM    8  C8  UNL     1       1.790   1.013  -0.558  1.00  0.00     0.074 A 
HETATM    9  C7  UNL     1       2.291   2.222  -0.186  1.00  0.00     0.035 A 
HETATM   10  C6  UNL     1       1.471   3.318   0.084  1.00  0.00     0.032 A 
HETATM   11  C5  UNL     1       0.118   3.173  -0.030  1.00  0.00     0.033 A 
HETATM   12  N7  UNL     1      -0.357   1.985  -0.398  1.00  0.00    -0.346 N 
ATOM     13  H7  UNL     1      -1.369   1.891  -0.480  1.00  0.00     0.167 HD
BRANCH   8  14
HETATM   14  N2  UNL     1       2.578  -0.135  -0.773  1.00  0.00    -0.306 N 
HETATM   15  C9  UNL     1       3.969  -0.177  -0.752  1.00  0.00     0.325 C 
HETATM   16  O2  UNL     1       4.688   0.812  -0.531  1.00  0.00    -0.247 OA
HETATM   17  N3  UNL     1       4.718  -1.383  -0.990  1.00  0.00    -0.309 N 
HETATM   18  C10 UNL     1       4.565  -2.406  -0.260  1.00  0.00     0.038 A 
ATOM     19  H3  UNL     1       5.385  -1.414  -1.761  1.00  0.00     0.170 HD
HETATM   20  C11 UNL     1       5.360  -3.522  -0.610  1.00  0.00     0.046 A 
HETATM   21  C14 UNL     1       3.733  -2.533   0.826  1.00  0.00     0.046 A 
HETATM   22  C12 UNL     1       5.251  -4.655   0.152  1.00  0.00     0.090 A 
HETATM   23  N4  UNL     1       4.414  -4.724   1.211  1.00  0.00    -0.375 N 
HETATM   24  C13 UNL     1       3.648  -3.693   1.573  1.00  0.00     0.090 A 
ATOM     25  H4  UNL     1       4.366  -5.589   1.749  1.00  0.00     0.164 HD
ATOM     26  H2  UNL     1       2.087  -1.010  -0.960  1.00  0.00     0.171 HD
ENDBRANCH   8  14
BRANCH  11  27
HETATM   27  C4  UNL     1      -0.817   4.235   0.210  1.00  0.00     0.034 C 
HETATM   28  C3  UNL     1      -0.418   5.456   0.465  1.00  0.00     0.058 C 
BRANCH  28  29
HETATM   29  C2  UNL     1      -1.426   6.492   0.706  1.00  0.00     0.135 C 
HETATM   30  N1  UNL     1      -1.041   7.689   0.947  1.00  0.00    -0.380 N 
ATOM     31  H12 UNL     1      -1.743   8.410   1.115  1.00  0.00     0.158 HD
ATOM     32  H11 UNL     1      -0.053   7.939   0.976  1.00  0.00     0.158 HD
BRANCH  29  33
HETATM   33  O1  UNL     1      -2.762   6.154   0.667  1.00  0.00    -0.341 OA
HETATM   34  C1  UNL     1      -3.787   7.161   0.683  1.00  0.00     0.211 C 
ENDBRANCH  29  33
ENDBRANCH  28  29
ENDBRANCH  11  27
ENDBRANCH   5   7
BRANCH   5  35
HETATM   35  S2  UNL     1      -0.373  -1.782   0.380  1.00  0.00    -0.046 SA
BRANCH  35  36
HETATM   36  C17 UNL     1      -1.808  -2.028   1.252  1.00  0.00     0.128 C 
BRANCH  36  37
HETATM   37  C18 UNL     1      -2.890  -2.713   0.506  1.00  0.00    -0.048 A 
HETATM   38  C19 UNL     1      -2.934  -4.101   0.470  1.00  0.00     0.011 A 
HETATM   39  C20 UNL     1      -3.966  -4.690  -0.223  1.00  0.00     0.043 A 
HETATM   40  C21 UNL     1      -4.937  -3.964  -0.871  1.00  0.00     0.116 A 
HETATM   41  F1  UNL     1      -5.959  -4.540  -1.559  1.00  0.00    -0.206 F 
HETATM   42  C22 UNL     1      -4.896  -2.587  -0.838  1.00  0.00     0.043 A 
HETATM   43  C23 UNL     1      -3.852  -1.987  -0.137  1.00  0.00     0.011 A 
ENDBRANCH  36  37
ENDBRANCH  35  36
ENDBRANCH   5  35
ENDBRANCH   1   5
TORSDOF 9
