REMARK  10 active torsions:
REMARK  status: ('A' for Active; 'I' for Inactive)
REMARK    1  A    between atoms: C2_2  and  O2_4 
REMARK    2  A    between atoms: O2_4  and  C3_5 
REMARK    3  A    between atoms: C7_10  and  O3_11 
REMARK    4  A    between atoms: C7_10  and  C8_13 
REMARK    5  A    between atoms: C8_13  and  C9_14 
REMARK    6  A    between atoms: C9_14  and  C10_15 
REMARK    7  A    between atoms: C10_15  and  C11_16 
REMARK    8  A    between atoms: C12_17  and  C13_18 
REMARK    9  A    between atoms: C13_18  and  C14_19 
REMARK   10  A    between atoms: C17_24  and  O6_25 
ROOT
HETATM    1  C3  UNL     1      -2.026   2.625   0.095  1.00  0.00     0.160 C 
HETATM    2  C4  UNL     1      -0.657   2.786  -0.536  1.00  0.00     0.113 C 
HETATM    3 CL1  UNL     1       0.460   3.400   0.669  1.00  0.00    -0.122 Cl
HETATM    4  C5  UNL     1      -0.225   1.553  -1.264  1.00  0.00     0.033 C 
HETATM    5  C6  UNL     1      -0.039   0.446  -0.251  1.00  0.00     0.061 C 
HETATM    6  C7  UNL     1       0.556  -0.784  -0.811  1.00  0.00     0.090 C 
HETATM    7  C15 UNL     1      -0.267  -2.023  -0.551  1.00  0.00    -0.018 C 
HETATM    8  C16 UNL     1      -0.048  -3.083  -1.306  1.00  0.00     0.016 C 
HETATM    9  C17 UNL     1      -0.862  -4.333  -1.057  1.00  0.00     0.175 C 
HETATM   10  C18 UNL     1      -1.504  -4.379   0.284  1.00  0.00     0.084 C 
HETATM   11  C19 UNL     1      -3.022  -4.331   0.032  1.00  0.00     0.049 C 
HETATM   12  C20 UNL     1      -1.295  -5.744   0.961  1.00  0.00     0.049 C 
HETATM   13  O7  UNL     1      -1.135  -3.379   1.179  1.00  0.00    -0.368 OA
HETATM   14  C21 UNL     1      -1.284  -2.179   0.492  1.00  0.00     0.157 C 
HETATM   15  C22 UNL     1      -1.225  -0.943   1.347  1.00  0.00     0.076 C 
HETATM   16  C23 UNL     1      -1.410   0.189   0.335  1.00  0.00     0.080 C 
HETATM   17  O8  UNL     1      -2.398  -0.219  -0.562  1.00  0.00    -0.368 OA
HETATM   18  C24 UNL     1      -3.373   0.514   0.061  1.00  0.00     0.064 C 
HETATM   19  C25 UNL     1      -4.200   1.332  -0.931  1.00  0.00     0.046 C 
HETATM   20  C26 UNL     1      -4.299  -0.137   1.025  1.00  0.00     0.046 C 
HETATM   21  C27 UNL     1      -2.236   1.312   0.720  1.00  0.00     0.086 C 
ENDROOT
BRANCH   6  22
HETATM   22  O3  UNL     1       0.474  -0.697  -2.244  1.00  0.00    -0.385 OA
ATOM     23  H3  UNL     1       0.857  -1.488  -2.604  1.00  0.00     0.211 HD
ENDBRANCH   6  22
BRANCH   6  24
HETATM   24  C8  UNL     1       1.921  -1.174  -0.397  1.00  0.00     0.043 C 
BRANCH  24  25
HETATM   25  C9  UNL     1       3.132  -0.422  -0.625  1.00  0.00     0.007 C 
BRANCH  25  26
HETATM   26  C10 UNL     1       3.322   0.933  -0.047  1.00  0.00     0.027 C 
BRANCH  26  27
HETATM   27  C11 UNL     1       4.732   1.421  -0.419  1.00  0.00    -0.030 C 
HETATM   28  C12 UNL     1       5.572   1.706   0.509  1.00  0.00    -0.020 C 
BRANCH  28  29
HETATM   29  C13 UNL     1       6.943   2.180   0.412  1.00  0.00     0.140 C 
BRANCH  29  30
HETATM   30  C14 UNL     1       7.544   2.394  -0.882  1.00  0.00     0.176 C 
HETATM   31  O4  UNL     1       6.999   2.211  -1.981  1.00  0.00    -0.648 OA
HETATM   32  O5  UNL     1       8.892   2.859  -0.988  1.00  0.00    -0.648 OA
ENDBRANCH  29  30
ENDBRANCH  28  29
ENDBRANCH  26  27
ENDBRANCH  25  26
ENDBRANCH  24  25
ENDBRANCH   6  24
BRANCH   9  33
HETATM   33  O6  UNL     1      -0.022  -5.422  -1.287  1.00  0.00    -0.389 OA
ATOM     34  H6  UNL     1      -0.533  -6.207  -1.131  1.00  0.00     0.210 HD
ENDBRANCH   9  33
BRANCH   1  35
HETATM   35  O2  UNL     1      -2.079   3.627   1.122  1.00  0.00    -0.314 OA
BRANCH  35  36
HETATM   36  C2  UNL     1      -2.916   4.726   1.048  1.00  0.00     0.255 C 
HETATM   37  C1  UNL     1      -2.945   5.749   2.137  1.00  0.00     0.126 C 
HETATM   38  O1  UNL     1      -3.658   4.854   0.043  1.00  0.00    -0.266 OA
ENDBRANCH  35  36
ENDBRANCH   1  35
TORSDOF 10
