REMARK  15 active torsions:
REMARK  status: ('A' for Active; 'I' for Inactive)
REMARK    1  A    between atoms: C2_2  and  C3_3 
REMARK    2  A    between atoms: C3_3  and  C4_4 
REMARK    3  A    between atoms: C4_4  and  C5_5 
REMARK    4  A    between atoms: C5_5  and  O1_6 
REMARK    5  A    between atoms: O1_6  and  C6_7 
REMARK       I    between atoms: C6_7  and  N1_9 
REMARK       I    between atoms: N2_12  and  C9_13 
REMARK    6  A    between atoms: C9_13  and  C10_15 
REMARK    7  A    between atoms: C10_15  and  C11_16 
REMARK    8  A    between atoms: C10_15  and  C18_25 
REMARK    9  A    between atoms: C11_16  and  C12_17 
REMARK   10  A    between atoms: C12_17  and  C13_18 
REMARK   11  A    between atoms: C13_18  and  C14_19 
REMARK   12  A    between atoms: C14_19  and  N3_20 
REMARK       I    between atoms: C18_25  and  N4_27 
REMARK   13  A    between atoms: N4_27  and  C19_29 
REMARK   14  A    between atoms: C19_29  and  C20_30 
REMARK   15  A    between atoms: C21_34  and  C22_35 
ROOT
HETATM    1  C10 UNL     1      -1.430   1.765  -0.452  1.00  0.00     0.170 C 
ENDROOT
BRANCH   1   2
HETATM    2  C9  UNL     1      -0.832   0.633  -1.197  1.00  0.00     0.233 C 
HETATM    3  N2  UNL     1      -0.249  -0.510  -0.586  1.00  0.00    -0.348 N 
HETATM    4  C8  UNL     1       0.261  -1.559  -1.444  1.00  0.00     0.145 C 
HETATM    5  C28 UNL     1      -0.125  -0.671   0.849  1.00  0.00     0.145 C 
HETATM    6  C7  UNL     1       1.017  -2.556  -0.601  1.00  0.00     0.148 C 
HETATM    7  N1  UNL     1       1.924  -1.794   0.228  1.00  0.00    -0.325 N 
HETATM    8  C6  UNL     1       3.307  -1.904   0.053  1.00  0.00     0.362 C 
HETATM    9  C29 UNL     1       1.331  -0.935   1.229  1.00  0.00     0.148 C 
HETATM   10  O2  UNL     1       3.763  -2.681  -0.824  1.00  0.00    -0.238 OA
HETATM   11  O3  UNL     1      -0.828   0.652  -2.478  1.00  0.00    -0.272 OA
BRANCH   8  12
HETATM   12  O1  UNL     1       4.204  -1.174   0.824  1.00  0.00    -0.304 OA
BRANCH  12  13
HETATM   13  C5  UNL     1       5.587  -1.346   0.582  1.00  0.00     0.180 C 
BRANCH  13  14
HETATM   14  C4  UNL     1       6.437  -0.487   1.465  1.00  0.00     0.027 C 
BRANCH  14  15
HETATM   15  C3  UNL     1       6.222  -0.778   2.927  1.00  0.00     0.002 C 
BRANCH  15  16
HETATM   16  C2  UNL     1       7.127   0.141   3.729  1.00  0.00    -0.004 C 
HETATM   17  C1  UNL     1       6.911  -0.141   5.199  1.00  0.00     0.005 C 
ENDBRANCH  15  16
ENDBRANCH  14  15
ENDBRANCH  13  14
ENDBRANCH  12  13
ENDBRANCH   8  12
ENDBRANCH   1   2
BRANCH   1  18
HETATM   18  C11 UNL     1      -1.585   2.958  -1.330  1.00  0.00     0.024 C 
BRANCH  18  19
HETATM   19  C12 UNL     1      -0.291   3.452  -1.866  1.00  0.00     0.003 C 
BRANCH  19  20
HETATM   20  C13 UNL     1       0.621   3.830  -0.707  1.00  0.00     0.030 C 
BRANCH  20  21
HETATM   21  C14 UNL     1       1.931   4.358  -1.254  1.00  0.00     0.273 C 
BRANCH  21  22
HETATM   22  N3  UNL     1       1.708   5.533  -2.069  1.00  0.00     0.098 N 
HETATM   23  C15 UNL     1       1.269   6.667  -1.287  1.00  0.00     0.283 C 
HETATM   24  C16 UNL     1       2.304   6.841  -0.165  1.00  0.00     0.105 C 
HETATM   25  S1  UNL     1       3.829   6.481  -1.132  1.00  0.00    -0.138 SA
HETATM   26  C17 UNL     1       2.978   5.915  -2.666  1.00  0.00     0.346 C 
ENDBRANCH  21  22
ENDBRANCH  20  21
ENDBRANCH  19  20
ENDBRANCH  18  19
ENDBRANCH   1  18
BRANCH   1  27
HETATM   27  C18 UNL     1      -2.815   1.359   0.044  1.00  0.00     0.231 C 
HETATM   28  O4  UNL     1      -3.068   1.334   1.270  1.00  0.00    -0.273 OA
HETATM   29  N4  UNL     1      -3.824   1.011  -0.869  1.00  0.00    -0.358 N 
ATOM     30  H4  UNL     1      -3.621   1.032  -1.868  1.00  0.00     0.162 HD
BRANCH  29  31
HETATM   31  C19 UNL     1      -5.121   0.630  -0.432  1.00  0.00     0.166 C 
BRANCH  31  32
HETATM   32  C20 UNL     1      -5.166  -0.593   0.452  1.00  0.00     0.265 C 
HETATM   33  N5  UNL     1      -4.616  -1.696  -0.299  1.00  0.00    -0.053 N 
HETATM   34  C21 UNL     1      -5.220  -2.904   0.129  1.00  0.00     0.230 C 
ATOM     35  H52 UNL     1      -4.701  -1.558  -1.306  1.00  0.00     0.279 HD
ATOM     36  H51 UNL     1      -3.598  -1.732  -0.242  1.00  0.00     0.279 HD
HETATM   37  C27 UNL     1      -6.719  -2.791  -0.099  1.00  0.00     0.112 C 
HETATM   38  S2  UNL     1      -6.944  -1.068   0.512  1.00  0.00    -0.133 SA
BRANCH  34  39
HETATM   39  C22 UNL     1      -4.647  -4.076  -0.589  1.00  0.00     0.086 C 
HETATM   40  C23 UNL     1      -4.807  -4.054  -2.077  1.00  0.00     0.048 C 
HETATM   41  C24 UNL     1      -3.189  -4.238  -0.280  1.00  0.00     0.042 C 
HETATM   42  C25 UNL     1      -3.143  -5.541   0.483  1.00  0.00     0.029 C 
HETATM   43  C26 UNL     1      -4.565  -5.653   0.984  1.00  0.00     0.169 C 
HETATM   44  O5  UNL     1      -5.295  -5.212  -0.111  1.00  0.00    -0.378 OA
ENDBRANCH  34  39
ENDBRANCH  31  32
ENDBRANCH  29  31
ENDBRANCH   1  27
TORSDOF 15
