REMARK  15 active torsions:
REMARK  status: ('A' for Active; 'I' for Inactive)
REMARK    1  A    between atoms: C2_2  and  C3_3 
REMARK    2  A    between atoms: C7_7  and  C8_8 
REMARK    3  A    between atoms: C8_8  and  S1_9 
REMARK    4  A    between atoms: S1_9  and  C9_11 
REMARK    5  A    between atoms: S1_9  and  N1_13 
REMARK       I    between atoms: N2_16  and  C13_17 
REMARK    6  A    between atoms: C13_17  and  C14_19 
REMARK    7  A    between atoms: C14_19  and  N3_20 
REMARK    8  A    between atoms: C14_19  and  C15_24 
REMARK    9  A    between atoms: C15_24  and  C16_25 
REMARK   10  A    between atoms: C16_25  and  C17_26 
REMARK   11  A    between atoms: C17_26  and  C18_27 
REMARK   12  A    between atoms: C18_27  and  N4_28 
REMARK   13  A    between atoms: C20_33  and  C21_34 
REMARK   14  A    between atoms: C21_34  and  C22_35 
REMARK   15  A    between atoms: C28_41  and  C29_42 
ROOT
HETATM    1  N1  UNL     1      -0.330   0.434   0.780  1.00  0.00    -0.334 N 
HETATM    2  C11 UNL     1      -0.617  -0.660   1.626  1.00  0.00     0.152 C 
HETATM    3  C12 UNL     1      -1.781  -1.428   0.917  1.00  0.00     0.146 C 
HETATM    4  N2  UNL     1      -2.666  -0.380   0.467  1.00  0.00    -0.347 N 
HETATM    5  C13 UNL     1      -3.502  -0.379  -0.663  1.00  0.00     0.250 C 
HETATM    6  O2  UNL     1      -4.226   0.637  -0.949  1.00  0.00    -0.271 OA
HETATM    7  C19 UNL     1      -2.648   0.821   1.299  1.00  0.00     0.151 C 
HETATM    8  C20 UNL     1      -1.269   1.451   1.015  1.00  0.00     0.111 C 
ENDROOT
BRANCH   1   9
HETATM    9  S1  UNL     1       1.231   0.616  -0.165  1.00  0.00     0.027 S 
HETATM   10  O1  UNL     1       0.987  -1.495  -0.216  1.00  0.00    -0.249 OA
BRANCH   9  11
HETATM   11  C8  UNL     1       2.979   0.178   0.605  1.00  0.00     0.157 C 
BRANCH  11  12
HETATM   12  C7  UNL     1       3.840  -0.735  -0.155  1.00  0.00    -0.026 A 
HETATM   13  C5  UNL     1       4.744  -0.045  -1.022  1.00  0.00    -0.053 A 
HETATM   14  C4  UNL     1       5.673  -0.723  -1.748  1.00  0.00     0.014 A 
HETATM   15  C6  UNL     1       4.688   1.436  -1.155  1.00  0.00     0.049 C 
HETATM   16  C3  UNL     1       5.768  -2.094  -1.666  1.00  0.00    -0.057 A 
HETATM   17  C31 UNL     1       4.911  -2.747  -0.837  1.00  0.00     0.023 A 
HETATM   18  C28 UNL     1       3.920  -2.091  -0.048  1.00  0.00     0.019 A 
BRANCH  16  19
HETATM   19  C2  UNL     1       6.764  -2.835  -2.459  1.00  0.00     0.034 C 
HETATM   20  C1  UNL     1       8.063  -2.783  -1.642  1.00  0.00     0.010 C 
ENDBRANCH  16  19
BRANCH  18  21
HETATM   21  C29 UNL     1       3.219  -2.926   0.905  1.00  0.00     0.148 A 
HETATM   22  N5  UNL     1       2.994  -4.246   0.737  1.00  0.00    -0.268 N 
HETATM   23  N6  UNL     1       2.460  -4.703   1.858  1.00  0.00    -0.225 N 
ATOM     24  H5  UNL     1       3.198  -4.791  -0.100  1.00  0.00     0.190 HD
HETATM   25  N7  UNL     1       2.333  -3.732   2.739  1.00  0.00    -0.223 N 
ATOM     26  H6  UNL     1       2.185  -5.672   2.018  1.00  0.00     0.210 HD
HETATM   27  C30 UNL     1       1.795  -3.815   4.092  1.00  0.00     0.202 C 
HETATM   28  N8  UNL     1       2.805  -2.656   2.128  1.00  0.00    -0.266 N 
ATOM     29  H8  UNL     1       2.844  -1.729   2.552  1.00  0.00     0.190 HD
ENDBRANCH  18  21
ENDBRANCH  11  12
ENDBRANCH   9  11
BRANCH   9  30
HETATM   30  C9  UNL     1       1.163   0.308  -2.151  1.00  0.00     0.113 C 
HETATM   31  C10 UNL     1       1.113   1.648  -2.918  1.00  0.00     0.019 C 
ENDBRANCH   9  30
ENDBRANCH   1   9
BRANCH   8  32
HETATM   32  C21 UNL     1      -1.462   2.646   0.206  1.00  0.00     0.032 C 
BRANCH  32  33
HETATM   33  C22 UNL     1      -0.412   3.653   0.091  1.00  0.00    -0.013 C 
HETATM   34  C23 UNL     1      -0.848   4.821  -0.823  1.00  0.00     0.005 C 
HETATM   35  C24 UNL     1      -1.591   5.808  -0.002  1.00  0.00     0.000 C 
HETATM   36  C25 UNL     1      -0.662   6.484   0.989  1.00  0.00     0.000 C 
HETATM   37  C26 UNL     1       0.504   5.555   1.326  1.00  0.00     0.000 C 
HETATM   38  C27 UNL     1      -0.105   4.185   1.486  1.00  0.00     0.005 C 
ENDBRANCH  32  33
ENDBRANCH   8  32
BRANCH   5  39
HETATM   39  C14 UNL     1      -3.633  -1.510  -1.615  1.00  0.00     0.275 C 
BRANCH  39  40
HETATM   40  N3  UNL     1      -4.240  -1.076  -2.869  1.00  0.00    -0.067 N 
ATOM     41  H33 UNL     1      -5.135  -0.612  -2.712  1.00  0.00     0.275 HD
ATOM     42  H32 UNL     1      -3.730  -0.295  -3.282  1.00  0.00     0.275 HD
ATOM     43  H31 UNL     1      -4.330  -1.853  -3.523  1.00  0.00     0.275 HD
ENDBRANCH  39  40
BRANCH  39  44
HETATM   44  C15 UNL     1      -4.609  -2.508  -0.972  1.00  0.00     0.042 C 
BRANCH  44  45
HETATM   45  C16 UNL     1      -5.943  -1.845  -0.737  1.00  0.00     0.004 C 
BRANCH  45  46
HETATM   46  C17 UNL     1      -6.898  -2.835  -0.159  1.00  0.00     0.027 C 
BRANCH  46  47
HETATM   47  C18 UNL     1      -6.441  -3.398   1.148  1.00  0.00     0.229 C 
BRANCH  47  48
HETATM   48  N4  UNL     1      -6.270  -2.300   2.112  1.00  0.00    -0.079 N 
ATOM     49  H43 UNL     1      -5.646  -1.572   1.764  1.00  0.00     0.274 HD
ATOM     50  H42 UNL     1      -7.113  -1.733   2.207  1.00  0.00     0.274 HD
ATOM     51  H41 UNL     1      -5.958  -2.684   3.004  1.00  0.00     0.274 HD
ENDBRANCH  47  48
ENDBRANCH  46  47
ENDBRANCH  45  46
ENDBRANCH  44  45
ENDBRANCH  39  44
ENDBRANCH   5  39
TORSDOF 15
