REMARK  15 active torsions:
REMARK  status: ('A' for Active; 'I' for Inactive)
REMARK    1  A    between atoms: C2_2  and  C3_3 
REMARK    2  A    between atoms: C3_3  and  C4_4 
REMARK    3  A    between atoms: C4_4  and  N1_5 
REMARK    4  A    between atoms: N1_5  and  C5_7 
REMARK    5  A    between atoms: N2_10  and  C8_11 
REMARK    6  A    between atoms: C8_11  and  C9_12 
REMARK    7  A    between atoms: C9_12  and  C10_13 
REMARK    8  A    between atoms: C10_13  and  C11_14 
REMARK    9  A    between atoms: C11_14  and  N3_15 
REMARK       I    between atoms: N4_21  and  C17_22 
REMARK   10  A    between atoms: C17_22  and  C18_24 
REMARK   11  A    between atoms: C18_24  and  C19_25 
REMARK   12  A    between atoms: C19_25  and  C20_26 
REMARK       I    between atoms: N5_33  and  C25_35 
REMARK   13  A    between atoms: C25_35  and  C26_37 
REMARK   14  A    between atoms: C26_37  and  C27_39 
REMARK   15  A    between atoms: C27_39  and  C28_40 
ROOT
HETATM    1  C9  UNL     1      -1.265   0.101  -0.930  1.00  0.00     0.013 C 
HETATM    2  N5  UNL     1      -2.141   0.820  -1.495  1.00  0.00    -0.326 N 
ATOM      3  H5  UNL     1      -2.961   0.343  -1.871  1.00  0.00     0.168 HD
HETATM    4  C25 UNL     1      -2.086   2.229  -1.653  1.00  0.00     0.291 C 
HETATM    5  O4  UNL     1      -1.831   2.702  -2.776  1.00  0.00    -0.264 OA
ENDROOT
BRANCH   1   6
HETATM    6  C8  UNL     1      -1.461  -1.367  -0.831  1.00  0.00     0.186 C 
BRANCH   6   7
HETATM    7  N2  UNL     1      -2.827  -1.744  -1.035  1.00  0.00    -0.304 N 
HETATM    8  C7  UNL     1      -3.686  -1.808  -0.006  1.00  0.00     0.100 A 
HETATM    9  C6  UNL     1      -5.021  -2.158  -0.151  1.00  0.00     0.065 A 
HETATM   10  C5  UNL     1      -5.477  -2.452  -1.412  1.00  0.00     0.106 A 
HETATM   11  N6  UNL     1      -4.597  -2.385  -2.454  1.00  0.00    -0.294 N 
HETATM   12  C32 UNL     1      -3.305  -2.037  -2.246  1.00  0.00     0.328 A 
ATOM     13  H6  UNL     1      -4.916  -2.599  -3.399  1.00  0.00     0.172 HD
HETATM   14  O6  UNL     1      -2.555  -1.998  -3.255  1.00  0.00    -0.246 OA
BRANCH  10  15
HETATM   15  N1  UNL     1      -6.687  -2.783  -1.673  1.00  0.00    -0.376 N 
ATOM     16  H1  UNL     1      -6.937  -2.984  -2.641  1.00  0.00     0.161 HD
BRANCH  15  17
HETATM   17  C4  UNL     1      -7.708  -2.885  -0.669  1.00  0.00     0.121 C 
BRANCH  17  18
HETATM   18  C3  UNL     1      -7.638  -4.248  -0.003  1.00  0.00     0.019 C 
BRANCH  18  19
HETATM   19  C2  UNL     1      -8.673  -4.417   1.062  1.00  0.00    -0.003 C 
HETATM   20  C1  UNL     1     -10.085  -4.288   0.587  1.00  0.00     0.005 C 
ENDBRANCH  18  19
ENDBRANCH  17  18
ENDBRANCH  15  17
ENDBRANCH  10  15
ENDBRANCH   6   7
ENDBRANCH   1   6
BRANCH   1  21
HETATM   21  C10 UNL     1      -0.009   0.676  -0.398  1.00  0.00     0.098 C 
BRANCH  21  22
HETATM   22  C11 UNL     1       1.133   0.049  -1.166  1.00  0.00     0.064 C 
BRANCH  22  23
HETATM   23  N3  UNL     1       2.368   0.549  -0.710  1.00  0.00    -0.392 N 
HETATM   24  C12 UNL     1       2.789   0.180   0.604  1.00  0.00     0.124 C 
HETATM   25  C13 UNL     1       3.442  -1.165   0.581  1.00  0.00     0.052 C 
HETATM   26  C14 UNL     1       4.665  -1.085  -0.317  1.00  0.00     0.046 C 
HETATM   27  C15 UNL     1       5.241  -2.484  -0.453  1.00  0.00     0.052 C 
HETATM   28  N4  UNL     1       5.862  -0.671   0.333  1.00  0.00    -0.342 N 
HETATM   29  C21 UNL     1       4.339  -0.565  -1.670  1.00  0.00    -0.006 C 
HETATM   30  C16 UNL     1       6.231  -2.065   0.564  1.00  0.00     0.129 C 
HETATM   31  C17 UNL     1       6.563   0.524   0.714  1.00  0.00     0.221 C 
HETATM   32  O1  UNL     1       6.134   1.682   0.490  1.00  0.00    -0.273 OA
HETATM   33  C22 UNL     1       5.547  -0.253  -2.508  1.00  0.00     0.019 C 
HETATM   34  C23 UNL     1       3.631  -1.720  -2.409  1.00  0.00     0.019 C 
HETATM   35  C24 UNL     1       3.416   0.615  -1.679  1.00  0.00     0.133 C 
BRANCH  31  36
HETATM   36  C18 UNL     1       7.868   0.429   1.410  1.00  0.00     0.113 C 
BRANCH  36  37
HETATM   37  C19 UNL     1       8.360   1.697   2.001  1.00  0.00     0.122 C 
BRANCH  37  38
HETATM   38  C20 UNL     1       7.421   2.179   3.027  1.00  0.00     0.172 C 
HETATM   39  O2  UNL     1       6.397   1.530   3.298  1.00  0.00    -0.648 OA
HETATM   40  O3  UNL     1       7.714   3.362   3.670  1.00  0.00    -0.648 OA
ENDBRANCH  37  38
ENDBRANCH  36  37
ENDBRANCH  31  36
ENDBRANCH  22  23
ENDBRANCH  21  22
ENDBRANCH   1  21
BRANCH   4  41
HETATM   41  C26 UNL     1      -2.327   3.081  -0.509  1.00  0.00     0.217 C 
HETATM   42  O5  UNL     1      -2.560   2.570   0.598  1.00  0.00    -0.287 OA
BRANCH  41  43
HETATM   43  C27 UNL     1      -2.288   4.533  -0.690  1.00  0.00     0.093 C 
BRANCH  43  44
HETATM   44  C28 UNL     1      -2.543   5.383   0.493  1.00  0.00    -0.007 C 
HETATM   45  C29 UNL     1      -1.584   5.202   1.670  1.00  0.00     0.005 C 
HETATM   46  C30 UNL     1      -2.765   5.518   2.568  1.00  0.00     0.001 C 
HETATM   47  C31 UNL     1      -3.679   5.125   1.403  1.00  0.00     0.005 C 
ENDBRANCH  43  44
ENDBRANCH  41  43
ENDBRANCH   4  41
TORSDOF 15
