REMARK  15 active torsions:
REMARK  status: ('A' for Active; 'I' for Inactive)
REMARK    1  A    between atoms: C2_2  and  C3_3 
REMARK    2  A    between atoms: C3_3  and  C4_4 
REMARK    3  A    between atoms: C4_4  and  C5_5 
REMARK    4  A    between atoms: C5_5  and  C6_6 
REMARK    5  A    between atoms: C6_6  and  C7_7 
REMARK    6  A    between atoms: C7_7  and  C8_8 
REMARK    7  A    between atoms: C7_7  and  N1_10 
REMARK       I    between atoms: N1_10  and  C9_12 
REMARK    8  A    between atoms: C9_12  and  C10_14 
REMARK    9  A    between atoms: C10_14  and  N2_15 
REMARK       I    between atoms: N2_15  and  C11_17 
REMARK   10  A    between atoms: C11_17  and  C12_19 
REMARK   11  A    between atoms: C12_19  and  N3_20 
REMARK   12  A    between atoms: C20_31  and  C21_32 
REMARK   13  A    between atoms: C21_32  and  C23_34 
REMARK   14  A    between atoms: C23_34  and  N5_38 
REMARK   15  A    between atoms: N6_41  and  C26_42 
ROOT
HETATM    1  N3  UNL     1      -1.341  -0.461   0.155  1.00  0.00    -0.313 N 
HETATM    2  C13 UNL     1      -1.904  -1.497   0.955  1.00  0.00     0.243 C 
HETATM    3  O4  UNL     1      -1.991  -2.638   0.370  1.00  0.00    -0.271 OA
HETATM    4  C14 UNL     1      -2.405  -1.541   2.313  1.00  0.00     0.092 C 
HETATM    5  C15 UNL     1      -3.776  -2.140   2.507  1.00  0.00     0.038 C 
HETATM    6  C16 UNL     1      -1.492  -2.567   3.052  1.00  0.00     0.038 C 
HETATM    7  S1  UNL     1      -2.261  -0.072   3.287  1.00  0.00    -0.077 SA
HETATM    8  S2  UNL     1      -0.963   1.381   2.628  1.00  0.00    -0.081 SA
HETATM    9  C17 UNL     1      -1.170   1.893   0.913  1.00  0.00     0.051 C 
HETATM   10  C18 UNL     1       0.248   2.083   0.398  1.00  0.00     0.034 C 
HETATM   11  C19 UNL     1      -1.760   3.291   0.840  1.00  0.00     0.034 C 
HETATM   12  C20 UNL     1      -1.852   0.919   0.049  1.00  0.00     0.022 C 
ENDROOT
BRANCH   1  13
HETATM   13  C12 UNL     1      -0.259  -0.951  -0.649  1.00  0.00     0.234 C 
BRANCH  13  14
HETATM   14  C11 UNL     1       1.027  -1.212  -0.012  1.00  0.00     0.236 C 
HETATM   15  N2  UNL     1       2.098  -1.639  -0.876  1.00  0.00    -0.351 N 
ATOM     16  H2  UNL     1       1.933  -1.747  -1.877  1.00  0.00     0.163 HD
HETATM   17  O3  UNL     1       1.266  -1.099   1.194  1.00  0.00    -0.272 OA
BRANCH  15  18
HETATM   18  C10 UNL     1       3.383  -1.910  -0.335  1.00  0.00     0.225 C 
BRANCH  18  19
HETATM   19  C9  UNL     1       4.015  -0.738   0.268  1.00  0.00     0.235 C 
HETATM   20  N1  UNL     1       5.309  -0.895   0.877  1.00  0.00    -0.349 N 
ATOM     21  H1  UNL     1       5.767  -1.806   0.887  1.00  0.00     0.163 HD
HETATM   22  O2  UNL     1       3.461   0.381   0.263  1.00  0.00    -0.272 OA
BRANCH  20  23
HETATM   23  C7  UNL     1       5.948   0.246   1.471  1.00  0.00     0.146 C 
BRANCH  23  24
HETATM   24  C6  UNL     1       7.235   0.537   0.701  1.00  0.00     0.032 C 
BRANCH  24  25
HETATM   25  C5  UNL     1       8.218  -0.559   0.824  1.00  0.00     0.002 C 
BRANCH  25  26
HETATM   26  C4  UNL     1       9.530  -0.416   0.175  1.00  0.00     0.000 C 
BRANCH  26  27
HETATM   27  C3  UNL     1       9.644  -0.319  -1.278  1.00  0.00    -0.000 C 
BRANCH  27  28
HETATM   28  C2  UNL     1       9.016   0.807  -2.019  1.00  0.00    -0.005 C 
HETATM   29  C1  UNL     1       9.476   2.169  -1.571  1.00  0.00     0.005 C 
ENDBRANCH  27  28
ENDBRANCH  26  27
ENDBRANCH  25  26
ENDBRANCH  24  25
ENDBRANCH  23  24
BRANCH  23  30
HETATM   30  C8  UNL     1       6.184   0.052   2.914  1.00  0.00     0.256 C 
HETATM   31  O1  UNL     1       5.861  -0.967   3.490  1.00  0.00    -0.305 OA
ENDBRANCH  23  30
ENDBRANCH  20  23
ENDBRANCH  18  19
ENDBRANCH  15  18
ENDBRANCH  13  14
ENDBRANCH   1  13
BRANCH  12  32
HETATM   32  C21 UNL     1      -3.324   0.947  -0.117  1.00  0.00     0.096 C 
HETATM   33  C22 UNL     1      -4.118   2.161  -0.236  1.00  0.00     0.024 C 
BRANCH  32  34
HETATM   34  C23 UNL     1      -3.821   0.097  -1.284  1.00  0.00     0.082 C 
HETATM   35  N4  UNL     1      -2.954  -0.335  -2.109  1.00  0.00    -0.388 N 
ATOM     36  H42 UNL     1      -1.959  -0.147  -1.988  1.00  0.00     0.157 HD
ATOM     37  H41 UNL     1      -3.286  -0.903  -2.889  1.00  0.00     0.157 HD
BRANCH  34  38
HETATM   38  N5  UNL     1      -5.195  -0.162  -1.451  1.00  0.00    -0.367 N 
HETATM   39  C24 UNL     1      -5.861   0.333  -2.628  1.00  0.00     0.143 C 
HETATM   40  C25 UNL     1      -7.331   0.563  -2.463  1.00  0.00     0.136 C 
HETATM   41  N6  UNL     1      -7.999  -0.494  -1.806  1.00  0.00    -0.410 N 
HETATM   42  C28 UNL     1      -7.224  -1.443  -1.101  1.00  0.00     0.136 C 
HETATM   43  C29 UNL     1      -5.948  -0.911  -0.486  1.00  0.00     0.143 C 
BRANCH  41  44
HETATM   44  C26 UNL     1      -9.266  -0.183  -1.236  1.00  0.00     0.112 C 
HETATM   45  C27 UNL     1      -9.221   0.747  -0.065  1.00  0.00     0.026 C 
ENDBRANCH  41  44
ENDBRANCH  34  38
ENDBRANCH  32  34
ENDBRANCH  12  32
TORSDOF 15
