REMARK  16 active torsions:
REMARK  status: ('A' for Active; 'I' for Inactive)
REMARK    1  A    between atoms: O1_2  and  N1_3 
REMARK    2  A    between atoms: C2_5  and  C4_7 
REMARK       I    between atoms: C4_7  and  N2_9 
REMARK    3  A    between atoms: N2_9  and  C5_11 
REMARK    4  A    between atoms: C5_11  and  C6_12 
REMARK    5  A    between atoms: C5_11  and  C29_46 
REMARK    6  A    between atoms: C6_12  and  C7_14 
REMARK    7  A    between atoms: C7_14  and  C8_15 
REMARK       I    between atoms: C8_15  and  N3_17 
REMARK    8  A    between atoms: N3_17  and  C9_19 
REMARK    9  A    between atoms: C9_19  and  C10_20 
REMARK   10  A    between atoms: C9_19  and  C26_43 
REMARK   11  A    between atoms: C10_20  and  C11_22 
REMARK       I    between atoms: C11_22  and  N4_24 
REMARK   12  A    between atoms: C15_28  and  C16_29 
REMARK       I    between atoms: C16_29  and  N5_31 
REMARK   13  A    between atoms: N5_31  and  C17_33 
REMARK   14  A    between atoms: C17_33  and  C18_34 
REMARK   15  A    between atoms: C17_33  and  C23_40 
REMARK   16  A    between atoms: C18_34  and  C19_36 
ROOT
HETATM    1  C9  UNL     1       1.092   2.753  -0.447  1.00  0.00     0.167 C 
ENDROOT
BRANCH   1   2
HETATM    2  N3  UNL     1       1.790   1.597  -0.998  1.00  0.00    -0.348 N 
HETATM    3  C8  UNL     1       2.805   0.939  -0.255  1.00  0.00     0.225 C 
HETATM    4  O4  UNL     1       3.063   1.401   0.885  1.00  0.00    -0.273 OA
ATOM      5  H3  UNL     1       1.546   1.257  -1.928  1.00  0.00     0.163 HD
BRANCH   3   6
HETATM    6  C7  UNL     1       3.517  -0.243  -0.827  1.00  0.00     0.183 C 
BRANCH   6   7
HETATM    7  C6  UNL     1       4.598  -0.727   0.048  1.00  0.00     0.158 C 
HETATM    8  O3  UNL     1       4.695  -0.187   1.162  1.00  0.00    -0.295 OA
BRANCH   7   9
HETATM    9  C5  UNL     1       5.576  -1.782  -0.267  1.00  0.00     0.158 C 
BRANCH   9  10
HETATM   10  N2  UNL     1       6.495  -1.938   0.878  1.00  0.00    -0.344 N 
HETATM   11  C4  UNL     1       7.837  -1.575   0.762  1.00  0.00     0.266 C 
HETATM   12  O2  UNL     1       8.325  -1.099  -0.316  1.00  0.00    -0.266 OA
ATOM     13  H2  UNL     1       6.146  -2.314   1.760  1.00  0.00     0.163 HD
BRANCH  11  14
HETATM   14  C2  UNL     1       8.769  -1.717   1.865  1.00  0.00     0.095 C 
HETATM   15  N1  UNL     1      10.009  -1.397   1.819  1.00  0.00    -0.266 N 
ATOM     16  H1  UNL     1      10.560  -1.550   2.664  1.00  0.00     0.194 HD
HETATM   17  C3  UNL     1       8.271  -2.279   3.152  1.00  0.00     0.076 C 
BRANCH  15  18
HETATM   18  O1  UNL     1      10.657  -0.870   0.742  1.00  0.00    -0.285 OA
HETATM   19  C1  UNL     1      11.562   0.223   0.950  1.00  0.00     0.237 C 
ENDBRANCH  15  18
ENDBRANCH  11  14
ENDBRANCH   9  10
BRANCH   9  20
HETATM   20  C29 UNL     1       4.999  -3.121  -0.624  1.00  0.00     0.007 C 
HETATM   21  C30 UNL     1       4.197  -3.739   0.494  1.00  0.00     0.012 C 
HETATM   22  C31 UNL     1       4.188  -3.119  -1.878  1.00  0.00     0.012 C 
ENDBRANCH   9  20
ENDBRANCH   7   9
ENDBRANCH   6   7
ENDBRANCH   3   6
ENDBRANCH   1   2
BRANCH   1  23
HETATM   23  C10 UNL     1      -0.372   2.542  -0.442  1.00  0.00     0.239 C 
HETATM   24  O5  UNL     1      -0.801   1.500  -0.998  1.00  0.00    -0.285 OA
BRANCH  23  25
HETATM   25  C11 UNL     1      -1.323   3.452   0.154  1.00  0.00     0.292 C 
HETATM   26  O6  UNL     1      -0.798   4.445   0.781  1.00  0.00    -0.264 OA
HETATM   27  N4  UNL     1      -2.719   3.347   0.109  1.00  0.00    -0.332 N 
HETATM   28  C12 UNL     1      -3.596   4.328   0.793  1.00  0.00     0.127 C 
HETATM   29  C15 UNL     1      -3.565   2.404  -0.542  1.00  0.00     0.179 C 
HETATM   30  C13 UNL     1      -4.931   4.221   0.129  1.00  0.00     0.022 C 
HETATM   31  C14 UNL     1      -4.732   3.251  -0.991  1.00  0.00     0.037 C 
BRANCH  29  32
HETATM   32  C16 UNL     1      -4.075   1.316   0.309  1.00  0.00     0.241 C 
HETATM   33  O7  UNL     1      -3.699   1.199   1.513  1.00  0.00    -0.271 OA
HETATM   34  N5  UNL     1      -4.995   0.397  -0.240  1.00  0.00    -0.347 N 
ATOM     35  H5  UNL     1      -5.278   0.530  -1.211  1.00  0.00     0.163 HD
BRANCH  34  36
HETATM   36  C17 UNL     1      -5.569  -0.731   0.489  1.00  0.00     0.158 C 
BRANCH  36  37
HETATM   37  C18 UNL     1      -5.447  -1.931  -0.376  1.00  0.00     0.157 C 
HETATM   38  O8  UNL     1      -5.075  -1.753  -1.560  1.00  0.00    -0.295 OA
BRANCH  37  39
HETATM   39  C19 UNL     1      -5.711  -3.313   0.014  1.00  0.00     0.012 C 
HETATM   40  C20 UNL     1      -5.500  -4.224  -1.211  1.00  0.00     0.022 C 
HETATM   41  C21 UNL     1      -7.019  -3.620   0.644  1.00  0.00     0.022 C 
HETATM   42  C22 UNL     1      -4.611  -3.746   0.988  1.00  0.00     0.022 C 
ENDBRANCH  37  39
ENDBRANCH  36  37
BRANCH  36  43
HETATM   43  C23 UNL     1      -7.039  -0.384   0.739  1.00  0.00     0.007 C 
HETATM   44  C24 UNL     1      -7.791  -0.154  -0.545  1.00  0.00     0.012 C 
HETATM   45  C25 UNL     1      -7.108   0.923   1.539  1.00  0.00     0.012 C 
ENDBRANCH  36  43
ENDBRANCH  34  36
ENDBRANCH  29  32
ENDBRANCH  23  25
ENDBRANCH   1  23
BRANCH   1  46
HETATM   46  C26 UNL     1       1.424   3.991  -1.263  1.00  0.00     0.008 C 
HETATM   47  C27 UNL     1       2.940   4.239  -1.228  1.00  0.00     0.012 C 
HETATM   48  C28 UNL     1       0.880   3.972  -2.650  1.00  0.00     0.012 C 
ENDBRANCH   1  46
TORSDOF 16
