REMARK  6 active torsions:
REMARK  status: ('A' for Active; 'I' for Inactive)
REMARK    1  A    between atoms: C2_2  and  O1_5 
REMARK    2  A    between atoms: O1_5  and  C4_6 
REMARK    3  A    between atoms: C4_6  and  N2_10 
REMARK    4  A    between atoms: N3_12  and  C5_14 
REMARK    5  A    between atoms: C6_15  and  N4_16 
REMARK    6  A    between atoms: C10_22  and  N5_23 
ROOT
HETATM    1  N2  UNL     1      -0.124   0.332  -0.930  1.00  0.00    -0.265 N 
ATOM      2  H2  UNL     1      -0.673   0.068  -1.748  1.00  0.00     0.190 HD
HETATM    3  N3  UNL     1      -0.641   0.296   0.229  1.00  0.00    -0.293 N 
ATOM      4  H3  UNL     1      -0.068   0.565   1.029  1.00  0.00     0.187 HD
ENDROOT
BRANCH   3   5
HETATM    5  C5  UNL     1      -1.984  -0.104   0.457  1.00  0.00     0.114 A 
HETATM    6  C6  UNL     1      -2.280  -1.457   0.539  1.00  0.00     0.133 A 
HETATM    7  C7  UNL     1      -3.598  -1.809   0.761  1.00  0.00     0.038 A 
HETATM    8  C8  UNL     1      -4.600  -0.873   0.899  1.00  0.00     0.005 A 
HETATM    9  C9  UNL     1      -4.280   0.466   0.814  1.00  0.00     0.038 A 
HETATM   10  C10 UNL     1      -2.952   0.841   0.590  1.00  0.00     0.133 A 
BRANCH   6  11
HETATM   11  N4  UNL     1      -1.241  -2.406   0.395  1.00  0.00    -0.113 N 
HETATM   12  O2  UNL     1      -0.083  -2.165   0.762  1.00  0.00    -0.532 OA
HETATM   13  O3  UNL     1      -1.535  -3.618  -0.164  1.00  0.00    -0.532 OA
ENDBRANCH   6  11
BRANCH  10  14
HETATM   14  N5  UNL     1      -2.721   2.242   0.520  1.00  0.00    -0.113 N 
HETATM   15  O4  UNL     1      -1.833   2.704  -0.194  1.00  0.00    -0.532 OA
HETATM   16  O5  UNL     1      -3.501   3.121   1.263  1.00  0.00    -0.532 OA
ENDBRANCH  10  14
ENDBRANCH   3   5
BRANCH   1  17
HETATM   17  C4  UNL     1       1.228   0.744  -1.075  1.00  0.00     0.234 C 
HETATM   18  N1  UNL     1       1.658   0.965  -2.270  1.00  0.00    -0.364 N 
ATOM     19  H12 UNL     1       2.629   1.261  -2.374  1.00  0.00     0.159 HD
ATOM     20  H11 UNL     1       1.023   0.837  -3.058  1.00  0.00     0.159 HD
BRANCH  17  21
HETATM   21  O1  UNL     1       2.089   0.917  -0.007  1.00  0.00    -0.279 OA
BRANCH  21  22
HETATM   22  C2  UNL     1       3.482   0.661  -0.196  1.00  0.00     0.206 C 
HETATM   23  C1  UNL     1       4.247   0.905   1.077  1.00  0.00     0.084 C 
HETATM   24  C3  UNL     1       3.668  -0.785  -0.661  1.00  0.00     0.084 C 
HETATM   25  F1  UNL     1       3.914   1.540  -1.167  1.00  0.00    -0.212 F 
ENDBRANCH  21  22
ENDBRANCH  17  21
ENDBRANCH   1  17
TORSDOF 6
