REMARK  4 active torsions:
REMARK  status: ('A' for Active; 'I' for Inactive)
REMARK    1  A    between atoms: N1_1  and  N2_4 
REMARK    2  A    between atoms: C2_6  and  N3_7 
REMARK    3  A    between atoms: N4_9  and  C3_11 
REMARK    4  A    between atoms: N5_20  and  C10_21 
ROOT
HETATM    1  N2  UNL     1      -1.615  -1.405  -0.191  1.00  0.00    -0.202 N 
HETATM    2  C1  UNL     1      -0.275  -1.536  -0.303  1.00  0.00     0.173 A 
HETATM    3  C2  UNL     1       0.305  -0.297  -0.499  1.00  0.00     0.137 A 
HETATM    4  C9  UNL     1      -0.753   0.594  -0.500  1.00  0.00     0.298 A 
HETATM    5  O1  UNL     1      -0.609   1.833  -0.654  1.00  0.00    -0.264 OA
HETATM    6  N5  UNL     1      -1.873  -0.113  -0.314  1.00  0.00    -0.198 N 
ENDROOT
BRANCH   3   7
HETATM    7  N3  UNL     1       1.702   0.006  -0.666  1.00  0.00    -0.294 N 
HETATM    8  N4  UNL     1       2.476  -0.368   0.241  1.00  0.00    -0.300 N 
ATOM      9  H4  UNL     1       2.054  -0.859   1.029  1.00  0.00     0.187 HD
ATOM     10  H3  UNL     1       2.045   0.504  -1.488  1.00  0.00     0.187 HD
BRANCH   8  11
HETATM   11  C3  UNL     1       3.858  -0.183   0.288  1.00  0.00     0.048 A 
HETATM   12  C4  UNL     1       4.676  -1.098   0.914  1.00  0.00     0.034 A 
HETATM   13  C5  UNL     1       6.049  -0.927   0.968  1.00  0.00     0.044 A 
HETATM   14  C6  UNL     1       6.630   0.169   0.393  1.00  0.00     0.116 A 
HETATM   15  F1  UNL     1       7.975   0.338   0.445  1.00  0.00    -0.206 F 
HETATM   16  C7  UNL     1       5.815   1.087  -0.235  1.00  0.00     0.044 A 
HETATM   17  C8  UNL     1       4.434   0.923  -0.294  1.00  0.00     0.034 A 
ENDBRANCH   8  11
ENDBRANCH   3   7
BRANCH   1  18
HETATM   18  N1  UNL     1      -2.528  -2.451   0.014  1.00  0.00    -0.324 N 
ATOM     19  H12 UNL     1      -2.329  -3.447   0.109  1.00  0.00     0.178 HD
ATOM     20  H11 UNL     1      -3.540  -2.352   0.099  1.00  0.00     0.178 HD
ENDBRANCH   1  18
BRANCH   6  21
HETATM   21  C10 UNL     1      -3.198   0.432  -0.250  1.00  0.00     0.062 A 
HETATM   22  C11 UNL     1      -4.233  -0.151  -0.932  1.00  0.00     0.032 A 
HETATM   23  C12 UNL     1      -5.529   0.366  -0.882  1.00  0.00     0.002 A 
HETATM   24  C13 UNL     1      -5.765   1.478  -0.135  1.00  0.00     0.000 A 
HETATM   25  C14 UNL     1      -4.754   2.096   0.566  1.00  0.00     0.002 A 
HETATM   26  C15 UNL     1      -3.476   1.565   0.501  1.00  0.00     0.032 A 
ENDBRANCH   6  21
TORSDOF 4
