REMARK  5 active torsions:
REMARK  status: ('A' for Active; 'I' for Inactive)
REMARK    1  A    between atoms: N1_2  and  C1_4 
REMARK    2  A    between atoms: C4_7  and  C5_8 
REMARK    3  A    between atoms: C5_8  and  O4_13 
REMARK    4  A    between atoms: N2_9  and  O3_11 
REMARK    5  A    between atoms: O4_13  and  C6_14 
ROOT
HETATM    1  C5  UNL     1      -0.047  -1.062   0.065  1.00  0.00     0.178 C 
HETATM    2  N2  UNL     1      -0.531  -2.006  -0.621  1.00  0.00    -0.246 N 
ATOM      3  H2  UNL     1      -1.522  -2.204  -0.481  1.00  0.00     0.196 HD
ENDROOT
BRANCH   1   4
HETATM    4  C4  UNL     1       1.304  -0.552   0.087  1.00  0.00     0.017 A 
HETATM    5  C3  UNL     1       1.654   0.466   0.948  1.00  0.00     0.018 A 
HETATM    6  C2  UNL     1       2.916   1.006   1.024  1.00  0.00     0.037 A 
HETATM    7  C1  UNL     1       3.906   0.523   0.207  1.00  0.00     0.102 A 
HETATM    8  C13 UNL     1       3.594  -0.490  -0.663  1.00  0.00     0.037 A 
HETATM    9  C12 UNL     1       2.292  -1.024  -0.720  1.00  0.00     0.018 A 
BRANCH   7  10
HETATM   10  N1  UNL     1       5.210   1.053   0.259  1.00  0.00    -0.116 N 
HETATM   11  O1  UNL     1       6.093   0.600  -0.491  1.00  0.00    -0.532 OA
HETATM   12  O2  UNL     1       5.515   2.063   1.129  1.00  0.00    -0.532 OA
ENDBRANCH   7  10
ENDBRANCH   1   4
BRANCH   1  13
HETATM   13  O4  UNL     1      -1.035  -0.477   0.904  1.00  0.00    -0.291 OA
BRANCH  13  14
HETATM   14  C6  UNL     1      -2.241  -0.025   0.432  1.00  0.00     0.078 A 
HETATM   15  C7  UNL     1      -2.699  -0.031  -0.855  1.00  0.00     0.039 A 
HETATM   16  C8  UNL     1      -3.967   0.465  -1.201  1.00  0.00     0.026 A 
HETATM   17  C9  UNL     1      -4.807   0.983  -0.245  1.00  0.00     0.034 A 
HETATM   18 CL1  UNL     1      -6.379   1.594  -0.696  1.00  0.00    -0.084 Cl
HETATM   19  C10 UNL     1      -4.367   0.998   1.053  1.00  0.00     0.026 A 
HETATM   20  C11 UNL     1      -3.121   0.510   1.386  1.00  0.00     0.039 A 
ENDBRANCH  13  14
ENDBRANCH   1  13
BRANCH   2  21
HETATM   21  O3  UNL     1       0.102  -2.772  -1.505  1.00  0.00    -0.288 OA
ATOM     22  H3  UNL     1      -0.262  -3.482  -2.021  1.00  0.00     0.244 HD
ENDBRANCH   2  21
TORSDOF 5
