REMARK  3 active torsions:
REMARK  status: ('A' for Active; 'I' for Inactive)
REMARK       I    between atoms: C1_2  and  N1_3 
REMARK       I    between atoms: C1_2  and  N3_14 
REMARK    1  A    between atoms: N1_3  and  C2_5 
REMARK    2  A    between atoms: C5_8  and  N2_9 
REMARK    3  A    between atoms: C11_19  and  N4_20 
ROOT
HETATM    1  O1  UNL     1       0.885   0.848   1.152  1.00  0.00    -0.246 OA
HETATM    2  C1  UNL     1       1.173   0.123   0.180  1.00  0.00     0.335 C 
HETATM    3  N1  UNL     1       0.053  -0.375  -0.528  1.00  0.00    -0.308 N 
ATOM      4  H1  UNL     1       0.240  -0.980  -1.328  1.00  0.00     0.170 HD
HETATM    5  N3  UNL     1       2.509  -0.188  -0.201  1.00  0.00    -0.219 N 
HETATM    6  C8  UNL     1       2.854  -0.954  -1.237  1.00  0.00     0.200 A 
HETATM    7  F1  UNL     1       2.096  -1.611  -2.166  1.00  0.00    -0.185 F 
HETATM    8  C9  UNL     1       4.246  -1.063  -1.336  1.00  0.00     0.066 A 
HETATM    9  C10 UNL     1       4.709  -0.321  -0.303  1.00  0.00     0.060 A 
HETATM   10  C11 UNL     1       3.633   0.243   0.431  1.00  0.00     0.186 A 
ENDROOT
BRANCH   3  11
HETATM   11  C2  UNL     1      -1.305  -0.107  -0.224  1.00  0.00     0.036 A 
HETATM   12  C3  UNL     1      -2.271  -1.033  -0.645  1.00  0.00     0.032 A 
HETATM   13  C4  UNL     1      -3.616  -0.867  -0.429  1.00  0.00     0.038 A 
HETATM   14  C5  UNL     1      -4.066   0.258   0.232  1.00  0.00     0.103 A 
HETATM   15  C6  UNL     1      -3.146   1.181   0.655  1.00  0.00     0.038 A 
HETATM   16  C7  UNL     1      -1.789   0.984   0.420  1.00  0.00     0.032 A 
BRANCH  14  17
HETATM   17  N2  UNL     1      -5.466   0.424   0.454  1.00  0.00    -0.116 N 
HETATM   18  O2  UNL     1      -5.894   1.433   1.050  1.00  0.00    -0.532 OA
HETATM   19  O3  UNL     1      -6.367  -0.506   0.026  1.00  0.00    -0.532 OA
ENDBRANCH  14  17
ENDBRANCH   3  11
BRANCH  10  20
HETATM   20  N4  UNL     1       3.817   1.059   1.556  1.00  0.00    -0.097 N 
HETATM   21  O4  UNL     1       2.959   1.573   2.229  1.00  0.00    -0.531 OA
HETATM   22  O5  UNL     1       5.128   1.336   1.982  1.00  0.00    -0.531 OA
ENDBRANCH  10  20
TORSDOF 3
