REMARK  4 active torsions:
REMARK  status: ('A' for Active; 'I' for Inactive)
REMARK    1  A    between atoms: C2_2  and  C3_3 
REMARK    2  A    between atoms: N1_4  and  C4_6 
REMARK    3  A    between atoms: C9_16  and  N4_17 
REMARK    4  A    between atoms: N4_17  and  O1_19 
ROOT
HETATM    1  C4  UNL     1       0.305  -0.036   0.086  1.00  0.00     0.097 A 
HETATM    2  C5  UNL     1       0.925  -0.519  -1.045  1.00  0.00     0.111 A 
HETATM    3  S1  UNL     1      -0.082  -1.268  -2.316  1.00  0.00    -0.030 SA
HETATM    4  N2  UNL     1       2.254  -0.434  -1.197  1.00  0.00    -0.339 N 
ATOM      5  H2  UNL     1       2.672  -0.805  -2.050  1.00  0.00     0.167 HD
HETATM    6  C6  UNL     1       3.065   0.122  -0.270  1.00  0.00     0.134 A 
HETATM    7  C7  UNL     1       4.486   0.193  -0.473  1.00  0.00     0.119 C 
HETATM    8  N3  UNL     1       5.625   0.263  -0.650  1.00  0.00    -0.190 NA
HETATM    9  C8  UNL     1       2.463   0.618   0.884  1.00  0.00     0.079 A 
HETATM   10 BR1  UNL     1       3.541   1.419   2.241  1.00  0.00    -0.045 Br
HETATM   11  C9  UNL     1       1.084   0.542   1.067  1.00  0.00     0.104 A 
ENDROOT
BRANCH  11  12
HETATM   12  N4  UNL     1       0.439   1.040   2.234  1.00  0.00    -0.266 N 
ATOM     13  H4  UNL     1      -0.028   1.947   2.244  1.00  0.00     0.194 HD
BRANCH  12  14
HETATM   14  O1  UNL     1       0.476   0.306   3.246  1.00  0.00    -0.289 OA
ATOM     15  H1  UNL     1       0.046   0.638   4.025  1.00  0.00     0.244 HD
ENDBRANCH  12  14
ENDBRANCH  11  12
BRANCH   1  16
HETATM   16  N1  UNL     1      -1.078  -0.114   0.267  1.00  0.00    -0.362 N 
HETATM   17  C3  UNL     1      -1.965   0.335  -0.531  1.00  0.00     0.088 C 
ATOM     18  H1  UNL     1      -1.409  -0.573   1.116  1.00  0.00     0.165 HD
BRANCH  17  19
HETATM   19  C2  UNL     1      -3.373   0.176  -0.201  1.00  0.00     0.007 C 
HETATM   20  C1  UNL     1      -3.710  -0.432   0.924  1.00  0.00     0.012 C 
ENDBRANCH  17  19
ENDBRANCH   1  16
TORSDOF 4
