REMARK  9 active torsions:
REMARK  status: ('A' for Active; 'I' for Inactive)
REMARK    1  A    between atoms: C2_2  and  C3_3 
REMARK    2  A    between atoms: C3_3  and  C4_4 
REMARK    3  A    between atoms: C4_4  and  N1_5 
REMARK    4  A    between atoms: C7_9  and  C8_10 
REMARK    5  A    between atoms: C8_10  and  O3_12 
REMARK    6  A    between atoms: C10_14  and  C11_15 
REMARK    7  A    between atoms: C11_15  and  O5_17 
REMARK    8  A    between atoms: N3_22  and  C14_23 
REMARK    9  A    between atoms: C14_23  and  C15_24 
ROOT
HETATM    1  N1  UNL     1       1.721  -0.381  -0.195  1.00  0.00    -0.290 N 
HETATM    2  C5  UNL     1       0.530  -0.966  -0.417  1.00  0.00     0.265 A 
HETATM    3  O1  UNL     1       0.487  -2.136  -0.834  1.00  0.00    -0.267 OA
HETATM    4  C6  UNL     1      -0.670  -0.320  -0.200  1.00  0.00     0.095 A 
HETATM    5  C7  UNL     1      -2.008  -0.646  -0.331  1.00  0.00     0.091 A 
HETATM    6  C10 UNL     1      -2.794   0.422   0.042  1.00  0.00     0.127 A 
HETATM    7  N2  UNL     1      -1.945   1.399   0.399  1.00  0.00    -0.336 N 
ATOM      8  H2  UNL     1      -2.224   2.324   0.725  1.00  0.00     0.168 HD
HETATM    9  C13 UNL     1      -0.665   0.980   0.264  1.00  0.00     0.127 A 
HETATM   10  N3  UNL     1       0.543   1.551   0.481  1.00  0.00    -0.309 N 
HETATM   11  C17 UNL     1       1.696   0.886   0.256  1.00  0.00     0.184 A 
HETATM   12  S1  UNL     1       3.128   1.638   0.540  1.00  0.00    -0.040 SA
ENDROOT
BRANCH   1  13
HETATM   13  C4  UNL     1       2.988  -1.042  -0.417  1.00  0.00     0.135 C 
BRANCH  13  14
HETATM   14  C3  UNL     1       3.500  -0.831  -1.827  1.00  0.00     0.020 C 
BRANCH  14  15
HETATM   15  C2  UNL     1       4.823  -1.570  -1.926  1.00  0.00    -0.003 C 
HETATM   16  C1  UNL     1       5.788  -1.002  -0.910  1.00  0.00     0.005 C 
ENDBRANCH  14  15
ENDBRANCH  13  14
ENDBRANCH   1  13
BRANCH  10  17
HETATM   17  C14 UNL     1       0.571   2.905   0.964  1.00  0.00     0.133 C 
BRANCH  17  18
HETATM   18  C15 UNL     1       0.567   2.930   2.479  1.00  0.00     0.016 C 
HETATM   19  C16 UNL     1       0.597   4.402   2.908  1.00  0.00     0.006 C 
ENDBRANCH  17  18
ENDBRANCH  10  17
BRANCH   5  20
HETATM   20  C8  UNL     1      -2.469  -1.936  -0.795  1.00  0.00     0.296 C 
HETATM   21  O2  UNL     1      -2.644  -2.080  -2.042  1.00  0.00    -0.259 OA
BRANCH  20  22
HETATM   22  O3  UNL     1      -2.731  -3.014   0.007  1.00  0.00    -0.322 OA
HETATM   23  C9  UNL     1      -3.183  -4.257  -0.517  1.00  0.00     0.213 C 
ENDBRANCH  20  22
ENDBRANCH   5  20
BRANCH   6  24
HETATM   24  C11 UNL     1      -4.263   0.451   0.036  1.00  0.00     0.310 C 
HETATM   25  O4  UNL     1      -4.886   1.487   0.398  1.00  0.00    -0.258 OA
BRANCH  24  26
HETATM   26  O5  UNL     1      -5.001  -0.629  -0.357  1.00  0.00    -0.321 OA
HETATM   27  C12 UNL     1      -6.419  -0.581  -0.356  1.00  0.00     0.213 C 
ENDBRANCH  24  26
ENDBRANCH   6  24
TORSDOF 9
