REMARK  10 active torsions:
REMARK  status: ('A' for Active; 'I' for Inactive)
REMARK    1  A    between atoms: O1_2  and  C2_3 
REMARK    2  A    between atoms: C2_3  and  C3_5 
REMARK    3  A    between atoms: C7_11  and  S2_12 
REMARK    4  A    between atoms: S2_12  and  O5_15 
REMARK    5  A    between atoms: O5_15  and  C8_16 
REMARK    6  A    between atoms: C8_16  and  C9_17 
REMARK    7  A    between atoms: C10_18  and  C12_20 
REMARK    8  A    between atoms: C12_20  and  C13_21 
REMARK    9  A    between atoms: C13_21  and  C14_22 
REMARK   10  A    between atoms: C14_22  and  O6_24 
ROOT
HETATM    1  S2  UNL     1       1.554  -1.249   1.228  1.00  0.00     0.300 S 
HETATM    2  O3  UNL     1       1.499  -2.375   2.298  1.00  0.00    -0.193 OA
HETATM    3  O4  UNL     1       2.038  -1.930   0.017  1.00  0.00    -0.193 OA
ENDROOT
BRANCH   1   4
HETATM    4  C7  UNL     1       2.646   0.025   1.846  1.00  0.00     0.117 A 
HETATM    5  C3  UNL     1       3.413   0.850   1.106  1.00  0.00     0.095 A 
HETATM    6  C4  UNL     1       4.176   1.783   1.812  1.00  0.00     0.105 A 
HETATM    7  N1  UNL     1       5.080   2.780   1.296  1.00  0.00    -0.093 NA
HETATM    8  S1  UNL     1       3.797   1.474   3.430  1.00  0.00    -0.078 SA
HETATM    9  C5  UNL     1       2.709   0.207   3.233  1.00  0.00     0.005 A 
HETATM   10  C6  UNL     1       1.945  -0.581   4.276  1.00  0.00     0.058 C 
BRANCH   5  11
HETATM   11  C2  UNL     1       3.541   0.890  -0.380  1.00  0.00     0.297 C 
HETATM   12  O2  UNL     1       2.958   0.161  -1.177  1.00  0.00    -0.259 OA
BRANCH  11  13
HETATM   13  O1  UNL     1       4.395   1.831  -1.006  1.00  0.00    -0.322 OA
HETATM   14  C1  UNL     1       4.517   1.874  -2.416  1.00  0.00     0.213 C 
ENDBRANCH  11  13
ENDBRANCH   5  11
ENDBRANCH   1   4
BRANCH   1  15
HETATM   15  O5  UNL     1       0.014  -0.706   1.060  1.00  0.00    -0.268 OA
BRANCH  15  16
HETATM   16  C8  UNL     1      -0.399  -0.354  -0.217  1.00  0.00     0.218 C 
BRANCH  16  17
HETATM   17  C9  UNL     1      -1.787   0.073  -0.140  1.00  0.00     0.007 C 
HETATM   18  C10 UNL     1      -2.875  -0.434  -0.751  1.00  0.00    -0.064 C 
HETATM   19  C11 UNL     1      -2.659  -1.586  -1.626  1.00  0.00     0.048 C 
BRANCH  18  20
HETATM   20  C12 UNL     1      -4.138   0.209  -0.464  1.00  0.00     0.009 C 
BRANCH  20  21
HETATM   21  C13 UNL     1      -5.357   0.089  -0.799  1.00  0.00     0.032 C 
BRANCH  21  22
HETATM   22  C14 UNL     1      -6.211  -0.694  -1.613  1.00  0.00     0.039 C 
HETATM   23  C15 UNL     1      -5.899  -1.829  -2.510  1.00  0.00     0.076 C 
BRANCH  22  24
HETATM   24  O6  UNL     1      -7.495  -0.350  -1.559  1.00  0.00    -0.365 OA
ATOM     25  H6  UNL     1      -8.068  -0.875  -2.105  1.00  0.00     0.217 HD
ENDBRANCH  22  24
ENDBRANCH  21  22
ENDBRANCH  20  21
ENDBRANCH  18  20
ENDBRANCH  16  17
ENDBRANCH  15  16
ENDBRANCH   1  15
TORSDOF 10
