REMARK  7 active torsions:
REMARK  status: ('A' for Active; 'I' for Inactive)
REMARK    1  A    between atoms: C2_2  and  C3_3 
REMARK    2  A    between atoms: N3_9  and  N4_11 
REMARK    3  A    between atoms: C5_13  and  C6_14 
REMARK    4  A    between atoms: C7_15  and  C8_16 
REMARK    5  A    between atoms: C12_21  and  O1_22 
REMARK    6  A    between atoms: C14_24  and  O2_25 
REMARK    7  A    between atoms: C16_27  and  O3_28 
ROOT
HETATM    1  C8  UNL     1      -0.921   1.969   1.831  1.00  0.00     0.122 C 
HETATM    2  C9  UNL     1      -1.645   3.298   1.992  1.00  0.00     0.031 C 
HETATM    3  C10 UNL     1      -1.099   1.299   3.136  1.00  0.00     0.068 C 
HETATM    4  N5  UNL     1      -1.260   0.773   4.178  1.00  0.00    -0.197 NA
ENDROOT
BRANCH   1   5
HETATM    5  C7  UNL     1      -1.535   1.139   0.785  1.00  0.00    -0.024 A 
HETATM    6  C6  UNL     1      -0.917   0.006   0.312  1.00  0.00     0.025 A 
HETATM    7  C16 UNL     1      -1.591  -0.745  -0.676  1.00  0.00     0.116 A 
HETATM    8  C14 UNL     1      -2.819  -0.356  -1.146  1.00  0.00     0.136 A 
HETATM    9  C12 UNL     1      -3.422   0.784  -0.659  1.00  0.00     0.104 A 
HETATM   10  C11 UNL     1      -2.790   1.515   0.288  1.00  0.00     0.049 A 
BRANCH   6  11
HETATM   11  C5  UNL     1       0.377  -0.484   0.715  1.00  0.00     0.122 C 
HETATM   12  N4  UNL     1       1.201  -0.004   1.551  1.00  0.00    -0.309 N 
ATOM     13  H4  UNL     1       0.946   0.859   2.032  1.00  0.00     0.186 HD
BRANCH  12  14
HETATM   14  N3  UNL     1       2.425  -0.577   1.852  1.00  0.00    -0.279 N 
HETATM   15  C4  UNL     1       3.387  -0.646   0.960  1.00  0.00     0.179 A 
HETATM   16  N2  UNL     1       3.380  -0.215  -0.306  1.00  0.00    -0.278 N 
HETATM   17  S1  UNL     1       4.958  -1.299   1.096  1.00  0.00    -0.037 SA
HETATM   18  N1  UNL     1       4.425  -0.381  -1.010  1.00  0.00    -0.296 N 
ATOM     19  H2  UNL     1       2.554   0.237  -0.698  1.00  0.00     0.189 HD
HETATM   20  C3  UNL     1       5.492  -0.968  -0.493  1.00  0.00     0.069 A 
ATOM     21  H1  UNL     1       4.441  -0.060  -1.978  1.00  0.00     0.187 HD
ATOM     22  H3  UNL     1       2.583  -0.954   2.787  1.00  0.00     0.189 HD
BRANCH  20  23
HETATM   23  C2  UNL     1       6.821  -1.259  -1.147  1.00  0.00     0.062 C 
HETATM   24  C1  UNL     1       7.694  -0.052  -0.886  1.00  0.00     0.012 C 
ENDBRANCH  20  23
ENDBRANCH  12  14
ENDBRANCH   6  11
BRANCH   7  25
HETATM   25  O3  UNL     1      -1.062  -1.900  -1.220  1.00  0.00    -0.352 OA
HETATM   26  C17 UNL     1      -1.238  -3.199  -0.749  1.00  0.00     0.210 C 
ENDBRANCH   7  25
BRANCH   8  27
HETATM   27  O2  UNL     1      -3.481  -1.102  -2.123  1.00  0.00    -0.351 OA
HETATM   28  C15 UNL     1      -4.379  -2.145  -1.786  1.00  0.00     0.210 C 
ENDBRANCH   8  27
BRANCH   9  29
HETATM   29  O1  UNL     1      -4.656   1.165  -1.140  1.00  0.00    -0.353 OA
HETATM   30  C13 UNL     1      -5.323   2.313  -0.687  1.00  0.00     0.210 C 
ENDBRANCH   9  29
ENDBRANCH   1   5
TORSDOF 7
