REMARK  14 active torsions:
REMARK  status: ('A' for Active; 'I' for Inactive)
REMARK    1  A    between atoms: C2_2  and  C4_4 
REMARK    2  A    between atoms: C4_4  and  O1_5 
REMARK    3  A    between atoms: C4_4  and  C5_7 
REMARK    4  A    between atoms: C6_8  and  O2_9 
REMARK    5  A    between atoms: O2_9  and  C7_10 
REMARK    6  A    between atoms: C7_10  and  C8_11 
REMARK    7  A    between atoms: C8_11  and  O3_14 
REMARK    8  A    between atoms: C12_17  and  O4_18 
REMARK    9  A    between atoms: O4_18  and  C13_19 
REMARK   10  A    between atoms: C20_26  and  O5_27 
REMARK   11  A    between atoms: C21_29  and  O6_30 
REMARK   12  A    between atoms: C21_29  and  C22_32 
REMARK   13  A    between atoms: C22_32  and  O7_33 
REMARK   14  A    between atoms: C22_32  and  C23_35 
ROOT
HETATM    1  C23 UNL     1      -2.556  -1.255  -2.680  1.00  0.00     0.058 A 
HETATM    2  C24 UNL     1      -3.884  -0.896  -2.679  1.00  0.00     0.115 A 
HETATM    3  N1  UNL     1      -4.873  -1.715  -3.060  1.00  0.00    -0.370 N 
ATOM      4  H1  UNL     1      -5.842  -1.396  -3.039  1.00  0.00     0.164 HD
HETATM    5  C25 UNL     1      -4.583  -2.945  -3.465  1.00  0.00     0.128 A 
HETATM    6  C26 UNL     1      -3.275  -3.356  -3.486  1.00  0.00     0.129 A 
HETATM    7  C27 UNL     1      -2.944  -4.677  -3.919  1.00  0.00     0.119 C 
HETATM    8  N2  UNL     1      -2.686  -5.755  -4.282  1.00  0.00    -0.190 NA
HETATM    9  N3  UNL     1      -2.322  -2.515  -3.101  1.00  0.00    -0.347 N 
ATOM     10  H3  UNL     1      -1.356  -2.841  -3.125  1.00  0.00     0.166 HD
ENDROOT
BRANCH   1  11
HETATM   11  C22 UNL     1      -1.538  -0.310  -2.261  1.00  0.00     0.206 C 
BRANCH  11  12
HETATM   12  C21 UNL     1      -0.621  -0.599  -1.137  1.00  0.00     0.126 C 
HETATM   13  C5  UNL     1      -0.951  -0.503   0.255  1.00  0.00     0.084 C 
HETATM   14  C6  UNL     1      -1.266   1.001   0.514  1.00  0.00     0.133 C 
HETATM   15  C11 UNL     1       0.126   1.598   0.777  1.00  0.00     0.067 C 
HETATM   16  C12 UNL     1       1.146   1.016  -0.174  1.00  0.00     0.156 C 
HETATM   17  C20 UNL     1       0.561   0.379  -1.378  1.00  0.00     0.185 C 
BRANCH  13  18
HETATM   18  C4  UNL     1      -1.852  -1.376   1.027  1.00  0.00     0.131 C 
BRANCH  18  19
HETATM   19  C2  UNL     1      -1.624  -2.865   0.911  1.00  0.00     0.007 C 
HETATM   20  C1  UNL     1      -0.240  -3.326   1.200  1.00  0.00     0.012 C 
HETATM   21  C3  UNL     1      -2.628  -3.662   1.707  1.00  0.00     0.012 C 
ENDBRANCH  18  19
BRANCH  18  22
HETATM   22  O1  UNL     1      -3.204  -1.237   0.761  1.00  0.00    -0.395 OA
ATOM     23  H1  UNL     1      -3.347  -0.301   0.834  1.00  0.00     0.210 HD
ENDBRANCH  18  22
ENDBRANCH  13  18
BRANCH  14  24
HETATM   24  O2  UNL     1      -2.111   1.180   1.530  1.00  0.00    -0.382 OA
BRANCH  24  25
HETATM   25  C7  UNL     1      -3.234   1.921   1.490  1.00  0.00     0.205 C 
BRANCH  25  26
HETATM   26  C8  UNL     1      -3.154   3.391   1.268  1.00  0.00     0.072 C 
HETATM   27  C9  UNL     1      -2.316   4.112   2.269  1.00  0.00     0.047 C 
HETATM   28  C10 UNL     1      -2.786   3.763  -0.151  1.00  0.00     0.047 C 
BRANCH  26  29
HETATM   29  O3  UNL     1      -4.513   3.859   1.387  1.00  0.00    -0.388 OA
ATOM     30  H3  UNL     1      -4.462   4.797   1.245  1.00  0.00     0.210 HD
ENDBRANCH  26  29
ENDBRANCH  25  26
ENDBRANCH  24  25
ENDBRANCH  14  24
BRANCH  16  31
HETATM   31  O4  UNL     1       2.168   0.313   0.445  1.00  0.00    -0.378 OA
BRANCH  31  32
HETATM   32  C13 UNL     1       3.397   0.860   0.427  1.00  0.00     0.122 C 
HETATM   33  C14 UNL     1       3.958   1.207   1.791  1.00  0.00     0.033 C 
HETATM   34  C15 UNL     1       5.145   0.303   2.016  1.00  0.00     0.011 C 
HETATM   35  C16 UNL     1       5.670   0.122   0.612  1.00  0.00    -0.045 C 
HETATM   36  C17 UNL     1       6.484   1.381   0.294  1.00  0.00     0.015 C 
HETATM   37  C18 UNL     1       6.567  -1.065   0.477  1.00  0.00     0.015 C 
HETATM   38  C19 UNL     1       4.456   0.064  -0.290  1.00  0.00     0.040 C 
ENDBRANCH  31  32
ENDBRANCH  16  31
BRANCH  17  39
HETATM   39  O5  UNL     1       0.167   1.441  -2.229  1.00  0.00    -0.390 OA
ATOM     40  H5  UNL     1      -0.208   1.033  -3.001  1.00  0.00     0.210 HD
ENDBRANCH  17  39
BRANCH  12  41
HETATM   41  O6  UNL     1      -0.094  -1.885  -1.417  1.00  0.00    -0.383 OA
ATOM     42  H6  UNL     1       0.125  -1.949  -2.339  1.00  0.00     0.210 HD
ENDBRANCH  12  41
ENDBRANCH  11  12
BRANCH  11  43
HETATM   43  O7  UNL     1      -0.657  -0.360  -3.419  1.00  0.00    -0.386 OA
ATOM     44  H7  UNL     1      -1.246  -0.174  -4.141  1.00  0.00     0.210 HD
ENDBRANCH  11  43
ENDBRANCH   1  11
TORSDOF 14
