REMARK  14 active torsions:
REMARK  status: ('A' for Active; 'I' for Inactive)
REMARK    1  A    between atoms: C2_2  and  C4_4 
REMARK    2  A    between atoms: C4_4  and  O1_5 
REMARK    3  A    between atoms: O1_5  and  C5_6 
REMARK    4  A    between atoms: C6_7  and  O2_8 
REMARK    5  A    between atoms: O2_8  and  C7_9 
REMARK    6  A    between atoms: C9_13  and  O5_15 
REMARK    7  A    between atoms: C14_21  and  C15_22 
REMARK    8  A    between atoms: C15_22  and  C16_23 
REMARK    9  A    between atoms: C16_23  and  C18_25 
REMARK   10  A    between atoms: C18_25  and  C19_26 
REMARK   11  A    between atoms: C22_29  and  O7_30 
REMARK   12  A    between atoms: C24_34  and  O9_35 
REMARK   13  A    between atoms: C25_37  and  O10_38 
REMARK   14  A    between atoms: C26_40  and  O11_41 
ROOT
HETATM    1  C7  UNL     1      -1.007  -0.958   1.111  1.00  0.00     0.276 C 
HETATM    2  O3  UNL     1      -0.289  -2.100   1.486  1.00  0.00    -0.328 OA
HETATM    3  C8  UNL     1       0.679  -2.184   0.562  1.00  0.00     0.302 C 
HETATM    4  O4  UNL     1       1.816  -2.870   0.716  1.00  0.00    -0.323 OA
HETATM    5  C9  UNL     1       2.436  -2.880  -0.546  1.00  0.00     0.161 C 
HETATM    6  C10 UNL     1       2.204  -4.356  -0.977  1.00  0.00     0.078 C 
HETATM    7  C11 UNL     1       1.888  -2.051  -1.619  1.00  0.00     0.071 C 
HETATM    8  C12 UNL     1       1.123  -0.773  -1.239  1.00  0.00     0.050 C 
HETATM    9  C13 UNL     1       1.095  -0.780   0.229  1.00  0.00     0.128 C 
HETATM   10  O6  UNL     1       2.367  -0.381   0.636  1.00  0.00    -0.335 OA
HETATM   11  C14 UNL     1       2.467   0.944   1.021  1.00  0.00     0.069 C 
HETATM   12  C21 UNL     1       1.477   1.799   1.036  1.00  0.00     0.042 C 
HETATM   13  C22 UNL     1       0.072   1.352   0.608  1.00  0.00     0.155 C 
HETATM   14  C23 UNL     1       0.115  -0.026   1.018  1.00  0.00     0.114 C 
ENDROOT
BRANCH   1  15
HETATM   15  O2  UNL     1      -1.767  -1.068  -0.018  1.00  0.00    -0.328 OA
BRANCH  15  16
HETATM   16  C6  UNL     1      -3.100  -0.718   0.205  1.00  0.00     0.297 C 
HETATM   17  C5  UNL     1      -3.579   0.399  -0.647  1.00  0.00     0.208 C 
HETATM   18  C26 UNL     1      -3.850  -0.064  -2.088  1.00  0.00     0.185 C 
HETATM   19  C25 UNL     1      -4.957  -1.078  -1.959  1.00  0.00     0.204 C 
HETATM   20  C24 UNL     1      -4.457  -2.184  -1.052  1.00  0.00     0.291 C 
HETATM   21  O8  UNL     1      -3.874  -1.824   0.097  1.00  0.00    -0.326 OA
BRANCH  17  22
HETATM   22  O1  UNL     1      -4.813   0.813  -0.094  1.00  0.00    -0.374 OA
BRANCH  22  23
HETATM   23  C4  UNL     1      -4.756   2.174   0.238  1.00  0.00     0.201 C 
BRANCH  23  24
HETATM   24  C2  UNL     1      -6.057   2.583   0.801  1.00  0.00    -0.070 C 
HETATM   25  C1  UNL     1      -6.290   3.051   1.952  1.00  0.00     0.016 C 
HETATM   26  C3  UNL     1      -7.239   2.424  -0.144  1.00  0.00     0.044 C 
ENDBRANCH  23  24
ENDBRANCH  22  23
ENDBRANCH  17  22
BRANCH  18  27
HETATM   27  O11 UNL     1      -2.672  -0.659  -2.542  1.00  0.00    -0.390 OA
ATOM     28  H11 UNL     1      -2.839  -0.945  -3.432  1.00  0.00     0.210 HD
ENDBRANCH  18  27
BRANCH  19  29
HETATM   29  O10 UNL     1      -5.226  -1.542  -3.240  1.00  0.00    -0.388 OA
ATOM     30  H10 UNL     1      -5.539  -0.849  -3.809  1.00  0.00     0.210 HD
ENDBRANCH  19  29
BRANCH  20  31
HETATM   31  O9  UNL     1      -3.537  -2.931  -1.825  1.00  0.00    -0.368 OA
ATOM     32  H9  UNL     1      -3.951  -3.187  -2.641  1.00  0.00     0.212 HD
ENDBRANCH  20  31
ENDBRANCH  15  16
ENDBRANCH   1  15
BRANCH  13  33
HETATM   33  O7  UNL     1      -0.864   2.158   1.271  1.00  0.00    -0.391 OA
ATOM     34  H7  UNL     1      -1.733   1.881   1.006  1.00  0.00     0.210 HD
ENDBRANCH  13  33
BRANCH   5  35
HETATM   35  O5  UNL     1       3.838  -2.823  -0.397  1.00  0.00    -0.365 OA
ATOM     36  H5  UNL     1       4.257  -2.830  -1.250  1.00  0.00     0.213 HD
ENDBRANCH   5  35
BRANCH  11  37
HETATM   37  C15 UNL     1       3.844   1.452   1.479  1.00  0.00     0.042 C 
BRANCH  37  38
HETATM   38  C16 UNL     1       4.804   0.657   1.436  1.00  0.00    -0.065 C 
HETATM   39  C17 UNL     1       5.878  -0.235   1.386  1.00  0.00     0.019 C 
BRANCH  38  40
HETATM   40  C18 UNL     1       5.905   2.001   1.993  1.00  0.00     0.037 C 
BRANCH  40  41
HETATM   41  C19 UNL     1       6.713   2.285   0.863  1.00  0.00     0.000 C 
HETATM   42  C20 UNL     1       7.672   1.428   0.170  1.00  0.00     0.005 C 
ENDBRANCH  40  41
ENDBRANCH  38  40
ENDBRANCH  37  38
ENDBRANCH  11  37
TORSDOF 14
