REMARK  14 active torsions:
REMARK  status: ('A' for Active; 'I' for Inactive)
REMARK    1  A    between atoms: C2_2  and  C3_3 
REMARK    2  A    between atoms: C3_3  and  C4_4 
REMARK    3  A    between atoms: C4_4  and  C5_5 
REMARK    4  A    between atoms: C12_15  and  O1_16 
REMARK    5  A    between atoms: O1_16  and  C13_17 
REMARK    6  A    between atoms: C16_21  and  O3_22 
REMARK    7  A    between atoms: C17_24  and  O4_25 
REMARK    8  A    between atoms: C18_27  and  O5_28 
REMARK    9  A    between atoms: C19_31  and  C20_32 
REMARK   10  A    between atoms: C22_34  and  C23_35 
REMARK   11  A    between atoms: C23_35  and  O7_36 
REMARK   12  A    between atoms: C23_35  and  O8_38 
REMARK   13  A    between atoms: O8_38  and  C24_39 
REMARK   14  A    between atoms: C24_39  and  C25_41 
ROOT
HETATM    1  C5  UNL     1       2.429   2.467   0.583  1.00  0.00     0.187 C 
HETATM    2  C6  UNL     1       2.424   1.589   1.791  1.00  0.00     0.035 C 
HETATM    3  C7  UNL     1       1.601   0.374   1.333  1.00  0.00     0.044 C 
HETATM    4  C8  UNL     1       0.730   0.904   0.201  1.00  0.00     0.159 C 
HETATM    5  N1  UNL     1       1.716   1.793  -0.455  1.00  0.00    -0.059 N 
ATOM      6  H11 UNL     1       2.328   1.301  -1.106  1.00  0.00     0.278 HD
ATOM      7  H12 UNL     1       1.293   2.431  -1.129  1.00  0.00     0.278 HD
HETATM    8  C9  UNL     1      -0.335   1.821   0.713  1.00  0.00     0.025 C 
HETATM    9  C10 UNL     1      -0.973   1.363   1.997  1.00  0.00     0.012 C 
HETATM   10  C11 UNL     1      -1.373   1.996  -0.338  1.00  0.00     0.067 C 
HETATM   11  C12 UNL     1      -1.867   0.703  -0.911  1.00  0.00     0.264 C 
HETATM   12  O6  UNL     1      -0.993  -0.282  -1.050  1.00  0.00    -0.349 OA
HETATM   13  C19 UNL     1       0.328  -0.153  -0.744  1.00  0.00     0.189 C 
ENDROOT
BRANCH  11  14
HETATM   14  O1  UNL     1      -2.911   0.272  -0.078  1.00  0.00    -0.329 OA
BRANCH  14  15
HETATM   15  C13 UNL     1      -4.147   0.300  -0.726  1.00  0.00     0.294 C 
HETATM   16  O2  UNL     1      -4.984   1.054   0.058  1.00  0.00    -0.351 OA
HETATM   17  C14 UNL     1      -6.303   1.073  -0.308  1.00  0.00     0.152 C 
HETATM   18  C15 UNL     1      -7.119   0.650   0.898  1.00  0.00     0.042 C 
HETATM   19  C16 UNL     1      -6.644   0.233  -1.500  1.00  0.00     0.178 C 
HETATM   20  C17 UNL     1      -5.992  -1.123  -1.467  1.00  0.00     0.183 C 
HETATM   21  C18 UNL     1      -4.656  -1.136  -0.794  1.00  0.00     0.204 C 
BRANCH  19  22
HETATM   22  O3  UNL     1      -8.024   0.066  -1.520  1.00  0.00    -0.390 OA
ATOM     23  H3  UNL     1      -8.240  -0.467  -2.276  1.00  0.00     0.210 HD
ENDBRANCH  19  22
BRANCH  20  24
HETATM   24  O4  UNL     1      -6.838  -2.054  -0.829  1.00  0.00    -0.390 OA
ATOM     25  H4  UNL     1      -6.426  -2.910  -0.808  1.00  0.00     0.210 HD
ENDBRANCH  20  24
BRANCH  21  26
HETATM   26  O5  UNL     1      -4.763  -1.684   0.466  1.00  0.00    -0.388 OA
ATOM     27  H5  UNL     1      -5.080  -2.579   0.424  1.00  0.00     0.210 HD
ENDBRANCH  21  26
ENDBRANCH  14  15
ENDBRANCH  11  14
BRANCH  13  28
HETATM   28  C20 UNL     1       0.830  -1.527  -0.424  1.00  0.00    -0.052 C 
HETATM   29  C21 UNL     1       0.399  -2.204   0.826  1.00  0.00     0.046 C 
HETATM   30  C22 UNL     1       1.660  -2.189  -1.215  1.00  0.00     0.038 C 
BRANCH  30  31
HETATM   31  C23 UNL     1       2.135  -3.548  -0.865  1.00  0.00     0.291 C 
BRANCH  31  32
HETATM   32  O7  UNL     1       1.308  -4.538  -1.400  1.00  0.00    -0.367 OA
ATOM     33  H7  UNL     1       1.613  -5.409  -1.176  1.00  0.00     0.213 HD
ENDBRANCH  31  32
BRANCH  31  34
HETATM   34  O8  UNL     1       3.444  -3.799  -1.300  1.00  0.00    -0.280 OA
BRANCH  34  35
HETATM   35  C24 UNL     1       4.430  -4.144  -0.370  1.00  0.00     0.331 C 
HETATM   36  O9  UNL     1       4.141  -4.228   0.850  1.00  0.00    -0.256 OA
BRANCH  35  37
HETATM   37  C25 UNL     1       5.793  -4.408  -0.797  1.00  0.00     0.220 C 
HETATM   38  C26 UNL     1       6.823  -4.774   0.206  1.00  0.00     0.103 C 
HETATM   39  O10 UNL     1       6.075  -4.319  -2.036  1.00  0.00    -0.287 OA
ENDBRANCH  35  37
ENDBRANCH  34  35
ENDBRANCH  31  34
ENDBRANCH  30  31
ENDBRANCH  13  28
BRANCH   1  40
HETATM   40  C4  UNL     1       3.838   2.738   0.073  1.00  0.00     0.036 C 
BRANCH  40  41
HETATM   41  C3  UNL     1       4.696   3.426   1.113  1.00  0.00     0.028 C 
BRANCH  41  42
HETATM   42  C2  UNL     1       6.034   3.650   0.544  1.00  0.00    -0.037 C 
HETATM   43  C1  UNL     1       6.512   4.879   0.436  1.00  0.00     0.007 C 
ENDBRANCH  41  42
ENDBRANCH  40  41
ENDBRANCH   1  40
TORSDOF 14
