REMARK  14 active torsions:
REMARK  status: ('A' for Active; 'I' for Inactive)
REMARK    1  A    between atoms: C2_2  and  C3_3 
REMARK    2  A    between atoms: C3_3  and  C5_5 
REMARK    3  A    between atoms: C5_5  and  O2_7 
REMARK    4  A    between atoms: O2_7  and  C6_8 
REMARK    5  A    between atoms: C7_9  and  C8_10 
REMARK    6  A    between atoms: C8_10  and  O3_11 
REMARK    7  A    between atoms: C8_10  and  C9_13 
REMARK    8  A    between atoms: C9_13  and  O4_14 
REMARK    9  A    between atoms: C11_18  and  O6_19 
REMARK   10  A    between atoms: O6_19  and  C12_20 
REMARK   11  A    between atoms: C14_23  and  C15_24 
REMARK   12  A    between atoms: C18_29  and  O10_30 
REMARK   13  A    between atoms: C20_33  and  C21_34 
REMARK   14  A    between atoms: C24_38  and  O12_40 
ROOT
HETATM    1  C6  UNL     1       2.017   1.037   0.221  1.00  0.00     0.204 C 
HETATM    2  C7  UNL     1       1.774   2.503   0.331  1.00  0.00     0.005 C 
HETATM    3  C10 UNL     1       0.552   2.971   0.082  1.00  0.00     0.146 C 
HETATM    4  O5  UNL     1      -0.538   2.182  -0.281  1.00  0.00    -0.329 OA
HETATM    5  C11 UNL     1      -0.341   0.762  -0.105  1.00  0.00     0.305 C 
HETATM    6  C24 UNL     1       0.996   0.549  -0.806  1.00  0.00     0.135 C 
HETATM    7  C25 UNL     1       1.235  -0.792  -1.346  1.00  0.00     0.054 C 
ENDROOT
BRANCH   5   8
HETATM    8  O6  UNL     1      -1.334  -0.013  -0.552  1.00  0.00    -0.318 OA
BRANCH   8   9
HETATM    9  C12 UNL     1      -2.036  -0.822   0.337  1.00  0.00     0.192 C 
HETATM   10  C13 UNL     1      -1.081  -1.745   1.026  1.00  0.00     0.085 C 
HETATM   11  O7  UNL     1      -2.602  -0.011   1.282  1.00  0.00    -0.305 OA
HETATM   12  C14 UNL     1      -3.675   0.730   0.929  1.00  0.00     0.261 C 
HETATM   13  C16 UNL     1      -5.017   0.111   1.207  1.00  0.00     0.086 C 
HETATM   14  O11 UNL     1      -3.689   1.135  -0.426  1.00  0.00    -0.306 OA
HETATM   15  C17 UNL     1      -5.810   0.322  -0.092  1.00  0.00     0.079 C 
HETATM   16  C18 UNL     1      -4.610   0.352  -1.059  1.00  0.00     0.185 C 
HETATM   17  C19 UNL     1      -4.110  -1.046  -1.101  1.00  0.00     0.049 C 
HETATM   18  C20 UNL     1      -3.031  -1.530  -0.513  1.00  0.00    -0.014 C 
BRANCH  12  19
HETATM   19  C15 UNL     1      -3.644   2.003   1.694  1.00  0.00     0.239 C 
HETATM   20  O8  UNL     1      -2.710   2.208   2.496  1.00  0.00    -0.644 OA
HETATM   21  O9  UNL     1      -4.618   2.978   1.551  1.00  0.00    -0.644 OA
ENDBRANCH  12  19
BRANCH  16  22
HETATM   22  O10 UNL     1      -5.013   0.852  -2.268  1.00  0.00    -0.362 OA
ATOM     23  H10 UNL     1      -4.273   0.870  -2.864  1.00  0.00     0.213 HD
ENDBRANCH  16  22
BRANCH  18  24
HETATM   24  C21 UNL     1      -2.782  -2.962  -0.774  1.00  0.00     0.012 C 
HETATM   25  C22 UNL     1      -3.105  -3.703   0.518  1.00  0.00     0.014 C 
HETATM   26  C23 UNL     1      -3.805  -3.514  -1.791  1.00  0.00     0.014 C 
ENDBRANCH  18  24
ENDBRANCH   8   9
ENDBRANCH   5   8
BRANCH   6  27
HETATM   27  O12 UNL     1       1.113   1.454  -1.889  1.00  0.00    -0.382 OA
ATOM     28  H12 UNL     1       0.478   1.151  -2.527  1.00  0.00     0.210 HD
ENDBRANCH   6  27
BRANCH   1  29
HETATM   29  O2  UNL     1       3.310   0.635  -0.008  1.00  0.00    -0.308 OA
BRANCH  29  30
HETATM   30  C5  UNL     1       3.959  -0.188   0.894  1.00  0.00     0.263 C 
HETATM   31  O1  UNL     1       3.317  -0.544   1.916  1.00  0.00    -0.265 OA
BRANCH  30  32
HETATM   32  C3  UNL     1       5.340  -0.672   0.740  1.00  0.00     0.081 C 
HETATM   33  C4  UNL     1       6.318   0.477   0.839  1.00  0.00     0.020 C 
BRANCH  32  34
HETATM   34  C2  UNL     1       5.554  -1.465  -0.540  1.00  0.00     0.010 C 
HETATM   35  C1  UNL     1       4.592  -2.612  -0.647  1.00  0.00     0.006 C 
ENDBRANCH  32  34
ENDBRANCH  30  32
ENDBRANCH  29  30
ENDBRANCH   1  29
BRANCH   2  36
HETATM   36  C8  UNL     1       2.806   3.497   0.683  1.00  0.00     0.175 C 
BRANCH  36  37
HETATM   37  O3  UNL     1       2.244   4.758   0.839  1.00  0.00    -0.389 OA
ATOM     38  H3  UNL     1       2.908   5.398   1.066  1.00  0.00     0.210 HD
ENDBRANCH  36  37
BRANCH  36  39
HETATM   39  C9  UNL     1       3.925   3.625  -0.307  1.00  0.00     0.200 C 
BRANCH  39  40
HETATM   40  O4  UNL     1       3.494   4.085  -1.548  1.00  0.00    -0.398 OA
ATOM     41  H4  UNL     1       4.203   4.166  -2.175  1.00  0.00     0.209 HD
ENDBRANCH  39  40
ENDBRANCH  36  39
ENDBRANCH   2  36
TORSDOF 14
