REMARK  15 active torsions:
REMARK  status: ('A' for Active; 'I' for Inactive)
REMARK    1  A    between atoms: O1_2  and  C2_3 
REMARK    2  A    between atoms: C6_7  and  O2_8 
REMARK    3  A    between atoms: C8_10  and  O3_11 
REMARK    4  A    between atoms: C10_13  and  N1_14 
REMARK    5  A    between atoms: N1_14  and  O4_15 
REMARK    6  A    between atoms: N1_14  and  C11_17 
REMARK    7  A    between atoms: C11_17  and  C13_19 
REMARK    8  A    between atoms: C13_19  and  O5_20 
REMARK    9  A    between atoms: C13_19  and  C14_22 
REMARK   10  A    between atoms: C14_22  and  C15_23 
REMARK   11  A    between atoms: C19_27  and  O6_28 
REMARK   12  A    between atoms: O6_28  and  C20_29 
REMARK   13  A    between atoms: C22_32  and  O8_33 
REMARK   14  A    between atoms: C24_36  and  O9_37 
REMARK   15  A    between atoms: C24_36  and  O10_39 
ROOT
HETATM    1  C2  UNL     1      -3.363  -2.043   1.562  1.00  0.00     0.104 A 
HETATM    2  C3  UNL     1      -3.682  -0.716   1.351  1.00  0.00     0.048 A 
HETATM    3  C4  UNL     1      -2.718   0.168   0.946  1.00  0.00    -0.032 A 
HETATM    4  C5  UNL     1      -1.379  -0.222   0.735  1.00  0.00     0.038 A 
HETATM    5  C6  UNL     1      -1.107  -1.555   0.961  1.00  0.00     0.117 A 
HETATM    6  C8  UNL     1      -2.076  -2.488   1.370  1.00  0.00     0.136 A 
HETATM    7  C10 UNL     1      -0.378   0.804   0.482  1.00  0.00     0.104 C 
HETATM    8  C19 UNL     1      -0.760   2.105   0.511  1.00  0.00     0.121 C 
HETATM    9  C22 UNL     1      -2.091   2.502   0.827  1.00  0.00     0.122 C 
HETATM   10  C23 UNL     1      -2.722   3.695   0.187  1.00  0.00     0.113 C 
HETATM   11  C24 UNL     1      -4.109   3.613   0.886  1.00  0.00     0.163 C 
HETATM   12  C25 UNL     1      -4.303   2.119   1.220  1.00  0.00     0.081 C 
HETATM   13  C26 UNL     1      -3.124   1.489   0.511  1.00  0.00     0.066 C 
ENDROOT
BRANCH   7  14
HETATM   14  N1  UNL     1       0.950   0.506   0.110  1.00  0.00    -0.251 N 
BRANCH  14  15
HETATM   15  O4  UNL     1       1.865   0.748   1.124  1.00  0.00    -0.287 OA
ATOM     16  H4  UNL     1       2.759   0.547   0.874  1.00  0.00     0.244 HD
ENDBRANCH  14  15
BRANCH  14  17
HETATM   17  C11 UNL     1       1.509   0.158  -1.144  1.00  0.00     0.139 C 
HETATM   18  C12 UNL     1       0.758  -0.725  -2.073  1.00  0.00     0.037 C 
BRANCH  17  19
HETATM   19  C13 UNL     1       2.863  -0.572  -0.939  1.00  0.00     0.143 C 
BRANCH  19  20
HETATM   20  O5  UNL     1       3.681   0.327  -0.267  1.00  0.00    -0.393 OA
ATOM     21  H5  UNL     1       4.510  -0.120  -0.142  1.00  0.00     0.210 HD
ENDBRANCH  19  20
BRANCH  19  22
HETATM   22  C14 UNL     1       3.405  -0.873  -2.326  1.00  0.00     0.042 C 
BRANCH  22  23
HETATM   23  C15 UNL     1       4.714  -1.582  -2.328  1.00  0.00    -0.049 C 
HETATM   24  C16 UNL     1       5.786  -0.788  -1.644  1.00  0.00     0.014 C 
HETATM   25  C17 UNL     1       4.621  -2.997  -1.801  1.00  0.00     0.014 C 
HETATM   26  C18 UNL     1       5.137  -1.708  -3.798  1.00  0.00     0.014 C 
ENDBRANCH  22  23
ENDBRANCH  19  22
ENDBRANCH  17  19
ENDBRANCH  14  17
ENDBRANCH   7  14
BRANCH   8  27
HETATM   27  O6  UNL     1       0.269   3.005   0.233  1.00  0.00    -0.278 OA
BRANCH  27  28
HETATM   28  C20 UNL     1       0.400   3.498  -1.043  1.00  0.00     0.259 C 
HETATM   29  C21 UNL     1       1.456   4.463  -1.446  1.00  0.00     0.126 C 
HETATM   30  O7  UNL     1      -0.393   3.141  -1.945  1.00  0.00    -0.265 OA
ENDBRANCH  27  28
ENDBRANCH   8  27
BRANCH   5  31
HETATM   31  O2  UNL     1       0.132  -2.109   0.831  1.00  0.00    -0.352 OA
HETATM   32  C7  UNL     1       0.937  -2.390   1.982  1.00  0.00     0.210 C 
ENDBRANCH   5  31
BRANCH   9  33
HETATM   33  O8  UNL     1      -2.232   2.755   2.238  1.00  0.00    -0.382 OA
ATOM     34  H8  UNL     1      -3.120   3.020   2.449  1.00  0.00     0.211 HD
ENDBRANCH   9  33
BRANCH   6  35
HETATM   35  O3  UNL     1      -1.848  -3.812   1.594  1.00  0.00    -0.351 OA
HETATM   36  C9  UNL     1      -1.594  -4.498   2.765  1.00  0.00     0.210 C 
ENDBRANCH   6  35
BRANCH   1  37
HETATM   37  O1  UNL     1      -4.344  -2.946   1.972  1.00  0.00    -0.353 OA
HETATM   38  C1  UNL     1      -5.653  -2.451   2.158  1.00  0.00     0.210 C 
ENDBRANCH   1  37
BRANCH  11  39
HETATM   39  O9  UNL     1      -3.991   4.370   2.041  1.00  0.00    -0.365 OA
ATOM     40  H9  UNL     1      -4.838   4.320   2.468  1.00  0.00     0.213 HD
ENDBRANCH  11  39
BRANCH  11  41
HETATM   41  O10 UNL     1      -5.112   4.060   0.037  1.00  0.00    -0.365 OA
ATOM     42  H10 UNL     1      -5.959   4.010   0.464  1.00  0.00     0.213 HD
ENDBRANCH  11  41
TORSDOF 15
