REMARK  15 active torsions:
REMARK  status: ('A' for Active; 'I' for Inactive)
REMARK    1  A    between atoms: C2_2  and  C3_3 
REMARK    2  A    between atoms: C3_3  and  C4_5 
REMARK    3  A    between atoms: C5_6  and  O2_7 
REMARK    4  A    between atoms: C9_12  and  C10_13 
REMARK    5  A    between atoms: C10_13  and  O4_15 
REMARK    6  A    between atoms: O4_15  and  C11_16 
REMARK    7  A    between atoms: C11_16  and  C12_17 
REMARK    8  A    between atoms: C12_17  and  C13_19 
REMARK    9  A    between atoms: C13_19  and  O6_20 
REMARK   10  A    between atoms: C13_19  and  O7_22 
REMARK   11  A    between atoms: C15_24  and  O8_25 
REMARK   12  A    between atoms: O8_25  and  C16_26 
REMARK   13  A    between atoms: C18_28  and  O9_29 
REMARK   14  A    between atoms: C23_35  and  O10_36 
REMARK   15  A    between atoms: C25_39  and  O11_41 
ROOT
HETATM    1  C4  UNL     1      -0.052   3.403   0.270  1.00  0.00     0.077 A 
HETATM    2  C5  UNL     1       0.520   4.307  -0.626  1.00  0.00     0.082 A 
HETATM    3  C6  UNL     1       1.634   3.873  -1.389  1.00  0.00     0.045 A 
HETATM    4  C7  UNL     1       2.160   2.630  -1.284  1.00  0.00    -0.040 A 
HETATM    5  C8  UNL     1       3.330   2.221  -2.105  1.00  0.00     0.049 C 
HETATM    6  C9  UNL     1       1.598   1.706  -0.395  1.00  0.00     0.080 A 
HETATM    7  C15 UNL     1       0.509   2.127   0.343  1.00  0.00     0.102 A 
ENDROOT
BRANCH   7   8
HETATM    8  O8  UNL     1      -0.053   1.178   1.183  1.00  0.00    -0.341 OA
BRANCH   8   9
HETATM    9  C16 UNL     1      -0.848   0.089   0.808  1.00  0.00     0.165 C 
HETATM   10  C17 UNL     1      -1.971   0.463  -0.141  1.00  0.00     0.073 C 
HETATM   11  C18 UNL     1      -2.265  -0.724  -1.010  1.00  0.00     0.066 C 
HETATM   12  C19 UNL     1      -3.282  -0.278  -2.036  1.00  0.00     0.038 C 
HETATM   13  C22 UNL     1      -2.791  -1.917  -0.326  1.00  0.00     0.049 C 
HETATM   14  C20 UNL     1      -4.419  -1.242  -1.995  1.00  0.00     0.004 C 
HETATM   15  C21 UNL     1      -3.878  -2.430  -1.287  1.00  0.00     0.010 C 
HETATM   16  C23 UNL     1      -3.427  -1.739   0.991  1.00  0.00     0.128 C 
HETATM   17  C24 UNL     1      -2.728  -1.021   2.044  1.00  0.00     0.072 C 
HETATM   18  C25 UNL     1      -1.242  -0.841   1.894  1.00  0.00     0.083 C 
HETATM   19  C26 UNL     1      -0.526  -2.187   1.801  1.00  0.00     0.049 C 
BRANCH  11  20
HETATM   20  O9  UNL     1      -1.113  -1.056  -1.719  1.00  0.00    -0.389 OA
ATOM     21  H9  UNL     1      -1.299  -1.808  -2.269  1.00  0.00     0.210 HD
ENDBRANCH  11  20
BRANCH  16  22
HETATM   22  O10 UNL     1      -4.683  -1.118   0.781  1.00  0.00    -0.395 OA
ATOM     23  H10 UNL     1      -5.093  -1.003   1.630  1.00  0.00     0.210 HD
ENDBRANCH  16  22
BRANCH  18  24
HETATM   24  O11 UNL     1      -0.808  -0.294   3.108  1.00  0.00    -0.388 OA
ATOM     25  H11 UNL     1      -1.060  -0.890   3.804  1.00  0.00     0.210 HD
ENDBRANCH  18  24
ENDBRANCH   8   9
ENDBRANCH   7   8
BRANCH   1  26
HETATM   26  C3  UNL     1      -1.046   3.883   1.231  1.00  0.00     0.164 C 
HETATM   27  O1  UNL     1      -1.367   5.120   1.156  1.00  0.00    -0.292 OA
BRANCH  26  28
HETATM   28  C2  UNL     1      -1.721   3.122   2.301  1.00  0.00     0.079 C 
HETATM   29  C1  UNL     1      -2.423   4.136   3.255  1.00  0.00     0.013 C 
ENDBRANCH  26  28
ENDBRANCH   1  26
BRANCH   6  30
HETATM   30  C10 UNL     1       2.288   0.428  -0.255  1.00  0.00     0.297 C 
HETATM   31  O3  UNL     1       3.125   0.403   0.724  1.00  0.00    -0.259 OA
BRANCH  30  32
HETATM   32  O4  UNL     1       2.166  -0.690  -1.000  1.00  0.00    -0.310 OA
BRANCH  32  33
HETATM   33  C11 UNL     1       2.862  -1.865  -0.783  1.00  0.00     0.262 C 
BRANCH  33  34
HETATM   34  C12 UNL     1       4.332  -1.809  -0.860  1.00  0.00     0.205 C 
HETATM   35  O5  UNL     1       4.958  -0.804  -1.113  1.00  0.00    -0.290 OA
BRANCH  34  36
HETATM   36  C13 UNL     1       5.137  -3.043  -0.617  1.00  0.00     0.329 C 
BRANCH  36  37
HETATM   37  O6  UNL     1       4.251  -4.080  -0.345  1.00  0.00    -0.365 OA
ATOM     38  H6  UNL     1       4.763  -4.865  -0.190  1.00  0.00     0.213 HD
ENDBRANCH  36  37
BRANCH  36  39
HETATM   39  O7  UNL     1       5.868  -3.424  -1.737  1.00  0.00    -0.359 OA
HETATM   40  C14 UNL     1       7.226  -3.477  -1.433  1.00  0.00     0.205 C 
ENDBRANCH  36  39
ENDBRANCH  34  36
ENDBRANCH  33  34
ENDBRANCH  32  33
ENDBRANCH  30  32
ENDBRANCH   6  30
BRANCH   2  41
HETATM   41  O2  UNL     1       0.079   5.564  -0.817  1.00  0.00    -0.360 OA
ATOM     42  H2  UNL     1       0.468   6.179  -1.427  1.00  0.00     0.217 HD
ENDBRANCH   2  41
TORSDOF 15
