REMARK  14 active torsions:
REMARK  status: ('A' for Active; 'I' for Inactive)
REMARK    1  A    between atoms: C2_2  and  O1_3 
REMARK    2  A    between atoms: O1_3  and  C3_4 
REMARK    3  A    between atoms: C3_4  and  C4_6 
REMARK    4  A    between atoms: C4_6  and  C5_7 
REMARK    5  A    between atoms: C6_9  and  N1_10 
REMARK    6  A    between atoms: N1_10  and  C7_12 
REMARK    7  A    between atoms: C7_12  and  N2_13 
REMARK    8  A    between atoms: C7_12  and  C9_17 
REMARK    9  A    between atoms: N2_13  and  C8_15 
REMARK   10  A    between atoms: C9_17  and  O4_18 
REMARK   11  A    between atoms: C9_17  and  O5_20 
REMARK   12  A    between atoms: O5_20  and  N3_21 
REMARK   13  A    between atoms: C18_31  and  C20_33 
REMARK   14  A    between atoms: C22_40  and  O9_41 
ROOT
HETATM    1  C7  UNL     1       1.083   0.528  -1.009  1.00  0.00     0.243 C 
ENDROOT
BRANCH   1   2
HETATM    2  N1  UNL     1       2.161  -0.394  -1.212  1.00  0.00    -0.345 N 
ATOM      3  H1  UNL     1       1.928  -1.366  -1.417  1.00  0.00     0.163 HD
BRANCH   2   4
HETATM    4  C6  UNL     1       3.416  -0.068  -1.151  1.00  0.00     0.148 A 
HETATM    5  S1  UNL     1       4.095   1.465  -0.830  1.00  0.00    -0.054 SA
HETATM    6  C5  UNL     1       5.751   1.029  -0.915  1.00  0.00     0.046 A 
HETATM    7  C22 UNL     1       5.667  -0.306  -1.194  1.00  0.00     0.155 A 
HETATM    8  N4  UNL     1       4.489  -0.843  -1.309  1.00  0.00    -0.317 N 
ATOM      9  H4  UNL     1       4.388  -1.837  -1.516  1.00  0.00     0.170 HD
BRANCH   6  10
HETATM   10  C4  UNL     1       6.970   1.895  -0.715  1.00  0.00     0.161 C 
BRANCH  10  11
HETATM   11  C3  UNL     1       7.493   1.605   0.648  1.00  0.00     0.263 C 
HETATM   12  O2  UNL     1       6.953   0.744   1.386  1.00  0.00    -0.265 OA
BRANCH  11  13
HETATM   13  O1  UNL     1       8.599   2.286   1.145  1.00  0.00    -0.322 OA
BRANCH  13  14
HETATM   14  C2  UNL     1       9.072   1.986   2.457  1.00  0.00     0.174 C 
HETATM   15  C1  UNL     1      10.260   2.897   2.693  1.00  0.00     0.034 C 
ENDBRANCH  13  14
ENDBRANCH  11  13
ENDBRANCH  10  11
ENDBRANCH   6  10
BRANCH   7  16
HETATM   16  O9  UNL     1       6.868  -1.059  -1.347  1.00  0.00    -0.345 OA
ATOM     17  H9  UNL     1       6.810  -1.987  -1.541  1.00  0.00     0.219 HD
ENDBRANCH   7  16
ENDBRANCH   2   4
ENDBRANCH   1   2
BRANCH   1  18
HETATM   18  N2  UNL     1       1.420   1.766  -0.378  1.00  0.00    -0.343 N 
ATOM     19  H2  UNL     1       1.859   1.753   0.543  1.00  0.00     0.164 HD
BRANCH  18  20
HETATM   20  C8  UNL     1       1.154   3.033  -1.013  1.00  0.00     0.350 C 
HETATM   21  O3  UNL     1       0.607   3.011  -2.152  1.00  0.00    -0.284 OA
ENDBRANCH  18  20
ENDBRANCH   1  18
BRANCH   1  22
HETATM   22  C9  UNL     1       0.006  -0.154  -0.145  1.00  0.00     0.328 C 
BRANCH  22  23
HETATM   23  O4  UNL     1       0.515  -0.562   1.081  1.00  0.00    -0.366 OA
ATOM     24  H4  UNL     1      -0.149  -0.983   1.614  1.00  0.00     0.212 HD
ENDBRANCH  22  23
BRANCH  22  25
HETATM   25  O5  UNL     1      -0.584  -1.234  -0.817  1.00  0.00    -0.244 OA
BRANCH  25  26
HETATM   26  N3  UNL     1      -1.949  -1.152  -1.021  1.00  0.00    -0.272 N 
HETATM   27  C10 UNL     1      -2.785  -2.082  -0.870  1.00  0.00     0.013 C 
HETATM   28  C11 UNL     1      -2.518  -3.471  -0.446  1.00  0.00     0.054 C 
HETATM   29  C21 UNL     1      -4.224  -1.748  -1.133  1.00  0.00     0.093 C 
HETATM   30  C12 UNL     1      -3.403  -3.952   0.657  1.00  0.00     0.009 C 
HETATM   31  C13 UNL     1      -4.837  -3.488   0.555  1.00  0.00     0.039 C 
HETATM   32  C14 UNL     1      -4.932  -2.027   0.180  1.00  0.00     0.073 C 
HETATM   33  C15 UNL     1      -4.452  -1.116   1.248  1.00  0.00     0.045 C 
HETATM   34  O8  UNL     1      -6.282  -1.696  -0.010  1.00  0.00    -0.343 OA
HETATM   35  C16 UNL     1      -5.402   0.052   1.202  1.00  0.00     0.068 C 
HETATM   36  C17 UNL     1      -6.357  -0.298   0.091  1.00  0.00     0.060 C 
HETATM   37  C18 UNL     1      -7.063   0.573  -0.582  1.00  0.00     0.044 C 
HETATM   38  C19 UNL     1      -6.947   2.013  -0.260  1.00  0.00     0.058 C 
ATOM     39  H3  UNL     1      -2.315  -0.249  -1.324  1.00  0.00     0.193 HD
BRANCH  37  40
HETATM   40  C20 UNL     1      -7.955   0.123  -1.634  1.00  0.00     0.207 C 
HETATM   41  O6  UNL     1      -8.068  -1.105  -1.923  1.00  0.00    -0.644 OA
HETATM   42  O7  UNL     1      -8.697   1.043  -2.341  1.00  0.00    -0.644 OA
ENDBRANCH  37  40
ENDBRANCH  25  26
ENDBRANCH  22  25
ENDBRANCH   1  22
TORSDOF 14
