REMARK  17 active torsions:
REMARK  status: ('A' for Active; 'I' for Inactive)
REMARK    1  A    between atoms: N1_2  and  C2_3 
REMARK    2  A    between atoms: N1_2  and  S2_45 
REMARK    3  A    between atoms: C2_3  and  C3_4 
REMARK    4  A    between atoms: C3_4  and  C4_5 
REMARK    5  A    between atoms: C3_4  and  C14_24 
REMARK    6  A    between atoms: C4_5  and  C5_6 
REMARK    7  A    between atoms: C9_10  and  C10_11 
REMARK    8  A    between atoms: C12_15  and  S1_16 
REMARK    9  A    between atoms: S1_16  and  N3_17 
REMARK   10  A    between atoms: C14_24  and  C15_25 
REMARK   11  A    between atoms: C14_24  and  N4_32 
REMARK   12  A    between atoms: C15_25  and  C16_26 
REMARK       I    between atoms: N4_32  and  C22_34 
REMARK   13  A    between atoms: C22_34  and  C23_36 
REMARK   14  A    between atoms: C23_36  and  O5_37 
REMARK   15  A    between atoms: O5_37  and  C24_38 
REMARK   16  A    between atoms: C24_38  and  C25_39 
REMARK   17  A    between atoms: S2_45  and  C31_48 
ROOT
HETATM    1  C3  UNL     1      -0.482  -0.091  -1.421  1.00  0.00     0.052 C 
ENDROOT
BRANCH   1   2
HETATM    2  C2  UNL     1      -1.009   0.458  -0.095  1.00  0.00     0.083 C 
BRANCH   2   3
HETATM    3  N1  UNL     1      -0.533   1.762   0.131  1.00  0.00    -0.289 N 
HETATM    4  C1  UNL     1      -0.843   2.740  -0.830  1.00  0.00     0.168 C 
BRANCH   3   5
HETATM    5  S2  UNL     1       0.455   2.136   1.411  1.00  0.00     0.279 S 
HETATM    6  O6  UNL     1       1.794   2.675   0.916  1.00  0.00    -0.199 OA
HETATM    7  O7  UNL     1       0.687   0.949   2.295  1.00  0.00    -0.199 OA
BRANCH   5   8
HETATM    8  C31 UNL     1      -0.224   3.417   2.448  1.00  0.00     0.149 A 
HETATM    9  C32 UNL     1      -0.500   3.160   3.768  1.00  0.00     0.044 A 
HETATM   10  C33 UNL     1      -1.029   4.145   4.589  1.00  0.00     0.004 A 
HETATM   11  C34 UNL     1      -1.274   5.381   4.064  1.00  0.00     0.017 A 
HETATM   12  C35 UNL     1      -0.985   5.600   2.737  1.00  0.00     0.089 A 
HETATM   13  N5  UNL     1      -0.473   4.634   1.961  1.00  0.00    -0.355 N 
ATOM     14  H5  UNL     1      -0.270   4.833   0.981  1.00  0.00     0.166 HD
ENDBRANCH   5   8
ENDBRANCH   3   5
ENDBRANCH   2   3
ENDBRANCH   1   2
BRANCH   1  15
HETATM   15  C4  UNL     1      -1.070  -1.496  -1.608  1.00  0.00     0.050 C 
BRANCH  15  16
HETATM   16  C5  UNL     1      -2.562  -1.496  -1.618  1.00  0.00    -0.057 A 
HETATM   17  C6  UNL     1      -3.268  -1.279  -2.778  1.00  0.00     0.007 A 
HETATM   18  C7  UNL     1      -4.656  -1.317  -2.728  1.00  0.00     0.002 A 
HETATM   19  C8  UNL     1      -5.328  -1.566  -1.551  1.00  0.00     0.016 A 
HETATM   20  C9  UNL     1      -4.643  -1.787  -0.375  1.00  0.00     0.016 A 
HETATM   21  C13 UNL     1      -3.271  -1.747  -0.435  1.00  0.00     0.023 A 
BRANCH  20  22
HETATM   22  C10 UNL     1      -5.350  -2.051   0.881  1.00  0.00     0.159 A 
HETATM   23  N2  UNL     1      -4.825  -2.276   2.097  1.00  0.00    -0.343 N 
HETATM   24  C11 UNL     1      -5.830  -2.470   2.960  1.00  0.00     0.142 A 
ATOM     25  H2  UNL     1      -3.831  -2.296   2.324  1.00  0.00     0.167 HD
HETATM   26  C12 UNL     1      -7.015  -2.359   2.238  1.00  0.00     0.207 A 
HETATM   27  O3  UNL     1      -6.632  -2.109   1.013  1.00  0.00    -0.278 OA
BRANCH  26  28
HETATM   28  S1  UNL     1      -8.645  -2.525   2.878  1.00  0.00     0.280 S 
HETATM   29  O1  UNL     1      -8.591  -2.698   4.350  1.00  0.00    -0.199 OA
HETATM   30  O2  UNL     1      -9.385  -1.247   2.518  1.00  0.00    -0.199 OA
BRANCH  28  31
HETATM   31  N3  UNL     1      -9.457  -3.824   2.082  1.00  0.00    -0.323 N 
ATOM     32  H32 UNL     1      -9.040  -4.400   1.351  1.00  0.00     0.169 HD
ATOM     33  H31 UNL     1     -10.402  -3.920   2.453  1.00  0.00     0.169 HD
ENDBRANCH  28  31
ENDBRANCH  26  28
ENDBRANCH  20  22
ENDBRANCH  15  16
ENDBRANCH   1  15
BRANCH   1  34
HETATM   34  C14 UNL     1       1.001  -0.185  -1.422  1.00  0.00     0.098 C 
BRANCH  34  35
HETATM   35  C15 UNL     1       1.502  -0.664  -2.788  1.00  0.00     0.064 C 
BRANCH  35  36
HETATM   36  C16 UNL     1       1.113   0.270  -3.861  1.00  0.00    -0.056 A 
HETATM   37  C17 UNL     1       0.028   0.158  -4.686  1.00  0.00     0.007 A 
HETATM   38  C18 UNL     1      -0.264   1.103  -5.655  1.00  0.00     0.001 A 
HETATM   39  C19 UNL     1       0.552   2.198  -5.807  1.00  0.00     0.000 A 
HETATM   40  C20 UNL     1       1.650   2.339  -4.993  1.00  0.00     0.001 A 
HETATM   41  C21 UNL     1       1.910   1.390  -4.048  1.00  0.00     0.007 A 
ENDBRANCH  35  36
ENDBRANCH  34  35
BRANCH  34  42
HETATM   42  N4  UNL     1       1.567  -1.080  -0.428  1.00  0.00    -0.354 N 
HETATM   43  C22 UNL     1       2.888  -0.805   0.058  1.00  0.00     0.241 C 
HETATM   44  O4  UNL     1       3.541   0.175  -0.366  1.00  0.00    -0.271 OA
ATOM     45  H4  UNL     1       1.039  -1.883  -0.085  1.00  0.00     0.163 HD
BRANCH  43  46
HETATM   46  C23 UNL     1       3.449  -1.724   1.079  1.00  0.00     0.270 C 
BRANCH  46  47
HETATM   47  O5  UNL     1       4.713  -1.462   1.504  1.00  0.00    -0.378 OA
BRANCH  47  48
HETATM   48  C24 UNL     1       5.731  -1.511   0.605  1.00  0.00     0.206 C 
BRANCH  48  49
HETATM   49  C25 UNL     1       7.036  -1.211   1.307  1.00  0.00    -0.035 A 
HETATM   50  C26 UNL     1       8.171  -1.082   0.531  1.00  0.00     0.009 A 
HETATM   51  C27 UNL     1       9.353  -0.809   1.210  1.00  0.00     0.001 A 
HETATM   52  C28 UNL     1       9.373  -0.678   2.583  1.00  0.00     0.000 A 
HETATM   53  C29 UNL     1       8.220  -0.814   3.310  1.00  0.00     0.001 A 
HETATM   54  C30 UNL     1       7.040  -1.082   2.675  1.00  0.00     0.009 A 
ENDBRANCH  48  49
ENDBRANCH  47  48
ENDBRANCH  46  47
ENDBRANCH  43  46
ENDBRANCH  34  42
ENDBRANCH   1  34
TORSDOF 17
