REMARK  15 active torsions:
REMARK  status: ('A' for Active; 'I' for Inactive)
REMARK       I    between atoms: C2_2  and  N1_4 
REMARK    1  A    between atoms: N2_9  and  C5_10 
REMARK    2  A    between atoms: C5_10  and  C6_11 
REMARK    3  A    between atoms: C6_11  and  C7_12 
REMARK    4  A    between atoms: C7_12  and  C8_13 
REMARK    5  A    between atoms: C8_13  and  C9_14 
REMARK    6  A    between atoms: C9_14  and  C10_15 
REMARK    7  A    between atoms: C10_15  and  C11_16 
REMARK    8  A    between atoms: C11_16  and  N3_17 
REMARK    9  A    between atoms: N3_17  and  C12_20 
REMARK   10  A    between atoms: C12_20  and  C13_21 
REMARK   11  A    between atoms: C13_21  and  S1_22 
REMARK   12  A    between atoms: S1_22  and  C14_23 
REMARK   13  A    between atoms: C24_33  and  N4_34 
REMARK   14  A    between atoms: N4_34  and  S2_36 
REMARK   15  A    between atoms: S2_36  and  C25_39 
ROOT
HETATM    1  C1  UNL     1      -5.884  -6.223   0.175  1.00  0.00     0.119 C 
HETATM    2  C2  UNL     1      -4.615  -5.899   0.827  1.00  0.00     0.236 C 
HETATM    3  O1  UNL     1      -3.928  -6.828   1.353  1.00  0.00    -0.272 OA
HETATM    4  N1  UNL     1      -4.081  -4.585   0.917  1.00  0.00    -0.164 N 
HETATM    5  C3  UNL     1      -2.830  -4.432   1.597  1.00  0.00     0.332 C 
HETATM    6  O2  UNL     1      -2.374  -5.539   2.052  1.00  0.00    -0.261 OA
HETATM    7  C4  UNL     1      -2.003  -3.302   1.862  1.00  0.00     0.317 C 
HETATM    8  O3  UNL     1      -1.276  -3.308   2.918  1.00  0.00    -0.262 OA
HETATM    9  N2  UNL     1      -1.865  -2.098   1.069  1.00  0.00    -0.308 N 
HETATM   10  C21 UNL     1      -2.658  -1.547   0.031  1.00  0.00     0.061 A 
HETATM   11  C22 UNL     1      -2.121  -0.477  -0.645  1.00  0.00     0.034 A 
HETATM   12  C23 UNL     1      -2.791   0.169  -1.683  1.00  0.00     0.032 A 
HETATM   13  C24 UNL     1      -4.036  -0.291  -2.032  1.00  0.00     0.044 A 
HETATM   14  C32 UNL     1      -4.582  -1.359  -1.363  1.00  0.00     0.057 A 
HETATM   15  C33 UNL     1      -3.922  -2.008  -0.330  1.00  0.00     0.109 A 
HETATM   16  S3  UNL     1      -4.951  -3.284   0.227  1.00  0.00     0.276 S 
HETATM   17  O6  UNL     1      -5.833  -3.789  -0.907  1.00  0.00    -0.199 OA
HETATM   18  O7  UNL     1      -5.868  -2.728   1.275  1.00  0.00    -0.199 OA
ENDROOT
BRANCH   9  19
HETATM   19  C5  UNL     1      -0.708  -1.323   1.447  1.00  0.00     0.133 C 
BRANCH  19  20
HETATM   20  C6  UNL     1       0.551  -1.703   0.721  1.00  0.00     0.020 C 
BRANCH  20  21
HETATM   21  C7  UNL     1       1.746  -0.803   1.135  1.00  0.00     0.002 C 
BRANCH  21  22
HETATM   22  C8  UNL     1       2.024  -0.902   2.576  1.00  0.00     0.000 C 
BRANCH  22  23
HETATM   23  C9  UNL     1       3.148  -0.218   3.200  1.00  0.00     0.002 C 
BRANCH  23  24
HETATM   24  C10 UNL     1       3.207   1.247   3.186  1.00  0.00     0.027 C 
BRANCH  24  25
HETATM   25  C11 UNL     1       3.287   1.889   1.867  1.00  0.00     0.232 C 
BRANCH  25  26
HETATM   26  N3  UNL     1       4.442   1.376   1.143  1.00  0.00    -0.074 N 
ATOM     27  H32 UNL     1       5.307   1.480   1.674  1.00  0.00     0.277 HD
ATOM     28  H31 UNL     1       4.433   0.358   1.076  1.00  0.00     0.277 HD
BRANCH  26  29
HETATM   29  C12 UNL     1       4.519   2.002  -0.142  1.00  0.00     0.242 C 
BRANCH  29  30
HETATM   30  C13 UNL     1       5.737   1.429  -0.859  1.00  0.00     0.107 C 
BRANCH  30  31
HETATM   31  S1  UNL     1       7.207   1.799   0.135  1.00  0.00    -0.128 SA
BRANCH  31  32
HETATM   32  C14 UNL     1       8.661   1.134  -0.683  1.00  0.00     0.006 A 
HETATM   33  C15 UNL     1       9.060  -0.157  -0.387  1.00  0.00     0.019 A 
HETATM   34  C16 UNL     1      10.168  -0.657  -1.011  1.00  0.00     0.001 A 
HETATM   35  C17 UNL     1      10.877   0.079  -1.906  1.00  0.00     0.001 A 
HETATM   36  C18 UNL     1      10.463   1.367  -2.190  1.00  0.00     0.008 A 
HETATM   37  C19 UNL     1       9.349   1.895  -1.574  1.00  0.00    -0.045 A 
HETATM   38  C20 UNL     1       8.923   3.271  -1.890  1.00  0.00     0.049 C 
ENDBRANCH  31  32
ENDBRANCH  30  31
ENDBRANCH  29  30
ENDBRANCH  26  29
ENDBRANCH  25  26
ENDBRANCH  24  25
ENDBRANCH  23  24
ENDBRANCH  22  23
ENDBRANCH  21  22
ENDBRANCH  20  21
ENDBRANCH  19  20
ENDBRANCH   9  19
BRANCH  13  39
HETATM   39  N4  UNL     1      -4.729   0.359  -3.082  1.00  0.00    -0.281 N 
ATOM     40  H4  UNL     1      -4.214   0.583  -3.933  1.00  0.00     0.179 HD
BRANCH  39  41
HETATM   41  S2  UNL     1      -6.384   0.789  -3.000  1.00  0.00     0.263 S 
HETATM   42  O4  UNL     1      -6.760   1.489  -4.290  1.00  0.00    -0.200 OA
HETATM   43  O5  UNL     1      -7.296  -0.387  -2.853  1.00  0.00    -0.200 OA
BRANCH  41  44
HETATM   44  C25 UNL     1      -6.705   1.920  -1.710  1.00  0.00     0.079 A 
HETATM   45  C26 UNL     1      -6.676   3.292  -1.887  1.00  0.00     0.026 A 
HETATM   46  C27 UNL     1      -6.937   4.143  -0.826  1.00  0.00     0.008 A 
HETATM   47  C28 UNL     1      -7.232   3.654   0.426  1.00  0.00    -0.062 A 
HETATM   48  C29 UNL     1      -7.520   4.540   1.590  1.00  0.00     0.048 C 
HETATM   49  C30 UNL     1      -7.254   2.283   0.568  1.00  0.00     0.008 A 
HETATM   50  C31 UNL     1      -7.002   1.400  -0.446  1.00  0.00     0.026 A 
ENDBRANCH  41  44
ENDBRANCH  39  41
ENDBRANCH  13  39
TORSDOF 15
