REMARK  16 active torsions:
REMARK  status: ('A' for Active; 'I' for Inactive)
REMARK    1  A    between atoms: C2_2  and  C4_4 
REMARK    2  A    between atoms: C4_4  and  C5_5 
REMARK    3  A    between atoms: C5_5  and  N1_6 
REMARK    4  A    between atoms: C5_5  and  C20_28 
REMARK       I    between atoms: N1_6  and  C6_8 
REMARK    5  A    between atoms: C6_8  and  C7_10 
REMARK    6  A    between atoms: C14_17  and  C15_18 
REMARK    7  A    between atoms: C20_28  and  C21_30 
REMARK    8  A    between atoms: C21_30  and  C22_31 
REMARK    9  A    between atoms: C22_31  and  C23_32 
REMARK   10  A    between atoms: C22_31  and  C28_37 
REMARK   11  A    between atoms: C23_32  and  C24_33 
REMARK       I    between atoms: C28_37  and  N5_39 
REMARK   12  A    between atoms: N5_39  and  C29_41 
REMARK   13  A    between atoms: C29_41  and  C30_42 
REMARK   14  A    between atoms: C29_41  and  O5_50 
REMARK   15  A    between atoms: C30_42  and  C31_43 
REMARK   16  A    between atoms: O5_50  and  C36_51 
ROOT
HETATM    1  C5  UNL     1       0.855  -0.827  -0.854  1.00  0.00     0.154 C 
ENDROOT
BRANCH   1   2
HETATM    2  C4  UNL     1       0.598  -2.297  -0.963  1.00  0.00     0.037 C 
BRANCH   2   3
HETATM    3  C2  UNL     1       1.187  -3.230  -0.023  1.00  0.00    -0.020 C 
HETATM    4  C1  UNL     1       0.737  -4.659  -0.397  1.00  0.00     0.009 C 
HETATM    5  C3  UNL     1       2.638  -3.288   0.185  1.00  0.00     0.009 C 
ENDBRANCH   2   3
ENDBRANCH   1   2
BRANCH   1   6
HETATM    6  N1  UNL     1       2.295  -0.500  -0.990  1.00  0.00    -0.348 N 
HETATM    7  C6  UNL     1       2.817  -0.134  -2.229  1.00  0.00     0.241 C 
HETATM    8  O1  UNL     1       1.957  -0.128  -3.194  1.00  0.00    -0.271 OA
ATOM      9  H1  UNL     1       2.905  -0.543  -0.174  1.00  0.00     0.163 HD
BRANCH   7  10
HETATM   10  C7  UNL     1       4.179   0.239  -2.589  1.00  0.00     0.183 C 
HETATM   11  C8  UNL     1       4.884  -0.897  -3.328  1.00  0.00     0.016 C 
HETATM   12  C9  UNL     1       5.337  -0.464  -4.705  1.00  0.00     0.012 C 
HETATM   13  C10 UNL     1       6.062  -1.267  -2.430  1.00  0.00     0.032 C 
HETATM   14  C11 UNL     1       5.621  -0.768  -1.054  1.00  0.00     0.093 C 
HETATM   15  C12 UNL     1       6.786  -0.455  -0.180  1.00  0.00     0.022 C 
HETATM   16  N4  UNL     1       4.991   0.462  -1.442  1.00  0.00    -0.333 N 
HETATM   17  C13 UNL     1       6.666  -1.027   1.203  1.00  0.00     0.013 C 
HETATM   18  C14 UNL     1       6.801   1.051  -0.078  1.00  0.00     0.119 C 
HETATM   19  C19 UNL     1       5.465   1.448  -0.491  1.00  0.00     0.230 C 
HETATM   20  O2  UNL     1       4.712   2.422  -0.190  1.00  0.00    -0.273 OA
BRANCH  18  21
HETATM   21  C15 UNL     1       7.202   1.526   1.246  1.00  0.00    -0.011 A 
HETATM   22  C16 UNL     1       8.474   1.407   1.760  1.00  0.00     0.116 A 
HETATM   23  N2  UNL     1       8.479   1.984   2.990  1.00  0.00    -0.310 N 
HETATM   24  N3  UNL     1       7.261   2.459   3.267  1.00  0.00    -0.308 N 
ATOM     25  H2  UNL     1       9.289   2.045   3.608  1.00  0.00     0.186 HD
HETATM   26  C17 UNL     1       6.928   3.122   4.499  1.00  0.00     0.177 C 
HETATM   27  C18 UNL     1       6.466   2.186   2.205  1.00  0.00     0.119 A 
ENDBRANCH  18  21
ENDBRANCH   7  10
ENDBRANCH   1   6
BRANCH   1  28
HETATM   28  C20 UNL     1       0.269  -0.188   0.312  1.00  0.00     0.150 C 
HETATM   29  O3  UNL     1       0.943  -0.120   1.350  1.00  0.00    -0.296 OA
BRANCH  28  30
HETATM   30  C21 UNL     1      -1.076   0.401   0.380  1.00  0.00     0.094 C 
BRANCH  30  31
HETATM   31  C22 UNL     1      -2.207  -0.582   0.627  1.00  0.00     0.085 C 
BRANCH  31  32
HETATM   32  C23 UNL     1      -2.095  -1.353   1.883  1.00  0.00     0.022 C 
BRANCH  32  33
HETATM   33  C24 UNL     1      -3.078  -2.397   2.176  1.00  0.00    -0.051 C 
HETATM   34  C25 UNL     1      -3.074  -3.499   1.084  1.00  0.00     0.014 C 
HETATM   35  C26 UNL     1      -4.481  -2.089   2.485  1.00  0.00     0.014 C 
HETATM   36  C27 UNL     1      -2.541  -3.159   3.419  1.00  0.00     0.014 C 
ENDBRANCH  32  33
ENDBRANCH  31  32
BRANCH  31  37
HETATM   37  C28 UNL     1      -3.396   0.355   0.775  1.00  0.00     0.224 C 
HETATM   38  O4  UNL     1      -3.756   0.728   1.900  1.00  0.00    -0.273 OA
HETATM   39  N5  UNL     1      -4.059   0.783  -0.375  1.00  0.00    -0.334 N 
ATOM     40  H5  UNL     1      -3.755   0.476  -1.299  1.00  0.00     0.165 HD
BRANCH  39  41
HETATM   41  C29 UNL     1      -5.224   1.702  -0.219  1.00  0.00     0.229 C 
BRANCH  41  42
HETATM   42  C30 UNL     1      -4.692   3.035  -0.672  1.00  0.00     0.110 C 
BRANCH  42  43
HETATM   43  C31 UNL     1      -5.638   4.146  -0.613  1.00  0.00     0.013 A 
HETATM   44  C32 UNL     1      -6.424   4.491  -1.673  1.00  0.00     0.025 A 
HETATM   45  C33 UNL     1      -7.289   5.540  -1.581  1.00  0.00     0.003 A 
HETATM   46  C34 UNL     1      -7.357   6.249  -0.398  1.00  0.00     0.017 A 
HETATM   47  C35 UNL     1      -6.546   5.878   0.665  1.00  0.00     0.088 A 
HETATM   48  N6  UNL     1      -5.722   4.854   0.533  1.00  0.00    -0.369 N 
ATOM     49  H6  UNL     1      -5.131   4.590   1.321  1.00  0.00     0.165 HD
ENDBRANCH  42  43
ENDBRANCH  41  42
BRANCH  41  50
HETATM   50  O5  UNL     1      -6.195   1.170  -1.020  1.00  0.00    -0.362 OA
BRANCH  50  51
HETATM   51  C36 UNL     1      -7.292   0.681  -0.351  1.00  0.00     0.116 C 
HETATM   52  C37 UNL     1      -8.532   1.354  -0.868  1.00  0.00     0.039 C 
HETATM   53  C38 UNL     1      -7.353  -0.815  -0.670  1.00  0.00     0.039 C 
ENDBRANCH  50  51
ENDBRANCH  41  50
ENDBRANCH  39  41
ENDBRANCH  31  37
ENDBRANCH  30  31
ENDBRANCH  28  30
ENDBRANCH   1  28
TORSDOF 16
