REMARK  18 active torsions:
REMARK  status: ('A' for Active; 'I' for Inactive)
REMARK    1  A    between atoms: C7_7  and  C8_8 
REMARK    2  A    between atoms: C8_8  and  O1_9 
REMARK    3  A    between atoms: C8_8  and  N1_11 
REMARK    4  A    between atoms: N1_11  and  C9_12 
REMARK    5  A    between atoms: N1_11  and  C13_16 
REMARK    6  A    between atoms: C9_12  and  C10_13 
REMARK    7  A    between atoms: C13_16  and  C14_17 
REMARK    8  A    between atoms: C13_16  and  C22_30 
REMARK    9  A    between atoms: C14_17  and  C15_18 
REMARK   10  A    between atoms: C15_18  and  C16_19 
REMARK       I    between atoms: C16_19  and  N2_21 
REMARK   11  A    between atoms: N2_21  and  C18_23 
REMARK   12  A    between atoms: C18_23  and  C19_24 
REMARK       I    between atoms: C22_30  and  N4_32 
REMARK   13  A    between atoms: N4_32  and  C23_34 
REMARK   14  A    between atoms: C23_34  and  C24_35 
REMARK   15  A    between atoms: C23_34  and  C30_45 
REMARK   16  A    between atoms: C24_35  and  C25_36 
REMARK   17  A    between atoms: C25_36  and  C26_37 
REMARK       I    between atoms: C30_45  and  N7_47 
REMARK   18  A    between atoms: N7_47  and  C31_49 
ROOT
HETATM    1  C13 UNL     1      -2.183  -0.590  -0.223  1.00  0.00     0.183 C 
ENDROOT
BRANCH   1   2
HETATM    2  N1  UNL     1      -2.973  -1.754   0.104  1.00  0.00    -0.327 N 
BRANCH   2   3
HETATM    3  C8  UNL     1      -3.239  -2.780  -0.815  1.00  0.00     0.153 C 
BRANCH   3   4
HETATM    4  C7  UNL     1      -2.787  -3.178  -2.102  1.00  0.00     0.016 A 
HETATM    5  C6  UNL     1      -1.710  -2.767  -2.833  1.00  0.00     0.022 A 
HETATM    6  C4  UNL     1      -1.434  -3.212  -4.126  1.00  0.00    -0.061 A 
HETATM    7  C3  UNL     1      -2.254  -4.115  -4.750  1.00  0.00     0.013 A 
HETATM    8  C5  UNL     1      -0.232  -2.728  -4.862  1.00  0.00     0.048 C 
HETATM    9  C2  UNL     1      -3.347  -4.561  -4.060  1.00  0.00    -0.061 A 
HETATM   10  C1  UNL     1      -4.269  -5.556  -4.715  1.00  0.00     0.048 C 
HETATM   11  C35 UNL     1      -3.600  -4.109  -2.787  1.00  0.00     0.022 A 
ENDBRANCH   3   4
BRANCH   3  12
HETATM   12  O1  UNL     1      -4.175  -3.590  -0.339  1.00  0.00    -0.345 OA
ATOM     13  H1  UNL     1      -4.477  -3.324   0.521  1.00  0.00     0.219 HD
ENDBRANCH   3  12
ENDBRANCH   2   3
BRANCH   2  14
HETATM   14  C9  UNL     1      -3.683  -1.796   1.336  1.00  0.00     0.071 C 
BRANCH  14  15
HETATM   15  C10 UNL     1      -3.281  -2.362   2.594  1.00  0.00     0.016 C 
HETATM   16  C11 UNL     1      -2.126  -1.840   3.363  1.00  0.00     0.015 C 
HETATM   17  C12 UNL     1      -3.143  -3.900   2.563  1.00  0.00     0.015 C 
ENDBRANCH  14  15
ENDBRANCH   2  14
ENDBRANCH   1   2
BRANCH   1  18
HETATM   18  C14 UNL     1      -2.857   0.634   0.170  1.00  0.00     0.044 C 
BRANCH  18  19
HETATM   19  C15 UNL     1      -2.235   1.968  -0.064  1.00  0.00     0.105 C 
BRANCH  19  20
HETATM   20  C16 UNL     1      -3.248   3.018   0.331  1.00  0.00     0.219 C 
HETATM   21  O2  UNL     1      -4.445   2.694   0.309  1.00  0.00    -0.273 OA
HETATM   22  N2  UNL     1      -2.871   4.334   0.710  1.00  0.00    -0.350 N 
HETATM   23  C17 UNL     1      -3.961   5.273   0.993  1.00  0.00     0.153 C 
BRANCH  22  24
HETATM   24  C18 UNL     1      -1.528   4.785   0.873  1.00  0.00     0.190 C 
BRANCH  24  25
HETATM   25  C19 UNL     1      -0.894   5.346  -0.356  1.00  0.00     0.068 A 
HETATM   26  N3  UNL     1      -1.342   5.360  -1.606  1.00  0.00    -0.362 N 
HETATM   27  C20 UNL     1      -0.628   5.909  -2.537  1.00  0.00     0.096 A 
ATOM     28  H3  UNL     1      -2.244   4.941  -1.832  1.00  0.00     0.165 HD
HETATM   29  C21 UNL     1       0.578   6.463  -2.188  1.00  0.00     0.068 A 
HETATM   30  S1  UNL     1       0.613   6.154  -0.513  1.00  0.00    -0.086 SA
ENDBRANCH  24  25
ENDBRANCH  22  24
ENDBRANCH  19  20
ENDBRANCH  18  19
ENDBRANCH   1  18
BRANCH   1  31
HETATM   31  C22 UNL     1      -0.736  -0.773   0.114  1.00  0.00     0.241 C 
HETATM   32  O3  UNL     1      -0.421  -1.938   0.517  1.00  0.00    -0.271 OA
HETATM   33  N4  UNL     1       0.297   0.136   0.039  1.00  0.00    -0.346 N 
ATOM     34  H4  UNL     1       0.097   1.085  -0.278  1.00  0.00     0.163 HD
BRANCH  33  35
HETATM   35  C23 UNL     1       1.694  -0.222   0.405  1.00  0.00     0.177 C 
BRANCH  35  36
HETATM   36  C24 UNL     1       2.119   0.585   1.582  1.00  0.00     0.041 C 
BRANCH  36  37
HETATM   37  C25 UNL     1       3.522   0.272   1.991  1.00  0.00     0.064 C 
BRANCH  37  38
HETATM   38  C26 UNL     1       3.906   1.037   3.239  1.00  0.00     0.059 A 
HETATM   39  N5  UNL     1       4.679   2.121   3.361  1.00  0.00    -0.244 N 
HETATM   40  O4  UNL     1       4.772   2.478   4.616  1.00  0.00    -0.155 OA
ATOM     41  H5  UNL     1       5.133   2.602   2.584  1.00  0.00     0.196 HD
HETATM   42  N6  UNL     1       4.081   1.657   5.326  1.00  0.00    -0.240 N 
HETATM   43  C27 UNL     1       3.871   1.629   6.782  1.00  0.00     0.188 C 
HETATM   44  C28 UNL     1       3.519   0.740   4.529  1.00  0.00     0.057 A 
HETATM   45  C29 UNL     1       2.640  -0.402   4.900  1.00  0.00     0.072 C 
ENDBRANCH  37  38
ENDBRANCH  36  37
ENDBRANCH  35  36
BRANCH  35  46
HETATM   46  C30 UNL     1       2.544   0.040  -0.760  1.00  0.00     0.241 C 
HETATM   47  O5  UNL     1       2.032   0.785  -1.675  1.00  0.00    -0.271 OA
HETATM   48  N7  UNL     1       3.846  -0.425  -1.008  1.00  0.00    -0.351 N 
ATOM     49  H7  UNL     1       4.302  -1.026  -0.322  1.00  0.00     0.163 HD
BRANCH  48  50
HETATM   50  C31 UNL     1       4.543  -0.071  -2.205  1.00  0.00     0.022 C 
HETATM   51  C32 UNL     1       5.899  -0.765  -2.205  1.00  0.00     0.037 C 
HETATM   52  C33 UNL     1       4.840   1.413  -2.265  1.00  0.00     0.037 C 
HETATM   53  C34 UNL     1       3.820  -0.495  -3.458  1.00  0.00     0.037 C 
ENDBRANCH  48  50
ENDBRANCH  35  46
ENDBRANCH  33  35
ENDBRANCH   1  31
TORSDOF 18
