REMARK  15 active torsions:
REMARK  status: ('A' for Active; 'I' for Inactive)
REMARK    1  A    between atoms: S1_2  and  C2_5 
REMARK    2  A    between atoms: C2_5  and  C3_6 
REMARK    3  A    between atoms: C3_6  and  C4_7 
REMARK    4  A    between atoms: C4_7  and  C5_8 
REMARK    5  A    between atoms: C5_8  and  C6_9 
REMARK    6  A    between atoms: C6_9  and  N1_10 
REMARK       I    between atoms: N1_10  and  C7_12 
REMARK    7  A    between atoms: C7_12  and  C8_14 
REMARK    8  A    between atoms: C8_14  and  C9_15 
REMARK    9  A    between atoms: C8_14  and  N2_22 
REMARK   10  A    between atoms: C9_15  and  C10_16 
REMARK   11  A    between atoms: N2_22  and  S2_24 
REMARK   12  A    between atoms: S2_24  and  C16_27 
REMARK   13  A    between atoms: C20_31  and  C21_32 
REMARK   14  A    between atoms: C25_36  and  C26_37 
REMARK   15  A    between atoms: C31_42  and  S3_43 
ROOT
HETATM    1  S2  UNL     1       0.419   1.781   2.786  1.00  0.00     0.275 S 
HETATM    2  O4  UNL     1       0.076   3.115   3.405  1.00  0.00    -0.199 OA
HETATM    3  O5  UNL     1       1.544   1.146   3.538  1.00  0.00    -0.199 OA
ENDROOT
BRANCH   1   4
HETATM    4  N2  UNL     1       0.976   2.121   1.182  1.00  0.00    -0.300 N 
ATOM      5  H2  UNL     1       1.039   3.048   0.761  1.00  0.00     0.173 HD
BRANCH   4   6
HETATM    6  C8  UNL     1       1.344   0.859   0.525  1.00  0.00     0.189 C 
BRANCH   6   7
HETATM    7  C7  UNL     1       2.828   0.817   0.322  1.00  0.00     0.241 C 
HETATM    8  N1  UNL     1       3.486  -0.415   0.352  1.00  0.00    -0.359 N 
ATOM      9  H1  UNL     1       2.938  -1.261   0.506  1.00  0.00     0.162 HD
HETATM   10  O3  UNL     1       3.437   1.888   0.137  1.00  0.00    -0.271 OA
BRANCH   8  11
HETATM   11  C6  UNL     1       4.905  -0.534   0.174  1.00  0.00     0.122 C 
BRANCH  11  12
HETATM   12  C5  UNL     1       5.708   0.190   1.205  1.00  0.00     0.020 C 
BRANCH  12  13
HETATM   13  C4  UNL     1       7.184   0.009   1.002  1.00  0.00     0.002 C 
BRANCH  13  14
HETATM   14  C3  UNL     1       7.671   0.516  -0.335  1.00  0.00     0.015 C 
BRANCH  14  15
HETATM   15  C2  UNL     1       9.187   0.279  -0.443  1.00  0.00     0.140 C 
BRANCH  15  16
HETATM   16  S1  UNL     1       9.722   0.885  -2.021  1.00  0.00     0.140 S 
HETATM   17  C1  UNL     1      11.464   0.601  -2.146  1.00  0.00     0.161 C 
HETATM   18  O1  UNL     1       9.438   2.371  -2.058  1.00  0.00    -0.228 OA
HETATM   19  O2  UNL     1       8.946   0.215  -3.102  1.00  0.00    -0.228 OA
ENDBRANCH  15  16
ENDBRANCH  14  15
ENDBRANCH  13  14
ENDBRANCH  12  13
ENDBRANCH  11  12
ENDBRANCH   8  11
ENDBRANCH   6   7
BRANCH   6  20
HETATM   20  C9  UNL     1       0.638   0.714  -0.774  1.00  0.00     0.074 C 
BRANCH  20  21
HETATM   21  C10 UNL     1       0.968  -0.558  -1.429  1.00  0.00    -0.056 A 
HETATM   22  C11 UNL     1       0.279  -1.733  -1.134  1.00  0.00     0.007 A 
HETATM   23  C12 UNL     1       0.590  -2.920  -1.795  1.00  0.00     0.001 A 
HETATM   24  C13 UNL     1       1.588  -2.923  -2.744  1.00  0.00     0.000 A 
HETATM   25  C14 UNL     1       2.291  -1.765  -3.057  1.00  0.00     0.001 A 
HETATM   26  C15 UNL     1       1.944  -0.632  -2.379  1.00  0.00     0.007 A 
ENDBRANCH  20  21
ENDBRANCH   6  20
ENDBRANCH   4   6
ENDBRANCH   1   4
BRANCH   1  27
HETATM   27  C16 UNL     1      -0.997   0.761   2.739  1.00  0.00     0.149 A 
HETATM   28  C17 UNL     1      -0.965  -0.500   3.310  1.00  0.00     0.044 A 
HETATM   29  C18 UNL     1      -2.074  -1.312   3.263  1.00  0.00     0.005 A 
HETATM   30  C19 UNL     1      -3.218  -0.817   2.624  1.00  0.00     0.030 A 
HETATM   31  C20 UNL     1      -3.235   0.441   2.061  1.00  0.00     0.043 A 
HETATM   32  N3  UNL     1      -2.103   1.172   2.152  1.00  0.00    -0.345 N 
ATOM     33  H3  UNL     1      -2.104   2.105   1.739  1.00  0.00     0.167 HD
BRANCH  31  34
HETATM   34  C21 UNL     1      -4.428   0.964   1.411  1.00  0.00    -0.009 A 
HETATM   35  C22 UNL     1      -4.396   2.263   0.912  1.00  0.00     0.014 A 
HETATM   36  C23 UNL     1      -5.493   2.815   0.289  1.00  0.00     0.002 A 
HETATM   37  C24 UNL     1      -6.667   2.116   0.127  1.00  0.00     0.012 A 
HETATM   38  C25 UNL     1      -6.718   0.828   0.613  1.00  0.00    -0.024 A 
HETATM   39  C33 UNL     1      -5.604   0.283   1.242  1.00  0.00     0.026 A 
BRANCH  38  40
HETATM   40  C26 UNL     1      -7.914   0.016   0.529  1.00  0.00    -0.004 A 
HETATM   41  C27 UNL     1      -8.996   0.335   1.377  1.00  0.00     0.014 A 
HETATM   42  C28 UNL     1     -10.146  -0.422   1.387  1.00  0.00     0.001 A 
HETATM   43  C29 UNL     1     -10.221  -1.514   0.540  1.00  0.00     0.002 A 
HETATM   44  C30 UNL     1      -9.163  -1.821  -0.287  1.00  0.00     0.024 A 
HETATM   45  C31 UNL     1      -7.987  -1.054  -0.304  1.00  0.00     0.070 A 
BRANCH  45  46
HETATM   46  S3  UNL     1      -6.732  -1.447  -1.415  1.00  0.00     0.172 S 
HETATM   47  C32 UNL     1      -6.436  -0.089  -2.564  1.00  0.00     0.167 C 
HETATM   48  O6  UNL     1      -7.268  -2.566  -2.329  1.00  0.00    -0.223 OA
HETATM   49  O7  UNL     1      -5.482  -1.984  -0.842  1.00  0.00    -0.223 OA
ENDBRANCH  45  46
ENDBRANCH  38  40
ENDBRANCH  31  34
ENDBRANCH   1  27
TORSDOF 15
