REMARK  14 active torsions:
REMARK  status: ('A' for Active; 'I' for Inactive)
REMARK    1  A    between atoms: C2_2  and  C24_28 
REMARK    2  A    between atoms: C3_3  and  C4_4 
REMARK    3  A    between atoms: C4_4  and  C5_5 
REMARK    4  A    between atoms: C5_5  and  C6_6 
REMARK    5  A    between atoms: C8_8  and  C9_9 
REMARK    6  A    between atoms: C9_9  and  C10_10 
REMARK    7  A    between atoms: C10_10  and  C11_11 
REMARK    8  A    between atoms: C11_11  and  O1_12 
REMARK    9  A    between atoms: C12_14  and  C13_15 
REMARK   10  A    between atoms: C13_15  and  C14_16 
REMARK   11  A    between atoms: C14_16  and  C15_17 
REMARK   12  A    between atoms: N1_23  and  C21_24 
REMARK   13  A    between atoms: C24_28  and  C25_29 
REMARK   14  A    between atoms: N2_30  and  O3_32 
ROOT
HETATM    1  C11 UNL     1      -0.742  -2.175  -1.070  1.00  0.00     0.039 C 
HETATM    2  C12 UNL     1      -2.017  -2.397  -0.970  1.00  0.00     0.005 C 
ENDROOT
BRANCH   1   3
HETATM    3  C10 UNL     1      -0.181  -0.897  -1.496  1.00  0.00     0.068 C 
BRANCH   3   4
HETATM    4  C9  UNL     1       0.595  -0.204  -0.431  1.00  0.00     0.034 C 
BRANCH   4   5
HETATM    5  C8  UNL     1       1.741  -1.023   0.005  1.00  0.00    -0.024 C 
HETATM    6  C6  UNL     1       2.984  -0.592  -0.228  1.00  0.00    -0.087 C 
HETATM    7  C7  UNL     1       3.166   0.669  -0.976  1.00  0.00     0.043 C 
BRANCH   6   8
HETATM    8  C5  UNL     1       4.089  -1.459   0.238  1.00  0.00     0.037 C 
BRANCH   8   9
HETATM    9  C4  UNL     1       4.982  -0.885   1.269  1.00  0.00     0.031 C 
BRANCH   9  10
HETATM   10  C3  UNL     1       5.660   0.341   0.825  1.00  0.00    -0.024 C 
HETATM   11  C2  UNL     1       6.979   0.344   0.681  1.00  0.00    -0.083 C 
HETATM   12  C1  UNL     1       7.740  -0.889   0.973  1.00  0.00     0.043 C 
BRANCH  11  13
HETATM   13  C24 UNL     1       7.640   1.601   0.229  1.00  0.00     0.080 C 
BRANCH  13  14
HETATM   14  C25 UNL     1       8.607   2.092   1.214  1.00  0.00     0.091 C 
HETATM   15  N2  UNL     1       9.063   3.291   1.110  1.00  0.00    -0.284 N 
ATOM     16  H2  UNL     1       9.736   3.632   1.796  1.00  0.00     0.192 HD
BRANCH  15  17
HETATM   17  O3  UNL     1       8.664   4.111   0.103  1.00  0.00    -0.291 OA
ATOM     18  H3  UNL     1       9.001   4.996   0.026  1.00  0.00     0.244 HD
ENDBRANCH  15  17
ENDBRANCH  13  14
ENDBRANCH  11  13
ENDBRANCH   9  10
ENDBRANCH   8   9
ENDBRANCH   6   8
ENDBRANCH   4   5
ENDBRANCH   3   4
ENDBRANCH   1   3
BRANCH   1  19
HETATM   19  O1  UNL     1       0.119  -3.245  -0.747  1.00  0.00    -0.365 OA
ATOM     20  H1  UNL     1      -0.246  -4.077  -0.470  1.00  0.00     0.217 HD
ENDBRANCH   1  19
BRANCH   2  21
HETATM   21  C13 UNL     1      -3.120  -1.461  -1.248  1.00  0.00     0.030 C 
BRANCH  21  22
HETATM   22  C14 UNL     1      -3.891  -1.299   0.044  1.00  0.00     0.019 C 
BRANCH  22  23
HETATM   23  C15 UNL     1      -5.064  -0.364  -0.066  1.00  0.00    -0.001 C 
HETATM   24  C16 UNL     1      -5.981  -0.979  -1.137  1.00  0.00     0.022 C 
HETATM   25  C17 UNL     1      -5.833  -0.452   1.202  1.00  0.00    -0.076 C 
HETATM   26  C18 UNL     1      -5.604  -1.595   2.122  1.00  0.00     0.044 C 
HETATM   27  C19 UNL     1      -6.733   0.457   1.561  1.00  0.00    -0.004 C 
HETATM   28  C20 UNL     1      -6.957   1.589   0.642  1.00  0.00     0.153 C 
HETATM   29  N1  UNL     1      -5.675   2.006   0.119  1.00  0.00    -0.350 N 
HETATM   30  C22 UNL     1      -4.746   1.024  -0.423  1.00  0.00     0.095 C 
HETATM   31  C23 UNL     1      -3.366   1.498  -0.071  1.00  0.00     0.033 C 
BRANCH  29  32
HETATM   32  C21 UNL     1      -5.353   3.385   0.147  1.00  0.00     0.351 C 
HETATM   33  O2  UNL     1      -6.169   4.213   0.617  1.00  0.00    -0.284 OA
ENDBRANCH  29  32
ENDBRANCH  22  23
ENDBRANCH  21  22
ENDBRANCH   2  21
TORSDOF 14
