REMARK  14 active torsions:
REMARK  status: ('A' for Active; 'I' for Inactive)
REMARK    1  A    between atoms: C4_4  and  C5_5 
REMARK    2  A    between atoms: C5_5  and  C6_6 
REMARK    3  A    between atoms: C6_6  and  C7_7 
REMARK    4  A    between atoms: C9_9  and  C10_10 
REMARK    5  A    between atoms: C10_10  and  C11_11 
REMARK    6  A    between atoms: C11_11  and  C12_12 
REMARK    7  A    between atoms: C14_14  and  C15_15 
REMARK    8  A    between atoms: C15_15  and  C16_16 
REMARK    9  A    between atoms: C16_16  and  C17_17 
REMARK   10  A    between atoms: C20_20  and  C21_21 
REMARK   11  A    between atoms: C20_20  and  C22_24 
REMARK   12  A    between atoms: C21_21  and  O1_22 
REMARK   13  A    between atoms: C22_24  and  O2_25 
REMARK   14  A    between atoms: O2_25  and  C23_26 
ROOT
HETATM    1  C16 UNL     1       2.321  -0.510   0.147  1.00  0.00     0.038 C 
ENDROOT
BRANCH   1   2
HETATM    2  C15 UNL     1       1.810   0.581   0.997  1.00  0.00     0.031 C 
BRANCH   2   3
HETATM    3  C14 UNL     1       0.397   0.645   1.232  1.00  0.00    -0.024 C 
HETATM    4  C12 UNL     1      -0.609  -0.035   0.777  1.00  0.00    -0.087 C 
HETATM    5  C13 UNL     1      -0.640  -1.190  -0.124  1.00  0.00     0.043 C 
BRANCH   4   6
HETATM    6  C11 UNL     1      -1.963   0.392   1.316  1.00  0.00     0.037 C 
BRANCH   6   7
HETATM    7  C10 UNL     1      -2.830   0.947   0.275  1.00  0.00     0.031 C 
BRANCH   7   8
HETATM    8  C9  UNL     1      -3.213   0.115  -0.859  1.00  0.00    -0.024 C 
HETATM    9  C7  UNL     1      -4.433  -0.323  -1.032  1.00  0.00    -0.087 C 
HETATM   10  C8  UNL     1      -4.695  -1.179  -2.256  1.00  0.00     0.043 C 
BRANCH   9  11
HETATM   11  C6  UNL     1      -5.535  -0.035  -0.121  1.00  0.00     0.037 C 
BRANCH  11  12
HETATM   12  C5  UNL     1      -6.674   0.716  -0.790  1.00  0.00     0.031 C 
BRANCH  12  13
HETATM   13  C4  UNL     1      -7.712   0.937   0.244  1.00  0.00    -0.024 C 
HETATM   14  C2  UNL     1      -8.938   0.463   0.116  1.00  0.00    -0.091 C 
HETATM   15  C1  UNL     1      -9.948   0.719   1.199  1.00  0.00     0.042 C 
HETATM   16  C3  UNL     1      -9.394  -0.326  -1.052  1.00  0.00     0.042 C 
ENDBRANCH  12  13
ENDBRANCH  11  12
ENDBRANCH   9  11
ENDBRANCH   7   8
ENDBRANCH   6   7
ENDBRANCH   4   6
ENDBRANCH   2   3
ENDBRANCH   1   2
BRANCH   1  17
HETATM   17  C17 UNL     1       3.836  -0.374  -0.039  1.00  0.00    -0.076 C 
HETATM   18  C18 UNL     1       4.622  -1.339   0.359  1.00  0.00    -0.022 C 
HETATM   19  C19 UNL     1       6.108  -1.317   0.230  1.00  0.00     0.049 C 
HETATM   20  C20 UNL     1       6.626   0.073  -0.038  1.00  0.00     0.067 C 
HETATM   21  C24 UNL     1       5.725   0.699  -1.031  1.00  0.00     0.143 C 
HETATM   22  O5  UNL     1       6.148   1.051  -2.101  1.00  0.00    -0.297 OA
HETATM   23  C25 UNL     1       4.301   0.882  -0.678  1.00  0.00     0.113 C 
BRANCH  20  24
HETATM   24  C21 UNL     1       6.603   0.934   1.188  1.00  0.00     0.183 C 
BRANCH  24  25
HETATM   25  O1  UNL     1       7.354   0.477   2.234  1.00  0.00    -0.400 OA
ATOM     26  H1  UNL     1       7.339   1.023   3.011  1.00  0.00     0.209 HD
ENDBRANCH  24  25
ENDBRANCH  20  24
BRANCH  20  27
HETATM   27  C22 UNL     1       8.011  -0.017  -0.646  1.00  0.00     0.202 C 
BRANCH  27  28
HETATM   28  O2  UNL     1       8.929  -0.662   0.184  1.00  0.00    -0.295 OA
BRANCH  28  29
HETATM   29  C23 UNL     1      10.233  -0.805  -0.265  1.00  0.00     0.332 C 
HETATM   30  O3  UNL     1      10.596  -0.365  -1.403  1.00  0.00    -0.624 OA
HETATM   31  O4  UNL     1      11.148  -1.450   0.566  1.00  0.00    -0.624 OA
ENDBRANCH  28  29
ENDBRANCH  27  28
ENDBRANCH  20  27
ENDBRANCH   1  17
TORSDOF 14
