REMARK  11 active torsions:
REMARK  status: ('A' for Active; 'I' for Inactive)
REMARK    1  A    between atoms: C2_2  and  C3_3 
REMARK    2  A    between atoms: C3_3  and  C4_4 
REMARK    3  A    between atoms: C6_7  and  O1_8 
REMARK    4  A    between atoms: C9_12  and  O2_13 
REMARK    5  A    between atoms: N1_24  and  C18_25 
REMARK    6  A    between atoms: C18_25  and  C19_26 
REMARK    7  A    between atoms: C19_26  and  N2_27 
REMARK    8  A    between atoms: N2_27  and  C21_29 
REMARK    9  A    between atoms: C21_29  and  O5_30 
REMARK   10  A    between atoms: C21_29  and  C22_32 
REMARK   11  A    between atoms: C22_32  and  O6_33 
ROOT
HETATM    1  C4  UNL     1      -3.656   0.256   0.315  1.00  0.00    -0.004 A 
HETATM    2  C5  UNL     1      -4.031  -1.068   0.263  1.00  0.00     0.053 A 
HETATM    3 BR1  UNL     1      -5.772  -1.573   0.847  1.00  0.00    -0.047 Br
HETATM    4  C6  UNL     1      -3.129  -2.028  -0.214  1.00  0.00     0.090 A 
HETATM    5  C7  UNL     1      -1.863  -1.631  -0.631  1.00  0.00    -0.014 A 
HETATM    6  C8  UNL     1      -1.518  -0.308  -0.569  1.00  0.00    -0.013 A 
HETATM    7  C9  UNL     1      -2.384   0.663  -0.103  1.00  0.00     0.083 A 
HETATM    8  C11 UNL     1      -0.175   0.111  -1.025  1.00  0.00     0.068 C 
HETATM    9  C12 UNL     1       0.805  -0.932  -0.567  1.00  0.00     0.098 C 
HETATM   10  C13 UNL     1       0.495  -2.291  -1.165  1.00  0.00     0.045 C 
HETATM   11  C14 UNL     1      -0.939  -2.646  -1.120  1.00  0.00     0.051 C 
HETATM   12  C15 UNL     1       1.297  -3.303  -0.376  1.00  0.00     0.167 A 
HETATM   13  O3  UNL     1       1.758  -2.881   0.918  1.00  0.00    -0.365 OA
HETATM   14  C16 UNL     1       2.654  -2.980  -0.137  1.00  0.00     0.243 A 
HETATM   15  C17 UNL     1       3.073  -1.752  -0.870  1.00  0.00     0.252 C 
HETATM   16  O4  UNL     1       4.218  -1.761  -1.387  1.00  0.00    -0.270 OA
HETATM   17  N1  UNL     1       2.174  -0.651  -0.949  1.00  0.00    -0.343 N 
ENDROOT
BRANCH  17  18
HETATM   18  C18 UNL     1       2.635   0.606  -1.415  1.00  0.00     0.146 C 
BRANCH  18  19
HETATM   19  C19 UNL     1       3.216   1.567  -0.442  1.00  0.00     0.144 C 
BRANCH  19  20
HETATM   20  N2  UNL     1       4.366   1.164   0.279  1.00  0.00    -0.366 N 
HETATM   21  C20 UNL     1       5.718   1.363  -0.301  1.00  0.00     0.151 C 
BRANCH  20  22
HETATM   22  C21 UNL     1       4.357   0.578   1.540  1.00  0.00     0.137 C 
BRANCH  22  23
HETATM   23  O5  UNL     1       5.525   0.179   2.013  1.00  0.00    -0.348 OA
ATOM     24  H5  UNL     1       5.519  -0.221   2.875  1.00  0.00     0.219 HD
ENDBRANCH  22  23
BRANCH  22  25
HETATM   25  C22 UNL     1       3.233   0.328   2.453  1.00  0.00     0.247 C 
BRANCH  25  26
HETATM   26  O6  UNL     1       2.042   0.927   2.193  1.00  0.00    -0.393 OA
ATOM     27  H6  UNL     1       1.315   0.765   2.783  1.00  0.00     0.210 HD
ENDBRANCH  25  26
ENDBRANCH  22  25
ENDBRANCH  20  22
ENDBRANCH  19  20
ENDBRANCH  18  19
ENDBRANCH  17  18
BRANCH   7  28
HETATM   28  O2  UNL     1      -1.984   1.988  -0.061  1.00  0.00    -0.355 OA
HETATM   29  C10 UNL     1      -1.361   2.459   1.137  1.00  0.00     0.210 C 
ENDBRANCH   7  28
BRANCH   4  30
HETATM   30  O1  UNL     1      -3.578  -3.337  -0.237  1.00  0.00    -0.359 OA
ATOM     31  H1  UNL     1      -2.966  -3.988  -0.560  1.00  0.00     0.217 HD
ENDBRANCH   4  30
BRANCH   1  32
HETATM   32  C3  UNL     1      -4.611   1.260   0.813  1.00  0.00     0.042 C 
BRANCH  32  33
HETATM   33  C2  UNL     1      -5.674   1.627  -0.177  1.00  0.00     0.000 C 
HETATM   34  C1  UNL     1      -5.014   2.202  -1.426  1.00  0.00     0.005 C 
ENDBRANCH  32  33
ENDBRANCH   1  32
TORSDOF 11
