REMARK  10 active torsions:
REMARK  status: ('A' for Active; 'I' for Inactive)
REMARK    1  A    between atoms: O1_2  and  C2_3 
REMARK    2  A    between atoms: C8_11  and  C9_12 
REMARK    3  A    between atoms: C8_11  and  O6_19 
REMARK    4  A    between atoms: C10_13  and  C11_14 
REMARK    5  A    between atoms: C11_14  and  C12_16 
REMARK    6  A    between atoms: C12_16  and  O5_17 
REMARK    7  A    between atoms: O6_19  and  C13_20 
REMARK    8  A    between atoms: C13_20  and  C14_21 
REMARK    9  A    between atoms: C15_22  and  C16_23 
REMARK   10  A    between atoms: C17_26  and  C18_27 
ROOT
HETATM    1  C2  UNL     1      -1.542  -1.070  -0.845  1.00  0.00     0.205 C 
HETATM    2  O2  UNL     1      -2.943  -0.738  -0.890  1.00  0.00    -0.316 OA
HETATM    3  C3  UNL     1      -3.094   0.205  -1.870  1.00  0.00     0.161 C 
HETATM    4  C4  UNL     1      -4.126   1.205  -1.453  1.00  0.00     0.078 C 
HETATM    5  C5  UNL     1      -3.501  -0.509  -3.153  1.00  0.00     0.078 C 
HETATM    6  O3  UNL     1      -1.822   0.796  -2.057  1.00  0.00    -0.345 OA
HETATM    7  C6  UNL     1      -1.047  -0.358  -2.064  1.00  0.00     0.192 C 
HETATM    8  C7  UNL     1       0.364   0.020  -1.702  1.00  0.00     0.090 C 
HETATM    9  C8  UNL     1       0.391   0.156  -0.171  1.00  0.00     0.139 C 
HETATM   10  C17 UNL     1      -0.993  -0.134   0.218  1.00  0.00     0.131 C 
ENDROOT
BRANCH   9  11
HETATM   11  C9  UNL     1       0.629   1.604   0.159  1.00  0.00    -0.059 C 
HETATM   12  C10 UNL     1       0.826   2.765   0.407  1.00  0.00    -0.024 C 
BRANCH  12  13
HETATM   13  C11 UNL     1       1.060   4.155   0.679  1.00  0.00     0.225 C 
HETATM   14  O4  UNL     1       1.492   4.573   1.782  1.00  0.00    -0.281 OA
BRANCH  13  15
HETATM   15  C12 UNL     1       0.772   5.116  -0.401  1.00  0.00     0.257 C 
BRANCH  15  16
HETATM   16  O5  UNL     1       1.053   6.391   0.037  1.00  0.00    -0.393 OA
ATOM     17  H5  UNL     1       0.867   7.010  -0.659  1.00  0.00     0.210 HD
ENDBRANCH  15  16
ENDBRANCH  13  15
ENDBRANCH  12  13
ENDBRANCH   9  11
BRANCH   9  18
HETATM   18  O6  UNL     1       1.407  -0.534   0.415  1.00  0.00    -0.363 OA
BRANCH  18  19
HETATM   19  C13 UNL     1       2.644  -0.110   0.022  1.00  0.00     0.197 C 
BRANCH  19  20
HETATM   20  C14 UNL     1       3.736  -0.878   0.678  1.00  0.00     0.004 C 
HETATM   21  C15 UNL     1       4.606  -1.566  -0.040  1.00  0.00     0.069 C 
BRANCH  21  22
HETATM   22  C16 UNL     1       5.676  -2.321   0.574  1.00  0.00     0.254 C 
HETATM   23  N1  UNL     1       6.583  -3.042  -0.233  1.00  0.00    -0.058 NA
HETATM   24  O7  UNL     1       5.848  -2.371   1.818  1.00  0.00    -0.272 OA
ENDBRANCH  21  22
ENDBRANCH  19  20
ENDBRANCH  18  19
ENDBRANCH   9  18
BRANCH  10  25
HETATM   25  C18 UNL     1      -1.344  -0.424   1.587  1.00  0.00    -0.045 A 
HETATM   26  C19 UNL     1      -2.481   0.209   2.131  1.00  0.00     0.009 A 
HETATM   27  C20 UNL     1      -2.880   0.001   3.426  1.00  0.00     0.019 A 
HETATM   28  C21 UNL     1      -2.175  -0.847   4.256  1.00  0.00     0.011 A 
HETATM   29 BR1  UNL     1      -2.726  -1.141   6.059  1.00  0.00    -0.051 Br
HETATM   30  C22 UNL     1      -1.058  -1.490   3.774  1.00  0.00     0.019 A 
HETATM   31  C23 UNL     1      -0.678  -1.255   2.448  1.00  0.00     0.009 A 
ENDBRANCH  10  25
BRANCH   1  32
HETATM   32  O1  UNL     1      -1.444  -2.351  -0.754  1.00  0.00    -0.357 OA
HETATM   33  C1  UNL     1      -0.462  -3.200  -0.701  1.00  0.00     0.205 C 
ENDBRANCH   1  32
TORSDOF 10
