REMARK  9 active torsions:
REMARK  status: ('A' for Active; 'I' for Inactive)
REMARK    1  A    between atoms: C2_2  and  S1_4 
REMARK    2  A    between atoms: S1_4  and  N1_7 
REMARK    3  A    between atoms: N1_7  and  C4_8 
REMARK    4  A    between atoms: N1_7  and  C9_18 
REMARK    5  A    between atoms: C4_8  and  C5_9 
REMARK    6  A    between atoms: C5_9  and  O3_10 
REMARK    7  A    between atoms: C12_21  and  N2_22 
REMARK    8  A    between atoms: N2_22  and  S3_24 
REMARK    9  A    between atoms: S3_24  and  C13_27 
ROOT
HETATM    1  N1  UNL     1      -1.960   0.154  -0.831  1.00  0.00    -0.273 N 
ENDROOT
BRANCH   1   2
HETATM    2  S1  UNL     1      -2.414   1.794  -0.655  1.00  0.00     0.236 S 
HETATM    3  O1  UNL     1      -1.661   2.607  -1.711  1.00  0.00    -0.205 OA
HETATM    4  O2  UNL     1      -3.868   2.020  -0.976  1.00  0.00    -0.205 OA
BRANCH   2   5
HETATM    5  C2  UNL     1      -2.086   2.529   0.890  1.00  0.00     0.121 C 
HETATM    6  C1  UNL     1      -2.307   4.052   0.675  1.00  0.00     0.027 C 
HETATM    7  C3  UNL     1      -3.047   2.152   1.971  1.00  0.00     0.027 C 
ENDBRANCH   2   5
ENDBRANCH   1   2
BRANCH   1   8
HETATM    8  C4  UNL     1      -2.872  -0.865  -1.195  1.00  0.00     0.180 C 
BRANCH   8   9
HETATM    9  C5  UNL     1      -3.428  -1.773  -0.146  1.00  0.00     0.088 C 
HETATM   10  C6  UNL     1      -4.160  -2.860  -0.909  1.00  0.00     0.055 C 
HETATM   11  C7  UNL     1      -4.979  -3.645   0.034  1.00  0.00     0.143 C 
HETATM   12  S2  UNL     1      -5.629  -2.389   1.109  1.00  0.00     0.147 S 
HETATM   13  O4  UNL     1      -6.933  -1.886   0.564  1.00  0.00    -0.228 OA
HETATM   14  O5  UNL     1      -5.734  -2.849   2.517  1.00  0.00    -0.228 OA
HETATM   15  C8  UNL     1      -4.324  -1.204   0.861  1.00  0.00     0.179 C 
BRANCH   9  16
HETATM   16  O3  UNL     1      -2.382  -2.464   0.514  1.00  0.00    -0.387 OA
ATOM     17  H3  UNL     1      -2.735  -3.041   1.181  1.00  0.00     0.210 HD
ENDBRANCH   9  16
ENDBRANCH   8   9
ENDBRANCH   1   8
BRANCH   1  18
HETATM   18  C9  UNL     1      -0.589  -0.146  -0.674  1.00  0.00     0.048 A 
HETATM   19  C10 UNL     1       0.216  -0.147  -1.787  1.00  0.00     0.032 A 
HETATM   20  C11 UNL     1       1.578  -0.446  -1.717  1.00  0.00     0.035 A 
HETATM   21  C12 UNL     1       2.161  -0.749  -0.527  1.00  0.00     0.081 A 
HETATM   22  C17 UNL     1       1.345  -0.750   0.615  1.00  0.00     0.145 A 
HETATM   23  F1  UNL     1       1.922  -1.051   1.795  1.00  0.00    -0.204 F 
HETATM   24  C18 UNL     1      -0.008  -0.449   0.518  1.00  0.00     0.074 A 
BRANCH  21  25
HETATM   25  N2  UNL     1       3.533  -1.082  -0.353  1.00  0.00    -0.281 N 
ATOM     26  H2  UNL     1       3.771  -1.814   0.316  1.00  0.00     0.178 HD
BRANCH  25  27
HETATM   27  S3  UNL     1       4.791  -0.327  -1.197  1.00  0.00     0.238 S 
HETATM   28  O6  UNL     1       5.676  -1.307  -1.910  1.00  0.00    -0.205 OA
HETATM   29  O7  UNL     1       4.248   0.657  -2.191  1.00  0.00    -0.205 OA
BRANCH  27  30
HETATM   30  C13 UNL     1       5.843   0.616  -0.104  1.00  0.00     0.072 C 
HETATM   31  C14 UNL     1       6.934   1.253  -0.939  1.00  0.00     0.033 C 
HETATM   32  C15 UNL     1       6.508  -0.275   0.916  1.00  0.00     0.033 C 
HETATM   33  C16 UNL     1       5.079   1.714   0.583  1.00  0.00     0.033 C 
ENDBRANCH  27  30
ENDBRANCH  25  27
ENDBRANCH  21  25
ENDBRANCH   1  18
TORSDOF 9
