REMARK  7 active torsions:
REMARK  status: ('A' for Active; 'I' for Inactive)
REMARK    1  A    between atoms: O1_2  and  C2_3 
REMARK    2  A    between atoms: C4_5  and  C5_6 
REMARK    3  A    between atoms: C5_6  and  N1_7 
REMARK    4  A    between atoms: N2_10  and  C7_11 
REMARK    5  A    between atoms: C12_19  and  C13_20 
REMARK    6  A    between atoms: C13_20  and  C14_21 
REMARK    7  A    between atoms: C19_30  and  O6_31 
ROOT
HETATM    1  N1  UNL     1      -0.256   1.161   0.837  1.00  0.00    -0.311 N 
HETATM    2  C6  UNL     1      -0.426   2.481   0.369  1.00  0.00     0.327 C 
HETATM    3  O2  UNL     1       0.340   3.434   0.672  1.00  0.00    -0.247 OA
HETATM    4  N2  UNL     1      -1.553   2.609  -0.477  1.00  0.00    -0.282 N 
HETATM    5  C10 UNL     1      -2.108   1.313  -0.536  1.00  0.00     0.121 C 
HETATM    6  N3  UNL     1      -3.186   0.794  -1.015  1.00  0.00    -0.314 N 
ATOM      7  H3  UNL     1      -3.859   1.401  -1.484  1.00  0.00     0.170 HD
HETATM    8  C11 UNL     1      -3.470  -0.599  -0.912  1.00  0.00     0.234 C 
HETATM    9  O3  UNL     1      -3.997  -1.174  -1.879  1.00  0.00    -0.272 OA
HETATM   10  C12 UNL     1      -3.121  -1.287   0.351  1.00  0.00     0.158 C 
HETATM   11  C15 UNL     1      -2.058  -0.487   1.007  1.00  0.00     0.170 C 
HETATM   12  O5  UNL     1      -1.928  -0.511   2.194  1.00  0.00    -0.294 OA
HETATM   13  C16 UNL     1      -1.188   0.325   0.135  1.00  0.00     0.227 C 
ENDROOT
BRANCH   1  14
HETATM   14  C5  UNL     1       0.731   0.760   1.856  1.00  0.00     0.167 C 
BRANCH  14  15
HETATM   15  C4  UNL     1       2.006   0.415   1.147  1.00  0.00    -0.036 A 
HETATM   16  C3  UNL     1       2.085  -0.787   0.470  1.00  0.00     0.048 A 
HETATM   17  C2  UNL     1       3.235  -1.162  -0.198  1.00  0.00     0.103 A 
HETATM   18  C19 UNL     1       4.304  -0.287  -0.162  1.00  0.00     0.118 A 
HETATM   19  C18 UNL     1       4.264   0.921   0.503  1.00  0.00     0.047 A 
HETATM   20  C17 UNL     1       3.108   1.275   1.162  1.00  0.00     0.031 A 
HETATM   21 BR1  UNL     1       5.776   2.108   0.528  1.00  0.00    -0.048 Br
BRANCH  17  22
HETATM   22  O1  UNL     1       3.385  -2.341  -0.892  1.00  0.00    -0.353 OA
HETATM   23  C1  UNL     1       2.403  -3.332  -1.029  1.00  0.00     0.210 C 
ENDBRANCH  17  22
BRANCH  18  24
HETATM   24  O6  UNL     1       5.497  -0.606  -0.817  1.00  0.00    -0.352 OA
HETATM   25  C20 UNL     1       6.456  -1.316  -0.057  1.00  0.00     0.210 C 
ENDBRANCH  18  24
ENDBRANCH  14  15
ENDBRANCH   1  14
BRANCH   4  26
HETATM   26  C7  UNL     1      -2.050   3.817  -1.149  1.00  0.00     0.088 C 
HETATM   27  C8  UNL     1      -3.417   4.135  -0.638  1.00  0.00     0.032 C 
HETATM   28  C9  UNL     1      -1.982   3.641  -2.635  1.00  0.00     0.032 C 
ENDBRANCH   4  26
BRANCH  10  29
HETATM   29  C13 UNL     1      -2.655  -2.684   0.005  1.00  0.00     0.121 C 
BRANCH  29  30
HETATM   30  C14 UNL     1      -2.292  -3.430   1.232  1.00  0.00     0.232 C 
HETATM   31  N4  UNL     1      -3.225  -4.313   1.828  1.00  0.00    -0.062 NA
HETATM   32  O4  UNL     1      -1.142  -3.242   1.705  1.00  0.00    -0.277 OA
ENDBRANCH  29  30
ENDBRANCH  10  29
TORSDOF 7
