REMARK  1 active torsions:
REMARK  status: ('A' for Active; 'I' for Inactive)
REMARK    1  A    between atoms: N1_4  and  C4_5 
ROOT
HETATM    1  C4  UNL     1       0.863  -0.320  -0.084  1.00  0.00     0.142 C 
HETATM    2  N2  UNL     1       1.528  -0.386   0.992  1.00  0.00    -0.350 N 
ATOM      3  H2  UNL     1       1.037  -0.438   1.884  1.00  0.00     0.167 HD
HETATM    4  C5  UNL     1       2.922  -0.388   0.973  1.00  0.00     0.073 C 
HETATM    5  C6  UNL     1       3.471   0.287  -0.266  1.00  0.00     0.127 C 
HETATM    6  S1  UNL     1       2.100  -0.228  -1.393  1.00  0.00    -0.089 SA
ENDROOT
BRANCH   1   7
HETATM    7  N1  UNL     1      -0.534  -0.306  -0.280  1.00  0.00    -0.362 N 
HETATM    8  C3  UNL     1      -1.283   0.442  -1.262  1.00  0.00     0.125 C 
HETATM    9  C2  UNL     1      -2.322   1.095  -0.374  1.00  0.00     0.021 C 
HETATM   10  C1  UNL     1      -2.720  -0.069   0.512  1.00  0.00     0.021 C 
HETATM   11  C7  UNL     1      -1.532  -1.041   0.462  1.00  0.00     0.125 C 
ENDBRANCH   1   7
TORSDOF 1
