REMARK  0 active torsions:
REMARK  status: ('A' for Active; 'I' for Inactive)
ROOT
HETATM    1  C1  UNL     1      -2.159  -0.198  -0.566  1.00  0.00     0.038 C 
HETATM    2  C2  UNL     1      -1.287  -0.985   0.419  1.00  0.00     0.143 C 
HETATM    3  N1  UNL     1      -0.002  -0.520   0.117  1.00  0.00    -0.324 N 
HETATM    4  C3  UNL     1       1.099  -1.181   0.610  1.00  0.00     0.088 C 
HETATM    5  C4  UNL     1       2.411  -0.717   0.095  1.00  0.00     0.121 C 
HETATM    6  S1  UNL     1       2.491   1.087   0.439  1.00  0.00    -0.148 SA
HETATM    7  C5  UNL     1       0.853   1.685  -0.134  1.00  0.00     0.187 C 
HETATM    8  N2  UNL     1       0.030   0.599  -0.582  1.00  0.00    -0.221 NA
HETATM    9  C6  UNL     1      -1.336   1.097  -0.630  1.00  0.00     0.116 C 
ENDROOT
TORSDOF 0
