REMARK  2 active torsions:
REMARK  status: ('A' for Active; 'I' for Inactive)
REMARK    1  A    between atoms: C3_3  and  C4_4 
REMARK    2  A    between atoms: C10_14  and  N2_15 
ROOT
HETATM    1  C4  UNL     1       0.327  -0.389   0.379  1.00  0.00     0.046 C 
HETATM    2  C5  UNL     1       0.601  -1.264  -0.812  1.00  0.00     0.074 C 
HETATM    3  C6  UNL     1      -0.628  -1.648  -1.536  1.00  0.00     0.041 C 
HETATM    4  N1  UNL     1      -0.634  -2.723  -2.218  1.00  0.00    -0.397 N 
ATOM      5  H11 UNL     1      -1.483  -2.988  -2.718  1.00  0.00     0.156 HD
ATOM      6  H12 UNL     1       0.226  -3.272  -2.229  1.00  0.00     0.156 HD
HETATM    7  S1  UNL     1      -2.133  -0.687  -1.517  1.00  0.00    -0.106 SA
HETATM    8  C7  UNL     1      -2.006   0.423  -0.064  1.00  0.00     0.035 C 
HETATM    9  C8  UNL     1      -2.519  -0.359   1.106  1.00  0.00     0.029 C 
HETATM   10  C9  UNL     1      -2.820   1.667  -0.248  1.00  0.00     0.029 C 
HETATM   11  C10 UNL     1      -0.560   0.789   0.029  1.00  0.00     0.209 C 
ENDROOT
BRANCH  11  12
HETATM   12  N2  UNL     1      -0.167   1.321  -1.263  1.00  0.00    -0.073 N 
ATOM     13  H23 UNL     1       0.824   1.560  -1.297  1.00  0.00     0.274 HD
ATOM     14  H22 UNL     1      -0.169   0.607  -1.991  1.00  0.00     0.274 HD
ATOM     15  H21 UNL     1      -0.764   2.114  -1.499  1.00  0.00     0.274 HD
ENDBRANCH  11  12
BRANCH   1  16
HETATM   16  C3  UNL     1       1.555   0.092   1.035  1.00  0.00    -0.024 C 
HETATM   17  C2  UNL     1       2.784  -0.108   0.586  1.00  0.00    -0.034 C 
HETATM   18  C1  UNL     1       4.012   0.380   1.253  1.00  0.00     0.036 C 
ENDBRANCH   1  16
TORSDOF 2
