REMARK  2 active torsions:
REMARK  status: ('A' for Active; 'I' for Inactive)
REMARK    1  A    between atoms: N1_6  and  S1_7 
REMARK    2  A    between atoms: S1_7  and  C6_8 
ROOT
HETATM    1  C1  UNL     1      -3.464  -0.637  -0.514  1.00  0.00     0.010 C 
HETATM    2  C2  UNL     1      -2.169  -0.014  -0.038  1.00  0.00    -0.017 C 
HETATM    3  C3  UNL     1      -1.368   0.352  -1.261  1.00  0.00     0.005 C 
HETATM    4  C4  UNL     1      -0.453   1.488  -0.885  1.00  0.00     0.016 C 
HETATM    5  C5  UNL     1       0.293   1.158   0.405  1.00  0.00     0.103 C 
HETATM    6  N1  UNL     1       0.866  -0.155   0.387  1.00  0.00    -0.252 NA
HETATM    7  C7  UNL     1      -0.048  -1.225   0.529  1.00  0.00     0.103 C 
HETATM    8  C8  UNL     1      -1.432  -0.838   0.951  1.00  0.00     0.019 C 
ENDROOT
BRANCH   6   9
HETATM    9  S1  UNL     1       2.177  -0.191   1.574  1.00  0.00    -0.009 SA
BRANCH   9  10
HETATM   10  C6  UNL     1       3.736  -0.093   0.669  1.00  0.00     0.163 C 
HETATM   11  N2  UNL     1       4.839  -0.103   1.329  1.00  0.00    -0.381 N 
ATOM     12  H22 UNL     1       4.818  -0.165   2.347  1.00  0.00     0.157 HD
ATOM     13  H21 UNL     1       5.720  -0.048   0.818  1.00  0.00     0.157 HD
HETATM   14  N3  UNL     1       3.765  -0.007  -0.745  1.00  0.00    -0.074 NA
ENDBRANCH   9  10
ENDBRANCH   6   9
TORSDOF 2
