REMARK  2 active torsions:
REMARK  status: ('A' for Active; 'I' for Inactive)
REMARK    1  A    between atoms: C2_2  and  C3_3 
REMARK    2  A    between atoms: N2_6  and  O1_7 
ROOT
HETATM    1  C3  UNL     1       1.064  -0.085   0.468  1.00  0.00     0.055 C 
HETATM    2  C4  UNL     1       1.944   1.144   0.384  1.00  0.00     0.140 C 
HETATM    3  N1  UNL     1       1.002   2.203   0.714  1.00  0.00    -0.136 NA
HETATM    4  N2  UNL     1      -0.164   1.852   0.041  1.00  0.00    -0.075 NA
HETATM    5  C5  UNL     1      -0.291   0.405   0.177  1.00  0.00     0.160 C 
HETATM    6  C6  UNL     1      -0.970  -0.134  -1.022  1.00  0.00     0.059 C 
HETATM    7  C7  UNL     1      -1.920  -1.245  -0.556  1.00  0.00     0.006 C 
HETATM    8  C8  UNL     1      -3.047  -0.520   0.151  1.00  0.00     0.026 C 
HETATM    9  C9  UNL     1      -2.419   0.495   1.069  1.00  0.00     0.170 C 
HETATM   10  O2  UNL     1      -1.083   0.206   1.329  1.00  0.00    -0.361 OA
ENDROOT
BRANCH   1  11
HETATM   11  C2  UNL     1       1.560  -1.200  -0.406  1.00  0.00     0.006 C 
HETATM   12  C1  UNL     1       2.956  -1.641  -0.028  1.00  0.00     0.006 C 
ENDBRANCH   1  11
BRANCH   4  13
HETATM   13  O1  UNL     1      -0.221   2.272  -1.216  1.00  0.00    -0.294 OA
ATOM     14  H1  UNL     1      -1.017   2.032  -1.676  1.00  0.00     0.238 HD
ENDBRANCH   4  13
TORSDOF 2
