REMARK  1 active torsions:
REMARK  status: ('A' for Active; 'I' for Inactive)
REMARK    1  A    between atoms: C2_2  and  C3_3 
ROOT
HETATM    1  C3  UNL     1       1.402  -0.487  -0.333  1.00  0.00     0.130 C 
HETATM    2  C4  UNL     1       0.239  -0.850   0.531  1.00  0.00     0.044 C 
HETATM    3  C5  UNL     1      -1.077  -0.350  -0.007  1.00  0.00    -0.015 C 
HETATM    4  C6  UNL     1      -2.202  -0.827   0.908  1.00  0.00     0.011 C 
HETATM    5  C7  UNL     1      -3.038  -1.018  -0.361  1.00  0.00     0.002 C 
HETATM    6  C8  UNL     1      -1.699  -1.200  -1.090  1.00  0.00     0.011 C 
HETATM    7  C9  UNL     1      -1.092   1.111  -0.281  1.00  0.00     0.175 C 
HETATM    8  C10 UNL     1      -1.669   1.856   0.841  1.00  0.00     0.073 C 
HETATM    9  N1  UNL     1      -2.113   2.455   1.727  1.00  0.00    -0.196 NA
HETATM   10  C11 UNL     1       0.262   1.616  -0.586  1.00  0.00     0.130 C 
HETATM   11  N2  UNL     1       0.511   2.871  -0.437  1.00  0.00    -0.382 N 
ATOM     12  H21 UNL     1       1.446   3.220  -0.648  1.00  0.00     0.158 HD
ATOM     13  H22 UNL     1      -0.201   3.526  -0.114  1.00  0.00     0.158 HD
HETATM   14  O1  UNL     1       1.221   0.733  -1.021  1.00  0.00    -0.333 OA
ENDROOT
BRANCH   1  15
HETATM   15  C2  UNL     1       2.599  -0.265   0.601  1.00  0.00     0.028 C 
HETATM   16  C1  UNL     1       3.836   0.109  -0.166  1.00  0.00     0.007 C 
ENDBRANCH   1  15
TORSDOF 1
