REMARK  3 active torsions:
REMARK  status: ('A' for Active; 'I' for Inactive)
REMARK    1  A    between atoms: C2_2  and  C3_3 
REMARK    2  A    between atoms: C3_3  and  N1_4 
REMARK    3  A    between atoms: N1_4  and  C4_6 
ROOT
HETATM    1  C4  UNL     1       0.667   0.093  -0.153  1.00  0.00     0.123 A 
HETATM    2  N2  UNL     1       0.088  -1.128  -0.055  1.00  0.00    -0.338 N 
ATOM      3  H2  UNL     1       0.586  -2.017  -0.100  1.00  0.00     0.167 HD
HETATM    4  C5  UNL     1      -1.235  -0.996   0.110  1.00  0.00     0.089 A 
HETATM    5  C6  UNL     1      -2.263  -1.904   0.258  1.00  0.00     0.182 A 
HETATM    6  F1  UNL     1      -2.020  -3.223   0.254  1.00  0.00    -0.200 F 
HETATM    7  C7  UNL     1      -3.579  -1.476   0.417  1.00  0.00     0.164 A 
HETATM    8  F2  UNL     1      -4.582  -2.349   0.561  1.00  0.00    -0.202 F 
HETATM    9  C8  UNL     1      -3.866  -0.129   0.427  1.00  0.00     0.003 A 
HETATM   10  C9  UNL     1      -5.280   0.353   0.596  1.00  0.00     0.053 C 
HETATM   11  C10 UNL     1      -2.820   0.748   0.277  1.00  0.00     0.057 A 
HETATM   12 CL1  UNL     1      -3.173   2.456   0.288  1.00  0.00    -0.083 Cl
HETATM   13  C11 UNL     1      -1.507   0.365   0.117  1.00  0.00     0.041 A 
HETATM   14  C12 UNL     1      -0.311   1.058  -0.048  1.00  0.00     0.102 A 
HETATM   15  C13 UNL     1      -0.170   2.484  -0.094  1.00  0.00     0.104 C 
HETATM   16  N3  UNL     1      -0.042   3.636  -0.129  1.00  0.00    -0.191 NA
ENDROOT
BRANCH   1  17
HETATM   17  N1  UNL     1       2.045   0.390  -0.334  1.00  0.00    -0.375 N 
ATOM     18  H1  UNL     1       2.363   1.357  -0.394  1.00  0.00     0.161 HD
BRANCH  17  19
HETATM   19  C3  UNL     1       2.992  -0.705  -0.432  1.00  0.00     0.121 C 
BRANCH  19  20
HETATM   20  C2  UNL     1       4.400  -0.229  -0.620  1.00  0.00     0.015 C 
HETATM   21  C1  UNL     1       4.779   0.635   0.580  1.00  0.00     0.006 C 
ENDBRANCH  19  20
ENDBRANCH  17  19
ENDBRANCH   1  17
TORSDOF 3
