REMARK  3 active torsions:
REMARK  status: ('A' for Active; 'I' for Inactive)
REMARK    1  A    between atoms: C2_3  and  O1_4 
REMARK    2  A    between atoms: O1_4  and  C3_5 
REMARK    3  A    between atoms: C3_5  and  C4_6 
ROOT
HETATM    1  N1  UNL     1       0.177  -2.652  -0.120  1.00  0.00    -0.097 NA
HETATM    2  C1  UNL     1      -0.154  -1.286  -0.035  1.00  0.00     0.109 A 
HETATM    3  C2  UNL     1       0.708  -0.239  -0.174  1.00  0.00     0.168 A 
HETATM    4  N2  UNL     1      -0.025   0.879  -0.021  1.00  0.00    -0.333 N 
ATOM      5  H2  UNL     1       0.352   1.825  -0.074  1.00  0.00     0.168 HD
HETATM    6  C5  UNL     1      -1.318   0.591   0.210  1.00  0.00     0.070 A 
HETATM    7  C6  UNL     1      -2.453   1.371   0.431  1.00  0.00     0.083 A 
HETATM    8 CL2  UNL     1      -2.301   3.129   0.434  1.00  0.00    -0.080 Cl
HETATM    9  C7  UNL     1      -3.687   0.794   0.646  1.00  0.00     0.058 A 
HETATM   10 CL3  UNL     1      -5.052   1.847   0.914  1.00  0.00    -0.082 Cl
HETATM   11  C8  UNL     1      -3.775  -0.573   0.638  1.00  0.00     0.026 A 
HETATM   12  C9  UNL     1      -2.652  -1.359   0.419  1.00  0.00     0.017 A 
HETATM   13  C10 UNL     1      -1.426  -0.777   0.206  1.00  0.00     0.021 A 
ENDROOT
BRANCH   3  14
HETATM   14  O1  UNL     1       2.093  -0.284  -0.427  1.00  0.00    -0.333 OA
BRANCH  14  15
HETATM   15  C3  UNL     1       2.815   0.929  -0.538  1.00  0.00     0.192 C 
BRANCH  15  16
HETATM   16  C4  UNL     1       4.271   0.572  -0.810  1.00  0.00     0.141 C 
HETATM   17 CL1  UNL     1       5.269   2.026  -0.966  1.00  0.00    -0.128 Cl
ENDBRANCH  15  16
ENDBRANCH  14  15
ENDBRANCH   3  14
TORSDOF 3
