REMARK  5 active torsions:
REMARK  status: ('A' for Active; 'I' for Inactive)
REMARK    1  A    between atoms: C4_4  and  C5_5 
REMARK    2  A    between atoms: C5_5  and  C6_6 
REMARK    3  A    between atoms: C6_6  and  N1_7 
REMARK    4  A    between atoms: C6_6  and  C7_11 
REMARK    5  A    between atoms: C9_13  and  C10_14 
ROOT
HETATM    1  C6  UNL     1       1.025  -0.570  -0.255  1.00  0.00     0.237 C 
ENDROOT
BRANCH   1   2
HETATM    2  C5  UNL     1       1.736   0.745  -0.174  1.00  0.00     0.079 C 
BRANCH   2   3
HETATM    3  C4  UNL     1       3.066   0.623   0.484  1.00  0.00    -0.039 A 
HETATM    4  C3  UNL     1       4.269   0.362  -0.145  1.00  0.00     0.033 A 
HETATM    5  C2  UNL     1       5.288   0.320   0.778  1.00  0.00     0.005 A 
HETATM    6  C1  UNL     1       6.748   0.064   0.514  1.00  0.00     0.068 C 
HETATM    7  N3  UNL     1       4.715   0.555   1.972  1.00  0.00    -0.369 N 
HETATM    8  C16 UNL     1       3.383   0.741   1.830  1.00  0.00     0.095 A 
ATOM      9  H3  UNL     1       5.215   0.588   2.860  1.00  0.00     0.165 HD
ENDBRANCH   2   3
ENDBRANCH   1   2
BRANCH   1  10
HETATM   10  N1  UNL     1       1.777  -1.555  -1.013  1.00  0.00    -0.069 N 
ATOM     11  H13 UNL     1       2.012  -1.205  -1.942  1.00  0.00     0.275 HD
ATOM     12  H12 UNL     1       2.719  -1.668  -0.639  1.00  0.00     0.275 HD
ATOM     13  H11 UNL     1       1.293  -2.451  -1.068  1.00  0.00     0.275 HD
ENDBRANCH   1  10
BRANCH   1  14
HETATM   14  C7  UNL     1      -0.312  -0.331  -0.864  1.00  0.00     0.040 A 
HETATM   15  C8  UNL     1      -1.430  -0.273  -0.045  1.00  0.00     0.036 A 
HETATM   16  C9  UNL     1      -2.691  -0.054  -0.564  1.00  0.00    -0.026 A 
HETATM   17  C14 UNL     1      -2.772   0.102  -1.925  1.00  0.00     0.056 A 
HETATM   18 CL1  UNL     1      -4.330   0.375  -2.604  1.00  0.00    -0.082 Cl
HETATM   19  C15 UNL     1      -1.651   0.045  -2.745  1.00  0.00     0.112 A 
HETATM   20  N2  UNL     1      -0.444  -0.169  -2.208  1.00  0.00    -0.366 N 
ATOM     21  H2  UNL     1       0.379  -0.211  -2.808  1.00  0.00     0.165 HD
BRANCH  16  22
HETATM   22  C10 UNL     1      -3.817   0.001   0.308  1.00  0.00    -0.022 C 
HETATM   23  C11 UNL     1      -4.637   1.232   0.374  1.00  0.00     0.019 C 
HETATM   24  C12 UNL     1      -3.360  -0.304   1.735  1.00  0.00     0.019 C 
HETATM   25  C13 UNL     1      -4.772  -1.134  -0.084  1.00  0.00     0.019 C 
ENDBRANCH  16  22
ENDBRANCH   1  14
TORSDOF 5
