REMARK  3 active torsions:
REMARK  status: ('A' for Active; 'I' for Inactive)
REMARK    1  A    between atoms: C2_2  and  C3_3 
REMARK    2  A    between atoms: C5_7  and  N2_8 
REMARK       I    between atoms: N2_8  and  C6_10 
REMARK       I    between atoms: C6_10  and  N3_12 
REMARK    3  A    between atoms: N3_12  and  C7_14 
ROOT
HETATM    1  N2  UNL     1       0.507  -0.642   0.578  1.00  0.00    -0.294 N 
ATOM      2  H2  UNL     1       0.345  -1.207   1.411  1.00  0.00     0.172 HD
HETATM    3  C6  UNL     1      -0.606  -0.067  -0.015  1.00  0.00     0.322 C 
HETATM    4  O1  UNL     1      -0.480   0.635  -1.039  1.00  0.00    -0.247 OA
HETATM    5  N3  UNL     1      -1.895  -0.257   0.517  1.00  0.00    -0.338 N 
ATOM      6  H3  UNL     1      -1.995  -0.830   1.355  1.00  0.00     0.164 HD
ENDROOT
BRANCH   1   7
HETATM    7  C5  UNL     1       1.847  -0.520   0.138  1.00  0.00     0.116 A 
HETATM    8  N1  UNL     1       2.122   0.215  -0.954  1.00  0.00    -0.351 N 
HETATM    9  C4  UNL     1       3.379   0.373  -1.427  1.00  0.00     0.098 A 
ATOM     10  H1  UNL     1       1.353   0.671  -1.445  1.00  0.00     0.166 HD
HETATM   11  C3  UNL     1       4.434  -0.236  -0.775  1.00  0.00    -0.021 A 
HETATM   12  C15 UNL     1       4.185  -0.991   0.341  1.00  0.00     0.051 A 
HETATM   13  C13 UNL     1       2.892  -1.122   0.782  1.00  0.00     0.004 A 
HETATM   14 CL1  UNL     1       5.483  -1.798   1.219  1.00  0.00    -0.083 Cl
HETATM   15  C14 UNL     1       2.550  -1.924   1.980  1.00  0.00     0.054 C 
BRANCH  11  16
HETATM   16  C2  UNL     1       5.817  -0.065  -1.290  1.00  0.00     0.037 C 
HETATM   17  C1  UNL     1       6.523   0.928  -0.390  1.00  0.00     0.010 C 
ENDBRANCH  11  16
ENDBRANCH   1   7
BRANCH   5  18
HETATM   18  C7  UNL     1      -3.094   0.326  -0.072  1.00  0.00     0.086 C 
HETATM   19  C8  UNL     1      -4.077  -0.755  -0.394  1.00  0.00     0.025 C 
HETATM   20  C9  UNL     1      -5.348  -0.168  -0.948  1.00  0.00     0.002 C 
HETATM   21  C10 UNL     1      -5.902   0.798   0.079  1.00  0.00     0.000 C 
HETATM   22  C11 UNL     1      -4.885   1.928   0.250  1.00  0.00     0.002 C 
HETATM   23  C12 UNL     1      -3.686   1.309   0.935  1.00  0.00     0.025 C 
ENDBRANCH   5  18
TORSDOF 3
