REMARK  3 active torsions:
REMARK  status: ('A' for Active; 'I' for Inactive)
REMARK    1  A    between atoms: C2_2  and  N1_4 
REMARK       I    between atoms: N1_4  and  C4_6 
REMARK       I    between atoms: C4_6  and  N2_8 
REMARK    2  A    between atoms: N2_8  and  C5_10 
REMARK    3  A    between atoms: C5_10  and  C6_11 
ROOT
HETATM    1  C6  UNL     1      -0.213  -0.747  -1.191  1.00  0.00     0.142 C 
HETATM    2  C7  UNL     1      -1.318  -1.455  -1.973  1.00  0.00     0.057 C 
HETATM    3  C8  UNL     1      -2.320  -1.674  -0.831  1.00  0.00     0.119 C 
HETATM    4 CL1  UNL     1      -1.919  -3.101   0.109  1.00  0.00    -0.122 Cl
HETATM    5  C9  UNL     1      -2.142  -0.372  -0.075  1.00  0.00     0.078 C 
HETATM    6  C10 UNL     1      -3.075   0.616  -0.716  1.00  0.00     0.040 C 
HETATM    7  C11 UNL     1      -4.502   0.475  -0.238  1.00  0.00     0.003 C 
HETATM    8  C12 UNL     1      -4.458   0.754   1.251  1.00  0.00     0.000 C 
HETATM    9  C13 UNL     1      -3.761  -0.440   1.861  1.00  0.00     0.003 C 
HETATM   10  C14 UNL     1      -2.359  -0.613   1.364  1.00  0.00     0.040 C 
HETATM   11  O2  UNL     1      -0.857   0.071  -0.282  1.00  0.00    -0.372 OA
ENDROOT
BRANCH   1  12
HETATM   12  C5  UNL     1       0.665   0.051  -2.088  1.00  0.00     0.156 C 
BRANCH  12  13
HETATM   13  N2  UNL     1       1.652   0.761  -1.353  1.00  0.00    -0.341 N 
HETATM   14  C4  UNL     1       2.633   0.109  -0.572  1.00  0.00     0.316 C 
HETATM   15  N1  UNL     1       3.590   0.874   0.158  1.00  0.00    -0.339 N 
HETATM   16  O1  UNL     1       2.647  -1.142  -0.533  1.00  0.00    -0.247 OA
ATOM     17  H1  UNL     1       3.542   1.891   0.099  1.00  0.00     0.164 HD
ATOM     18  H2  UNL     1       1.653   1.780  -1.390  1.00  0.00     0.164 HD
BRANCH  15  19
HETATM   19  C2  UNL     1       4.614   0.289   0.970  1.00  0.00     0.078 C 
HETATM   20  C1  UNL     1       4.573   0.749   2.407  1.00  0.00     0.032 C 
HETATM   21  C3  UNL     1       5.956   0.736   0.387  1.00  0.00     0.032 C 
ENDBRANCH  15  19
ENDBRANCH  12  13
ENDBRANCH   1  12
TORSDOF 3
