REMARK  5 active torsions:
REMARK  status: ('A' for Active; 'I' for Inactive)
REMARK    1  A    between atoms: C3_3  and  C4_4 
REMARK    2  A    between atoms: C4_4  and  O1_6 
REMARK    3  A    between atoms: C4_4  and  C6_8 
REMARK    4  A    between atoms: C6_8  and  C7_9 
REMARK    5  A    between atoms: C8_12  and  C9_13 
ROOT
HETATM    1  C1  UNL     1       2.499  -1.968   2.996  1.00  0.00     0.112 C 
HETATM    2  C2  UNL     1       2.848  -1.328   1.719  1.00  0.00    -0.108 C 
HETATM    3  C3  UNL     1       3.134  -0.794   0.675  1.00  0.00    -0.069 C 
ENDROOT
BRANCH   3   4
HETATM    4  C4  UNL     1       3.479  -0.138  -0.610  1.00  0.00     0.122 C 
HETATM    5  C5  UNL     1       4.942   0.314  -0.495  1.00  0.00     0.061 C 
BRANCH   4   6
HETATM    6  O1  UNL     1       3.432  -1.040  -1.647  1.00  0.00    -0.378 OA
ATOM      7  H1  UNL     1       3.653  -0.620  -2.470  1.00  0.00     0.211 HD
ENDBRANCH   4   6
BRANCH   4   8
HETATM    8  C6  UNL     1       2.630   1.070  -0.827  1.00  0.00     0.110 C 
BRANCH   8   9
HETATM    9  C7  UNL     1       1.181   0.816  -0.880  1.00  0.00     0.044 A 
HETATM   10  N1  UNL     1       0.311   1.072   0.140  1.00  0.00    -0.336 N 
HETATM   11  C8  UNL     1      -0.920   0.720  -0.239  1.00  0.00     0.175 A 
ATOM     12  H1  UNL     1       0.561   1.468   1.046  1.00  0.00     0.168 HD
HETATM   13  O2  UNL     1      -0.826   0.266  -1.440  1.00  0.00    -0.294 OA
HETATM   14  C15 UNL     1       0.402   0.292  -1.893  1.00  0.00     0.074 A 
HETATM   15  C16 UNL     1       0.885  -0.146  -3.217  1.00  0.00     0.079 C 
BRANCH  11  16
HETATM   16  C9  UNL     1      -2.115   0.858   0.617  1.00  0.00     0.090 A 
HETATM   17  N2  UNL     1      -2.164   1.337   1.863  1.00  0.00    -0.361 N 
HETATM   18  C10 UNL     1      -3.437   1.296   2.295  1.00  0.00     0.095 A 
ATOM     19  H2  UNL     1      -1.366   1.678   2.399  1.00  0.00     0.165 HD
HETATM   20  C11 UNL     1      -4.225   0.777   1.300  1.00  0.00    -0.038 A 
HETATM   21  C12 UNL     1      -5.694   0.534   1.297  1.00  0.00     0.050 C 
HETATM   22  C13 UNL     1      -3.387   0.502   0.244  1.00  0.00    -0.024 A 
HETATM   23  C14 UNL     1      -3.770  -0.081  -1.086  1.00  0.00     0.051 C 
ENDBRANCH  11  16
ENDBRANCH   8   9
ENDBRANCH   4   8
ENDBRANCH   3   4
TORSDOF 5
