REMARK  4 active torsions:
REMARK  status: ('A' for Active; 'I' for Inactive)
REMARK    1  A    between atoms: C2_2  and  C3_3 
REMARK    2  A    between atoms: C13_18  and  C14_19 
REMARK    3  A    between atoms: C14_19  and  C16_21 
REMARK    4  A    between atoms: C16_21  and  O1_22 
ROOT
HETATM    1  C3  UNL     1      -1.398   1.084   0.136  1.00  0.00    -0.022 C 
HETATM    2  C4  UNL     1      -1.381   2.470   0.307  1.00  0.00     0.037 C 
HETATM    3  C5  UNL     1      -0.386   3.362  -0.125  1.00  0.00     0.006 C 
HETATM    4  C6  UNL     1      -0.740   4.784  -0.302  1.00  0.00     0.068 C 
HETATM    5  N1  UNL     1       0.898   3.073  -0.410  1.00  0.00    -0.359 N 
ATOM      6  H1  UNL     1       1.457   3.860  -0.739  1.00  0.00     0.166 HD
HETATM    7  C7  UNL     1       1.555   1.902  -0.326  1.00  0.00     0.049 A 
HETATM    8  C8  UNL     1       2.923   2.011  -0.476  1.00  0.00     0.073 A 
HETATM    9  C9  UNL     1       3.696   0.868  -0.406  1.00  0.00     0.126 A 
HETATM   10  F1  UNL     1       5.028   0.961  -0.548  1.00  0.00    -0.205 F 
HETATM   11  C10 UNL     1       3.130  -0.375  -0.191  1.00  0.00     0.004 A 
HETATM   12  C11 UNL     1       3.931  -1.608  -0.117  1.00  0.00     0.054 C 
HETATM   13  C12 UNL     1       1.747  -0.473  -0.042  1.00  0.00     0.055 A 
HETATM   14  N2  UNL     1       0.916  -1.497   0.175  1.00  0.00    -0.357 N 
ATOM     15  H2  UNL     1       1.222  -2.465   0.269  1.00  0.00     0.166 HD
HETATM   16  C13 UNL     1      -0.385  -1.103   0.256  1.00  0.00     0.027 A 
HETATM   17  C17 UNL     1      -0.326   0.267   0.073  1.00  0.00     0.012 A 
HETATM   18  C18 UNL     1       1.013   0.662  -0.115  1.00  0.00     0.031 A 
ENDROOT
BRANCH  16  19
HETATM   19  C14 UNL     1      -1.508  -2.014   0.421  1.00  0.00     0.056 C 
HETATM   20  C15 UNL     1      -0.900  -3.254   1.159  1.00  0.00     0.018 C 
BRANCH  19  21
HETATM   21  C16 UNL     1      -1.914  -2.761  -0.846  1.00  0.00     0.174 C 
BRANCH  21  22
HETATM   22  O1  UNL     1      -0.824  -3.495  -1.279  1.00  0.00    -0.400 OA
ATOM     23  H1  UNL     1      -1.077  -3.960  -2.068  1.00  0.00     0.209 HD
ENDBRANCH  21  22
ENDBRANCH  19  21
ENDBRANCH  16  19
BRANCH   1  24
HETATM   24  C2  UNL     1      -2.692   0.528   0.066  1.00  0.00     0.002 C 
HETATM   25  C1  UNL     1      -3.617   0.931   0.945  1.00  0.00     0.012 C 
ENDBRANCH   1  24
TORSDOF 4
