REMARK  10 active torsions:
REMARK  status: ('A' for Active; 'I' for Inactive)
REMARK    1  A    between atoms: C2_2  and  C3_3 
REMARK    2  A    between atoms: C3_3  and  C4_4 
REMARK    3  A    between atoms: C5_5  and  C6_6 
REMARK    4  A    between atoms: C6_6  and  N1_7 
REMARK       I    between atoms: N1_7  and  C7_9 
REMARK    5  A    between atoms: C7_9  and  C8_11 
REMARK    6  A    between atoms: C8_11  and  C9_13 
REMARK    7  A    between atoms: C8_11  and  N4_23 
REMARK       I    between atoms: C9_13  and  N2_15 
REMARK    8  A    between atoms: N2_15  and  C10_17 
REMARK    9  A    between atoms: C10_17  and  C11_18 
REMARK   10  A    between atoms: C11_18  and  N3_19 
ROOT
HETATM    1  C8  UNL     1      -0.105   0.563   0.405  1.00  0.00     0.249 C 
HETATM    2 BR1  UNL     1      -0.624   2.426   0.806  1.00  0.00    -0.041 Br
ENDROOT
BRANCH   1   3
HETATM    3  C7  UNL     1       0.922   0.254   1.461  1.00  0.00     0.267 C 
HETATM    4  N1  UNL     1       2.300   0.113   1.196  1.00  0.00    -0.347 N 
ATOM      5  H1  UNL     1       2.669   0.219   0.251  1.00  0.00     0.163 HD
HETATM    6  O1  UNL     1       0.540   0.110   2.672  1.00  0.00    -0.269 OA
BRANCH   4   7
HETATM    7  C6  UNL     1       3.184  -0.191   2.325  1.00  0.00     0.217 C 
BRANCH   7   8
HETATM    8  C5  UNL     1       4.567  -0.296   1.827  1.00  0.00    -0.087 C 
HETATM    9  C4  UNL     1       5.694  -0.370   1.401  1.00  0.00    -0.105 C 
BRANCH   9  10
HETATM   10  C3  UNL     1       7.063  -0.441   0.890  1.00  0.00     0.093 C 
BRANCH  10  11
HETATM   11  C2  UNL     1       7.081  -0.397  -0.634  1.00  0.00     0.007 C 
HETATM   12  C1  UNL     1       6.450   0.896  -1.080  1.00  0.00     0.006 C 
ENDBRANCH  10  11
ENDBRANCH   9  10
ENDBRANCH   7   8
ENDBRANCH   4   7
ENDBRANCH   1   3
BRANCH   1  13
HETATM   13  C9  UNL     1      -1.292  -0.265   0.699  1.00  0.00     0.267 C 
HETATM   14  O2  UNL     1      -1.654  -0.309   1.900  1.00  0.00    -0.269 OA
HETATM   15  N2  UNL     1      -2.050  -1.004  -0.234  1.00  0.00    -0.356 N 
ATOM     16  H2  UNL     1      -1.765  -0.973  -1.213  1.00  0.00     0.162 HD
BRANCH  15  17
HETATM   17  C10 UNL     1      -3.197  -1.797   0.106  1.00  0.00     0.150 C 
BRANCH  17  18
HETATM   18  C11 UNL     1      -4.332  -1.065   0.733  1.00  0.00     0.255 C 
BRANCH  18  19
HETATM   19  N3  UNL     1      -4.914  -0.022  -0.043  1.00  0.00    -0.077 N 
HETATM   20  C12 UNL     1      -6.338  -0.264  -0.324  1.00  0.00     0.271 C 
HETATM   21  C13 UNL     1      -4.293   0.268  -1.294  1.00  0.00     0.271 C 
HETATM   22  C14 UNL     1      -4.893   1.216   0.746  1.00  0.00     0.271 C 
ENDBRANCH  18  19
ENDBRANCH  17  18
ENDBRANCH  15  17
ENDBRANCH   1  13
BRANCH   1  23
HETATM   23  N4  UNL     1       0.380   0.556  -0.906  1.00  0.00    -0.388 N 
HETATM   24  C15 UNL     1       0.894  -0.630  -1.472  1.00  0.00     0.145 C 
HETATM   25  C16 UNL     1      -0.190   1.486  -1.823  1.00  0.00     0.145 C 
ENDBRANCH   1  23
TORSDOF 10
