REMARK  6 active torsions:
REMARK  status: ('A' for Active; 'I' for Inactive)
REMARK    1  A    between atoms: N1_1  and  C1_4 
REMARK    2  A    between atoms: C2_7  and  N3_8 
REMARK    3  A    between atoms: N4_11  and  C5_12 
REMARK    4  A    between atoms: C5_12  and  C6_13 
REMARK    5  A    between atoms: C6_13  and  N5_14 
REMARK       I    between atoms: N5_14  and  C7_16 
REMARK    6  A    between atoms: C7_16  and  C8_18 
ROOT
HETATM    1  C1  UNL     1      -5.087  -0.907   1.292  1.00  0.00     0.127 A 
HETATM    2  N2  UNL     1      -3.842  -0.441   1.109  1.00  0.00    -0.176 N 
ATOM      3  H2  UNL     1      -3.162  -0.569   1.859  1.00  0.00     0.186 HD
HETATM    4  C2  UNL     1      -3.440   0.193  -0.025  1.00  0.00     0.682 A 
HETATM    5  N6  UNL     1      -4.356   0.349  -0.996  1.00  0.00    -0.191 N 
ATOM      6  H6  UNL     1      -4.089   0.822  -1.859  1.00  0.00     0.184 HD
HETATM    7  C14 UNL     1      -5.631  -0.107  -0.858  1.00  0.00     0.065 A 
HETATM    8  C15 UNL     1      -6.573   0.050  -1.876  1.00  0.00     0.056 A 
HETATM    9  C16 UNL     1      -7.854  -0.435  -1.695  1.00  0.00     0.058 A 
HETATM   10 CL1  UNL     1      -9.080  -0.268  -2.938  1.00  0.00    -0.082 Cl
HETATM   11  C17 UNL     1      -8.232  -1.072  -0.538  1.00  0.00     0.056 A 
HETATM   12 CL2  UNL     1      -9.848  -1.699  -0.304  1.00  0.00    -0.083 Cl
HETATM   13  C18 UNL     1      -7.320  -1.240   0.484  1.00  0.00     0.043 A 
HETATM   14  C19 UNL     1      -6.032  -0.747   0.288  1.00  0.00     0.037 A 
ENDROOT
BRANCH   4  15
HETATM   15  N3  UNL     1      -2.119   0.640  -0.190  1.00  0.00    -0.208 N 
HETATM   16  C3  UNL     1      -1.208  -0.081  -1.028  1.00  0.00     0.186 C 
HETATM   17  C4  UNL     1       0.177  -0.120  -0.488  1.00  0.00     0.083 C 
HETATM   18  N4  UNL     1       0.442   0.492   0.747  1.00  0.00    -0.369 N 
HETATM   19  C12 UNL     1      -0.493   1.327   1.374  1.00  0.00     0.083 C 
HETATM   20  C13 UNL     1      -1.610   1.803   0.477  1.00  0.00     0.186 C 
BRANCH  18  21
HETATM   21  C5  UNL     1       1.786   1.043   0.769  1.00  0.00     0.146 C 
BRANCH  21  22
HETATM   22  C6  UNL     1       2.776  -0.094   0.701  1.00  0.00     0.143 C 
BRANCH  22  23
HETATM   23  N5  UNL     1       4.155   0.389   0.748  1.00  0.00    -0.359 N 
HETATM   24  C7  UNL     1       5.201  -0.583   0.644  1.00  0.00     0.221 C 
HETATM   25  O1  UNL     1       4.929  -1.801   0.512  1.00  0.00    -0.273 OA
ATOM     26  H5  UNL     1       4.364   1.382   0.851  1.00  0.00     0.162 HD
BRANCH  24  27
HETATM   27  C8  UNL     1       6.629  -0.222   0.687  1.00  0.00     0.078 C 
HETATM   28  C9  UNL     1       7.545  -1.313   0.123  1.00  0.00     0.014 C 
HETATM   29  C10 UNL     1       8.370  -0.205  -0.493  1.00  0.00     0.002 C 
HETATM   30  C11 UNL     1       7.169   0.709  -0.327  1.00  0.00     0.014 C 
ENDBRANCH  24  27
ENDBRANCH  22  23
ENDBRANCH  21  22
ENDBRANCH  18  21
ENDBRANCH   4  15
BRANCH   1  31
HETATM   31  N1  UNL     1      -5.462  -1.504   2.369  1.00  0.00    -0.384 N 
ATOM     32  H12 UNL     1      -4.768  -1.622   3.107  1.00  0.00     0.157 HD
ATOM     33  H11 UNL     1      -6.408  -1.858   2.508  1.00  0.00     0.157 HD
ENDBRANCH   1  31
TORSDOF 6
