REMARK  7 active torsions:
REMARK  status: ('A' for Active; 'I' for Inactive)
REMARK    1  A    between atoms: N1_1  and  C1_5 
REMARK    2  A    between atoms: C1_5  and  C2_6 
REMARK    3  A    between atoms: C2_6  and  C3_7 
REMARK    4  A    between atoms: C3_7  and  N2_8 
REMARK    5  A    between atoms: N2_8  and  C4_10 
REMARK    6  A    between atoms: C5_13  and  N4_14 
REMARK    7  A    between atoms: N5_17  and  C8_18 
ROOT
HETATM    1  C4  UNL     1      -2.557  -0.834   0.184  1.00  0.00     0.134 A 
HETATM    2  N3  UNL     1      -1.275  -0.448   0.237  1.00  0.00    -0.176 N 
ATOM      3  H3  UNL     1      -1.040   0.545   0.251  1.00  0.00     0.186 HD
HETATM    4  C5  UNL     1      -0.280  -1.389   0.273  1.00  0.00     0.683 A 
HETATM    5  N6  UNL     1      -0.531  -2.701   0.257  1.00  0.00    -0.175 N 
ATOM      6  H6  UNL     1       0.237  -3.372   0.284  1.00  0.00     0.186 HD
HETATM    7  C14 UNL     1      -1.818  -3.133   0.205  1.00  0.00     0.139 A 
HETATM    8  N7  UNL     1      -2.351  -4.381   0.181  1.00  0.00    -0.333 N 
ATOM      9  H7  UNL     1      -1.837  -5.262   0.197  1.00  0.00     0.168 HD
HETATM   10  C15 UNL     1      -3.669  -4.234   0.132  1.00  0.00     0.121 A 
HETATM   11 BR1  UNL     1      -4.882  -5.720   0.077  1.00  0.00    -0.028 Br
HETATM   12  C16 UNL     1      -4.016  -2.909   0.122  1.00  0.00     0.168 A 
HETATM   13  F1  UNL     1      -5.271  -2.364   0.077  1.00  0.00    -0.202 F 
HETATM   14  C17 UNL     1      -2.828  -2.190   0.168  1.00  0.00     0.094 A 
ENDROOT
BRANCH   4  15
HETATM   15  N4  UNL     1       1.078  -0.969   0.335  1.00  0.00    -0.214 N 
HETATM   16  C6  UNL     1       1.596  -0.284  -0.845  1.00  0.00     0.171 C 
HETATM   17  C7  UNL     1       2.260   0.980  -0.275  1.00  0.00     0.293 C 
HETATM   18  N5  UNL     1       3.449   0.525   0.410  1.00  0.00     0.096 N 
HETATM   19  C12 UNL     1       3.365  -0.803   0.926  1.00  0.00     0.293 C 
HETATM   20  C13 UNL     1       1.970  -1.156   1.431  1.00  0.00     0.171 C 
BRANCH  18  21
HETATM   21  C8  UNL     1       4.549   0.698  -0.504  1.00  0.00     0.223 A 
HETATM   22  C9  UNL     1       5.835   0.011  -0.131  1.00  0.00     0.036 A 
HETATM   23  C10 UNL     1       6.486   1.376  -0.031  1.00  0.00     0.004 A 
HETATM   24  C11 UNL     1       5.179   2.073  -0.272  1.00  0.00     0.036 A 
ENDBRANCH  18  21
ENDBRANCH   4  15
BRANCH   1  25
HETATM   25  N2  UNL     1      -3.527   0.045   0.138  1.00  0.00    -0.375 N 
ATOM     26  H2  UNL     1      -4.500  -0.258   0.099  1.00  0.00     0.161 HD
BRANCH  25  27
HETATM   27  C3  UNL     1      -3.195   1.456   0.143  1.00  0.00     0.123 C 
BRANCH  27  28
HETATM   28  C2  UNL     1      -4.377   2.327  -0.235  1.00  0.00     0.047 C 
BRANCH  28  29
HETATM   29  C1  UNL     1      -5.529   2.134   0.712  1.00  0.00     0.231 C 
BRANCH  29  30
HETATM   30  N1  UNL     1      -6.658   2.976   0.364  1.00  0.00    -0.079 N 
ATOM     31  H13 UNL     1      -6.386   3.957   0.305  1.00  0.00     0.274 HD
ATOM     32  H12 UNL     1      -6.945   2.832  -0.604  1.00  0.00     0.274 HD
ATOM     33  H11 UNL     1      -7.439   2.845   1.006  1.00  0.00     0.274 HD
ENDBRANCH  29  30
ENDBRANCH  28  29
ENDBRANCH  27  28
ENDBRANCH  25  27
ENDBRANCH   1  25
TORSDOF 7
