REMARK  6 active torsions:
REMARK  status: ('A' for Active; 'I' for Inactive)
REMARK    1  A    between atoms: C4_4  and  C5_5 
REMARK    2  A    between atoms: N1_8  and  C6_9 
REMARK    3  A    between atoms: C9_12  and  N2_13 
REMARK    4  A    between atoms: N2_13  and  S1_15 
REMARK    5  A    between atoms: S1_15  and  C10_18 
REMARK    6  A    between atoms: C16_28  and  N5_29 
ROOT
HETATM    1  C1  UNL     1      -5.821  -1.836  -0.044  1.00  0.00     0.018 C 
HETATM    2  C2  UNL     1      -4.783  -1.230  -0.074  1.00  0.00    -0.075 C 
HETATM    3  C3  UNL     1      -3.556  -0.487  -0.112  1.00  0.00     0.060 A 
HETATM    4  C4  UNL     1      -2.378  -0.804   0.574  1.00  0.00     0.066 A 
HETATM    5  N1  UNL     1      -1.459   0.114   0.292  1.00  0.00    -0.327 N 
HETATM    6  C14 UNL     1      -2.037   1.019  -0.570  1.00  0.00     0.124 A 
HETATM    7  N3  UNL     1      -1.563   2.129  -1.161  1.00  0.00    -0.338 N 
ATOM      8  H3  UNL     1      -0.600   2.409  -0.978  1.00  0.00     0.168 HD
HETATM    9  C15 UNL     1      -2.309   2.882  -1.983  1.00  0.00     0.183 A 
HETATM   10  N4  UNL     1      -3.579   2.537  -2.241  1.00  0.00    -0.338 N 
ATOM     11  H4  UNL     1      -4.149   3.108  -2.865  1.00  0.00     0.168 HD
HETATM   12  C16 UNL     1      -4.095   1.440  -1.675  1.00  0.00     0.115 A 
HETATM   13  C17 UNL     1      -3.328   0.657  -0.825  1.00  0.00     0.072 A 
ENDROOT
BRANCH   4  14
HETATM   14  C5  UNL     1      -2.255  -1.962   1.434  1.00  0.00     0.229 C 
HETATM   15 CL1  UNL     1      -3.451  -1.925   2.785  1.00  0.00    -0.101 Cl
HETATM   16 CL2  UNL     1      -2.659  -3.490   0.557  1.00  0.00    -0.101 Cl
ENDBRANCH   4  14
BRANCH   5  17
HETATM   17  C6  UNL     1      -0.117   0.226   0.742  1.00  0.00     0.093 C 
HETATM   18  C7  UNL     1       0.072   0.339   2.212  1.00  0.00     0.028 C 
HETATM   19  C8  UNL     1       1.410  -0.358   2.477  1.00  0.00     0.028 C 
HETATM   20  C9  UNL     1       2.059  -0.494   1.122  1.00  0.00     0.095 C 
HETATM   21  C13 UNL     1       0.814  -0.841   0.287  1.00  0.00     0.051 C 
BRANCH  20  22
HETATM   22  N2  UNL     1       3.062  -1.477   1.030  1.00  0.00    -0.314 N 
ATOM     23  H2  UNL     1       2.909  -2.440   1.328  1.00  0.00     0.172 HD
BRANCH  22  24
HETATM   24  S1  UNL     1       4.556  -0.947   0.385  1.00  0.00     0.231 S 
HETATM   25  O1  UNL     1       5.529  -2.084   0.239  1.00  0.00    -0.206 OA
HETATM   26  O2  UNL     1       5.137   0.211   1.116  1.00  0.00    -0.206 OA
BRANCH  24  27
HETATM   27  C10 UNL     1       4.229  -0.383  -1.293  1.00  0.00     0.129 A 
HETATM   28  C11 UNL     1       5.296   0.543  -1.863  1.00  0.00     0.023 A 
HETATM   29  C12 UNL     1       3.959   1.038  -1.541  1.00  0.00     0.023 A 
ENDBRANCH  24  27
ENDBRANCH  22  24
ENDBRANCH  20  22
ENDBRANCH   5  17
BRANCH  12  30
HETATM   30  N5  UNL     1      -5.310   1.033  -1.869  1.00  0.00    -0.385 N 
ATOM     31  H52 UNL     1      -5.874   1.609  -2.494  1.00  0.00     0.157 HD
ATOM     32  H51 UNL     1      -5.703   0.197  -1.437  1.00  0.00     0.157 HD
ENDBRANCH  12  30
TORSDOF 6
