REMARK  8 active torsions:
REMARK  status: ('A' for Active; 'I' for Inactive)
REMARK    1  A    between atoms: C3_7  and  C4_10 
REMARK    2  A    between atoms: C3_7  and  C17_30 
REMARK    3  A    between atoms: C7_14  and  N3_15 
REMARK    4  A    between atoms: N3_15  and  S1_17 
REMARK    5  A    between atoms: S1_17  and  C8_20 
REMARK    6  A    between atoms: C8_20  and  C9_21 
REMARK    7  A    between atoms: C9_21  and  C10_22 
REMARK    8  A    between atoms: C14_27  and  C15_28 
ROOT
HETATM    1  C4  UNL     1      -2.364  -0.268  -0.204  1.00  0.00     0.016 A 
HETATM    2  C5  UNL     1      -1.322   0.587  -0.437  1.00  0.00     0.046 A 
HETATM    3 CL1  UNL     1      -1.483   2.253   0.067  1.00  0.00    -0.084 Cl
HETATM    4  C6  UNL     1      -0.144   0.144  -1.067  1.00  0.00     0.057 A 
HETATM    5  C7  UNL     1      -0.047  -1.169  -1.451  1.00  0.00     0.083 A 
HETATM    6  C13 UNL     1      -1.119  -2.045  -1.211  1.00  0.00     0.153 A 
HETATM    7  F1  UNL     1      -1.058  -3.333  -1.574  1.00  0.00    -0.203 F 
HETATM    8  C14 UNL     1      -2.272  -1.587  -0.589  1.00  0.00     0.023 A 
ENDROOT
BRANCH   5   9
HETATM    9  N3  UNL     1       1.110  -1.636  -2.084  1.00  0.00    -0.281 N 
ATOM     10  H3  UNL     1       1.097  -2.562  -2.511  1.00  0.00     0.178 HD
BRANCH   9  11
HETATM   11  S1  UNL     1       2.534  -0.718  -2.168  1.00  0.00     0.231 S 
HETATM   12  O3  UNL     1       3.562  -1.508  -2.966  1.00  0.00    -0.206 OA
HETATM   13  O4  UNL     1       2.366   0.601  -2.877  1.00  0.00    -0.206 OA
BRANCH  11  14
HETATM   14  C8  UNL     1       3.200  -0.356  -0.547  1.00  0.00     0.164 C 
BRANCH  14  15
HETATM   15  C9  UNL     1       4.446   0.457  -0.745  1.00  0.00     0.021 C 
BRANCH  15  16
HETATM   16  C10 UNL     1       5.103   0.827   0.567  1.00  0.00    -0.014 A 
HETATM   17  C11 UNL     1       6.368   1.645   0.523  1.00  0.00     0.005 A 
HETATM   18  C12 UNL     1       5.090   2.216   1.061  1.00  0.00     0.005 A 
ENDBRANCH  15  16
ENDBRANCH  14  15
ENDBRANCH  11  14
ENDBRANCH   9  11
ENDBRANCH   5   9
BRANCH   8  19
HETATM   19  C15 UNL     1      -3.446  -2.449  -0.301  1.00  0.00     0.161 C 
HETATM   20  C16 UNL     1      -3.857  -2.204   1.118  1.00  0.00     0.072 C 
HETATM   21  C17 UNL     1      -4.541  -0.997   0.506  1.00  0.00     0.168 C 
HETATM   22  O5  UNL     1      -4.574  -1.691  -0.695  1.00  0.00    -0.372 OA
BRANCH  21  23
HETATM   23  C3  UNL     1      -3.588   0.199   0.452  1.00  0.00     0.172 C 
HETATM   24  C2  UNL     1      -4.262   1.322  -0.191  1.00  0.00     0.261 C 
HETATM   25  N1  UNL     1      -4.657   2.243   0.805  1.00  0.00    -0.277 N 
HETATM   26  O2  UNL     1      -4.465   1.463  -1.417  1.00  0.00    -0.270 OA
HETATM   27  C1  UNL     1      -4.120   1.837   2.052  1.00  0.00     0.324 C 
ATOM     28  H1  UNL     1      -5.236   3.068   0.651  1.00  0.00     0.173 HD
HETATM   29  O1  UNL     1      -4.245   2.391   3.175  1.00  0.00    -0.247 OA
HETATM   30  N2  UNL     1      -3.373   0.638   1.832  1.00  0.00    -0.318 N 
ATOM     31  H2  UNL     1      -2.788   0.167   2.522  1.00  0.00     0.166 HD
ENDBRANCH  21  23
ENDBRANCH   8  19
TORSDOF 8
