REMARK  7 active torsions:
REMARK  status: ('A' for Active; 'I' for Inactive)
REMARK    1  A    between atoms: N1_2  and  C2_3 
REMARK    2  A    between atoms: N1_2  and  C4_9 
REMARK    3  A    between atoms: C2_3  and  C3_4 
REMARK    4  A    between atoms: C3_4  and  N2_5 
REMARK    5  A    between atoms: C6_11  and  N3_12 
REMARK    6  A    between atoms: N3_12  and  C7_14 
REMARK    7  A    between atoms: C7_14  and  C8_15 
ROOT
HETATM    1  C4  UNL     1      -1.084   0.561  -0.265  1.00  0.00     0.050 A 
HETATM    2  C5  UNL     1       0.243   0.574   0.099  1.00  0.00     0.078 A 
HETATM    3  C6  UNL     1       0.940  -0.570   0.395  1.00  0.00     0.103 A 
HETATM    4  N5  UNL     1       0.283  -1.759   0.323  1.00  0.00    -0.341 N 
ATOM      5  H5  UNL     1       0.781  -2.623   0.539  1.00  0.00     0.167 HD
HETATM    6  C12 UNL     1      -1.020  -1.812  -0.030  1.00  0.00     0.063 A 
HETATM    7  C13 UNL     1      -1.731  -0.656  -0.332  1.00  0.00     0.069 A 
HETATM    8  C14 UNL     1      -3.076  -1.081  -0.656  1.00  0.00     0.198 A 
HETATM    9  O1  UNL     1      -4.017  -0.311  -0.982  1.00  0.00    -0.286 OA
HETATM   10  C15 UNL     1      -3.142  -2.530  -0.539  1.00  0.00     0.031 A 
HETATM   11  C16 UNL     1      -4.177  -3.429  -0.736  1.00  0.00     0.040 A 
HETATM   12  C17 UNL     1      -4.018  -4.783  -0.566  1.00  0.00     0.036 A 
HETATM   13 CL1  UNL     1      -5.299  -5.947  -0.804  1.00  0.00    -0.084 Cl
HETATM   14  C18 UNL     1      -2.769  -5.228  -0.186  1.00  0.00     0.048 A 
HETATM   15  C19 UNL     1      -1.727  -4.342   0.014  1.00  0.00     0.049 A 
HETATM   16 CL2  UNL     1      -0.201  -5.009   0.489  1.00  0.00    -0.083 Cl
HETATM   17  C20 UNL     1      -1.890  -2.981  -0.157  1.00  0.00     0.028 A 
ENDROOT
BRANCH   3  18
HETATM   18  N3  UNL     1       2.178  -0.604   0.740  1.00  0.00    -0.376 N 
ATOM     19  H3  UNL     1       2.608  -1.507   0.941  1.00  0.00     0.161 HD
BRANCH  18  20
HETATM   20  C7  UNL     1       2.985   0.598   0.853  1.00  0.00     0.127 C 
BRANCH  20  21
HETATM   21  C8  UNL     1       4.437   0.275   1.092  1.00  0.00     0.030 C 
HETATM   22  C9  UNL     1       5.061  -0.537   0.008  1.00  0.00     0.035 C 
HETATM   23  C10 UNL     1       5.743   0.455  -0.885  1.00  0.00     0.232 C 
HETATM   24  N4  UNL     1       5.370   1.782  -0.375  1.00  0.00    -0.075 N 
HETATM   25  C11 UNL     1       5.229   1.562   1.043  1.00  0.00     0.238 C 
ATOM     26  H42 UNL     1       6.016   2.530  -0.626  1.00  0.00     0.277 HD
ATOM     27  H41 UNL     1       4.552   2.195  -0.824  1.00  0.00     0.277 HD
ENDBRANCH  20  21
ENDBRANCH  18  20
ENDBRANCH   3  18
BRANCH   1  28
HETATM   28  N1  UNL     1      -1.786   1.759  -0.585  1.00  0.00    -0.383 N 
HETATM   29  C1  UNL     1      -2.224   1.968  -1.947  1.00  0.00     0.150 C 
BRANCH  28  30
HETATM   30  C2  UNL     1      -2.088   2.792   0.384  1.00  0.00     0.149 C 
BRANCH  30  31
HETATM   31  C3  UNL     1      -3.568   2.907   0.679  1.00  0.00     0.249 C 
BRANCH  31  32
HETATM   32  N2  UNL     1      -3.752   3.956   1.649  1.00  0.00    -0.078 N 
ATOM     33  H23 UNL     1      -3.193   3.817   2.490  1.00  0.00     0.274 HD
ATOM     34  H22 UNL     1      -3.339   4.841   1.355  1.00  0.00     0.274 HD
ATOM     35  H21 UNL     1      -4.749   4.034   1.848  1.00  0.00     0.274 HD
ENDBRANCH  31  32
ENDBRANCH  30  31
ENDBRANCH  28  30
ENDBRANCH   1  28
TORSDOF 7
