REMARK  4 active torsions:
REMARK  status: ('A' for Active; 'I' for Inactive)
REMARK    1  A    between atoms: C2_2  and  C3_3 
REMARK    2  A    between atoms: C3_3  and  N1_4 
REMARK    3  A    between atoms: C3_3  and  C4_8 
REMARK    4  A    between atoms: N2_12  and  C7_13 
ROOT
HETATM    1  C4  UNL     1      -0.992   0.539  -0.238  1.00  0.00     0.062 A 
HETATM    2  C5  UNL     1      -0.818  -0.112  -1.428  1.00  0.00     0.105 A 
HETATM    3  C6  UNL     1       0.529  -0.296  -1.630  1.00  0.00     0.269 A 
HETATM    4  O1  UNL     1       1.060  -0.849  -2.602  1.00  0.00    -0.266 OA
HETATM    5  N2  UNL     1       1.156   0.230  -0.588  1.00  0.00    -0.212 N 
HETATM    6  N3  UNL     1       0.264   0.729   0.246  1.00  0.00    -0.292 N 
ATOM      7  H3  UNL     1       0.485   1.191   1.128  1.00  0.00     0.187 HD
ENDROOT
BRANCH   5   8
HETATM    8  C7  UNL     1       2.575   0.298  -0.314  1.00  0.00     0.125 A 
HETATM    9  S1  UNL     1       3.648   1.612  -0.474  1.00  0.00    -0.055 SA
HETATM   10  C8  UNL     1       5.086   0.866   0.040  1.00  0.00     0.100 A 
HETATM   11 CL1  UNL     1       6.680   1.605   0.155  1.00  0.00    -0.074 Cl
HETATM   12  C9  UNL     1       4.684  -0.408   0.327  1.00  0.00     0.087 A 
HETATM   13 CL2  UNL     1       5.891  -1.585   0.918  1.00  0.00    -0.080 Cl
HETATM   14  C10 UNL     1       3.390  -0.709   0.147  1.00  0.00     0.093 A 
HETATM   15 CL3  UNL     1       2.692  -2.333   0.474  1.00  0.00    -0.079 Cl
ENDBRANCH   5   8
BRANCH   1  16
HETATM   16  C3  UNL     1      -2.218   0.983   0.462  1.00  0.00     0.234 C 
BRANCH  16  17
HETATM   17  C2  UNL     1      -3.398   0.303  -0.181  1.00  0.00     0.035 C 
HETATM   18  C1  UNL     1      -3.256  -1.181  -0.002  1.00  0.00     0.007 C 
ENDBRANCH  16  17
BRANCH  16  19
HETATM   19  N1  UNL     1      -2.132   0.687   1.875  1.00  0.00    -0.070 N 
ATOM     20  H13 UNL     1      -3.001   0.918   2.356  1.00  0.00     0.275 HD
ATOM     21  H12 UNL     1      -2.118  -0.319   2.044  1.00  0.00     0.275 HD
ATOM     22  H11 UNL     1      -1.333   1.148   2.310  1.00  0.00     0.275 HD
ENDBRANCH  16  19
ENDBRANCH   1  16
TORSDOF 4
