REMARK  4 active torsions:
REMARK  status: ('A' for Active; 'I' for Inactive)
REMARK    1  A    between atoms: C2_2  and  N1_4 
REMARK    2  A    between atoms: N1_4  and  C4_6 
REMARK    3  A    between atoms: C6_8  and  N2_9 
REMARK    4  A    between atoms: N2_9  and  C7_11 
ROOT
HETATM    1  C7  UNL     1       3.008   0.922   0.353  1.00  0.00     0.057 A 
HETATM    2  C8  UNL     1       3.932   0.071   0.968  1.00  0.00     0.057 A 
HETATM    3  C9  UNL     1       5.178  -0.115   0.407  1.00  0.00     0.085 A 
HETATM    4  C10 UNL     1       6.153  -0.984   1.013  1.00  0.00     0.102 C 
HETATM    5  N3  UNL     1       6.936  -1.673   1.496  1.00  0.00    -0.191 NA
HETATM    6  C11 UNL     1       5.473   0.558  -0.762  1.00  0.00     0.138 A 
HETATM    7  F1  UNL     1       6.678   0.410  -1.349  1.00  0.00    -0.204 F 
HETATM    8  C12 UNL     1       4.552   1.403  -1.369  1.00  0.00     0.070 A 
HETATM    9  C13 UNL     1       3.303   1.595  -0.816  1.00  0.00     0.063 A 
HETATM   10 CL1  UNL     1       2.118   2.658  -1.563  1.00  0.00    -0.082 Cl
ENDROOT
BRANCH   1  11
HETATM   11  N2  UNL     1       1.731   1.122   0.913  1.00  0.00    -0.341 N 
ATOM     12  H2  UNL     1       1.591   1.762   1.695  1.00  0.00     0.167 HD
BRANCH  11  13
HETATM   13  C6  UNL     1       0.723   0.452   0.391  1.00  0.00     0.111 A 
HETATM   14  C5  UNL     1      -0.531   0.629   0.918  1.00  0.00     0.096 A 
HETATM   15  C4  UNL     1      -1.598  -0.083   0.363  1.00  0.00     0.107 A 
HETATM   16  N5  UNL     1      -1.299  -0.899  -0.661  1.00  0.00    -0.319 N 
HETATM   17  C14 UNL     1      -0.062  -1.070  -1.177  1.00  0.00     0.182 A 
ATOM     18  H5  UNL     1      -2.063  -1.429  -1.080  1.00  0.00     0.170 HD
HETATM   19  N4  UNL     1       0.944  -0.382  -0.635  1.00  0.00    -0.319 N 
HETATM   20 CL2  UNL     1       0.170  -2.174  -2.520  1.00  0.00    -0.045 Cl
ATOM     21  H4  UNL     1       1.889  -0.491  -1.004  1.00  0.00     0.170 HD
BRANCH  15  22
HETATM   22  N1  UNL     1      -2.905   0.070   0.901  1.00  0.00    -0.372 N 
ATOM     23  H1  UNL     1      -3.060   0.696   1.691  1.00  0.00     0.161 HD
BRANCH  22  24
HETATM   24  C2  UNL     1      -4.004  -0.652   0.337  1.00  0.00     0.075 C 
HETATM   25  C1  UNL     1      -5.260  -0.518   1.189  1.00  0.00     0.031 C 
HETATM   26  C3  UNL     1      -4.291  -0.128  -1.065  1.00  0.00     0.031 C 
ENDBRANCH  22  24
ENDBRANCH  15  22
ENDBRANCH  11  13
ENDBRANCH   1  11
TORSDOF 4
