REMARK  4 active torsions:
REMARK  status: ('A' for Active; 'I' for Inactive)
REMARK    1  A    between atoms: S1_2  and  C2_3 
REMARK    2  A    between atoms: C2_3  and  C3_6 
REMARK    3  A    between atoms: C5_9  and  N1_10 
REMARK    4  A    between atoms: N1_10  and  C6_12 
ROOT
HETATM    1  C3  UNL     1       1.897  -0.215  -0.156  1.00  0.00     0.067 A 
HETATM    2  C4  UNL     1       1.369   0.639  -1.092  1.00  0.00     0.082 A 
HETATM    3  S2  UNL     1      -0.298   0.421  -0.908  1.00  0.00    -0.064 SA
HETATM    4  C5  UNL     1      -0.240  -0.743   0.349  1.00  0.00     0.150 A 
HETATM    5  N4  UNL     1       1.049  -0.913   0.563  1.00  0.00    -0.336 N 
ATOM      6  H4  UNL     1       1.380  -1.570   1.269  1.00  0.00     0.168 HD
ENDROOT
BRANCH   4   7
HETATM    7  N1  UNL     1      -1.214  -1.328   1.002  1.00  0.00    -0.321 N 
ATOM      8  H1  UNL     1      -1.023  -2.006   1.740  1.00  0.00     0.169 HD
BRANCH   7   9
HETATM    9  C6  UNL     1      -2.559  -0.981   0.642  1.00  0.00     0.130 A 
HETATM   10  N2  UNL     1      -3.041   0.257   0.474  1.00  0.00    -0.329 N 
HETATM   11  C7  UNL     1      -4.332   0.277   0.128  1.00  0.00     0.119 A 
ATOM     12  H2  UNL     1      -2.480   1.100   0.598  1.00  0.00     0.168 HD
HETATM   13  N3  UNL     1      -5.102   1.440  -0.114  1.00  0.00    -0.083 NA
HETATM   14  C8  UNL     1      -4.701  -1.034   0.077  1.00  0.00     0.073 A 
HETATM   15  C9  UNL     1      -3.631  -1.846   0.392  1.00  0.00     0.081 A 
HETATM   16 CL3  UNL     1      -3.604  -3.582   0.467  1.00  0.00    -0.080 Cl
ENDBRANCH   7   9
ENDBRANCH   4   7
BRANCH   1  17
HETATM   17  C2  UNL     1       3.409  -0.303  -0.006  1.00  0.00     0.203 C 
HETATM   18 CL1  UNL     1       3.791  -1.090   1.577  1.00  0.00    -0.082 Cl
HETATM   19 CL2  UNL     1       4.214  -1.214  -1.274  1.00  0.00    -0.082 Cl
BRANCH  17  20
HETATM   20  S1  UNL     1       4.045   1.389   0.115  1.00  0.00    -0.125 SA
HETATM   21  C1  UNL     1       5.839   1.396   0.328  1.00  0.00     0.093 C 
ENDBRANCH  17  20
ENDBRANCH   1  17
TORSDOF 4
