REMARK  2 active torsions:
REMARK  status: ('A' for Active; 'I' for Inactive)
REMARK    1  A    between atoms: O1_2  and  C2_3 
REMARK    2  A    between atoms: C5_7  and  C6_8 
ROOT
HETATM    1  C2  UNL     1       2.509  -0.280  -0.346  1.00  0.00     0.113 A 
HETATM    2  C3  UNL     1       1.637  -0.547  -1.361  1.00  0.00     0.070 A 
HETATM    3 CL1  UNL     1       2.332  -0.981  -2.919  1.00  0.00    -0.081 Cl
HETATM    4  C4  UNL     1       0.281  -0.487  -1.204  1.00  0.00     0.044 A 
HETATM    5  C5  UNL     1      -0.278  -0.137   0.050  1.00  0.00     0.033 A 
HETATM    6  C9  UNL     1       0.580   0.128   1.064  1.00  0.00     0.072 A 
HETATM    7 CL2  UNL     1       0.068   0.514   2.704  1.00  0.00    -0.081 Cl
HETATM    8  C10 UNL     1       1.960   0.058   0.868  1.00  0.00     0.091 A 
HETATM    9 CL3  UNL     1       3.013   0.420   2.234  1.00  0.00    -0.079 Cl
ENDROOT
BRANCH   5  10
HETATM   10  C6  UNL     1      -1.720  -0.127   0.166  1.00  0.00     0.123 A 
HETATM   11  N1  UNL     1      -2.421  -0.796  -0.818  1.00  0.00    -0.294 N 
HETATM   12  C7  UNL     1      -3.743  -0.890  -0.782  1.00  0.00     0.328 A 
ATOM     13  H1  UNL     1      -1.911  -1.227  -1.589  1.00  0.00     0.172 HD
HETATM   14  O2  UNL     1      -4.400  -1.502  -1.679  1.00  0.00    -0.247 OA
HETATM   15  N2  UNL     1      -4.480  -0.344   0.208  1.00  0.00    -0.285 N 
HETATM   16  C8  UNL     1      -3.821   0.308   1.168  1.00  0.00     0.181 A 
ATOM     17  H2  UNL     1      -5.497  -0.426   0.222  1.00  0.00     0.173 HD
HETATM   18  S1  UNL     1      -4.648   0.994   2.396  1.00  0.00    -0.040 SA
HETATM   19  N3  UNL     1      -2.445   0.409   1.133  1.00  0.00    -0.318 N 
ATOM     20  H3  UNL     1      -1.970   0.916   1.880  1.00  0.00     0.170 HD
ENDBRANCH   5  10
BRANCH   1  21
HETATM   21  O1  UNL     1       3.878  -0.326  -0.453  1.00  0.00    -0.352 OA
HETATM   22  C1  UNL     1       4.699   0.743  -0.816  1.00  0.00     0.210 C 
ENDBRANCH   1  21
TORSDOF 2
