REMARK  15 active torsions:
REMARK  status: ('A' for Active; 'I' for Inactive)
REMARK    1  A    between atoms: C2_3  and  N2_4 
REMARK    2  A    between atoms: N2_4  and  S1_6 
REMARK    3  A    between atoms: S1_6  and  N3_9 
REMARK       I    between atoms: N3_9  and  C3_11 
REMARK    4  A    between atoms: C3_11  and  C4_13 
REMARK    5  A    between atoms: C4_13  and  C5_18 
REMARK    6  A    between atoms: N4_14  and  O4_16 
REMARK    7  A    between atoms: C5_18  and  O5_19 
REMARK    8  A    between atoms: C5_18  and  C6_21 
REMARK    9  A    between atoms: C6_21  and  O6_22 
REMARK   10  A    between atoms: C6_21  and  C7_24 
REMARK   11  A    between atoms: C7_24  and  O7_25 
REMARK   12  A    between atoms: C7_24  and  C8_27 
REMARK   13  A    between atoms: C11_33  and  C12_34 
REMARK   14  A    between atoms: C12_34  and  O9_35 
REMARK   15  A    between atoms: C12_34  and  O10_37 
ROOT
HETATM    1  C4  UNL     1       0.844   0.694  -0.918  1.00  0.00     0.131 C 
HETATM    2  N4  UNL     1       0.679   1.846  -1.375  1.00  0.00    -0.265 N 
ATOM      3  H4  UNL     1       1.445   2.138  -1.982  1.00  0.00     0.194 HD
ENDROOT
BRANCH   1   4
HETATM    4  C3  UNL     1      -0.089   0.026  -0.028  1.00  0.00     0.283 C 
HETATM    5  N3  UNL     1      -1.298   0.567   0.450  1.00  0.00    -0.232 N 
ATOM      6  H3  UNL     1      -1.584   1.507   0.176  1.00  0.00     0.183 HD
HETATM    7  O3  UNL     1       0.210  -1.162   0.360  1.00  0.00    -0.265 OA
BRANCH   5   8
HETATM    8  S1  UNL     1      -2.297  -0.377   1.509  1.00  0.00     0.327 S 
HETATM    9  O1  UNL     1      -2.628  -1.668   0.772  1.00  0.00    -0.182 OA
HETATM   10  O2  UNL     1      -1.511  -0.791   2.715  1.00  0.00    -0.182 OA
BRANCH   8  11
HETATM   11  N2  UNL     1      -3.741   0.435   1.946  1.00  0.00    -0.251 N 
ATOM     12  H2  UNL     1      -3.731   1.143   2.680  1.00  0.00     0.182 HD
BRANCH  11  13
HETATM   13  C2  UNL     1      -4.947   0.115   1.281  1.00  0.00     0.146 A 
HETATM   14  N1  UNL     1      -5.381   0.746   0.185  1.00  0.00    -0.320 N 
HETATM   15  C1  UNL     1      -4.621   1.821  -0.377  1.00  0.00     0.159 C 
HETATM   16  C16 UNL     1      -6.536   0.411  -0.426  1.00  0.00     0.134 A 
HETATM   17  C15 UNL     1      -7.319  -0.610   0.069  1.00  0.00     0.131 A 
HETATM   18  N9  UNL     1      -6.895   1.057  -1.475  1.00  0.00    -0.383 N 
HETATM   19  C14 UNL     1      -6.902  -1.286   1.203  1.00  0.00     0.117 A 
HETATM   20  N8  UNL     1      -8.475  -1.156  -0.300  1.00  0.00    -0.236 N 
HETATM   21  C13 UNL     1      -5.727  -0.923   1.800  1.00  0.00     0.122 A 
HETATM   22  N7  UNL     1      -7.855  -2.204   1.436  1.00  0.00    -0.237 N 
HETATM   23  N6  UNL     1      -5.318  -1.636   2.970  1.00  0.00    -0.096 NA
HETATM   24  O12 UNL     1      -8.781  -2.108   0.530  1.00  0.00    -0.156 OA
ATOM     25  H7  UNL     1      -7.852  -2.873   2.206  1.00  0.00     0.197 HD
ATOM     26  H8  UNL     1      -9.032  -0.872  -1.106  1.00  0.00     0.197 HD
ATOM     27  H92 UNL     1      -6.316   1.812  -1.841  1.00  0.00     0.157 HD
ATOM     28  H91 UNL     1      -7.768   0.804  -1.937  1.00  0.00     0.157 HD
ENDBRANCH  11  13
ENDBRANCH   8  11
ENDBRANCH   5   8
ENDBRANCH   1   4
BRANCH   1  29
HETATM   29  C5  UNL     1       2.072  -0.114  -1.276  1.00  0.00     0.207 C 
BRANCH  29  30
HETATM   30  O5  UNL     1       1.588  -1.256  -1.955  1.00  0.00    -0.387 OA
ATOM     31  H5  UNL     1       2.359  -1.763  -2.180  1.00  0.00     0.210 HD
ENDBRANCH  29  30
BRANCH  29  32
HETATM   32  C6  UNL     1       3.008   0.619  -2.172  1.00  0.00     0.189 C 
BRANCH  32  33
HETATM   33  O6  UNL     1       2.399   1.073  -3.343  1.00  0.00    -0.390 OA
ATOM     34  H6  UNL     1       2.996   1.541  -3.915  1.00  0.00     0.210 HD
ENDBRANCH  32  33
BRANCH  32  35
HETATM   35  C7  UNL     1       3.731   1.707  -1.419  1.00  0.00     0.224 C 
BRANCH  35  36
HETATM   36  O7  UNL     1       4.739   2.257  -2.240  1.00  0.00    -0.385 OA
ATOM     37  H7  UNL     1       5.195   2.942  -1.766  1.00  0.00     0.210 HD
ENDBRANCH  35  36
BRANCH  35  38
HETATM   38  C8  UNL     1       4.473   1.023  -0.305  1.00  0.00     0.158 A 
HETATM   39  N5  UNL     1       4.115   1.161   0.980  1.00  0.00    -0.305 N 
HETATM   40  C9  UNL     1       4.787   0.541   1.984  1.00  0.00     0.249 A 
ATOM     41  H5  UNL     1       3.314   1.749   1.210  1.00  0.00     0.171 HD
HETATM   42  O8  UNL     1       4.463   0.661   3.193  1.00  0.00    -0.268 OA
HETATM   43  C10 UNL     1       5.867  -0.247   1.646  1.00  0.00     0.112 A 
HETATM   44  C11 UNL     1       6.206  -0.364   0.306  1.00  0.00     0.115 A 
HETATM   45  O11 UNL     1       5.502   0.268  -0.586  1.00  0.00    -0.294 OA
BRANCH  44  46
HETATM   46  C12 UNL     1       7.363  -1.205  -0.089  1.00  0.00     0.312 C 
BRANCH  46  47
HETATM   47  O9  UNL     1       7.354  -2.428   0.584  1.00  0.00    -0.365 OA
ATOM     48  H9  UNL     1       8.095  -2.966   0.331  1.00  0.00     0.213 HD
ENDBRANCH  46  47
BRANCH  46  49
HETATM   49  O10 UNL     1       8.539  -0.515   0.076  1.00  0.00    -0.365 OA
ATOM     50  H10 UNL     1       9.280  -1.053  -0.177  1.00  0.00     0.213 HD
ENDBRANCH  46  49
ENDBRANCH  44  46
ENDBRANCH  35  38
ENDBRANCH  32  35
ENDBRANCH  29  32
ENDBRANCH   1  29
BRANCH   2  51
HETATM   51  O4  UNL     1      -0.259   2.780  -1.256  1.00  0.00    -0.289 OA
ATOM     52  H4  UNL     1      -0.384   3.655  -1.603  1.00  0.00     0.244 HD
ENDBRANCH   2  51
TORSDOF 15
