REMARK  13 active torsions:
REMARK  status: ('A' for Active; 'I' for Inactive)
REMARK    1  A    between atoms: N1_1  and  C1_4 
REMARK    2  A    between atoms: C2_7  and  C3_8 
REMARK    3  A    between atoms: C4_10  and  C5_11 
REMARK    4  A    between atoms: N5_16  and  C6_17 
REMARK    5  A    between atoms: C6_17  and  C7_18 
REMARK    6  A    between atoms: C7_18  and  N6_19 
REMARK    7  A    between atoms: C7_18  and  C12_31 
REMARK       I    between atoms: N6_19  and  C8_21 
REMARK    8  A    between atoms: C8_21  and  O2_23 
REMARK    9  A    between atoms: O2_23  and  C9_24 
REMARK   10  A    between atoms: C9_24  and  C10_25 
REMARK   11  A    between atoms: C9_24  and  C11_28 
REMARK   12  A    between atoms: C10_25  and  O3_26 
REMARK   13  A    between atoms: C11_28  and  O4_29 
ROOT
HETATM    1  C7  UNL     1      -0.493  -0.834  -0.441  1.00  0.00     0.162 C 
ENDROOT
BRANCH   1   2
HETATM    2  C6  UNL     1       0.646  -1.693  -0.860  1.00  0.00     0.202 C 
BRANCH   2   3
HETATM    3  N5  UNL     1       1.923  -1.022  -0.749  1.00  0.00    -0.216 N 
HETATM    4  N4  UNL     1       2.561  -0.283  -1.623  1.00  0.00    -0.224 N 
HETATM    5  N3  UNL     1       3.698   0.100  -1.122  1.00  0.00    -0.268 N 
ATOM      6  H4  UNL     1       2.218  -0.045  -2.554  1.00  0.00     0.210 HD
HETATM    7  C5  UNL     1       3.836  -0.385   0.104  1.00  0.00     0.155 A 
ATOM      8  H3  UNL     1       4.382   0.686  -1.601  1.00  0.00     0.190 HD
HETATM    9  N14 UNL     1       2.723  -1.086   0.335  1.00  0.00    -0.266 N 
ATOM     10  H14 UNL     1       2.511  -1.590   1.196  1.00  0.00     0.190 HD
BRANCH   7  11
HETATM   11  C4  UNL     1       4.950  -0.232   1.043  1.00  0.00     0.103 A 
HETATM   12  C2  UNL     1       4.963   0.740   1.997  1.00  0.00     0.056 A 
HETATM   13  N2  UNL     1       6.043   0.807   2.811  1.00  0.00    -0.194 N 
HETATM   14  C1  UNL     1       7.091  -0.026   2.726  1.00  0.00     0.679 A 
ATOM     15  H2  UNL     1       6.061   1.531   3.529  1.00  0.00     0.184 HD
HETATM   16  N15 UNL     1       7.069  -0.977   1.788  1.00  0.00    -0.155 N 
HETATM   17  C17 UNL     1       6.018  -1.094   0.945  1.00  0.00     0.275 A 
ATOM     18  H15 UNL     1       7.854  -1.623   1.707  1.00  0.00     0.187 HD
HETATM   19  O5  UNL     1       6.040  -1.999   0.081  1.00  0.00    -0.267 OA
BRANCH  12  20
HETATM   20  C3  UNL     1       3.822   1.708   2.163  1.00  0.00     0.145 C 
HETATM   21  S1  UNL     1       4.253   2.827   3.542  1.00  0.00    -0.091 SA
ENDBRANCH  12  20
BRANCH  14  22
HETATM   22  N1  UNL     1       8.123   0.055   3.526  1.00  0.00    -0.234 N 
ATOM     23  H12 UNL     1       8.140   0.781   4.242  1.00  0.00     0.174 HD
ATOM     24  H11 UNL     1       8.920  -0.578   3.461  1.00  0.00     0.174 HD
ENDBRANCH  14  22
ENDBRANCH   7  11
ENDBRANCH   2   3
ENDBRANCH   1   2
BRANCH   1  25
HETATM   25  N6  UNL     1      -1.736  -1.620  -0.539  1.00  0.00    -0.325 N 
HETATM   26  C8  UNL     1      -2.607  -1.837   0.536  1.00  0.00     0.361 C 
HETATM   27  O1  UNL     1      -2.444  -1.396   1.689  1.00  0.00    -0.238 OA
ATOM     28  H6  UNL     1      -1.976  -2.030  -1.442  1.00  0.00     0.165 HD
BRANCH  26  29
HETATM   29  O2  UNL     1      -3.757  -2.601   0.352  1.00  0.00    -0.294 OA
BRANCH  29  30
HETATM   30  C9  UNL     1      -4.671  -2.853   1.387  1.00  0.00     0.180 C 
BRANCH  30  31
HETATM   31  C10 UNL     1      -6.067  -2.441   1.137  1.00  0.00     0.199 C 
BRANCH  31  32
HETATM   32  O3  UNL     1      -6.804  -2.781   2.298  1.00  0.00    -0.398 OA
ATOM     33  H3  UNL     1      -7.702  -2.516   2.137  1.00  0.00     0.209 HD
ENDBRANCH  31  32
ENDBRANCH  30  31
BRANCH  30  34
HETATM   34  C11 UNL     1      -4.527  -4.337   1.710  1.00  0.00     0.199 C 
BRANCH  34  35
HETATM   35  O4  UNL     1      -5.352  -4.763   2.717  1.00  0.00    -0.398 OA
ATOM     36  H4  UNL     1      -5.262  -5.687   2.918  1.00  0.00     0.209 HD
ENDBRANCH  34  35
ENDBRANCH  30  34
ENDBRANCH  29  30
ENDBRANCH  26  29
ENDBRANCH   1  25
BRANCH   1  37
HETATM   37  C12 UNL     1      -0.733   0.332  -1.363  1.00  0.00     0.094 A 
HETATM   38  N7  UNL     1      -0.212   0.510  -2.578  1.00  0.00    -0.188 N 
HETATM   39  C13 UNL     1      -0.675   1.652  -3.129  1.00  0.00     0.707 A 
ATOM     40  H7  UNL     1       0.445  -0.128  -3.028  1.00  0.00     0.184 HD
HETATM   41  N8  UNL     1      -0.459   2.256  -4.306  1.00  0.00    -0.173 N 
HETATM   42  N12 UNL     1      -1.513   2.206  -2.227  1.00  0.00    -0.069 N 
HETATM   43  C14 UNL     1      -1.054   3.410  -4.628  1.00  0.00     0.174 A 
ATOM     44  H8  UNL     1       0.177   1.823  -4.975  1.00  0.00     0.185 HD
HETATM   45  N9  UNL     1      -0.847   4.071  -5.864  1.00  0.00    -0.078 NA
HETATM   46  C15 UNL     1      -1.902   3.967  -3.711  1.00  0.00     0.173 A 
HETATM   47  N10 UNL     1      -2.596   5.184  -3.931  1.00  0.00    -0.078 NA
HETATM   48  N11 UNL     1      -2.104   3.345  -2.537  1.00  0.00    -0.262 N 
ATOM     49  H11 UNL     1      -2.738   3.769  -1.860  1.00  0.00     0.189 HD
HETATM   50  C16 UNL     1      -1.564   1.403  -1.122  1.00  0.00     0.181 A 
HETATM   51  N13 UNL     1      -2.358   1.706   0.020  1.00  0.00    -0.078 NA
ENDBRANCH   1  37
TORSDOF 13
