REMARK  18 active torsions:
REMARK  status: ('A' for Active; 'I' for Inactive)
REMARK    1  A    between atoms: C2_2  and  O1_3 
REMARK    2  A    between atoms: C2_2  and  C13_36 
REMARK    3  A    between atoms: O1_3  and  C3_4 
REMARK    4  A    between atoms: C3_4  and  O2_5 
REMARK    5  A    between atoms: C3_4  and  N1_7 
REMARK    6  A    between atoms: C5_9  and  O3_10 
REMARK    7  A    between atoms: O3_10  and  C6_11 
REMARK    8  A    between atoms: C6_11  and  C7_13 
REMARK    9  A    between atoms: C7_13  and  O5_14 
REMARK   10  A    between atoms: C7_13  and  O6_16 
REMARK   11  A    between atoms: C8_18  and  N2_19 
REMARK   12  A    between atoms: C10_23  and  N3_24 
REMARK   13  A    between atoms: C11_29  and  N5_30 
REMARK   14  A    between atoms: C13_36  and  O7_37 
REMARK   15  A    between atoms: C13_36  and  C14_39 
REMARK   16  A    between atoms: C14_39  and  O8_40 
REMARK   17  A    between atoms: C14_39  and  C15_42 
REMARK   18  A    between atoms: C15_42  and  O9_43 
ROOT
HETATM    1  N1  UNL     1      -0.847  -0.383   0.062  1.00  0.00    -0.264 N 
HETATM    2  C4  UNL     1      -2.003  -1.002   0.438  1.00  0.00     0.142 A 
HETATM    3  C5  UNL     1      -3.220  -0.380   0.457  1.00  0.00     0.122 A 
HETATM    4  C8  UNL     1      -3.285   0.940   0.078  1.00  0.00     0.079 A 
HETATM    5  C9  UNL     1      -2.145   1.592  -0.304  1.00  0.00     0.082 A 
HETATM    6  C10 UNL     1      -2.230   2.909  -0.679  1.00  0.00     0.131 A 
HETATM    7  N4  UNL     1      -1.130   3.580  -1.061  1.00  0.00    -0.176 N 
ATOM      8  H4  UNL     1      -1.179   4.559  -1.343  1.00  0.00     0.186 HD
HETATM    9  C11 UNL     1       0.031   2.916  -1.058  1.00  0.00     0.679 A 
HETATM   10  N6  UNL     1       0.144   1.602  -0.689  1.00  0.00    -0.175 N 
ATOM     11  H6  UNL     1       1.061   1.155  -0.710  1.00  0.00     0.186 HD
HETATM   12  C12 UNL     1      -0.921   0.892  -0.302  1.00  0.00     0.147 A 
ENDROOT
BRANCH   1  13
HETATM   13  C3  UNL     1       0.343  -1.105   0.077  1.00  0.00     0.271 C 
BRANCH  13  14
HETATM   14  O1  UNL     1       1.625  -0.798  -0.228  1.00  0.00    -0.308 OA
BRANCH  14  15
HETATM   15  C2  UNL     1       2.739  -1.634  -0.167  1.00  0.00     0.159 C 
HETATM   16  C1  UNL     1       3.277  -1.815  -1.558  1.00  0.00     0.043 C 
BRANCH  15  17
HETATM   17  C13 UNL     1       3.839  -1.157   0.730  1.00  0.00     0.178 C 
BRANCH  17  18
HETATM   18  O7  UNL     1       3.391  -1.080   2.068  1.00  0.00    -0.390 OA
ATOM     19  H7  UNL     1       4.089  -0.777   2.637  1.00  0.00     0.210 HD
ENDBRANCH  17  18
BRANCH  17  20
HETATM   20  C14 UNL     1       4.461   0.138   0.313  1.00  0.00     0.172 C 
BRANCH  20  21
HETATM   21  O8  UNL     1       4.957   0.164  -0.972  1.00  0.00    -0.391 OA
ATOM     22  H8  UNL     1       5.352   0.986  -1.237  1.00  0.00     0.210 HD
ENDBRANCH  20  21
BRANCH  20  23
HETATM   23  C15 UNL     1       5.583   0.566   1.232  1.00  0.00     0.198 C 
BRANCH  23  24
HETATM   24  O9  UNL     1       5.965   1.852   0.859  1.00  0.00    -0.398 OA
ATOM     25  H9  UNL     1       6.670   2.121   1.436  1.00  0.00     0.209 HD
ENDBRANCH  23  24
ENDBRANCH  20  23
ENDBRANCH  17  20
ENDBRANCH  15  17
ENDBRANCH  14  15
ENDBRANCH  13  14
BRANCH  13  26
HETATM   26  O2  UNL     1       0.251  -2.346   0.459  1.00  0.00    -0.326 OA
ATOM     27  H2  UNL     1      -0.649  -2.562   0.673  1.00  0.00     0.221 HD
ENDBRANCH  13  26
ENDBRANCH   1  13
BRANCH   3  28
HETATM   28  O3  UNL     1      -4.403  -0.991   0.835  1.00  0.00    -0.271 OA
BRANCH  28  29
HETATM   29  C6  UNL     1      -5.200  -1.634  -0.076  1.00  0.00     0.319 C 
HETATM   30  O4  UNL     1      -4.829  -1.656  -1.270  1.00  0.00    -0.259 OA
BRANCH  29  31
HETATM   31  C7  UNL     1      -6.454  -2.267   0.401  1.00  0.00     0.357 C 
BRANCH  31  32
HETATM   32  O5  UNL     1      -6.615  -2.091   1.756  1.00  0.00    -0.363 OA
ATOM     33  H5  UNL     1      -7.418  -2.496   2.061  1.00  0.00     0.213 HD
ENDBRANCH  31  32
BRANCH  31  34
HETATM   34  O6  UNL     1      -6.304  -3.654   0.167  1.00  0.00    -0.363 OA
ATOM     35  H6  UNL     1      -7.107  -4.059   0.472  1.00  0.00     0.213 HD
ENDBRANCH  31  34
ENDBRANCH  29  31
ENDBRANCH  28  29
ENDBRANCH   3  28
BRANCH   4  36
HETATM   36  N2  UNL     1      -4.415   1.597   0.073  1.00  0.00    -0.396 N 
ATOM     37  H22 UNL     1      -5.265   1.111   0.358  1.00  0.00     0.156 HD
ATOM     38  H21 UNL     1      -4.463   2.576  -0.208  1.00  0.00     0.156 HD
ENDBRANCH   4  36
BRANCH   6  39
HETATM   39  N3  UNL     1      -3.399   3.486  -0.654  1.00  0.00    -0.384 N 
ATOM     40  H32 UNL     1      -4.234   2.977  -0.364  1.00  0.00     0.157 HD
ATOM     41  H31 UNL     1      -3.462   4.465  -0.933  1.00  0.00     0.157 HD
ENDBRANCH   6  39
BRANCH   9  42
HETATM   42  N5  UNL     1       1.121   3.516  -1.417  1.00  0.00    -0.234 N 
ATOM     43  H52 UNL     1       1.037   4.495  -1.692  1.00  0.00     0.174 HD
ATOM     44  H51 UNL     1       2.006   3.010  -1.415  1.00  0.00     0.174 HD
ENDBRANCH   9  42
TORSDOF 18
