REMARK  13 active torsions:
REMARK  status: ('A' for Active; 'I' for Inactive)
REMARK    1  A    between atoms: O1_2  and  C2_3 
REMARK    2  A    between atoms: C2_3  and  O2_4 
REMARK    3  A    between atoms: C2_3  and  C3_6 
REMARK    4  A    between atoms: C6_13  and  C7_14 
REMARK    5  A    between atoms: C7_14  and  O3_15 
REMARK    6  A    between atoms: C7_14  and  O4_17 
REMARK    7  A    between atoms: C9_21  and  N4_22 
REMARK    8  A    between atoms: N5_25  and  N6_26 
REMARK       I    between atoms: N6_26  and  C10_28 
REMARK       I    between atoms: C10_28  and  N8_32 
REMARK    9  A    between atoms: N8_32  and  N9_34 
REMARK   10  A    between atoms: N9_34  and  C12_36 
REMARK   11  A    between atoms: C12_36  and  O5_37 
REMARK   12  A    between atoms: C12_36  and  O6_39 
REMARK   13  A    between atoms: C12_36  and  N10_41 
ROOT
HETATM    1  N10 UNL     1       3.884   3.250  -0.124  1.00  0.00    -0.252 N 
ATOM      2  H10 UNL     1       4.443   3.948   0.366  1.00  0.00     0.179 HD
HETATM    3  C13 UNL     1       3.132   3.683  -1.223  1.00  0.00     0.183 C 
HETATM    4  N11 UNL     1       2.521   4.063  -2.127  1.00  0.00    -0.172 NA
ENDROOT
BRANCH   1   5
HETATM    5  C12 UNL     1       3.931   1.905   0.368  1.00  0.00     0.360 C 
BRANCH   5   6
HETATM    6  N9  UNL     1       4.384   0.924  -0.541  1.00  0.00    -0.240 N 
HETATM    7  C11 UNL     1       5.040  -0.211  -0.008  1.00  0.00     0.179 C 
BRANCH   6   8
HETATM    8  N8  UNL     1       3.648   0.649  -1.645  1.00  0.00    -0.128 N 
HETATM    9  C10 UNL     1       2.904  -0.598  -1.707  1.00  0.00     0.705 C 
HETATM   10  N6  UNL     1       1.899  -0.837  -0.769  1.00  0.00    -0.121 N 
HETATM   11  N7  UNL     1       3.255  -1.438  -2.634  1.00  0.00    -0.232 N 
ATOM     12  H6  UNL     1       2.229  -1.267   0.095  1.00  0.00     0.206 HD
ATOM     13  H72 UNL     1       2.733  -2.313  -2.678  1.00  0.00     0.174 HD
ATOM     14  H71 UNL     1       3.990  -1.263  -3.320  1.00  0.00     0.174 HD
ATOM     15  H8  UNL     1       3.617   1.309  -2.422  1.00  0.00     0.205 HD
BRANCH  10  16
HETATM   16  N5  UNL     1       0.540  -0.598  -0.795  1.00  0.00    -0.206 N 
HETATM   17  C4  UNL     1      -0.121  -0.941   0.361  1.00  0.00     0.157 A 
HETATM   18  N2  UNL     1       0.321  -1.452   1.500  1.00  0.00    -0.283 N 
HETATM   19  C5  UNL     1      -1.495  -0.768   0.525  1.00  0.00     0.053 A 
HETATM   20  N1  UNL     1      -0.668  -1.612   2.338  1.00  0.00    -0.297 N 
ATOM     21  H2  UNL     1       1.294  -1.687   1.695  1.00  0.00     0.188 HD
HETATM   22  C3  UNL     1      -1.858  -1.197   1.782  1.00  0.00     0.095 A 
ATOM     23  H1  UNL     1      -0.572  -1.994   3.279  1.00  0.00     0.187 HD
HETATM   24  C6  UNL     1      -2.231  -0.219  -0.508  1.00  0.00     0.040 A 
HETATM   25  C8  UNL     1      -1.558   0.119  -1.653  1.00  0.00     0.103 A 
HETATM   26  N3  UNL     1      -2.187   0.652  -2.811  1.00  0.00    -0.098 NA
HETATM   27  C9  UNL     1      -0.153  -0.070  -1.802  1.00  0.00     0.148 A 
BRANCH  22  28
HETATM   28  C2  UNL     1      -3.199  -1.307   2.369  1.00  0.00     0.309 C 
BRANCH  28  29
HETATM   29  O1  UNL     1      -4.146  -2.005   1.686  1.00  0.00    -0.360 OA
HETATM   30  C1  UNL     1      -5.378  -1.722   2.324  1.00  0.00     0.205 C 
ENDBRANCH  28  29
BRANCH  28  31
HETATM   31  O2  UNL     1      -2.933  -2.432   3.347  1.00  0.00    -0.366 OA
ATOM     32  H2  UNL     1      -2.272  -1.945   3.824  1.00  0.00     0.213 HD
ENDBRANCH  28  31
ENDBRANCH  22  28
BRANCH  24  33
HETATM   33  C7  UNL     1      -3.653   0.141  -0.417  1.00  0.00     0.291 C 
BRANCH  33  34
HETATM   34  O3  UNL     1      -3.698   1.450  -1.065  1.00  0.00    -0.367 OA
ATOM     35  H3  UNL     1      -4.617   1.683  -1.006  1.00  0.00     0.213 HD
ENDBRANCH  33  34
BRANCH  33  36
HETATM   36  O4  UNL     1      -4.491  -0.575  -1.262  1.00  0.00    -0.367 OA
ATOM     37  H4  UNL     1      -5.410  -0.342  -1.203  1.00  0.00     0.213 HD
ENDBRANCH  33  36
ENDBRANCH  24  33
BRANCH  27  38
HETATM   38  N4  UNL     1       0.363   0.313  -2.878  1.00  0.00    -0.382 N 
ATOM     39  H42 UNL     1      -0.168   0.717  -3.649  1.00  0.00     0.157 HD
ATOM     40  H41 UNL     1       1.368   0.178  -2.985  1.00  0.00     0.157 HD
ENDBRANCH  27  38
ENDBRANCH  10  16
ENDBRANCH   6   8
ENDBRANCH   5   6
BRANCH   5  41
HETATM   41  O5  UNL     1       2.636   1.582   0.822  1.00  0.00    -0.329 OA
ATOM     42  H5  UNL     1       2.331   2.242   1.434  1.00  0.00     0.217 HD
ENDBRANCH   5  41
BRANCH   5  43
HETATM   43  O6  UNL     1       4.721   1.884   1.552  1.00  0.00    -0.329 OA
ATOM     44  H6  UNL     1       4.416   2.544   2.164  1.00  0.00     0.217 HD
ENDBRANCH   5  43
ENDBRANCH   1   5
TORSDOF 13
