REMARK  8 active torsions:
REMARK  status: ('A' for Active; 'I' for Inactive)
REMARK    1  A    between atoms: C5_6  and  N1_7 
REMARK       I    between atoms: N1_7  and  C6_9 
REMARK       I    between atoms: C6_9  and  N2_10 
REMARK       I    between atoms: C6_9  and  N3_14 
REMARK    2  A    between atoms: C7_18  and  N4_19 
REMARK       I    between atoms: N4_19  and  C8_21 
REMARK    3  A    between atoms: C8_21  and  C9_23 
REMARK    4  A    between atoms: C9_23  and  N5_25 
REMARK    5  A    between atoms: C13_41  and  C14_42 
REMARK    6  A    between atoms: C14_42  and  O4_43 
REMARK    7  A    between atoms: C14_42  and  N11_45 
REMARK    8  A    between atoms: N11_45  and  O5_46 
ROOT
HETATM    1  C1  UNL     1       3.651  -0.041  -2.357  1.00  0.00     0.079 C 
HETATM    2  C2  UNL     1       3.003  -0.370  -1.041  1.00  0.00     0.078 A 
HETATM    3  O1  UNL     1       1.766  -0.120  -0.676  1.00  0.00    -0.294 OA
HETATM    4  C3  UNL     1       1.526  -0.532   0.522  1.00  0.00     0.179 A 
HETATM    5  C4  UNL     1       0.296  -0.439   1.265  1.00  0.00     0.141 C 
HETATM    6  C5  UNL     1      -0.762   0.181   0.650  1.00  0.00     0.109 C 
HETATM    7  C7  UNL     1      -2.167   0.036   0.712  1.00  0.00     0.141 C 
HETATM    8  N6  UNL     1      -2.994  -0.535   1.596  1.00  0.00    -0.292 N 
ATOM      9  H6  UNL     1      -3.895  -0.792   1.194  1.00  0.00     0.172 HD
HETATM   10  C11 UNL     1      -2.890  -0.846   2.916  1.00  0.00     0.328 C 
HETATM   11  O3  UNL     1      -4.006  -0.843   3.513  1.00  0.00    -0.247 OA
HETATM   12  N7  UNL     1      -1.896  -1.159   3.760  1.00  0.00    -0.277 N 
ATOM     13  H7  UNL     1      -2.193  -1.321   4.722  1.00  0.00     0.173 HD
HETATM   14  C12 UNL     1      -0.574  -1.296   3.554  1.00  0.00     0.225 A 
HETATM   15  N8  UNL     1       0.790  -1.577   3.660  1.00  0.00    -0.259 N 
ATOM     16  H8  UNL     1       1.563  -1.952   4.210  1.00  0.00     0.191 HD
HETATM   17  N9  UNL     1       0.359  -0.999   2.514  1.00  0.00    -0.214 N 
HETATM   18  N10 UNL     1       2.656  -1.085   0.982  1.00  0.00    -0.333 N 
ATOM     19  H10 UNL     1       2.779  -1.502   1.905  1.00  0.00     0.168 HD
HETATM   20  C13 UNL     1       3.603  -1.001   0.030  1.00  0.00     0.088 A 
ENDROOT
BRANCH   6  21
HETATM   21  N1  UNL     1      -0.335   1.181  -0.237  1.00  0.00    -0.336 N 
HETATM   22  C6  UNL     1      -0.086   2.542   0.222  1.00  0.00     0.480 C 
HETATM   23  N2  UNL     1       0.371   3.401  -0.846  1.00  0.00    -0.033 N 
HETATM   24  N3  UNL     1       0.821   2.632   1.324  1.00  0.00    -0.033 N 
ATOM     25  H23 UNL     1       1.192   3.011  -1.308  1.00  0.00     0.278 HD
ATOM     26  H22 UNL     1      -0.278   3.389  -1.633  1.00  0.00     0.278 HD
ATOM     27  H21 UNL     1       0.545   4.353  -0.525  1.00  0.00     0.278 HD
ATOM     28  H33 UNL     1       0.503   2.047   2.097  1.00  0.00     0.278 HD
ATOM     29  H32 UNL     1       1.700   2.164   1.102  1.00  0.00     0.278 HD
ATOM     30  H31 UNL     1       0.995   3.584   1.645  1.00  0.00     0.278 HD
ATOM     31  H1  UNL     1      -0.196   0.951  -1.221  1.00  0.00     0.163 HD
ENDBRANCH   6  21
BRANCH   7  32
HETATM   32  N4  UNL     1      -2.679   0.584  -0.313  1.00  0.00    -0.309 N 
HETATM   33  C8  UNL     1      -4.047   0.616  -0.554  1.00  0.00     0.253 C 
HETATM   34  O2  UNL     1      -4.829   1.213   0.259  1.00  0.00    -0.271 OA
ATOM     35  H4  UNL     1      -2.056   1.022  -0.992  1.00  0.00     0.170 HD
BRANCH  33  36
HETATM   36  C9  UNL     1      -4.698  -0.017  -1.737  1.00  0.00     0.271 C 
HETATM   37  C10 UNL     1      -4.350  -1.478  -1.810  1.00  0.00     0.050 C 
BRANCH  36  38
HETATM   38  N5  UNL     1      -6.132   0.128  -1.722  1.00  0.00    -0.067 N 
ATOM     39  H53 UNL     1      -6.528  -0.227  -0.852  1.00  0.00     0.275 HD
ATOM     40  H52 UNL     1      -6.401   1.108  -1.636  1.00  0.00     0.275 HD
ATOM     41  H51 UNL     1      -6.577  -0.305  -2.531  1.00  0.00     0.275 HD
ENDBRANCH  36  38
ENDBRANCH  33  36
ENDBRANCH   7  32
BRANCH  20  42
HETATM   42  C14 UNL     1       4.999  -1.468   0.065  1.00  0.00     0.291 C 
BRANCH  42  43
HETATM   43  O4  UNL     1       5.013  -2.740   0.605  1.00  0.00    -0.372 OA
ATOM     44  H4  UNL     1       5.914  -3.041   0.628  1.00  0.00     0.212 HD
ENDBRANCH  42  43
BRANCH  42  45
HETATM   45  N11 UNL     1       5.819  -0.567   0.833  1.00  0.00    -0.065 NA
BRANCH  45  46
HETATM   46  O5  UNL     1       7.106  -0.971   0.890  1.00  0.00    -0.293 OA
ATOM     47  H5  UNL     1       7.647  -0.377   1.397  1.00  0.00     0.238 HD
ENDBRANCH  45  46
ENDBRANCH  42  45
ENDBRANCH  20  42
TORSDOF 8
