REMARK  9 active torsions:
REMARK  status: ('A' for Active; 'I' for Inactive)
REMARK    1  A    between atoms: C2_2  and  O1_3 
REMARK    2  A    between atoms: C2_2  and  C3_5 
REMARK    3  A    between atoms: C3_5  and  C4_6 
REMARK    4  A    between atoms: C3_5  and  N10_28 
REMARK    5  A    between atoms: C4_6  and  N1_7 
REMARK    6  A    between atoms: C4_6  and  C6_12 
REMARK       I    between atoms: N1_7  and  C5_9 
REMARK    7  A    between atoms: C7_15  and  N5_16 
REMARK    8  A    between atoms: C8_21  and  N8_22 
REMARK    9  A    between atoms: C11_33  and  N12_34 
ROOT
HETATM    1  C4  UNL     1       0.034  -0.347   0.184  1.00  0.00     0.157 C 
ENDROOT
BRANCH   1   2
HETATM    2  C3  UNL     1      -1.015   0.533  -0.367  1.00  0.00     0.147 C 
BRANCH   2   3
HETATM    3  C2  UNL     1      -1.045   0.908  -1.802  1.00  0.00     0.139 C 
HETATM    4  C1  UNL     1       0.065   1.679  -2.389  1.00  0.00     0.041 C 
BRANCH   3   5
HETATM    5  O1  UNL     1      -1.252  -0.226  -2.631  1.00  0.00    -0.394 OA
ATOM      6  H1  UNL     1      -1.968  -0.723  -2.253  1.00  0.00     0.210 HD
ENDBRANCH   3   5
ENDBRANCH   2   3
BRANCH   2   7
HETATM    7  N10 UNL     1      -2.303  -0.171  -0.132  1.00  0.00    -0.318 N 
HETATM    8  C9  UNL     1      -2.563  -1.392  -0.601  1.00  0.00     0.185 A 
HETATM    9  N11 UNL     1      -3.826  -1.764  -0.226  1.00  0.00    -0.346 N 
HETATM   10  C10 UNL     1      -4.327  -0.751   0.477  1.00  0.00     0.122 A 
ATOM     11  H11 UNL     1      -4.292  -2.645  -0.443  1.00  0.00     0.167 HD
HETATM   12  C11 UNL     1      -5.541  -0.574   1.092  1.00  0.00     0.131 A 
HETATM   13  C13 UNL     1      -3.363   0.257   0.536  1.00  0.00     0.141 A 
HETATM   14  N13 UNL     1      -5.770   0.577   1.742  1.00  0.00    -0.337 N 
HETATM   15  C12 UNL     1      -4.807   1.544   1.783  1.00  0.00     0.183 A 
ATOM     16  H13 UNL     1      -6.665   0.730   2.206  1.00  0.00     0.168 HD
HETATM   17  N14 UNL     1      -3.614   1.384   1.184  1.00  0.00    -0.336 N 
ATOM     18  H14 UNL     1      -2.911   2.122   1.228  1.00  0.00     0.168 HD
BRANCH  12  19
HETATM   19  N12 UNL     1      -6.452  -1.482   1.057  1.00  0.00    -0.383 N 
ATOM     20 2H12 UNL     1      -6.278  -2.357   0.563  1.00  0.00     0.157 HD
ATOM     21 1H12 UNL     1      -7.354  -1.350   1.514  1.00  0.00     0.157 HD
ENDBRANCH  12  19
ENDBRANCH   2   7
ENDBRANCH   1   2
BRANCH   1  22
HETATM   22  N1  UNL     1      -0.359  -0.454   1.648  1.00  0.00    -0.335 N 
HETATM   23  C5  UNL     1      -0.495  -1.679   2.290  1.00  0.00     0.329 C 
HETATM   24  N2  UNL     1      -0.878  -1.647   3.679  1.00  0.00    -0.040 NA
HETATM   25  O2  UNL     1      -0.327  -2.822   1.814  1.00  0.00    -0.251 OA
ATOM     26  H1  UNL     1      -0.529   0.402   2.177  1.00  0.00     0.164 HD
ENDBRANCH   1  22
BRANCH   1  27
HETATM   27  C6  UNL     1       1.435   0.117   0.288  1.00  0.00     0.259 C 
HETATM   28  N3  UNL     1       2.251  -0.799   1.107  1.00  0.00    -0.110 NA
HETATM   29  N4  UNL     1       3.524  -0.247   0.966  1.00  0.00    -0.089 NA
HETATM   30  C7  UNL     1       3.477   0.463  -0.306  1.00  0.00     0.378 C 
HETATM   31  O3  UNL     1       2.199   0.265  -0.808  1.00  0.00    -0.323 OA
BRANCH  30  32
HETATM   32  N5  UNL     1       4.507   0.010  -1.195  1.00  0.00    -0.157 N 
HETATM   33  N6  UNL     1       4.344  -0.736  -2.263  1.00  0.00    -0.207 N 
HETATM   34  N7  UNL     1       5.518  -0.963  -2.850  1.00  0.00    -0.115 N 
ATOM     35  H6  UNL     1       3.447  -1.091  -2.595  1.00  0.00     0.210 HD
HETATM   36  C8  UNL     1       6.425  -0.322  -2.097  1.00  0.00     0.707 A 
ATOM     37  H7  UNL     1       5.691  -1.509  -3.694  1.00  0.00     0.207 HD
HETATM   38  N9  UNL     1       5.787   0.278  -1.074  1.00  0.00    -0.109 N 
ATOM     39  H9  UNL     1       6.219   0.838  -0.339  1.00  0.00     0.207 HD
BRANCH  36  40
HETATM   40  N8  UNL     1       7.706  -0.277  -2.305  1.00  0.00    -0.232 N 
ATOM     41  H82 UNL     1       8.189  -0.731  -3.080  1.00  0.00     0.174 HD
ATOM     42  H81 UNL     1       8.395   0.210  -1.733  1.00  0.00     0.174 HD
ENDBRANCH  36  40
ENDBRANCH  30  32
ENDBRANCH   1  27
TORSDOF 9
