REMARK  15 active torsions:
REMARK  status: ('A' for Active; 'I' for Inactive)
REMARK    1  A    between atoms: N1_1  and  C1_4 
REMARK    2  A    between atoms: C2_7  and  N3_8 
REMARK    3  A    between atoms: N4_14  and  C5_15 
REMARK    4  A    between atoms: C5_15  and  O2_16 
REMARK    5  A    between atoms: C5_15  and  C6_18 
REMARK    6  A    between atoms: C6_18  and  O4_20 
REMARK    7  A    between atoms: O4_20  and  C7_21 
REMARK    8  A    between atoms: C7_21  and  C8_22 
REMARK    9  A    between atoms: C9_25  and  C10_26 
REMARK   10  A    between atoms: C10_26  and  O5_27 
REMARK   11  A    between atoms: C10_26  and  N6_29 
REMARK   12  A    between atoms: N6_29  and  N7_31 
REMARK       I    between atoms: N7_31  and  C11_33 
REMARK   13  A    between atoms: C11_33  and  C12_35 
REMARK   14  A    between atoms: C12_35  and  O7_36 
REMARK   15  A    between atoms: C13_38  and  O8_39 
ROOT
HETATM    1  C6  UNL     1      -1.177  -0.582  -0.898  1.00  0.00     0.308 C 
HETATM    2  O3  UNL     1      -0.500   0.432  -0.612  1.00  0.00    -0.260 OA
ENDROOT
BRANCH   1   3
HETATM    3  C5  UNL     1      -2.260  -0.470  -1.939  1.00  0.00     0.330 C 
BRANCH   3   4
HETATM    4  N4  UNL     1      -3.201   0.526  -1.416  1.00  0.00    -0.273 N 
HETATM    5  C4  UNL     1      -4.326   0.132  -0.771  1.00  0.00     0.268 A 
HETATM    6  C3  UNL     1      -5.261   0.995  -0.250  1.00  0.00     0.121 A 
HETATM    7  O1  UNL     1      -4.487  -1.104  -0.664  1.00  0.00    -0.267 OA
HETATM    8  C2  UNL     1      -6.401   0.579   0.403  1.00  0.00     0.134 A 
HETATM    9  C16 UNL     1      -4.984   2.350  -0.425  1.00  0.00     0.141 A 
HETATM   10  N2  UNL     1      -7.262   1.548   0.881  1.00  0.00    -0.176 N 
HETATM   11  C1  UNL     1      -6.976   2.839   0.702  1.00  0.00     0.679 A 
ATOM     12  H2  UNL     1      -8.115   1.277   1.370  1.00  0.00     0.186 HD
HETATM   13  N10 UNL     1      -5.865   3.250   0.065  1.00  0.00    -0.176 N 
ATOM     14  H10 UNL     1      -5.686   4.248  -0.049  1.00  0.00     0.186 HD
HETATM   15  N9  UNL     1      -3.868   2.732  -1.065  1.00  0.00    -0.337 N 
HETATM   16  C15 UNL     1      -2.987   1.842  -1.555  1.00  0.00     0.191 A 
ATOM     17  H9  UNL     1      -3.682   3.728  -1.183  1.00  0.00     0.168 HD
BRANCH   8  18
HETATM   18  N3  UNL     1      -6.706  -0.606   0.592  1.00  0.00    -0.384 N 
ATOM     19  H32 UNL     1      -7.550  -0.914   1.075  1.00  0.00     0.157 HD
ATOM     20  H31 UNL     1      -6.070  -1.321   0.239  1.00  0.00     0.157 HD
ENDBRANCH   8  18
BRANCH  11  21
HETATM   21  N1  UNL     1      -7.801   3.720   1.160  1.00  0.00    -0.234 N 
ATOM     22  H12 UNL     1      -8.644   3.408   1.643  1.00  0.00     0.174 HD
ATOM     23  H11 UNL     1      -7.582   4.707   1.023  1.00  0.00     0.174 HD
ENDBRANCH  11  21
ENDBRANCH   3   4
BRANCH   3  24
HETATM   24  O2  UNL     1      -2.893  -1.681  -2.120  1.00  0.00    -0.367 OA
ATOM     25  H2  UNL     1      -2.283  -2.326  -2.459  1.00  0.00     0.212 HD
ENDBRANCH   3  24
ENDBRANCH   1   3
BRANCH   1  26
HETATM   26  O4  UNL     1      -0.912  -1.769  -0.254  1.00  0.00    -0.316 OA
BRANCH  26  27
HETATM   27  C7  UNL     1       0.072  -1.984   0.727  1.00  0.00     0.213 C 
BRANCH  27  28
HETATM   28  C8  UNL     1       1.484  -1.731   0.249  1.00  0.00     0.195 C 
HETATM   29  N5  UNL     1       2.385  -1.993   1.332  1.00  0.00    -0.393 N 
HETATM   30  C9  UNL     1       3.740  -2.234   0.971  1.00  0.00     0.203 C 
ATOM     31  H5  UNL     1       2.074  -2.006   2.303  1.00  0.00     0.155 HD
HETATM   32  C13 UNL     1       3.951  -3.205  -0.134  1.00  0.00     0.250 C 
HETATM   33  N8  UNL     1       3.110  -2.878  -1.253  1.00  0.00    -0.331 N 
HETATM   34  C14 UNL     1       1.802  -2.435  -0.992  1.00  0.00     0.244 C 
ATOM     35  H8  UNL     1       3.453  -2.965  -2.210  1.00  0.00     0.165 HD
HETATM   36  O9  UNL     1       0.908  -2.667  -1.872  1.00  0.00    -0.271 OA
BRANCH  30  37
HETATM   37  C10 UNL     1       4.422  -0.973   0.631  1.00  0.00     0.157 C 
BRANCH  37  38
HETATM   38  O5  UNL     1       3.949  -0.203  -0.403  1.00  0.00    -0.347 OA
ATOM     39  H5  UNL     1       4.389   0.610  -0.622  1.00  0.00     0.219 HD
ENDBRANCH  37  38
BRANCH  37  40
HETATM   40  N6  UNL     1       5.444  -0.601   1.292  1.00  0.00    -0.279 N 
ATOM     41  H6  UNL     1       5.789  -1.180   2.058  1.00  0.00     0.189 HD
BRANCH  40  42
HETATM   42  N7  UNL     1       6.090   0.581   0.981  1.00  0.00    -0.267 N 
HETATM   43  C11 UNL     1       5.572   1.810   1.435  1.00  0.00     0.259 C 
HETATM   44  O6  UNL     1       4.518   1.830   2.126  1.00  0.00    -0.269 OA
ATOM     45  H7  UNL     1       6.943   0.563   0.422  1.00  0.00     0.190 HD
BRANCH  43  46
HETATM   46  C12 UNL     1       6.285   3.077   1.088  1.00  0.00     0.268 C 
BRANCH  46  47
HETATM   47  O7  UNL     1       5.573   4.122   1.647  1.00  0.00    -0.392 OA
ATOM     48  H7  UNL     1       6.026   4.927   1.426  1.00  0.00     0.210 HD
ENDBRANCH  46  47
ENDBRANCH  43  46
ENDBRANCH  40  42
ENDBRANCH  37  40
ENDBRANCH  30  37
BRANCH  32  49
HETATM   49  O8  UNL     1       3.844  -4.538   0.255  1.00  0.00    -0.374 OA
ATOM     50  H8  UNL     1       3.979  -5.159  -0.451  1.00  0.00     0.212 HD
ENDBRANCH  32  49
ENDBRANCH  27  28
ENDBRANCH  26  27
ENDBRANCH   1  26
TORSDOF 15
