REMARK  6 active torsions:
REMARK  status: ('A' for Active; 'I' for Inactive)
REMARK    1  A    between atoms: C2_2  and  N1_3 
REMARK    2  A    between atoms: C2_2  and  C3_7 
REMARK       I    between atoms: C3_7  and  N2_9 
REMARK    3  A    between atoms: N2_9  and  N3_11 
REMARK    4  A    between atoms: C4_13  and  C5_14 
REMARK    5  A    between atoms: C7_18  and  N5_19 
REMARK    6  A    between atoms: C9_25  and  N8_26 
REMARK       I    between atoms: N8_26  and  C10_28 
ROOT
HETATM    1  C5  UNL     1       0.297  -0.583  -0.214  1.00  0.00     0.013 A 
HETATM    2  C6  UNL     1      -0.242  -1.605   0.523  1.00  0.00     0.120 A 
HETATM    3  N4  UNL     1      -1.567  -1.816   0.540  1.00  0.00    -0.200 N 
ATOM      4  H4  UNL     1      -1.947  -2.583   1.095  1.00  0.00     0.183 HD
HETATM    5  C7  UNL     1      -2.393  -1.037  -0.159  1.00  0.00     0.704 A 
HETATM    6  N11 UNL     1      -1.874  -0.033  -0.884  1.00  0.00    -0.200 N 
ATOM      7  H11 UNL     1      -2.506   0.562  -1.419  1.00  0.00     0.183 HD
HETATM    8  C11 UNL     1      -0.557   0.219  -0.933  1.00  0.00     0.120 A 
ENDROOT
BRANCH   5   9
HETATM    9  N5  UNL     1      -3.813  -1.262  -0.141  1.00  0.00     0.029 N 
HETATM   10  C8  UNL     1      -4.418  -2.453  -0.352  1.00  0.00     0.242 A 
HETATM   11  N6  UNL     1      -5.736  -2.256  -0.254  1.00  0.00    -0.280 N 
HETATM   12  N7  UNL     1      -5.922  -0.960   0.013  1.00  0.00    -0.130 N 
ATOM     13  H6  UNL     1      -6.464  -2.962  -0.363  1.00  0.00     0.188 HD
HETATM   14  C9  UNL     1      -4.745  -0.337   0.086  1.00  0.00     0.721 A 
ATOM     15  H7  UNL     1      -6.830  -0.513   0.142  1.00  0.00     0.205 HD
BRANCH  14  16
HETATM   16  N8  UNL     1      -4.542   0.897   0.323  1.00  0.00    -0.161 N 
HETATM   17  C10 UNL     1      -5.534   1.859   0.559  1.00  0.00     0.200 C 
HETATM   18  N9  UNL     1      -6.428   2.059  -0.349  1.00  0.00    -0.373 N 
HETATM   19  N10 UNL     1      -5.620   2.638   1.748  1.00  0.00    -0.063 NA
ATOM     20  H92 UNL     1      -6.366   1.501  -1.201  1.00  0.00     0.158 HD
ATOM     21  H91 UNL     1      -7.150   2.759  -0.177  1.00  0.00     0.158 HD
ATOM     22  H8  UNL     1      -3.573   1.214   0.343  1.00  0.00     0.187 HD
ENDBRANCH  14  16
ENDBRANCH   5   9
BRANCH   1  23
HETATM   23  C4  UNL     1       1.721  -0.348  -0.238  1.00  0.00     0.121 C 
HETATM   24  N3  UNL     1       2.508  -1.112   0.444  1.00  0.00    -0.308 N 
ATOM     25  H3  UNL     1       2.083  -1.866   0.983  1.00  0.00     0.186 HD
BRANCH  24  26
HETATM   26  N2  UNL     1       3.881  -0.984   0.498  1.00  0.00    -0.269 N 
HETATM   27  C3  UNL     1       4.521   0.269   0.656  1.00  0.00     0.266 C 
HETATM   28  O1  UNL     1       3.809   1.294   0.751  1.00  0.00    -0.269 OA
ATOM     29  H2  UNL     1       4.456  -1.823   0.421  1.00  0.00     0.190 HD
BRANCH  27  30
HETATM   30  C2  UNL     1       6.004   0.357   0.708  1.00  0.00     0.272 C 
HETATM   31  C1  UNL     1       6.663  -0.273  -0.493  1.00  0.00     0.050 C 
BRANCH  30  32
HETATM   32  N1  UNL     1       6.396   1.746   0.875  1.00  0.00    -0.067 N 
ATOM     33  H13 UNL     1       7.411   1.843   0.916  1.00  0.00     0.275 HD
ATOM     34  H12 UNL     1       6.217   2.286   0.028  1.00  0.00     0.275 HD
ATOM     35  H11 UNL     1       5.950   2.172   1.687  1.00  0.00     0.275 HD
ENDBRANCH  30  32
ENDBRANCH  27  30
ENDBRANCH  24  26
ENDBRANCH   1  23
TORSDOF 6
