REMARK  6 active torsions:
REMARK  status: ('A' for Active; 'I' for Inactive)
REMARK    1  A    between atoms: N1_1  and  C1_4 
REMARK    2  A    between atoms: C3_6  and  C4_7 
REMARK    3  A    between atoms: C4_7  and  N2_8 
REMARK       I    between atoms: N2_8  and  C5_9 
REMARK    4  A    between atoms: C5_9  and  C6_11 
REMARK    5  A    between atoms: C7_18  and  N6_19 
REMARK    6  A    between atoms: C8_26  and  N9_27 
ROOT
HETATM    1  C1  UNL     1      -0.802   2.801  -0.348  1.00  0.00     0.116 A 
HETATM    2  C2  UNL     1       0.288   2.159   0.235  1.00  0.00     0.081 A 
HETATM    3  C3  UNL     1       0.239   0.825   0.553  1.00  0.00     0.081 A 
HETATM    4  N8  UNL     1      -0.900   0.149   0.286  1.00  0.00    -0.189 N 
ATOM      5  H8  UNL     1      -0.948  -0.843   0.520  1.00  0.00     0.184 HD
HETATM    6  C8  UNL     1      -1.989   0.741  -0.284  1.00  0.00     0.682 A 
HETATM    7  N10 UNL     1      -1.898   2.046  -0.581  1.00  0.00    -0.177 N 
ATOM      8  H10 UNL     1      -2.707   2.496  -1.009  1.00  0.00     0.185 HD
ENDROOT
BRANCH   3   9
HETATM    9  C4  UNL     1       1.435   0.175   1.132  1.00  0.00     0.216 C 
BRANCH   9  10
HETATM   10  N2  UNL     1       2.314  -0.496   0.319  1.00  0.00    -0.374 NA
HETATM   11  C5  UNL     1       3.178  -1.156  -0.481  1.00  0.00     0.361 C 
HETATM   12  O1  UNL     1       2.896  -1.607  -1.643  1.00  0.00    -0.248 OA
BRANCH  11  13
HETATM   13  C6  UNL     1       4.587  -1.447  -0.111  1.00  0.00     0.220 A 
HETATM   14  N3  UNL     1       5.263  -2.413  -0.740  1.00  0.00    -0.265 N 
HETATM   15  N4  UNL     1       6.550  -2.631  -0.412  1.00  0.00    -0.227 N 
ATOM     16  H3  UNL     1       4.810  -2.977  -1.459  1.00  0.00     0.190 HD
HETATM   17  N5  UNL     1       7.126  -1.896   0.522  1.00  0.00    -0.118 N 
ATOM     18  H4  UNL     1       7.080  -3.363  -0.884  1.00  0.00     0.209 HD
HETATM   19  C7  UNL     1       6.451  -0.937   1.142  1.00  0.00     0.693 A 
ATOM     20  H5  UNL     1       8.101  -2.068   0.769  1.00  0.00     0.207 HD
HETATM   21  N7  UNL     1       5.168  -0.711   0.821  1.00  0.00    -0.168 N 
ATOM     22  H7  UNL     1       4.643   0.025   1.294  1.00  0.00     0.186 HD
BRANCH  19  23
HETATM   23  N6  UNL     1       7.011  -0.205   2.031  1.00  0.00    -0.233 N 
ATOM     24  H62 UNL     1       7.986  -0.377   2.275  1.00  0.00     0.174 HD
ATOM     25  H61 UNL     1       6.492   0.532   2.508  1.00  0.00     0.174 HD
ENDBRANCH  19  23
ENDBRANCH  11  13
ENDBRANCH   9  10
ENDBRANCH   3   9
BRANCH   1  26
HETATM   26  N1  UNL     1      -0.803   4.039  -0.662  1.00  0.00    -0.385 N 
ATOM     27  H12 UNL     1       0.024   4.609  -0.486  1.00  0.00     0.157 HD
ATOM     28  H11 UNL     1      -1.601   4.509  -1.089  1.00  0.00     0.157 HD
ENDBRANCH   1  26
BRANCH   6  29
HETATM   29  N9  UNL     1      -3.182   0.027  -0.544  1.00  0.00    -0.213 N 
HETATM   30  C9  UNL     1      -3.863   0.203  -1.807  1.00  0.00     0.167 C 
HETATM   31  C10 UNL     1      -5.308  -0.263  -1.693  1.00  0.00     0.188 C 
HETATM   32  O2  UNL     1      -5.746   0.054  -0.403  1.00  0.00    -0.388 OA
HETATM   33  C11 UNL     1      -5.201  -0.826   0.540  1.00  0.00     0.188 C 
HETATM   34  C12 UNL     1      -3.704  -0.849   0.488  1.00  0.00     0.167 C 
ENDBRANCH   6  29
TORSDOF 6
