REMARK  5 active torsions:
REMARK  status: ('A' for Active; 'I' for Inactive)
REMARK    1  A    between atoms: N1_1  and  C1_4 
REMARK    2  A    between atoms: C2_7  and  N3_8 
REMARK    3  A    between atoms: N5_15  and  C5_16 
REMARK    4  A    between atoms: C5_16  and  C6_17 
REMARK    5  A    between atoms: C6_17  and  N6_18 
ROOT
HETATM    1  C1  UNL     1       2.917   2.164   0.969  1.00  0.00     0.679 A 
HETATM    2  N2  UNL     1       3.978   2.203   0.150  1.00  0.00    -0.175 N 
ATOM      3  H2  UNL     1       4.652   2.962   0.246  1.00  0.00     0.186 HD
HETATM    4  C2  UNL     1       4.176   1.269  -0.793  1.00  0.00     0.145 A 
HETATM    5  C3  UNL     1       3.297   0.226  -0.962  1.00  0.00     0.123 A 
HETATM    6  N4  UNL     1       3.231  -0.824  -1.787  1.00  0.00    -0.346 N 
ATOM      7  H4  UNL     1       3.902  -1.054  -2.520  1.00  0.00     0.167 HD
HETATM    8  C4  UNL     1       2.127  -1.521  -1.482  1.00  0.00     0.185 A 
HETATM    9  N5  UNL     1       1.480  -0.905  -0.447  1.00  0.00    -0.325 N 
HETATM   10  C11 UNL     1       2.188   0.179  -0.110  1.00  0.00     0.155 A 
HETATM   11  N12 UNL     1       2.047   1.147   0.815  1.00  0.00    -0.174 N 
ATOM     12  H12 UNL     1       1.237   1.108   1.433  1.00  0.00     0.186 HD
ENDROOT
BRANCH   9  13
HETATM   13  C5  UNL     1       0.241  -1.361   0.157  1.00  0.00     0.151 C 
BRANCH  13  14
HETATM   14  C6  UNL     1      -0.896  -0.746  -0.609  1.00  0.00     0.145 C 
BRANCH  14  15
HETATM   15  N6  UNL     1      -2.209  -1.128  -0.147  1.00  0.00    -0.359 N 
HETATM   16  C7  UNL     1      -2.683  -2.505  -0.265  1.00  0.00     0.153 C 
HETATM   17  C8  UNL     1      -4.129  -2.586  -0.623  1.00  0.00     0.221 C 
HETATM   18  O1  UNL     1      -4.770  -1.325  -0.626  1.00  0.00    -0.277 OA
HETATM   19  N7  UNL     1      -4.391  -0.281   0.144  1.00  0.00    -0.247 N 
HETATM   20  C9  UNL     1      -3.098  -0.168   0.395  1.00  0.00     0.171 C 
ATOM     21  H7  UNL     1      -5.069   0.386   0.513  1.00  0.00     0.196 HD
HETATM   22  C10 UNL     1      -2.616   0.937   1.194  1.00  0.00     0.183 A 
HETATM   23  N8  UNL     1      -3.039   2.222   1.135  1.00  0.00    -0.266 N 
HETATM   24  N11 UNL     1      -1.692   0.929   2.150  1.00  0.00    -0.266 N 
HETATM   25  N9  UNL     1      -2.364   2.913   2.040  1.00  0.00    -0.226 N 
ATOM     26  H8  UNL     1      -3.751   2.592   0.505  1.00  0.00     0.190 HD
HETATM   27  N10 UNL     1      -1.522   2.132   2.684  1.00  0.00    -0.226 N 
ATOM     28  H9  UNL     1      -2.480   3.911   2.214  1.00  0.00     0.210 HD
ATOM     29  H10 UNL     1      -0.879   2.395   3.431  1.00  0.00     0.210 HD
ATOM     30  H11 UNL     1      -1.176   0.098   2.438  1.00  0.00     0.190 HD
ENDBRANCH  14  15
ENDBRANCH  13  14
ENDBRANCH   9  13
BRANCH   4  31
HETATM   31  N3  UNL     1       5.218   1.319  -1.591  1.00  0.00    -0.383 N 
ATOM     32  H32 UNL     1       5.870   2.093  -1.466  1.00  0.00     0.157 HD
ATOM     33  H31 UNL     1       5.368   0.609  -2.308  1.00  0.00     0.157 HD
ENDBRANCH   4  31
BRANCH   1  34
HETATM   34  N1  UNL     1       2.735   3.083   1.885  1.00  0.00    -0.234 N 
ATOM     35  H12 UNL     1       3.394   3.853   2.002  1.00  0.00     0.174 HD
ATOM     36  H11 UNL     1       1.928   3.053   2.508  1.00  0.00     0.174 HD
ENDBRANCH   1  34
TORSDOF 5
