REMARK  5 active torsions:
REMARK  status: ('A' for Active; 'I' for Inactive)
REMARK    1  A    between atoms: C3_4  and  O2_5 
REMARK    2  A    between atoms: C4_7  and  C5_8 
REMARK    3  A    between atoms: C5_8  and  C6_9 
REMARK    4  A    between atoms: C6_9  and  C7_10 
REMARK    5  A    between atoms: C7_10  and  O3_11 
ROOT
HETATM    1  O1  UNL     1       3.435   0.675  -2.249  1.00  0.00    -0.298 OA
HETATM    2  C1  UNL     1       2.704   0.577  -1.312  1.00  0.00     0.129 C 
HETATM    3  C2  UNL     1       3.068   0.459   0.111  1.00  0.00     0.110 C 
HETATM    4  C3  UNL     1       2.170  -0.669   0.552  1.00  0.00     0.129 C 
HETATM    5  C4  UNL     1       0.907  -0.541  -0.266  1.00  0.00     0.025 C 
HETATM    6  C10 UNL     1       1.218   0.547  -1.307  1.00  0.00     0.085 C 
ENDROOT
BRANCH   5   7
HETATM    7  C5  UNL     1      -0.217  -0.203   0.636  1.00  0.00     0.048 C 
BRANCH   7   8
HETATM    8  C6  UNL     1      -1.565  -0.038   0.055  1.00  0.00     0.084 C 
HETATM    9  C8  UNL     1      -2.029   1.255  -0.476  1.00  0.00     0.066 C 
HETATM   10  C9  UNL     1      -2.265   1.525   0.992  1.00  0.00     0.172 C 
HETATM   11  O4  UNL     1      -2.473   0.170   1.136  1.00  0.00    -0.378 OA
BRANCH   8  12
HETATM   12  C7  UNL     1      -2.077  -1.291  -0.656  1.00  0.00     0.202 C 
BRANCH  12  13
HETATM   13  O3  UNL     1      -2.086  -2.389   0.210  1.00  0.00    -0.398 OA
ATOM     14  H3  UNL     1      -2.404  -3.168  -0.232  1.00  0.00     0.209 HD
ENDBRANCH  12  13
ENDBRANCH   8  12
ENDBRANCH   7   8
ENDBRANCH   5   7
BRANCH   4  15
HETATM   15  O2  UNL     1       1.927  -0.598   1.918  1.00  0.00    -0.395 OA
ATOM     16  H2  UNL     1       1.361  -1.309   2.196  1.00  0.00     0.210 HD
ENDBRANCH   4  15
TORSDOF 5
