REMARK  3 active torsions:
REMARK  status: ('A' for Active; 'I' for Inactive)
REMARK    1  A    between atoms: C2_2  and  C3_3 
REMARK    2  A    between atoms: C3_3  and  C4_4 
REMARK    3  A    between atoms: C4_4  and  C6_7 
ROOT
HETATM    1  C4  UNL     1      -1.043   0.854  -1.389  1.00  0.00     0.151 C 
HETATM    2  C5  UNL     1      -0.975   2.200  -1.910  1.00  0.00     0.070 C 
HETATM    3  N1  UNL     1      -0.923   3.268  -2.347  1.00  0.00    -0.197 NA
ENDROOT
BRANCH   1   4
HETATM    4  C3  UNL     1      -2.256   0.725  -0.462  1.00  0.00     0.052 C 
BRANCH   4   5
HETATM    5  C2  UNL     1      -2.380  -0.620   0.106  1.00  0.00    -0.035 C 
HETATM    6  C1  UNL     1      -2.346  -0.792   1.410  1.00  0.00     0.007 C 
ENDBRANCH   4   5
ENDBRANCH   1   4
BRANCH   1   7
HETATM    7  C6  UNL     1       0.186   0.316  -0.856  1.00  0.00     0.093 C 
HETATM    8  N2  UNL     1       0.746  -0.623  -1.597  1.00  0.00    -0.266 N 
HETATM    9  O1  UNL     1       1.924  -1.338  -1.367  1.00  0.00    -0.279 OA
ATOM     10  H2  UNL     1       0.250  -0.859  -2.456  1.00  0.00     0.194 HD
HETATM   11  C7  UNL     1       2.369  -1.837  -0.116  1.00  0.00     0.220 C 
HETATM   12  C8  UNL     1       2.786  -0.757   0.826  1.00  0.00     0.150 C 
HETATM   13  N3  UNL     1       1.717   0.109   1.249  1.00  0.00    -0.373 N 
HETATM   14  C9  UNL     1       0.758   0.774   0.395  1.00  0.00     0.121 C 
ATOM     15  H3  UNL     1       1.627   0.270   2.252  1.00  0.00     0.161 HD
HETATM   16  N4  UNL     1       0.369   1.890   0.779  1.00  0.00    -0.384 N 
ATOM     17  H42 UNL     1      -0.307   2.359   0.177  1.00  0.00     0.157 HD
ATOM     18  H41 UNL     1       0.771   2.212   1.659  1.00  0.00     0.157 HD
ENDBRANCH   1   7
TORSDOF 3
