REMARK  4 active torsions:
REMARK  status: ('A' for Active; 'I' for Inactive)
REMARK    1  A    between atoms: C2_3  and  C3_4 
REMARK    2  A    between atoms: N1_5  and  C4_7 
REMARK    3  A    between atoms: N3_14  and  C8_16 
REMARK    4  A    between atoms: C8_16  and  C9_17 
ROOT
HETATM    1  C4  UNL     1       0.591  -0.849   0.302  1.00  0.00     0.683 A 
HETATM    2  N2  UNL     1       0.765  -1.531  -0.863  1.00  0.00    -0.200 N 
ATOM      3  H2  UNL     1       1.707  -1.683  -1.222  1.00  0.00     0.183 HD
HETATM    4  C5  UNL     1      -0.294  -2.008  -1.547  1.00  0.00     0.133 A 
HETATM    5  C6  UNL     1      -1.590  -1.824  -1.086  1.00  0.00     0.094 A 
HETATM    6 CL2  UNL     1      -2.936  -2.426  -2.036  1.00  0.00    -0.079 Cl
HETATM    7  C7  UNL     1      -1.782  -1.146   0.090  1.00  0.00     0.144 A 
HETATM    8  N3  UNL     1      -2.865  -0.621   0.491  1.00  0.00    -0.348 N 
ATOM      9  H3  UNL     1      -2.836  -0.167   1.404  1.00  0.00     0.167 HD
HETATM   10  N4  UNL     1      -0.681  -0.672   0.769  1.00  0.00    -0.175 N 
ATOM     11  H4  UNL     1      -0.820  -0.173   1.648  1.00  0.00     0.186 HD
ENDROOT
BRANCH   1  12
HETATM   12  N1  UNL     1       1.499  -0.174   0.708  1.00  0.00    -0.201 N 
HETATM   13  C3  UNL     1       2.200   0.680   1.508  1.00  0.00     0.119 C 
ATOM     14  H1  UNL     1       2.198  -0.361  -0.011  1.00  0.00     0.183 HD
BRANCH  13  15
HETATM   15  C2  UNL     1       3.563   0.803   0.865  1.00  0.00     0.004 A 
HETATM   16  C1  UNL     1       3.957   2.023   0.289  1.00  0.00     0.068 A 
HETATM   17 CL1  UNL     1       2.775   3.283   0.249  1.00  0.00    -0.082 Cl
HETATM   18  C17 UNL     1       5.255   2.164  -0.251  1.00  0.00     0.063 A 
HETATM   19  C16 UNL     1       6.107   1.106  -0.198  1.00  0.00    -0.028 A 
HETATM   20 CL3  UNL     1       5.691   3.686  -1.033  1.00  0.00    -0.082 Cl
HETATM   21  C15 UNL     1       5.738  -0.084   0.376  1.00  0.00    -0.049 A 
HETATM   22  C18 UNL     1       7.490   0.899  -0.799  1.00  0.00     0.041 C 
HETATM   23  C14 UNL     1       4.471  -0.186   0.885  1.00  0.00     0.022 A 
HETATM   24  C20 UNL     1       6.915  -1.031   0.440  1.00  0.00     0.039 C 
HETATM   25  C19 UNL     1       8.083  -0.038   0.222  1.00  0.00     0.009 C 
ENDBRANCH  13  15
ENDBRANCH   1  12
BRANCH   8  26
HETATM   26  C8  UNL     1      -4.097  -0.593  -0.176  1.00  0.00     0.122 C 
BRANCH  26  27
HETATM   27  C9  UNL     1      -5.031   0.307   0.635  1.00  0.00     0.061 C 
HETATM   28  C10 UNL     1      -5.714   1.387  -0.088  1.00  0.00     0.066 C 
HETATM   29  C11 UNL     1      -7.233   1.179   0.129  1.00  0.00     0.009 C 
HETATM   30  C12 UNL     1      -7.414  -0.295   0.023  1.00  0.00     0.027 C 
HETATM   31  C13 UNL     1      -6.849  -0.945   1.267  1.00  0.00     0.175 C 
HETATM   32  O1  UNL     1      -5.636  -0.352   1.665  1.00  0.00    -0.354 OA
ENDBRANCH  26  27
ENDBRANCH   8  26
TORSDOF 4
