REMARK  5 active torsions:
REMARK  status: ('A' for Active; 'I' for Inactive)
REMARK    1  A    between atoms: C3_7  and  C4_8 
REMARK    2  A    between atoms: C3_7  and  C9_18 
REMARK    3  A    between atoms: C6_10  and  C7_11 
REMARK    4  A    between atoms: N3_26  and  C16_27 
REMARK    5  A    between atoms: C16_27  and  C17_28 
ROOT
HETATM    1  O1  UNL     1       1.844   2.727   1.207  1.00  0.00    -0.246 OA
HETATM    2  C1  UNL     1       1.013   1.768   1.066  1.00  0.00     0.331 C 
HETATM    3  N1  UNL     1       0.021   1.567   2.103  1.00  0.00    -0.277 N 
ATOM      4  H1  UNL     1      -0.001   2.183   2.916  1.00  0.00     0.173 HD
HETATM    5  C2  UNL     1      -0.895   0.539   1.989  1.00  0.00     0.250 C 
HETATM    6  O2  UNL     1      -1.428   0.005   2.988  1.00  0.00    -0.271 OA
HETATM    7  C3  UNL     1      -1.256   0.041   0.614  1.00  0.00     0.168 C 
HETATM    8  C15 UNL     1      -0.018  -0.118  -0.170  1.00  0.00     0.252 C 
HETATM    9  O3  UNL     1       0.176  -1.083  -0.929  1.00  0.00    -0.271 OA
HETATM   10  N3  UNL     1       0.980   0.890  -0.052  1.00  0.00    -0.268 N 
ENDROOT
BRANCH   7  11
HETATM   11  C4  UNL     1      -1.860   1.322   0.017  1.00  0.00     0.037 A 
HETATM   12  C5  UNL     1      -1.570   1.921  -1.167  1.00  0.00     0.044 A 
HETATM   13  C6  UNL     1      -2.296   3.108  -1.227  1.00  0.00     0.065 A 
HETATM   14  C8  UNL     1      -3.012   3.196  -0.075  1.00  0.00     0.104 A 
HETATM   15  N2  UNL     1      -2.731   2.092   0.684  1.00  0.00    -0.367 N 
ATOM     16  H2  UNL     1      -3.120   1.889   1.605  1.00  0.00     0.165 HD
BRANCH  13  17
HETATM   17  C7  UNL     1      -2.235   4.149  -2.294  1.00  0.00     0.418 C 
HETATM   18  F1  UNL     1      -1.019   4.782  -2.253  1.00  0.00    -0.166 F 
HETATM   19  F2  UNL     1      -3.268   5.047  -2.107  1.00  0.00    -0.166 F 
HETATM   20  F3  UNL     1      -2.390   3.588  -3.544  1.00  0.00    -0.166 F 
ENDBRANCH  13  17
ENDBRANCH   7  11
BRANCH   7  21
HETATM   21  C9  UNL     1      -2.172  -1.094   0.711  1.00  0.00     0.019 C 
HETATM   22  C10 UNL     1      -1.824  -2.351  -0.073  1.00  0.00     0.007 C 
HETATM   23  C11 UNL     1      -2.639  -3.491   0.572  1.00  0.00     0.000 C 
HETATM   24  C12 UNL     1      -4.096  -3.241   0.548  1.00  0.00     0.000 C 
HETATM   25  C13 UNL     1      -4.456  -1.910  -0.045  1.00  0.00     0.000 C 
HETATM   26  C14 UNL     1      -3.617  -0.762   0.426  1.00  0.00     0.007 C 
ENDBRANCH   7  21
BRANCH  10  27
HETATM   27  C16 UNL     1       2.055   1.000  -1.040  1.00  0.00     0.141 C 
BRANCH  27  28
HETATM   28  C17 UNL     1       3.297   0.215  -0.732  1.00  0.00     0.004 C 
HETATM   29  C18 UNL     1       3.172  -1.258  -0.608  1.00  0.00     0.006 C 
HETATM   30  C19 UNL     1       4.567  -1.912  -0.542  1.00  0.00     0.000 C 
HETATM   31  C20 UNL     1       5.674  -0.921  -0.447  1.00  0.00     0.000 C 
HETATM   32  C21 UNL     1       5.381   0.100   0.624  1.00  0.00     0.000 C 
HETATM   33  C22 UNL     1       4.065   0.787   0.452  1.00  0.00     0.006 C 
ENDBRANCH  27  28
ENDBRANCH  10  27
TORSDOF 5
