REMARK  5 active torsions:
REMARK  status: ('A' for Active; 'I' for Inactive)
REMARK    1  A    between atoms: C4_4  and  N1_5 
REMARK       I    between atoms: N1_5  and  C5_7 
REMARK    2  A    between atoms: C5_7  and  C6_9 
REMARK    3  A    between atoms: C6_9  and  N2_10 
REMARK    4  A    between atoms: C6_9  and  C14_20 
REMARK       I    between atoms: N2_10  and  C7_12 
REMARK    5  A    between atoms: C7_12  and  C8_14 
ROOT
HETATM    1  C6  UNL     1       0.838   0.267  -1.378  1.00  0.00     0.231 C 
ENDROOT
BRANCH   1   2
HETATM    2  C5  UNL     1      -0.397   0.363  -0.593  1.00  0.00     0.245 C 
HETATM    3  N1  UNL     1      -1.712   0.242  -1.072  1.00  0.00    -0.354 N 
ATOM      4  H1  UNL     1      -1.847   0.066  -2.068  1.00  0.00     0.162 HD
HETATM    5  O1  UNL     1      -0.271   0.577   0.667  1.00  0.00    -0.271 OA
BRANCH   3   6
HETATM    6  C4  UNL     1      -2.888   0.353  -0.232  1.00  0.00     0.087 C 
HETATM    7  C3  UNL     1      -3.732   1.472  -0.805  1.00  0.00     0.040 C 
HETATM    8  C2  UNL     1      -4.718   1.990   0.189  1.00  0.00     0.046 C 
HETATM    9  C1  UNL     1      -4.141   3.057   1.096  1.00  0.00     0.021 C 
HETATM   10  S1  UNL     1      -5.292   0.630   1.206  1.00  0.00    -0.155 SA
HETATM   11  C16 UNL     1      -4.863  -0.992   0.540  1.00  0.00     0.003 C 
HETATM   12  C15 UNL     1      -3.606  -0.972  -0.283  1.00  0.00     0.045 C 
HETATM   13  C17 UNL     1      -5.982  -1.532  -0.325  1.00  0.00     0.026 C 
HETATM   14  C18 UNL     1      -4.711  -1.936   1.723  1.00  0.00     0.026 C 
ENDBRANCH   3   6
ENDBRANCH   1   2
BRANCH   1  15
HETATM   15  N2  UNL     1       2.013   0.339  -0.494  1.00  0.00    -0.344 N 
HETATM   16  C7  UNL     1       2.947  -0.722  -0.527  1.00  0.00     0.222 C 
HETATM   17  O2  UNL     1       2.757  -1.691  -1.301  1.00  0.00    -0.273 OA
ATOM     18  H2  UNL     1       2.150   1.136   0.128  1.00  0.00     0.163 HD
BRANCH  16  19
HETATM   19  C8  UNL     1       4.163  -0.760   0.316  1.00  0.00     0.078 C 
HETATM   20  C9  UNL     1       4.994  -1.977   0.095  1.00  0.00     0.014 C 
HETATM   21  C10 UNL     1       6.429  -1.630   0.469  1.00  0.00     0.001 C 
HETATM   22  C11 UNL     1       6.464  -0.789   1.720  1.00  0.00     0.000 C 
HETATM   23  C12 UNL     1       5.913   0.591   1.391  1.00  0.00     0.001 C 
HETATM   24  C13 UNL     1       5.029   0.470   0.144  1.00  0.00     0.014 C 
ENDBRANCH  16  19
ENDBRANCH   1  15
BRANCH   1  25
HETATM   25  C14 UNL     1       0.966   1.527  -2.248  1.00  0.00     0.217 C 
HETATM   26 CL1  UNL     1       1.012   2.957  -1.228  1.00  0.00    -0.081 Cl
HETATM   27 CL2  UNL     1       2.487   1.329  -3.160  1.00  0.00    -0.081 Cl
HETATM   28 CL3  UNL     1      -0.336   1.676  -3.432  1.00  0.00    -0.081 Cl
ENDBRANCH   1  25
TORSDOF 5
