REMARK  5 active torsions:
REMARK  status: ('A' for Active; 'I' for Inactive)
REMARK    1  A    between atoms: C5_5  and  C6_6 
REMARK    2  A    between atoms: C6_6  and  N1_7 
REMARK       I    between atoms: N1_7  and  C7_9 
REMARK    3  A    between atoms: C7_9  and  C8_11 
REMARK    4  A    between atoms: C11_14  and  C12_15 
REMARK    5  A    between atoms: C12_15  and  N2_16 
ROOT
HETATM    1  C6  UNL     1      -0.401  -0.426  -2.456  1.00  0.00     0.161 C 
ENDROOT
BRANCH   1   2
HETATM    2  C5  UNL     1      -1.635  -0.820  -1.713  1.00  0.00    -0.040 A 
HETATM    3  C4  UNL     1      -2.654   0.058  -1.508  1.00  0.00     0.019 A 
HETATM    4  C3  UNL     1      -3.774  -0.345  -0.811  1.00  0.00    -0.017 A 
HETATM    5  C2  UNL     1      -4.814   0.737  -0.670  1.00  0.00     0.057 C 
HETATM    6  C21 UNL     1      -3.916  -1.621  -0.300  1.00  0.00     0.075 A 
HETATM    7  C1  UNL     1      -5.765   0.708  -1.807  1.00  0.00     0.018 C 
HETATM    8  C26 UNL     1      -5.404   0.739   0.685  1.00  0.00     0.116 C 
HETATM    9  C23 UNL     1      -6.422  -0.255   1.018  1.00  0.00     0.011 C 
HETATM   10  C27 UNL     1      -5.976   2.146   0.921  1.00  0.00     0.053 C 
HETATM   11  F1  UNL     1      -4.334   0.652   1.592  1.00  0.00    -0.242 F 
HETATM   12  C22 UNL     1      -6.305  -1.604   0.361  1.00  0.00     0.187 C 
HETATM   13  C24 UNL     1      -7.858   0.199   0.823  1.00  0.00     0.020 C 
HETATM   14  C25 UNL     1      -6.293  -0.553   2.526  1.00  0.00     0.020 C 
HETATM   15  O3  UNL     1      -5.000  -2.152   0.424  1.00  0.00    -0.350 OA
HETATM   16  C20 UNL     1      -2.894  -2.513  -0.501  1.00  0.00     0.038 A 
HETATM   17  C19 UNL     1      -1.773  -2.114  -1.198  1.00  0.00     0.011 A 
ENDBRANCH   1   2
BRANCH   1  18
HETATM   18  N1  UNL     1       0.705  -0.187  -1.581  1.00  0.00    -0.356 N 
HETATM   19  C7  UNL     1       0.858   0.983  -0.793  1.00  0.00     0.222 C 
HETATM   20  O1  UNL     1      -0.027   1.856  -0.870  1.00  0.00    -0.273 OA
ATOM     21  H1  UNL     1       1.429  -0.903  -1.520  1.00  0.00     0.162 HD
BRANCH  19  22
HETATM   22  C8  UNL     1       2.022   1.197   0.108  1.00  0.00     0.078 C 
HETATM   23  C9  UNL     1       2.023   0.100   1.102  1.00  0.00     0.014 C 
HETATM   24  C10 UNL     1       2.993  -0.997   0.934  1.00  0.00     0.007 C 
HETATM   25  C11 UNL     1       4.277  -0.670   0.254  1.00  0.00     0.014 C 
HETATM   26  C17 UNL     1       4.117   0.208  -0.930  1.00  0.00     0.007 C 
HETATM   27  C18 UNL     1       3.215   1.376  -0.742  1.00  0.00     0.014 C 
BRANCH  25  28
HETATM   28  C12 UNL     1       5.322  -0.136   1.229  1.00  0.00     0.277 C 
BRANCH  28  29
HETATM   29  N2  UNL     1       6.555   0.178   0.569  1.00  0.00     0.092 N 
HETATM   30  C13 UNL     1       7.247  -0.984   0.077  1.00  0.00     0.298 C 
HETATM   31  C14 UNL     1       8.593  -0.506  -0.451  1.00  0.00     0.198 C 
HETATM   32  O2  UNL     1       8.645   0.892  -0.516  1.00  0.00    -0.388 OA
HETATM   33  C15 UNL     1       8.563   1.480   0.747  1.00  0.00     0.198 C 
HETATM   34  C16 UNL     1       7.443   0.819   1.524  1.00  0.00     0.298 C 
ENDBRANCH  28  29
ENDBRANCH  25  28
ENDBRANCH  19  22
ENDBRANCH   1  18
TORSDOF 5
