REMARK  5 active torsions:
REMARK  status: ('A' for Active; 'I' for Inactive)
REMARK    1  A    between atoms: C1_2  and  C2_3 
REMARK       I    between atoms: C1_2  and  N3_22 
REMARK    2  A    between atoms: C2_3  and  C3_4 
REMARK    3  A    between atoms: C3_4  and  C4_5 
REMARK       I    between atoms: N1_8  and  C7_9 
REMARK       I    between atoms: C7_9  and  N2_11 
REMARK    4  A    between atoms: N2_11  and  C8_13 
REMARK    5  A    between atoms: C17_24  and  N4_25 
ROOT
HETATM    1  C3  UNL     1      -0.641   1.475  -2.004  1.00  0.00     0.014 C 
ENDROOT
BRANCH   1   2
HETATM    2  C2  UNL     1      -1.509   0.644  -1.124  1.00  0.00     0.103 C 
BRANCH   2   3
HETATM    3  C1  UNL     1      -2.905   1.134  -1.298  1.00  0.00     0.219 C 
HETATM    4  O1  UNL     1      -3.186   2.093  -2.093  1.00  0.00    -0.273 OA
HETATM    5  N3  UNL     1      -4.008   0.578  -0.605  1.00  0.00    -0.348 N 
HETATM    6  C16 UNL     1      -5.431   0.735  -0.485  1.00  0.00     0.153 C 
HETATM    7  C25 UNL     1      -4.117  -0.506   0.380  1.00  0.00     0.153 C 
HETATM    8  C17 UNL     1      -5.565  -0.694   0.033  1.00  0.00     0.127 C 
BRANCH   8   9
HETATM    9  N4  UNL     1      -6.427  -0.816   1.192  1.00  0.00    -0.333 N 
HETATM   10  C18 UNL     1      -6.117  -1.351   2.377  1.00  0.00     0.184 A 
HETATM   11  N5  UNL     1      -7.163  -1.291   3.203  1.00  0.00    -0.350 N 
HETATM   12  C19 UNL     1      -8.162  -0.705   2.526  1.00  0.00     0.060 A 
ATOM     13  H5  UNL     1      -7.197  -1.627   4.166  1.00  0.00     0.166 HD
HETATM   14  C20 UNL     1      -9.463  -0.379   2.857  1.00  0.00     0.032 A 
HETATM   15  C24 UNL     1      -7.704  -0.407   1.266  1.00  0.00     0.062 A 
HETATM   16  C21 UNL     1     -10.301   0.234   1.955  1.00  0.00     0.002 A 
HETATM   17  C22 UNL     1      -9.831   0.529   0.694  1.00  0.00     0.002 A 
HETATM   18  C23 UNL     1      -8.547   0.212   0.354  1.00  0.00     0.032 A 
ENDBRANCH   8   9
ENDBRANCH   2   3
ENDBRANCH   1   2
BRANCH   1  19
HETATM   19  C4  UNL     1       0.802   1.179  -2.018  1.00  0.00    -0.008 C 
HETATM   20  C5  UNL     1       1.195  -0.206  -2.449  1.00  0.00     0.025 C 
HETATM   21  C6  UNL     1       2.652  -0.130  -2.855  1.00  0.00     0.131 C 
HETATM   22  N1  UNL     1       3.409   0.244  -1.677  1.00  0.00    -0.303 N 
HETATM   23  C7  UNL     1       4.424  -0.620  -1.221  1.00  0.00     0.320 C 
HETATM   24  C14 UNL     1       3.073   1.492  -1.037  1.00  0.00     0.275 C 
HETATM   25  O2  UNL     1       4.627  -1.715  -1.858  1.00  0.00    -0.247 OA
HETATM   26  N2  UNL     1       5.262  -0.387  -0.100  1.00  0.00    -0.338 N 
ATOM     27  H2  UNL     1       5.130   0.474   0.431  1.00  0.00     0.164 HD
HETATM   28  F1  UNL     1       3.284   2.570  -1.912  1.00  0.00    -0.227 F 
HETATM   29  C15 UNL     1       1.566   1.526  -0.767  1.00  0.00     0.064 C 
BRANCH  26  30
HETATM   30  C8  UNL     1       6.286  -1.298   0.327  1.00  0.00     0.086 C 
HETATM   31  C9  UNL     1       7.679  -0.737   0.047  1.00  0.00     0.025 C 
HETATM   32  C10 UNL     1       7.911   0.390   1.015  1.00  0.00     0.002 C 
HETATM   33  C11 UNL     1       8.077  -0.159   2.404  1.00  0.00     0.000 C 
HETATM   34  C12 UNL     1       7.390  -1.467   2.563  1.00  0.00     0.002 C 
HETATM   35  C13 UNL     1       6.110  -1.604   1.774  1.00  0.00     0.025 C 
ENDBRANCH  26  30
ENDBRANCH   1  19
TORSDOF 5
