REMARK  7 active torsions:
REMARK  status: ('A' for Active; 'I' for Inactive)
REMARK    1  A    between atoms: C6_7  and  O2_8 
REMARK    2  A    between atoms: N1_17  and  C14_18 
REMARK    3  A    between atoms: C14_18  and  C15_19 
REMARK    4  A    between atoms: C21_25  and  C22_26 
REMARK    5  A    between atoms: C22_26  and  C23_27 
REMARK    6  A    between atoms: C23_27  and  C24_28 
REMARK    7  A    between atoms: C24_28  and  O3_29 
ROOT
HETATM    1  C1  UNL     1       4.118  -0.028   0.133  1.00  0.00     0.015 C 
HETATM    2  C2  UNL     1       2.906   0.021  -0.803  1.00  0.00     0.011 C 
HETATM    3  C3  UNL     1       2.799   1.447  -1.176  1.00  0.00     0.012 C 
HETATM    4  C4  UNL     1       1.722   2.165  -1.089  1.00  0.00     0.064 C 
HETATM    5  O1  UNL     1       1.275   3.481  -1.333  1.00  0.00    -0.311 OA
HETATM    6  C5  UNL     1       0.084   3.692  -0.608  1.00  0.00     0.116 A 
HETATM    7  C6  UNL     1      -0.799   4.723  -0.365  1.00  0.00     0.100 A 
HETATM    8  C7  UNL     1      -1.895   4.544   0.493  1.00  0.00     0.040 A 
HETATM    9  C8  UNL     1      -2.105   3.303   1.118  1.00  0.00     0.011 A 
HETATM   10  C9  UNL     1      -1.247   2.258   0.889  1.00  0.00    -0.046 A 
HETATM   11  C10 UNL     1      -0.224   2.540   0.035  1.00  0.00     0.001 A 
HETATM   12  C11 UNL     1       0.527   1.451  -0.575  1.00  0.00     0.049 C 
HETATM   13  C12 UNL     1      -0.271   0.909  -1.749  1.00  0.00     0.066 C 
HETATM   14  C13 UNL     1      -1.503   0.226  -1.266  1.00  0.00     0.065 C 
HETATM   15  N1  UNL     1      -1.252  -0.640  -0.209  1.00  0.00    -0.368 N 
HETATM   16  C18 UNL     1      -0.512  -0.127   0.900  1.00  0.00     0.098 C 
HETATM   17  C19 UNL     1      -1.353   0.946   1.535  1.00  0.00     0.065 C 
HETATM   18  C20 UNL     1       0.827   0.439   0.469  1.00  0.00     0.034 C 
HETATM   19  C21 UNL     1       1.702  -0.594  -0.196  1.00  0.00     0.000 C 
ENDROOT
BRANCH  19  20
HETATM   20  C22 UNL     1       1.995  -1.792   0.653  1.00  0.00     0.009 C 
BRANCH  20  21
HETATM   21  C23 UNL     1       2.647  -2.880  -0.148  1.00  0.00     0.043 C 
BRANCH  21  22
HETATM   22  C24 UNL     1       2.942  -4.072   0.755  1.00  0.00     0.189 C 
HETATM   23 BR1  UNL     1       3.784  -5.465  -0.289  1.00  0.00    -0.062 Br
BRANCH  22  24
HETATM   24  O3  UNL     1       1.787  -4.586   1.324  1.00  0.00    -0.385 OA
ATOM     25  H3  UNL     1       1.971  -5.329   1.887  1.00  0.00     0.211 HD
ENDBRANCH  22  24
ENDBRANCH  21  22
ENDBRANCH  20  21
ENDBRANCH  19  20
BRANCH  15  26
HETATM   26  C14 UNL     1      -2.044  -1.772   0.011  1.00  0.00     0.068 C 
BRANCH  26  27
HETATM   27  C15 UNL     1      -3.463  -1.535   0.452  1.00  0.00     0.024 A 
HETATM   28  C16 UNL     1      -4.424  -0.783  -0.371  1.00  0.00     0.010 A 
HETATM   29  C17 UNL     1      -4.549  -2.284  -0.327  1.00  0.00     0.010 A 
ENDBRANCH  26  27
ENDBRANCH  15  26
BRANCH   7  30
HETATM   30  O2  UNL     1      -0.609   5.947  -0.967  1.00  0.00    -0.358 OA
ATOM     31  H2  UNL     1      -1.217   6.657  -0.800  1.00  0.00     0.217 HD
ENDBRANCH   7  30
TORSDOF 7
