REMARK  7 active torsions:
REMARK  status: ('A' for Active; 'I' for Inactive)
REMARK    1  A    between atoms: C2_2  and  O1_3 
REMARK    2  A    between atoms: O1_3  and  C3_4 
REMARK    3  A    between atoms: C3_4  and  C4_6 
REMARK    4  A    between atoms: C7_11  and  C8_12 
REMARK    5  A    between atoms: N2_14  and  N3_16 
REMARK    6  A    between atoms: C12_21  and  C13_22 
REMARK    7  A    between atoms: C13_22  and  O4_24 
ROOT
HETATM    1  C8  UNL     1      -1.499  -1.086   1.106  1.00  0.00     0.049 C 
HETATM    2  C9  UNL     1      -1.687  -1.208   2.598  1.00  0.00     0.072 C 
HETATM    3  N2  UNL     1      -2.482  -1.469   0.442  1.00  0.00    -0.298 N 
ATOM      4  H2  UNL     1      -3.200  -1.790   1.091  1.00  0.00     0.187 HD
ENDROOT
BRANCH   1   5
HETATM    5  C7  UNL     1      -0.261  -0.550   0.567  1.00  0.00     0.063 A 
HETATM    6  N1  UNL     1      -0.026  -0.297  -0.753  1.00  0.00    -0.357 N 
HETATM    7  C5  UNL     1       1.185   0.220  -0.906  1.00  0.00     0.022 A 
ATOM      8  H1  UNL     1      -0.685  -0.479  -1.510  1.00  0.00     0.166 HD
HETATM    9  C4  UNL     1       1.781   0.323   0.300  1.00  0.00     0.069 A 
HETATM   10  C6  UNL     1       1.830   0.638  -2.202  1.00  0.00     0.069 C 
HETATM   11  C15 UNL     1       0.853  -0.171   1.246  1.00  0.00    -0.015 A 
HETATM   12  C16 UNL     1       1.199  -0.206   2.695  1.00  0.00     0.052 C 
BRANCH   9  13
HETATM   13  C3  UNL     1       3.127   0.845   0.583  1.00  0.00     0.295 C 
HETATM   14  O2  UNL     1       3.332   2.057   0.827  1.00  0.00    -0.259 OA
BRANCH  13  15
HETATM   15  O1  UNL     1       4.179  -0.060   0.573  1.00  0.00    -0.318 OA
BRANCH  15  16
HETATM   16  C2  UNL     1       5.514   0.342   0.834  1.00  0.00     0.174 C 
HETATM   17  C1  UNL     1       5.897   1.368  -0.212  1.00  0.00     0.034 C 
ENDBRANCH  15  16
ENDBRANCH  13  15
ENDBRANCH   9  13
ENDBRANCH   1   5
BRANCH   3  18
HETATM   18  N3  UNL     1      -2.949  -1.617  -0.808  1.00  0.00    -0.260 N 
HETATM   19  C10 UNL     1      -2.577  -2.783  -1.578  1.00  0.00     0.156 C 
HETATM   20  S1  UNL     1      -2.178  -4.273  -1.076  1.00  0.00    -0.051 SA
HETATM   21  S2  UNL     1      -2.638  -2.264  -3.279  1.00  0.00    -0.096 SA
HETATM   22  C11 UNL     1      -3.439  -0.644  -2.937  1.00  0.00     0.119 C 
HETATM   23  C12 UNL     1      -3.829  -0.782  -1.506  1.00  0.00     0.219 C 
BRANCH  23  24
HETATM   24  C13 UNL     1      -4.012   0.545  -0.920  1.00  0.00     0.284 C 
HETATM   25  O3  UNL     1      -4.733   1.431  -1.534  1.00  0.00    -0.263 OA
BRANCH  24  26
HETATM   26  O4  UNL     1      -3.492   1.017   0.270  1.00  0.00    -0.325 OA
HETATM   27  C14 UNL     1      -3.703   2.302   0.783  1.00  0.00     0.213 C 
ENDBRANCH  24  26
ENDBRANCH  23  24
ENDBRANCH   3  18
TORSDOF 7
