REMARK  5 active torsions:
REMARK  status: ('A' for Active; 'I' for Inactive)
REMARK    1  A    between atoms: C2_3  and  S1_4 
REMARK    2  A    between atoms: S1_4  and  C3_5 
REMARK    3  A    between atoms: N5_10  and  N6_11 
REMARK       I    between atoms: N6_11  and  C4_13 
REMARK    4  A    between atoms: C4_13  and  C5_15 
REMARK    5  A    between atoms: C5_15  and  C6_16 
ROOT
HETATM    1  N1  UNL     1       8.839   0.359   0.352  1.00  0.00    -0.197 NA
HETATM    2  C1  UNL     1       8.194  -0.592   0.228  1.00  0.00     0.069 C 
HETATM    3  C2  UNL     1       7.372  -1.798   0.089  1.00  0.00     0.206 C 
ENDROOT
BRANCH   3   4
HETATM    4  S1  UNL     1       5.627  -1.436   0.387  1.00  0.00    -0.076 SA
BRANCH   4   5
HETATM    5  C3  UNL     1       4.959  -0.366  -0.870  1.00  0.00     0.194 A 
HETATM    6  N2  UNL     1       5.629   0.124  -1.912  1.00  0.00    -0.263 N 
HETATM    7  N3  UNL     1       4.758   0.864  -2.585  1.00  0.00    -0.005 NA
ATOM      8  H2  UNL     1       6.609  -0.037  -2.144  1.00  0.00     0.186 HD
HETATM    9  N4  UNL     1       3.584   0.823  -1.963  1.00  0.00     0.017 NA
HETATM   10  N5  UNL     1       3.687   0.053  -0.878  1.00  0.00    -0.155 N 
BRANCH  10  11
HETATM   11  N6  UNL     1       2.676  -0.229   0.022  1.00  0.00    -0.248 N 
HETATM   12  C4  UNL     1       1.363   0.300  -0.129  1.00  0.00     0.238 C 
HETATM   13  O1  UNL     1       1.213   1.029  -1.135  1.00  0.00    -0.272 OA
ATOM     14  H6  UNL     1       2.877  -0.834   0.818  1.00  0.00     0.192 HD
BRANCH  12  15
HETATM   15  C5  UNL     1       0.339  -0.039   0.861  1.00  0.00     0.117 C 
BRANCH  15  16
HETATM   16  C6  UNL     1      -1.053   0.414   0.634  1.00  0.00     0.000 C 
HETATM   17  C7  UNL     1      -1.130   1.898   0.517  1.00  0.00     0.017 C 
HETATM   18  C8  UNL     1      -2.582   2.403   0.533  1.00  0.00    -0.013 C 
HETATM   19  C9  UNL     1      -3.239   2.053   1.835  1.00  0.00     0.009 C 
HETATM   20  C13 UNL     1      -3.249   1.755  -0.667  1.00  0.00     0.012 C 
HETATM   21  C10 UNL     1      -3.233   0.527   1.903  1.00  0.00    -0.013 C 
HETATM   22  C11 UNL     1      -3.997  -0.067   0.748  1.00  0.00     0.012 C 
HETATM   23  C18 UNL     1      -1.819   0.093   1.964  1.00  0.00     0.017 C 
HETATM   24  C12 UNL     1      -3.234   0.242  -0.495  1.00  0.00     0.022 C 
HETATM   25  C14 UNL     1      -1.799  -0.279  -0.476  1.00  0.00     0.072 C 
HETATM   26  C15 UNL     1      -1.881  -1.766  -0.260  1.00  0.00     0.041 C 
HETATM   27  O2  UNL     1      -1.276  -0.043  -1.707  1.00  0.00    -0.379 OA
HETATM   28  C16 UNL     1      -1.283  -2.360  -1.509  1.00  0.00     0.029 C 
HETATM   29  C17 UNL     1      -1.336  -1.197  -2.463  1.00  0.00     0.169 C 
ENDBRANCH  15  16
ENDBRANCH  12  15
ENDBRANCH  10  11
ENDBRANCH   4   5
ENDBRANCH   3   4
TORSDOF 5
