REMARK  7 active torsions:
REMARK  status: ('A' for Active; 'I' for Inactive)
REMARK    1  A    between atoms: O1_2  and  C2_3 
REMARK    2  A    between atoms: C2_3  and  C3_5 
REMARK    3  A    between atoms: C4_6  and  N1_7 
REMARK       I    between atoms: N1_7  and  C5_9 
REMARK    4  A    between atoms: C5_9  and  C6_11 
REMARK    5  A    between atoms: C6_11  and  O4_12 
REMARK    6  A    between atoms: O4_12  and  C7_13 
REMARK    7  A    between atoms: C7_13  and  C8_15 
ROOT
HETATM    1  C3  UNL     1      -2.994   0.508  -0.067  1.00  0.00     0.080 A 
HETATM    2  C4  UNL     1      -1.699   0.073  -0.018  1.00  0.00     0.094 A 
HETATM    3  S1  UNL     1      -1.799  -1.537  -0.590  1.00  0.00    -0.074 SA
HETATM    4  C12 UNL     1      -3.460  -1.621  -0.875  1.00  0.00     0.001 A 
HETATM    5  C13 UNL     1      -3.924  -0.379  -0.518  1.00  0.00    -0.024 A 
HETATM    6  C14 UNL     1      -5.429  -0.236  -0.711  1.00  0.00     0.051 C 
HETATM    7  C15 UNL     1      -6.071  -1.090   0.374  1.00  0.00     0.079 C 
HETATM    8  S2  UNL     1      -5.740  -2.822  -0.153  1.00  0.00    -0.164 SA
HETATM    9  C16 UNL     1      -4.405  -2.694  -1.382  1.00  0.00     0.120 C 
ENDROOT
BRANCH   2  10
HETATM   10  N1  UNL     1      -0.479   0.715   0.391  1.00  0.00    -0.319 N 
HETATM   11  C5  UNL     1       0.725  -0.025   0.322  1.00  0.00     0.246 C 
HETATM   12  O3  UNL     1       0.708  -1.197  -0.084  1.00  0.00    -0.271 OA
ATOM     13  H1  UNL     1      -0.482   1.680   0.723  1.00  0.00     0.169 HD
BRANCH  11  14
HETATM   14  C6  UNL     1       1.989   0.601   0.732  1.00  0.00     0.281 C 
BRANCH  14  15
HETATM   15  O4  UNL     1       3.071  -0.320   0.582  1.00  0.00    -0.310 OA
BRANCH  15  16
HETATM   16  C7  UNL     1       4.349   0.151   0.941  1.00  0.00     0.288 C 
HETATM   17  O5  UNL     1       4.507   1.324   1.369  1.00  0.00    -0.262 OA
BRANCH  16  18
HETATM   18  C8  UNL     1       5.536  -0.717   0.825  1.00  0.00     0.221 C 
HETATM   19  C9  UNL     1       5.732  -1.100  -0.623  1.00  0.00     0.044 C 
HETATM   20  C10 UNL     1       7.171  -0.635  -0.875  1.00  0.00     0.029 C 
HETATM   21  C11 UNL     1       7.706  -0.650   0.562  1.00  0.00     0.169 C 
HETATM   22  O6  UNL     1       6.657  -0.032   1.233  1.00  0.00    -0.376 OA
ENDBRANCH  16  18
ENDBRANCH  15  16
ENDBRANCH  14  15
ENDBRANCH  11  14
ENDBRANCH   2  10
BRANCH   1  23
HETATM   23  C2  UNL     1      -3.338   1.897   0.371  1.00  0.00     0.296 C 
HETATM   24  O2  UNL     1      -2.479   2.705   0.789  1.00  0.00    -0.259 OA
BRANCH  23  25
HETATM   25  O1  UNL     1      -4.634   2.365   0.339  1.00  0.00    -0.322 OA
HETATM   26  C1  UNL     1      -4.938   3.673   0.756  1.00  0.00     0.213 C 
ENDBRANCH  23  25
ENDBRANCH   1  23
TORSDOF 7
