REMARK  11 active torsions:
REMARK  status: ('A' for Active; 'I' for Inactive)
REMARK    1  A    between atoms: O1_2  and  C2_3 
REMARK    2  A    between atoms: C4_5  and  O2_6 
REMARK    3  A    between atoms: C6_8  and  C7_9 
REMARK    4  A    between atoms: C10_12  and  O3_13 
REMARK    5  A    between atoms: C12_15  and  O4_16 
REMARK    6  A    between atoms: C17_21  and  O5_22 
REMARK    7  A    between atoms: C18_24  and  O6_25 
REMARK    8  A    between atoms: C20_27  and  O7_28 
REMARK    9  A    between atoms: C22_30  and  O8_31 
REMARK   10  A    between atoms: C25_34  and  C26_35 
REMARK   11  A    between atoms: C29_39  and  O10_40 
ROOT
HETATM    1  C7  UNL     1       0.433   0.025  -0.922  1.00  0.00     0.071 A 
HETATM    2  C8  UNL     1      -0.249   1.210  -0.346  1.00  0.00    -0.034 A 
HETATM    3  C9  UNL     1       0.382   2.423  -0.570  1.00  0.00     0.048 A 
HETATM    4  C10 UNL     1      -0.173   3.572  -0.064  1.00  0.00     0.102 A 
HETATM    5  C12 UNL     1      -1.336   3.526   0.653  1.00  0.00     0.102 A 
HETATM    6  C14 UNL     1      -1.988   2.293   0.886  1.00  0.00     0.052 A 
HETATM    7  C15 UNL     1      -1.415   1.163   0.372  1.00  0.00    -0.013 A 
HETATM    8  C16 UNL     1      -2.061  -0.146   0.581  1.00  0.00     0.021 A 
HETATM    9  C17 UNL     1      -3.259  -0.237   1.266  1.00  0.00     0.113 A 
HETATM   10  C18 UNL     1      -3.853  -1.485   1.404  1.00  0.00     0.138 A 
HETATM   11  C20 UNL     1      -3.285  -2.625   0.880  1.00  0.00     0.138 A 
HETATM   12  C22 UNL     1      -2.093  -2.489   0.207  1.00  0.00     0.112 A 
HETATM   13  C24 UNL     1      -1.466  -1.247   0.051  1.00  0.00     0.004 A 
HETATM   14  C25 UNL     1      -0.195  -1.276  -0.675  1.00  0.00     0.105 A 
ENDROOT
BRANCH   1  15
HETATM   15  C6  UNL     1       1.868   0.163  -0.544  1.00  0.00    -0.012 A 
HETATM   16  C4  UNL     1       2.849   0.300  -1.502  1.00  0.00     0.078 A 
HETATM   17  C3  UNL     1       4.156   0.445  -1.118  1.00  0.00     0.077 A 
HETATM   18  C2  UNL     1       4.548   0.463   0.202  1.00  0.00     0.104 A 
HETATM   19  C29 UNL     1       3.585   0.328   1.168  1.00  0.00     0.102 A 
HETATM   20  C28 UNL     1       2.270   0.182   0.783  1.00  0.00     0.050 A 
BRANCH  16  21
HETATM   21  O2  UNL     1       2.483   0.286  -2.864  1.00  0.00    -0.355 OA
HETATM   22  C5  UNL     1       3.411   0.417  -3.894  1.00  0.00     0.210 C 
ENDBRANCH  16  21
BRANCH  18  23
HETATM   23  O1  UNL     1       5.908   0.616   0.521  1.00  0.00    -0.353 OA
HETATM   24  C1  UNL     1       6.876   0.751  -0.480  1.00  0.00     0.210 C 
ENDBRANCH  18  23
BRANCH  19  25
HETATM   25  O10 UNL     1       3.995   0.348   2.489  1.00  0.00    -0.353 OA
HETATM   26  C30 UNL     1       3.027   0.213   3.499  1.00  0.00     0.210 C 
ENDBRANCH  19  25
ENDBRANCH   1  15
BRANCH  14  27
HETATM   27  C26 UNL     1       0.747  -2.268  -0.031  1.00  0.00     0.132 C 
HETATM   28  C27 UNL     1       1.878  -2.869  -0.779  1.00  0.00     0.091 C 
HETATM   29  O9  UNL     1       0.629  -2.635   1.130  1.00  0.00    -0.298 OA
ENDBRANCH  14  27
BRANCH   4  30
HETATM   30  O3  UNL     1       0.421   4.829  -0.259  1.00  0.00    -0.353 OA
HETATM   31  C11 UNL     1       1.626   4.954  -0.994  1.00  0.00     0.210 C 
ENDBRANCH   4  30
BRANCH  12  32
HETATM   32  O8  UNL     1      -1.544  -3.672  -0.316  1.00  0.00    -0.352 OA
HETATM   33  C23 UNL     1      -1.827  -4.147  -1.599  1.00  0.00     0.210 C 
ENDBRANCH  12  32
BRANCH   5  34
HETATM   34  O4  UNL     1      -1.884   4.688   1.157  1.00  0.00    -0.353 OA
HETATM   35  C13 UNL     1      -3.083   4.652   1.897  1.00  0.00     0.210 C 
ENDBRANCH   5  34
BRANCH   9  36
HETATM   36  O5  UNL     1      -3.922   0.806   1.827  1.00  0.00    -0.357 OA
ATOM     37  H5  UNL     1      -4.745   0.743   2.298  1.00  0.00     0.217 HD
ENDBRANCH   9  36
BRANCH  11  38
HETATM   38  O7  UNL     1      -3.859  -3.880   1.004  1.00  0.00    -0.351 OA
HETATM   39  C21 UNL     1      -4.768  -4.416   0.069  1.00  0.00     0.210 C 
ENDBRANCH  11  38
BRANCH  10  40
HETATM   40  O6  UNL     1      -5.067  -1.637   2.088  1.00  0.00    -0.351 OA
HETATM   41  C19 UNL     1      -6.245  -1.523   1.312  1.00  0.00     0.210 C 
ENDBRANCH  10  40
TORSDOF 11
