REMARK  12 active torsions:
REMARK  status: ('A' for Active; 'I' for Inactive)
REMARK    1  A    between atoms: O1_2  and  C2_3 
REMARK    2  A    between atoms: C4_5  and  C5_6 
REMARK    3  A    between atoms: C8_10  and  O3_11 
REMARK    4  A    between atoms: C10_13  and  O4_14 
REMARK    5  A    between atoms: C12_16  and  O5_17 
REMARK    6  A    between atoms: C16_21  and  C17_22 
REMARK    7  A    between atoms: C17_22  and  C18_23 
REMARK    8  A    between atoms: C20_25  and  O6_26 
REMARK    9  A    between atoms: C22_28  and  O7_29 
REMARK   10  A    between atoms: C24_31  and  O8_32 
REMARK   11  A    between atoms: C28_36  and  O9_37 
REMARK   12  A    between atoms: C30_39  and  O10_40 
ROOT
HETATM    1  C5  UNL     1      -1.527   1.321   0.539  1.00  0.00     0.166 C 
HETATM    2  O2  UNL     1      -2.647   0.476   0.366  1.00  0.00    -0.340 OA
HETATM    3  C6  UNL     1      -2.617  -0.875   0.158  1.00  0.00     0.081 A 
HETATM    4  C7  UNL     1      -3.770  -1.619  -0.168  1.00  0.00     0.077 A 
HETATM    5  C8  UNL     1      -3.676  -2.964  -0.365  1.00  0.00     0.107 A 
HETATM    6  C10 UNL     1      -2.461  -3.597  -0.248  1.00  0.00     0.135 A 
HETATM    7  C12 UNL     1      -1.333  -2.874   0.072  1.00  0.00     0.113 A 
HETATM    8  C14 UNL     1      -1.406  -1.523   0.275  1.00  0.00     0.012 A 
HETATM    9  C15 UNL     1      -0.194  -0.801   0.655  1.00  0.00     0.052 C 
HETATM   10  C16 UNL     1      -0.223   0.656   0.433  1.00  0.00     0.028 C 
ENDROOT
BRANCH  10  11
HETATM   11  C17 UNL     1       0.816   1.359   1.278  1.00  0.00     0.046 C 
BRANCH  11  12
HETATM   12  C18 UNL     1       2.121   0.679   1.202  1.00  0.00    -0.052 A 
HETATM   13  C19 UNL     1       2.439  -0.250   2.158  1.00  0.00     0.047 A 
HETATM   14  C20 UNL     1       3.625  -1.006   2.096  1.00  0.00     0.104 A 
HETATM   15  C22 UNL     1       4.482  -0.793   1.046  1.00  0.00     0.135 A 
HETATM   16  C24 UNL     1       4.206   0.147   0.048  1.00  0.00     0.104 A 
HETATM   17  C26 UNL     1       2.996   0.862   0.179  1.00  0.00     0.047 A 
BRANCH  14  18
HETATM   18  O6  UNL     1       3.932  -1.933   3.050  1.00  0.00    -0.353 OA
HETATM   19  C21 UNL     1       3.293  -2.246   4.217  1.00  0.00     0.210 C 
ENDBRANCH  14  18
BRANCH  15  20
HETATM   20  O7  UNL     1       5.681  -1.511   0.931  1.00  0.00    -0.351 OA
HETATM   21  C23 UNL     1       6.795  -0.879   1.571  1.00  0.00     0.210 C 
ENDBRANCH  15  20
BRANCH  16  22
HETATM   22  O8  UNL     1       5.045   0.322  -0.929  1.00  0.00    -0.353 OA
HETATM   23  C25 UNL     1       5.670   0.707  -1.998  1.00  0.00     0.210 C 
ENDBRANCH  16  22
ENDBRANCH  11  12
ENDBRANCH  10  11
BRANCH   1  24
HETATM   24  C4  UNL     1      -1.717   2.499  -0.338  1.00  0.00    -0.023 A 
HETATM   25  C3  UNL     1      -2.204   2.343  -1.611  1.00  0.00     0.049 A 
HETATM   26  C2  UNL     1      -2.443   3.393  -2.493  1.00  0.00     0.104 A 
HETATM   27  C30 UNL     1      -2.167   4.686  -2.059  1.00  0.00     0.133 A 
HETATM   28  C28 UNL     1      -1.676   4.836  -0.786  1.00  0.00     0.104 A 
HETATM   29  C27 UNL     1      -1.449   3.786   0.076  1.00  0.00     0.049 A 
BRANCH  26  30
HETATM   30  O1  UNL     1      -2.916   3.143  -3.707  1.00  0.00    -0.353 OA
HETATM   31  C1  UNL     1      -3.207   2.078  -4.497  1.00  0.00     0.210 C 
ENDBRANCH  26  30
BRANCH  27  32
HETATM   32  O10 UNL     1      -2.400   5.749  -2.922  1.00  0.00    -0.356 OA
ATOM     33  H10 UNL     1      -2.212   6.632  -2.626  1.00  0.00     0.218 HD
ENDBRANCH  27  32
BRANCH  28  34
HETATM   34  O9  UNL     1      -1.402   6.164  -0.400  1.00  0.00    -0.353 OA
HETATM   35  C29 UNL     1      -0.923   6.486   0.883  1.00  0.00     0.210 C 
ENDBRANCH  28  34
ENDBRANCH   1  24
BRANCH   7  36
HETATM   36  O5  UNL     1      -0.119  -3.506   0.187  1.00  0.00    -0.352 OA
HETATM   37  C13 UNL     1       0.228  -3.991   1.469  1.00  0.00     0.210 C 
ENDBRANCH   7  36
BRANCH   6  38
HETATM   38  O4  UNL     1      -2.380  -4.960  -0.451  1.00  0.00    -0.351 OA
HETATM   39  C11 UNL     1      -2.100  -5.484  -1.714  1.00  0.00     0.210 C 
ENDBRANCH   6  38
BRANCH   5  40
HETATM   40  O3  UNL     1      -4.788  -3.710  -0.678  1.00  0.00    -0.353 OA
HETATM   41  C9  UNL     1      -6.046  -3.074  -0.790  1.00  0.00     0.210 C 
ENDBRANCH   5  40
TORSDOF 12
