REMARK  4 active torsions:
REMARK  status: ('A' for Active; 'I' for Inactive)
REMARK    1  A    between atoms: C2_2  and  C5_5 
REMARK    2  A    between atoms: C14_18  and  O1_19 
REMARK    3  A    between atoms: O1_19  and  C15_20 
REMARK    4  A    between atoms: C20_25  and  O2_26 
ROOT
HETATM    1  C5  UNL     1      -2.844  -0.837  -0.695  1.00  0.00    -0.007 C 
HETATM    2  C6  UNL     1      -2.629   0.603  -1.010  1.00  0.00     0.006 C 
HETATM    3  C7  UNL     1      -1.148   0.885  -1.141  1.00  0.00     0.012 C 
HETATM    4  C8  UNL     1      -0.447   0.801   0.216  1.00  0.00    -0.007 C 
HETATM    5  C9  UNL     1      -1.372  -0.024   1.111  1.00  0.00     0.012 C 
HETATM    6  C10 UNL     1      -1.888  -1.250   0.394  1.00  0.00     0.006 C 
HETATM    7  C11 UNL     1      -0.396   2.173   0.794  1.00  0.00     0.060 C 
HETATM    8  C12 UNL     1       0.915   2.859   0.704  1.00  0.00     0.295 C 
HETATM    9  C13 UNL     1       1.077   3.511  -0.583  1.00  0.00     0.092 C 
HETATM   10  N1  UNL     1       1.213   4.049  -1.612  1.00  0.00    -0.195 NA
HETATM   11  N2  UNL     1       2.051   2.033   0.999  1.00  0.00    -0.030 N 
ATOM     12  H21 UNL     1       2.069   1.717   1.969  1.00  0.00     0.281 HD
ATOM     13  H22 UNL     1       2.927   2.555   1.010  1.00  0.00     0.281 HD
HETATM   14  C14 UNL     1       2.061   0.939   0.052  1.00  0.00     0.352 C 
HETATM   15  C20 UNL     1       0.846   0.087   0.121  1.00  0.00     0.183 C 
ENDROOT
BRANCH  14  16
HETATM   16  O1  UNL     1       3.169   0.143   0.372  1.00  0.00    -0.352 OA
BRANCH  16  17
HETATM   17  C15 UNL     1       4.125   0.146  -0.620  1.00  0.00     0.124 C 
HETATM   18  C16 UNL     1       4.470  -1.269  -1.046  1.00  0.00     0.032 C 
HETATM   19  C17 UNL     1       5.574  -1.740  -0.150  1.00  0.00     0.002 C 
HETATM   20  C18 UNL     1       5.792  -0.610   0.850  1.00  0.00     0.002 C 
HETATM   21  C19 UNL     1       5.437   0.599  -0.005  1.00  0.00     0.032 C 
ENDBRANCH  16  17
ENDBRANCH  14  16
BRANCH  15  22
HETATM   22  O2  UNL     1       0.856  -0.748  -1.022  1.00  0.00    -0.390 OA
ATOM     23  H2  UNL     1       1.686  -1.206  -1.083  1.00  0.00     0.210 HD
ENDBRANCH  15  22
BRANCH   1  24
HETATM   24  C2  UNL     1      -4.273  -1.150  -0.364  1.00  0.00    -0.048 C 
HETATM   25  C1  UNL     1      -4.781  -0.388   0.828  1.00  0.00     0.015 C 
HETATM   26  C3  UNL     1      -5.130  -0.794  -1.558  1.00  0.00     0.015 C 
HETATM   27  C4  UNL     1      -4.417  -2.623  -0.062  1.00  0.00     0.015 C 
ENDBRANCH   1  24
TORSDOF 4
