REMARK  4 active torsions:
REMARK  status: ('A' for Active; 'I' for Inactive)
REMARK    1  A    between atoms: C3_3  and  C4_4 
REMARK    2  A    between atoms: N2_9  and  C7_10 
REMARK    3  A    between atoms: C13_16  and  O1_17 
REMARK    4  A    between atoms: C20_25  and  O2_26 
ROOT
HETATM    1  C7  UNL     1       1.703   1.196  -0.345  1.00  0.00     0.120 C 
HETATM    2  C8  UNL     1       1.086  -0.114  -0.545  1.00  0.00     0.033 C 
HETATM    3  C9  UNL     1      -0.345   0.136  -1.091  1.00  0.00    -0.008 C 
HETATM    4  C10 UNL     1      -0.819  -1.187  -1.597  1.00  0.00     0.005 C 
HETATM    5  C11 UNL     1      -2.271  -1.277  -1.910  1.00  0.00     0.008 C 
HETATM    6  C12 UNL     1      -3.084  -0.381  -1.067  1.00  0.00     0.023 C 
HETATM    7  C13 UNL     1      -4.418  -0.872  -0.654  1.00  0.00     0.123 C 
HETATM    8  C14 UNL     1      -4.814   0.193   0.376  1.00  0.00     0.033 C 
HETATM    9  C15 UNL     1      -3.504   0.677   0.984  1.00  0.00     0.012 C 
HETATM   10  C16 UNL     1      -2.406  -0.079   0.278  1.00  0.00    -0.034 C 
HETATM   11  C17 UNL     1      -2.105  -1.310   1.055  1.00  0.00     0.016 C 
HETATM   12  C18 UNL     1      -1.228   0.758  -0.064  1.00  0.00     0.001 C 
HETATM   13  C19 UNL     1      -0.373   1.165   1.096  1.00  0.00     0.039 C 
HETATM   14  C20 UNL     1       0.726   2.051   0.492  1.00  0.00     0.142 C 
ENDROOT
BRANCH   1  15
HETATM   15  N2  UNL     1       2.972   1.314   0.268  1.00  0.00    -0.335 N 
HETATM   16  C4  UNL     1       3.955   0.487   0.604  1.00  0.00     0.107 A 
HETATM   17  N1  UNL     1       4.992   1.164   1.190  1.00  0.00    -0.351 N 
HETATM   18  C5  UNL     1       4.642   2.433   1.215  1.00  0.00     0.107 A 
ATOM     19  H1  UNL     1       5.863   0.764   1.538  1.00  0.00     0.166 HD
HETATM   20  C6  UNL     1       3.416   2.557   0.661  1.00  0.00     0.110 A 
BRANCH  16  21
HETATM   21  C3  UNL     1       4.008  -0.922   0.414  1.00  0.00     0.044 C 
HETATM   22  C2  UNL     1       5.057  -1.638   0.804  1.00  0.00    -0.027 C 
HETATM   23  C1  UNL     1       5.162  -3.101   0.631  1.00  0.00     0.036 C 
ENDBRANCH  16  21
ENDBRANCH   1  15
BRANCH  14  24
HETATM   24  O2  UNL     1       0.089   2.942  -0.359  1.00  0.00    -0.393 OA
ATOM     25  H2  UNL     1      -0.512   3.468   0.156  1.00  0.00     0.210 HD
ENDBRANCH  14  24
BRANCH   7  26
HETATM   26  O1  UNL     1      -5.306  -0.759  -1.722  1.00  0.00    -0.395 OA
ATOM     27  H1  UNL     1      -6.162  -1.074  -1.457  1.00  0.00     0.210 HD
ENDBRANCH   7  26
TORSDOF 4
