REMARK  10 active torsions:
REMARK  status: ('A' for Active; 'I' for Inactive)
REMARK    1  A    between atoms: N1_1  and  O1_4 
REMARK    2  A    between atoms: O1_4  and  N2_5 
REMARK    3  A    between atoms: C2_8  and  O3_9 
REMARK    4  A    between atoms: O3_9  and  S1_10 
REMARK    5  A    between atoms: S1_10  and  N3_11 
REMARK    6  A    between atoms: C3_16  and  O6_17 
REMARK    7  A    between atoms: O6_17  and  S2_18 
REMARK    8  A    between atoms: C5_23  and  N4_24 
REMARK    9  A    between atoms: C7_28  and  O12_29 
REMARK   10  A    between atoms: C8_31  and  O13_32 
ROOT
HETATM    1  N2  UNL     1      -1.022   1.313   0.737  1.00  0.00    -0.154 N 
HETATM    2  C1  UNL     1       0.255   1.440   1.117  1.00  0.00     0.311 A 
HETATM    3  O2  UNL     1       0.614   2.386   1.867  1.00  0.00    -0.262 OA
HETATM    4  C2  UNL     1       1.223   0.552   0.712  1.00  0.00     0.197 A 
HETATM    5  C3  UNL     1       0.770  -0.485  -0.120  1.00  0.00     0.147 A 
HETATM    6  C4  UNL     1      -0.532  -0.616  -0.524  1.00  0.00     0.067 A 
HETATM    7  C5  UNL     1      -0.991  -1.545  -1.429  1.00  0.00     0.121 A 
HETATM    8  C6  UNL     1      -2.364  -1.516  -1.838  1.00  0.00     0.076 A 
HETATM    9  C7  UNL     1      -3.248  -0.598  -1.370  1.00  0.00     0.103 A 
HETATM   10  C8  UNL     1      -2.786   0.339  -0.470  1.00  0.00     0.129 A 
HETATM   11  C9  UNL     1      -1.468   0.332  -0.065  1.00  0.00     0.120 A 
ENDROOT
BRANCH   4  12
HETATM   12  O3  UNL     1       2.531   0.665   1.080  1.00  0.00    -0.208 OA
BRANCH  12  13
HETATM   13  S1  UNL     1       3.775   1.452   0.302  1.00  0.00     0.360 S 
HETATM   14  O4  UNL     1       4.052   0.696  -0.991  1.00  0.00    -0.176 OA
HETATM   15  O5  UNL     1       5.049   1.474   1.086  1.00  0.00    -0.176 OA
BRANCH  13  16
HETATM   16  N3  UNL     1       3.394   3.069  -0.158  1.00  0.00    -0.305 N 
ATOM     17  H32 UNL     1       2.486   3.490   0.036  1.00  0.00     0.171 HD
ATOM     18  H31 UNL     1       4.156   3.551  -0.635  1.00  0.00     0.171 HD
ENDBRANCH  13  16
ENDBRANCH  12  13
ENDBRANCH   4  12
BRANCH   5  19
HETATM   19  O6  UNL     1       1.790  -1.370  -0.475  1.00  0.00    -0.210 OA
BRANCH  19  20
HETATM   20  S2  UNL     1       2.199  -2.572   0.753  1.00  0.00     0.257 S 
HETATM   21  O7  UNL     1       3.115  -3.543   0.076  1.00  0.00    -0.572 OA
HETATM   22  O8  UNL     1       0.951  -3.189   1.304  1.00  0.00    -0.572 OA
HETATM   23  O9  UNL     1       3.016  -1.862   2.021  1.00  0.00    -0.572 OA
ENDBRANCH  19  20
ENDBRANCH   5  19
BRANCH   1  24
HETATM   24  O1  UNL     1      -1.976   2.233   1.184  1.00  0.00    -0.153 OA
BRANCH  24  25
HETATM   25  N1  UNL     1      -2.207   2.215   2.543  1.00  0.00    -0.285 N 
ATOM     26  H12 UNL     1      -1.712   1.573   3.162  1.00  0.00     0.186 HD
ATOM     27  H11 UNL     1      -2.903   2.886   2.869  1.00  0.00     0.186 HD
ENDBRANCH  24  25
ENDBRANCH   1  24
BRANCH   7  28
HETATM   28  N4  UNL     1      -0.188  -2.401  -2.166  1.00  0.00    -0.115 N 
HETATM   29  O10 UNL     1       0.647  -3.194  -1.957  1.00  0.00    -0.532 OA
HETATM   30  O11 UNL     1      -0.522  -2.409  -3.593  1.00  0.00    -0.532 OA
ENDBRANCH   7  28
BRANCH  10  31
HETATM   31  O13 UNL     1      -3.663   1.316   0.045  1.00  0.00    -0.356 OA
ATOM     32  H13 UNL     1      -3.345   1.962   0.665  1.00  0.00     0.218 HD
ENDBRANCH  10  31
BRANCH   9  33
HETATM   33  O12 UNL     1      -4.579  -0.554  -1.748  1.00  0.00    -0.358 OA
ATOM     34  H12 UNL     1      -5.198   0.088  -1.421  1.00  0.00     0.217 HD
ENDBRANCH   9  33
TORSDOF 10
