REMARK  6 active torsions:
REMARK  status: ('A' for Active; 'I' for Inactive)
REMARK    1  A    between atoms: C4_12  and  N5_13 
REMARK    2  A    between atoms: N5_13  and  N6_15 
REMARK    3  A    between atoms: N6_15  and  N7_16 
REMARK    4  A    between atoms: N7_16  and  C5_18 
REMARK    5  A    between atoms: C10_23  and  N8_24 
REMARK    6  A    between atoms: C12_31  and  C13_32 
ROOT
HETATM    1  C1  UNL     1      -6.750  -1.144   0.257  1.00  0.00     0.164 C 
HETATM    2  N1  UNL     1      -5.369  -0.678   0.299  1.00  0.00    -0.271 N 
HETATM    3  C2  UNL     1      -4.265  -1.527  -0.003  1.00  0.00     0.327 C 
HETATM    4  O1  UNL     1      -4.289  -2.749  -0.336  1.00  0.00    -0.247 OA
HETATM    5  N2  UNL     1      -3.101  -0.728   0.143  1.00  0.00    -0.305 N 
ATOM      6  H2  UNL     1      -2.148  -1.090   0.183  1.00  0.00     0.167 HD
HETATM    7  C3  UNL     1      -3.455   0.667   0.226  1.00  0.00     0.224 C 
HETATM    8  N3  UNL     1      -2.619   1.381   1.139  1.00  0.00    -0.295 N 
ATOM      9  H3  UNL     1      -3.010   1.964   1.879  1.00  0.00     0.183 HD
HETATM   10  N4  UNL     1      -1.233   1.240   0.966  1.00  0.00    -0.281 N 
ATOM     11  H4  UNL     1      -0.653   1.086   1.791  1.00  0.00     0.189 HD
HETATM   12  C4  UNL     1      -0.660   1.296  -0.183  1.00  0.00     0.172 C 
HETATM   13  S1  UNL     1      -1.659   1.571  -1.634  1.00  0.00    -0.075 SA
HETATM   14  C12 UNL     1      -3.397   1.317  -1.152  1.00  0.00     0.176 C 
HETATM   15  C14 UNL     1      -4.865   0.611   0.620  1.00  0.00     0.280 C 
HETATM   16  O7  UNL     1      -5.545   1.517   1.150  1.00  0.00    -0.268 OA
ENDROOT
BRANCH  12  17
HETATM   17  N5  UNL     1       0.754   1.148  -0.326  1.00  0.00    -0.263 N 
ATOM     18  H5  UNL     1       1.393   1.783   0.153  1.00  0.00     0.186 HD
BRANCH  17  19
HETATM   19  N6  UNL     1       1.240   0.135  -1.121  1.00  0.00    -0.020 NA
BRANCH  19  20
HETATM   20  N7  UNL     1       1.840  -0.906  -0.402  1.00  0.00    -0.282 N 
ATOM     21  H7  UNL     1       1.307  -1.747  -0.183  1.00  0.00     0.184 HD
BRANCH  20  22
HETATM   22  C5  UNL     1       3.178  -0.793   0.019  1.00  0.00     0.082 A 
HETATM   23  C6  UNL     1       3.915   0.351  -0.329  1.00  0.00     0.073 A 
HETATM   24  C7  UNL     1       5.215   0.564   0.009  1.00  0.00     0.107 A 
HETATM   25  C8  UNL     1       5.832  -0.438   0.753  1.00  0.00     0.107 A 
HETATM   26  O5  UNL     1       6.164   1.557  -0.187  1.00  0.00    -0.323 OA
HETATM   27  C9  UNL     1       5.138  -1.564   1.107  1.00  0.00     0.078 A 
HETATM   28  O4  UNL     1       7.147  -0.023   0.989  1.00  0.00    -0.323 OA
HETATM   29  C10 UNL     1       3.787  -1.764   0.744  1.00  0.00     0.133 A 
HETATM   30  C11 UNL     1       7.418   0.949  -0.001  1.00  0.00     0.352 C 
BRANCH  29  31
HETATM   31  N8  UNL     1       3.168  -2.956   1.156  1.00  0.00    -0.113 N 
HETATM   32  O2  UNL     1       3.941  -3.963   1.287  1.00  0.00    -0.532 OA
HETATM   33  O3  UNL     1       1.862  -3.189   1.432  1.00  0.00    -0.532 OA
ENDBRANCH  29  31
ENDBRANCH  20  22
ENDBRANCH  19  20
ENDBRANCH  17  19
ENDBRANCH  12  17
BRANCH  14  34
HETATM   34  C13 UNL     1      -4.025   2.648  -1.077  1.00  0.00     0.251 C 
HETATM   35  O6  UNL     1      -3.760   3.378  -0.157  1.00  0.00    -0.305 OA
ENDBRANCH  14  34
TORSDOF 6
