REMARK  9 active torsions:
REMARK  status: ('A' for Active; 'I' for Inactive)
REMARK    1  A    between atoms: C1_2  and  C2_4 
REMARK    2  A    between atoms: C2_4  and  C3_5 
REMARK    3  A    between atoms: C3_5  and  C4_6 
REMARK    4  A    between atoms: C4_6  and  N1_7 
REMARK    5  A    between atoms: C4_6  and  C15_22 
REMARK       I    between atoms: N1_7  and  C5_9 
REMARK    6  A    between atoms: C5_9  and  C6_11 
REMARK    7  A    between atoms: C8_13  and  N2_14 
REMARK       I    between atoms: C15_22  and  N3_24 
REMARK       I    between atoms: N4_27  and  C18_28 
REMARK    8  A    between atoms: C18_28  and  C19_30 
REMARK    9  A    between atoms: C19_30  and  C20_32 
ROOT
HETATM    1  C4  UNL     1      -0.745  -0.950  -0.122  1.00  0.00     0.177 C 
ENDROOT
BRANCH   1   2
HETATM    2  C3  UNL     1      -0.422  -1.508   1.279  1.00  0.00     0.045 C 
BRANCH   2   3
HETATM    3  C2  UNL     1      -1.149  -2.832   1.423  1.00  0.00     0.116 C 
BRANCH   3   4
HETATM    4  C1  UNL     1      -0.841  -3.375   2.771  1.00  0.00     0.172 C 
HETATM    5  O1  UNL     1      -1.331  -4.490   3.150  1.00  0.00    -0.648 OA
HETATM    6  O2  UNL     1      -0.022  -2.703   3.658  1.00  0.00    -0.648 OA
ENDBRANCH   3   4
ENDBRANCH   2   3
ENDBRANCH   1   2
BRANCH   1   7
HETATM    7  N1  UNL     1      -2.223  -0.824  -0.062  1.00  0.00    -0.342 N 
HETATM    8  C5  UNL     1      -2.983  -1.610  -0.947  1.00  0.00     0.276 C 
HETATM    9  O3  UNL     1      -2.418  -2.383  -1.749  1.00  0.00    -0.265 OA
ATOM     10  H1  UNL     1      -2.672  -0.189   0.598  1.00  0.00     0.163 HD
BRANCH   8  11
HETATM   11  C6  UNL     1      -4.433  -1.510  -0.914  1.00  0.00     0.144 A 
HETATM   12  C7  UNL     1      -5.199  -0.700  -0.089  1.00  0.00     0.074 A 
HETATM   13  C8  UNL     1      -6.526  -0.917  -0.388  1.00  0.00     0.055 A 
HETATM   14  C14 UNL     1      -6.521  -1.859  -1.393  1.00  0.00     0.172 A 
HETATM   15  O4  UNL     1      -5.274  -2.186  -1.679  1.00  0.00    -0.315 OA
BRANCH  13  16
HETATM   16  N2  UNL     1      -7.682  -0.302   0.209  1.00  0.00    -0.379 N 
HETATM   17  C9  UNL     1      -9.019  -0.634  -0.206  1.00  0.00     0.123 C 
HETATM   18  C10 UNL     1      -9.931   0.538  -0.351  1.00  0.00     0.020 C 
HETATM   19  C11 UNL     1      -9.659   1.664   0.591  1.00  0.00     0.003 C 
HETATM   20  C12 UNL     1      -8.197   1.963   0.725  1.00  0.00     0.020 C 
HETATM   21  C13 UNL     1      -7.536   0.686   1.260  1.00  0.00     0.123 C 
ENDBRANCH  13  16
ENDBRANCH   8  11
ENDBRANCH   1   7
BRANCH   1  22
HETATM   22  C15 UNL     1      -0.169   0.390  -0.284  1.00  0.00     0.242 C 
HETATM   23  O5  UNL     1      -0.920   1.399  -0.184  1.00  0.00    -0.271 OA
HETATM   24  N3  UNL     1       1.196   0.585  -0.549  1.00  0.00    -0.347 N 
HETATM   25  C16 UNL     1       2.157  -0.473  -0.734  1.00  0.00     0.145 C 
HETATM   26  C26 UNL     1       1.703   1.971  -0.649  1.00  0.00     0.145 C 
HETATM   27  C17 UNL     1       3.216  -0.282   0.359  1.00  0.00     0.146 C 
HETATM   28  N4  UNL     1       3.811   1.007   0.076  1.00  0.00    -0.343 N 
HETATM   29  C18 UNL     1       5.110   1.264  -0.354  1.00  0.00     0.290 C 
HETATM   30  C25 UNL     1       2.899   2.175   0.259  1.00  0.00     0.146 C 
HETATM   31  O6  UNL     1       5.421   2.508  -0.524  1.00  0.00    -0.264 OA
BRANCH  29  32
HETATM   32  C19 UNL     1       6.163   0.322  -0.638  1.00  0.00     0.222 C 
HETATM   33  O7  UNL     1       5.977  -0.907  -0.522  1.00  0.00    -0.287 OA
BRANCH  32  34
HETATM   34  C20 UNL     1       7.515   0.818  -1.082  1.00  0.00     0.091 C 
HETATM   35  C21 UNL     1       8.401  -0.381  -1.302  1.00  0.00     0.016 C 
HETATM   36  C22 UNL     1       9.759  -0.012  -1.799  1.00  0.00     0.028 C 
HETATM   37  C23 UNL     1      10.201   1.252  -1.062  1.00  0.00     0.232 C 
HETATM   38  N5  UNL     1       9.512   1.343   0.205  1.00  0.00    -0.074 N 
HETATM   39  C24 UNL     1       8.110   1.717  -0.001  1.00  0.00     0.244 C 
ATOM     40  H52 UNL     1       9.600   0.484   0.748  1.00  0.00     0.277 HD
ATOM     41  H51 UNL     1       9.984   1.978   0.849  1.00  0.00     0.277 HD
ENDBRANCH  32  34
ENDBRANCH  29  32
ENDBRANCH   1  22
TORSDOF 9
