REMARK  11 active torsions:
REMARK  status: ('A' for Active; 'I' for Inactive)
REMARK    1  A    between atoms: C2_2  and  N1_3 
REMARK    2  A    between atoms: C2_2  and  C19_28 
REMARK    3  A    between atoms: N1_3  and  C3_5 
REMARK    4  A    between atoms: C3_5  and  O1_6 
REMARK    5  A    between atoms: C3_5  and  C4_8 
REMARK    6  A    between atoms: C4_8  and  C5_9 
REMARK    7  A    between atoms: C4_8  and  C16_25 
REMARK       I    between atoms: C5_9  and  N2_11 
REMARK    8  A    between atoms: C10_17  and  C11_18 
REMARK    9  A    between atoms: C11_18  and  O4_20 
REMARK   10  A    between atoms: O4_20  and  C12_21 
REMARK       I    between atoms: C19_28  and  N3_30 
REMARK   11  A    between atoms: C23_34  and  C24_35 
ROOT
HETATM    1  C4  UNL     1       0.140   1.686   1.017  1.00  0.00     0.040 C 
ENDROOT
BRANCH   1   2
HETATM    2  C3  UNL     1       1.114   0.999   1.895  1.00  0.00     0.254 C 
BRANCH   2   3
HETATM    3  N1  UNL     1       1.611  -0.247   1.708  1.00  0.00    -0.359 N 
ATOM      4  H1  UNL     1       1.286  -0.889   2.431  1.00  0.00     0.162 HD
BRANCH   3   5
HETATM    5  C2  UNL     1       2.431  -0.877   0.812  1.00  0.00     0.072 C 
HETATM    6  C1  UNL     1       2.053  -0.988  -0.617  1.00  0.00     0.074 C 
BRANCH   5   7
HETATM    7  C19 UNL     1       3.900  -0.496   0.961  1.00  0.00     0.266 C 
HETATM    8  O5  UNL     1       4.123   0.363   1.853  1.00  0.00    -0.266 OA
HETATM    9  N3  UNL     1       4.916  -1.064   0.164  1.00  0.00    -0.334 N 
HETATM   10  C20 UNL     1       4.823  -2.047  -0.873  1.00  0.00     0.127 C 
HETATM   11  C23 UNL     1       6.318  -0.695   0.305  1.00  0.00     0.176 C 
HETATM   12  C21 UNL     1       6.237  -2.539  -1.132  1.00  0.00     0.022 C 
HETATM   13  C22 UNL     1       6.976  -2.052   0.079  1.00  0.00     0.036 C 
BRANCH  11  14
HETATM   14  C24 UNL     1       6.776   0.250  -0.712  1.00  0.00     0.254 C 
HETATM   15  N4  UNL     1       8.148   0.673  -0.627  1.00  0.00    -0.060 NA
HETATM   16  O6  UNL     1       6.089   0.721  -1.644  1.00  0.00    -0.275 OA
ENDBRANCH  11  14
ENDBRANCH   5   7
ENDBRANCH   3   5
ENDBRANCH   2   3
BRANCH   2  17
HETATM   17  O1  UNL     1       0.549   1.071   3.235  1.00  0.00    -0.373 OA
ATOM     18  H1  UNL     1       0.200   1.945   3.366  1.00  0.00     0.212 HD
ENDBRANCH   2  17
ENDBRANCH   1   2
BRANCH   1  19
HETATM   19  C5  UNL     1      -1.146   0.985   0.816  1.00  0.00     0.252 C 
HETATM   20  O2  UNL     1      -1.183  -0.295   0.846  1.00  0.00    -0.268 OA
HETATM   21  N2  UNL     1      -2.365   1.632   0.585  1.00  0.00    -0.324 N 
HETATM   22  C6  UNL     1      -2.500   3.117   0.555  1.00  0.00     0.202 C 
HETATM   23  C10 UNL     1      -3.701   1.165   0.287  1.00  0.00     0.206 C 
HETATM   24  S1  UNL     1      -3.265   3.227  -1.129  1.00  0.00    -0.137 SA
HETATM   25  C7  UNL     1      -3.863   1.468  -1.210  1.00  0.00     0.032 C 
HETATM   26  C8  UNL     1      -2.875   0.725  -2.040  1.00  0.00     0.029 C 
HETATM   27  C9  UNL     1      -5.273   1.387  -1.663  1.00  0.00     0.029 C 
BRANCH  23  28
HETATM   28  C11 UNL     1      -4.107  -0.094   0.732  1.00  0.00     0.284 C 
HETATM   29  O3  UNL     1      -3.627  -0.781   1.647  1.00  0.00    -0.263 OA
BRANCH  28  30
HETATM   30  O4  UNL     1      -5.213  -0.713   0.082  1.00  0.00    -0.310 OA
BRANCH  30  31
HETATM   31  C12 UNL     1      -5.696  -1.967   0.450  1.00  0.00     0.060 C 
HETATM   32  C13 UNL     1      -6.139  -1.902   1.900  1.00  0.00     0.045 C 
HETATM   33  C14 UNL     1      -4.747  -3.097   0.206  1.00  0.00     0.045 C 
HETATM   34  C15 UNL     1      -6.969  -2.217  -0.361  1.00  0.00     0.045 C 
ENDBRANCH  30  31
ENDBRANCH  28  30
ENDBRANCH  23  28
ENDBRANCH   1  19
BRANCH   1  35
HETATM   35  C16 UNL     1       0.628   2.523  -0.106  1.00  0.00     0.024 A 
HETATM   36  C17 UNL     1       1.469   3.765   0.257  1.00  0.00     0.010 A 
HETATM   37  C18 UNL     1       2.028   2.684  -0.535  1.00  0.00     0.010 A 
ENDBRANCH   1  35
TORSDOF 11
