REMARK  10 active torsions:
REMARK  status: ('A' for Active; 'I' for Inactive)
REMARK    1  A    between atoms: C2_2  and  C3_3 
REMARK    2  A    between atoms: C3_3  and  N1_4 
REMARK    3  A    between atoms: C3_3  and  C20_27 
REMARK       I    between atoms: N1_4  and  C4_6 
REMARK    4  A    between atoms: C4_6  and  C5_8 
REMARK       I    between atoms: N2_16  and  C12_17 
REMARK    5  A    between atoms: C12_17  and  C13_19 
REMARK    6  A    between atoms: C13_19  and  C14_21 
REMARK    7  A    between atoms: C14_21  and  C16_23 
REMARK    8  A    between atoms: C20_27  and  C21_29 
REMARK       I    between atoms: C21_29  and  N3_31 
REMARK    9  A    between atoms: N3_31  and  C22_33 
REMARK   10  A    between atoms: C22_33  and  C23_34 
ROOT
HETATM    1  N1  UNL     1       0.955   0.110  -0.755  1.00  0.00    -0.347 N 
ATOM      2  H1  UNL     1       1.047   0.074  -1.770  1.00  0.00     0.163 HD
HETATM    3  C4  UNL     1      -0.190  -0.438  -0.150  1.00  0.00     0.241 C 
HETATM    4  O1  UNL     1      -0.338  -0.414   1.115  1.00  0.00    -0.271 OA
ENDROOT
BRANCH   3   5
HETATM    5  C5  UNL     1      -1.229  -1.043  -0.988  1.00  0.00     0.180 C 
HETATM    6  C6  UNL     1      -0.644  -2.190  -1.814  1.00  0.00     0.041 C 
HETATM    7  C7  UNL     1      -1.687  -3.247  -2.007  1.00  0.00     0.004 C 
HETATM    8  C8  UNL     1      -1.311  -4.377  -2.920  1.00  0.00     0.079 C 
HETATM    9  C10 UNL     1      -2.155  -3.866  -0.738  1.00  0.00     0.018 C 
HETATM   10  S1  UNL     1      -2.818  -5.420  -2.668  1.00  0.00    -0.168 SA
HETATM   11  C9  UNL     1      -3.464  -4.544  -1.178  1.00  0.00     0.080 C 
HETATM   12  C11 UNL     1      -2.313  -2.877   0.336  1.00  0.00     0.133 C 
HETATM   13  N2  UNL     1      -2.382  -1.521  -0.246  1.00  0.00    -0.332 N 
HETATM   14  C12 UNL     1      -3.545  -0.790  -0.024  1.00  0.00     0.290 C 
HETATM   15  O2  UNL     1      -4.468  -1.410   0.646  1.00  0.00    -0.264 OA
BRANCH  14  16
HETATM   16  C13 UNL     1      -3.897   0.546  -0.414  1.00  0.00     0.221 C 
HETATM   17  O3  UNL     1      -3.098   1.230  -1.092  1.00  0.00    -0.287 OA
BRANCH  16  18
HETATM   18  C14 UNL     1      -5.189   1.197  -0.053  1.00  0.00     0.069 C 
HETATM   19  C15 UNL     1      -6.391   0.363  -0.343  1.00  0.00     0.019 C 
BRANCH  18  20
HETATM   20  C16 UNL     1      -5.229   1.877   1.254  1.00  0.00    -0.041 C 
HETATM   21  C17 UNL     1      -6.624   2.479   1.445  1.00  0.00     0.015 C 
HETATM   22  C18 UNL     1      -4.943   1.060   2.467  1.00  0.00     0.015 C 
HETATM   23  C19 UNL     1      -4.283   3.074   1.298  1.00  0.00     0.015 C 
ENDBRANCH  18  20
ENDBRANCH  16  18
ENDBRANCH  14  16
ENDBRANCH   3   5
BRANCH   1  24
HETATM   24  C3  UNL     1       2.035   0.741   0.048  1.00  0.00     0.164 C 
BRANCH  24  25
HETATM   25  C2  UNL     1       1.993   2.180  -0.366  1.00  0.00     0.029 C 
HETATM   26  C1  UNL     1       2.942   3.118   0.259  1.00  0.00     0.007 C 
ENDBRANCH  24  25
BRANCH  24  27
HETATM   27  C20 UNL     1       3.277   0.025  -0.219  1.00  0.00     0.238 C 
HETATM   28  O4  UNL     1       3.240  -0.810  -1.192  1.00  0.00    -0.285 OA
BRANCH  27  29
HETATM   29  C21 UNL     1       4.544   0.130   0.467  1.00  0.00     0.289 C 
HETATM   30  O5  UNL     1       4.656   0.867   1.462  1.00  0.00    -0.264 OA
HETATM   31  N3  UNL     1       5.693  -0.587   0.047  1.00  0.00    -0.352 N 
ATOM     32  H3  UNL     1       5.619  -1.200  -0.765  1.00  0.00     0.162 HD
BRANCH  31  33
HETATM   33  C22 UNL     1       6.964  -0.484   0.724  1.00  0.00     0.157 C 
BRANCH  33  34
HETATM   34  C23 UNL     1       7.517   0.907   0.727  1.00  0.00     0.169 C 
HETATM   35  C24 UNL     1       8.952   0.837   1.242  1.00  0.00     0.159 C 
HETATM   36  N4  UNL     1       9.605   1.969   0.569  1.00  0.00    -0.334 N 
HETATM   37  C25 UNL     1       8.736   2.365  -0.489  1.00  0.00     0.361 C 
ATOM     38  H4  UNL     1      10.503   2.388   0.811  1.00  0.00     0.164 HD
HETATM   39  O6  UNL     1       8.904   3.410  -1.181  1.00  0.00    -0.239 OA
HETATM   40  O7  UNL     1       7.728   1.406  -0.580  1.00  0.00    -0.295 OA
ENDBRANCH  33  34
ENDBRANCH  31  33
ENDBRANCH  27  29
ENDBRANCH  24  27
ENDBRANCH   1  24
TORSDOF 10
