REMARK  9 active torsions:
REMARK  status: ('A' for Active; 'I' for Inactive)
REMARK    1  A    between atoms: C6_6  and  N1_7 
REMARK       I    between atoms: N1_7  and  C7_9 
REMARK    2  A    between atoms: C7_9  and  C8_11 
REMARK    3  A    between atoms: C8_11  and  N2_12 
REMARK       I    between atoms: N2_12  and  C9_14 
REMARK    4  A    between atoms: C9_14  and  C10_16 
REMARK    5  A    between atoms: C10_16  and  N3_17 
REMARK       I    between atoms: N3_17  and  C11_19 
REMARK    6  A    between atoms: C11_19  and  C12_21 
REMARK    7  A    between atoms: C14_24  and  C15_25 
REMARK    8  A    between atoms: C20_30  and  S1_31 
REMARK    9  A    between atoms: S1_31  and  C21_34 
ROOT
HETATM    1  C12 UNL     1       6.044  -0.648   1.119  1.00  0.00     0.108 C 
HETATM    2  C13 UNL     1       5.660  -1.119   2.447  1.00  0.00     0.104 C 
HETATM    3  N4  UNL     1       5.341  -1.478   3.496  1.00  0.00    -0.191 NA
HETATM    4  C14 UNL     1       7.168   0.037   1.043  1.00  0.00     0.006 C 
ENDROOT
BRANCH   1   5
HETATM    5  C11 UNL     1       5.184  -0.957  -0.015  1.00  0.00     0.262 C 
HETATM    6  N3  UNL     1       5.515  -0.523  -1.317  1.00  0.00    -0.348 N 
ATOM      7  H3  UNL     1       6.377   0.009  -1.436  1.00  0.00     0.163 HD
HETATM    8  O3  UNL     1       4.136  -1.620   0.190  1.00  0.00    -0.267 OA
BRANCH   6   9
HETATM    9  C10 UNL     1       4.719  -0.781  -2.485  1.00  0.00     0.225 C 
BRANCH   9  10
HETATM   10  C9  UNL     1       3.352  -0.192  -2.422  1.00  0.00     0.235 C 
HETATM   11  N2  UNL     1       2.447  -0.376  -3.500  1.00  0.00    -0.351 N 
ATOM     12  H2  UNL     1       2.750  -0.911  -4.314  1.00  0.00     0.163 HD
HETATM   13  O2  UNL     1       3.039   0.458  -1.399  1.00  0.00    -0.272 OA
BRANCH  11  14
HETATM   14  C8  UNL     1       1.123   0.166  -3.481  1.00  0.00     0.225 C 
BRANCH  14  15
HETATM   15  C7  UNL     1       0.277  -0.369  -2.363  1.00  0.00     0.235 C 
HETATM   16  N1  UNL     1      -1.040   0.083  -2.213  1.00  0.00    -0.350 N 
ATOM     17  H1  UNL     1      -1.363   0.774  -2.890  1.00  0.00     0.163 HD
HETATM   18  O1  UNL     1       0.751  -1.212  -1.573  1.00  0.00    -0.272 OA
BRANCH  16  19
HETATM   19  C6  UNL     1      -1.993  -0.324  -1.201  1.00  0.00     0.037 C 
HETATM   20  C5  UNL     1      -2.258  -1.775  -1.342  1.00  0.00     0.066 C 
HETATM   21  C4  UNL     1      -2.929  -2.428  -0.164  1.00  0.00     0.163 C 
HETATM   22  C3  UNL     1      -2.413  -1.900   1.132  1.00  0.00     0.044 C 
HETATM   23  O7  UNL     1      -4.298  -2.411  -0.305  1.00  0.00    -0.235 OA
HETATM   24  C2  UNL     1      -2.350  -0.388   1.181  1.00  0.00    -0.038 C 
HETATM   25  C1  UNL     1      -1.706  -0.052   2.535  1.00  0.00     0.015 C 
HETATM   26  C18 UNL     1      -1.396   0.075   0.130  1.00  0.00     0.040 C 
HETATM   27  C25 UNL     1      -3.693   0.259   1.107  1.00  0.00     0.037 C 
HETATM   28  C20 UNL     1      -4.201   0.562  -0.257  1.00  0.00     0.091 C 
HETATM   29  C19 UNL     1      -3.218   0.533  -1.366  1.00  0.00     0.058 C 
HETATM   30  C24 UNL     1      -5.304  -0.444  -0.627  1.00  0.00     0.235 C 
HETATM   31  O6  UNL     1      -4.671  -1.539  -1.232  1.00  0.00    -0.239 OA
BRANCH  28  32
HETATM   32  S1  UNL     1      -4.827   2.225  -0.240  1.00  0.00     0.159 S 
HETATM   33  O4  UNL     1      -5.259   2.613  -1.652  1.00  0.00    -0.227 OA
HETATM   34  O5  UNL     1      -3.606   3.106   0.014  1.00  0.00    -0.227 OA
BRANCH  32  35
HETATM   35  C21 UNL     1      -6.017   2.623   0.932  1.00  0.00     0.109 A 
HETATM   36  C22 UNL     1      -7.293   1.784   1.031  1.00  0.00     0.021 A 
HETATM   37  C23 UNL     1      -6.324   1.982   2.193  1.00  0.00     0.021 A 
ENDBRANCH  32  35
ENDBRANCH  28  32
ENDBRANCH  16  19
ENDBRANCH  14  15
ENDBRANCH  11  14
ENDBRANCH   9  10
ENDBRANCH   6   9
ENDBRANCH   1   5
BRANCH   4  38
HETATM   38  C15 UNL     1       7.958   0.285   2.284  1.00  0.00     0.010 A 
HETATM   39  C16 UNL     1       9.094   1.240   2.201  1.00  0.00     0.009 A 
HETATM   40  C17 UNL     1       9.350  -0.241   2.320  1.00  0.00     0.009 A 
ENDBRANCH   4  38
TORSDOF 9
