REMARK  10 active torsions:
REMARK  status: ('A' for Active; 'I' for Inactive)
REMARK    1  A    between atoms: C2_2  and  C3_3 
REMARK    2  A    between atoms: C2_2  and  C4_6 
REMARK    3  A    between atoms: C3_3  and  O1_4 
REMARK    4  A    between atoms: C6_8  and  N1_9 
REMARK    5  A    between atoms: N1_9  and  C7_11 
REMARK    6  A    between atoms: C7_11  and  C8_12 
REMARK    7  A    between atoms: C8_12  and  C9_14 
REMARK    8  A    between atoms: C9_14  and  C10_16 
REMARK    9  A    between atoms: C10_16  and  S1_17 
REMARK   10  A    between atoms: C14_24  and  C15_25 
REMARK       I    between atoms: C15_25  and  N2_27 
ROOT
HETATM    1  C4  UNL     1       0.239  -2.901  -0.278  1.00  0.00     0.023 C 
HETATM    2  C5  UNL     1       1.272  -1.975  -0.905  1.00  0.00     0.040 C 
HETATM    3  C6  UNL     1       1.047  -0.548  -0.622  1.00  0.00     0.031 C 
HETATM    4  C11 UNL     1       0.990  -0.486   0.881  1.00  0.00     0.036 C 
HETATM    5  C12 UNL     1      -0.385  -1.043   1.278  1.00  0.00    -0.006 C 
HETATM    6  C13 UNL     1      -1.266   0.151   1.274  1.00  0.00     0.025 C 
HETATM    7  C14 UNL     1      -2.147   0.223   0.034  1.00  0.00     0.045 C 
HETATM    8  C20 UNL     1      -3.029  -0.986   0.214  1.00  0.00     0.024 C 
HETATM    9  C21 UNL     1      -2.064  -2.068  -0.331  1.00  0.00    -0.008 C 
HETATM   10  C22 UNL     1      -1.864  -1.460  -1.676  1.00  0.00     0.011 C 
HETATM   11  C23 UNL     1      -1.417  -0.082  -1.252  1.00  0.00     0.006 C 
HETATM   12  C24 UNL     1      -0.017   0.195  -1.321  1.00  0.00     0.036 C 
HETATM   13  C25 UNL     1      -0.827  -2.205   0.512  1.00  0.00     0.002 C 
ENDROOT
BRANCH   3  14
HETATM   14  N1  UNL     1       2.234   0.211  -1.038  1.00  0.00    -0.386 N 
ATOM     15  H1  UNL     1       2.521   0.252  -2.016  1.00  0.00     0.159 HD
BRANCH  14  16
HETATM   16  C7  UNL     1       2.960   0.880  -0.035  1.00  0.00     0.143 C 
BRANCH  16  17
HETATM   17  C8  UNL     1       3.883   1.859  -0.738  1.00  0.00     0.233 C 
HETATM   18  O2  UNL     1       3.490   2.269  -1.866  1.00  0.00    -0.283 OA
BRANCH  17  19
HETATM   19  C9  UNL     1       5.121   2.296  -0.156  1.00  0.00     0.216 C 
HETATM   20  O3  UNL     1       5.573   1.736   0.901  1.00  0.00    -0.288 OA
BRANCH  19  21
HETATM   21  C10 UNL     1       5.892   3.398  -0.743  1.00  0.00     0.252 C 
BRANCH  21  22
HETATM   22  S1  UNL     1       7.488   3.568   0.083  1.00  0.00     0.109 S 
HETATM   23  O4  UNL     1       7.260   3.828   1.556  1.00  0.00    -0.595 OA
HETATM   24  O5  UNL     1       8.180   4.740  -0.527  1.00  0.00    -0.595 OA
HETATM   25  O6  UNL     1       8.387   2.181  -0.123  1.00  0.00    -0.595 OA
ENDBRANCH  21  22
ENDBRANCH  19  21
ENDBRANCH  17  19
ENDBRANCH  16  17
ENDBRANCH  14  16
ENDBRANCH   3  14
BRANCH   1  26
HETATM   26  C2  UNL     1       0.886  -4.033   0.449  1.00  0.00    -0.061 C 
HETATM   27  C1  UNL     1       0.680  -4.461   1.645  1.00  0.00     0.017 C 
BRANCH  26  28
HETATM   28  C3  UNL     1       1.897  -4.804  -0.378  1.00  0.00     0.198 C 
BRANCH  28  29
HETATM   29  O1  UNL     1       2.424  -5.872   0.368  1.00  0.00    -0.397 OA
ATOM     30  H1  UNL     1       3.057  -6.355  -0.150  1.00  0.00     0.209 HD
ENDBRANCH  28  29
ENDBRANCH  26  28
ENDBRANCH   1  26
BRANCH   7  31
HETATM   31  C15 UNL     1      -2.798   1.531  -0.006  1.00  0.00     0.229 C 
HETATM   32  O7  UNL     1      -2.005   2.394  -0.558  1.00  0.00    -0.272 OA
HETATM   33  N2  UNL     1      -4.017   2.001   0.405  1.00  0.00    -0.347 N 
HETATM   34  C16 UNL     1      -4.330   3.441   0.250  1.00  0.00     0.152 C 
HETATM   35  C19 UNL     1      -5.157   1.322   0.965  1.00  0.00     0.152 C 
HETATM   36  C17 UNL     1      -5.556   3.553  -0.678  1.00  0.00     0.187 C 
HETATM   37  O8  UNL     1      -6.570   2.724  -0.260  1.00  0.00    -0.388 OA
HETATM   38  C18 UNL     1      -6.215   1.383  -0.162  1.00  0.00     0.187 C 
ENDBRANCH   7  31
TORSDOF 10
