REMARK  13 active torsions:
REMARK  status: ('A' for Active; 'I' for Inactive)
REMARK    1  A    between atoms: C2_2  and  S1_3 
REMARK    2  A    between atoms: S1_3  and  S2_4 
REMARK    3  A    between atoms: S2_4  and  C3_5 
REMARK    4  A    between atoms: C6_8  and  N1_9 
REMARK    5  A    between atoms: C11_18  and  C12_19 
REMARK    6  A    between atoms: C12_19  and  O4_20 
REMARK    7  A    between atoms: C12_19  and  N3_22 
REMARK    8  A    between atoms: N3_22  and  C13_24 
REMARK    9  A    between atoms: C13_24  and  C14_25 
REMARK   10  A    between atoms: C13_24  and  C18_29 
REMARK   11  A    between atoms: C14_25  and  C15_26 
REMARK   12  A    between atoms: C19_32  and  C20_33 
REMARK   13  A    between atoms: C20_33  and  O6_35 
ROOT
HETATM    1  C3  UNL     1      -3.067   0.883  -0.321  1.00  0.00     0.130 C 
HETATM    2  C4  UNL     1      -3.270  -0.126   0.738  1.00  0.00     0.051 C 
HETATM    3  C5  UNL     1      -2.305  -1.219   0.883  1.00  0.00     0.122 C 
HETATM    4  C6  UNL     1      -2.355  -2.376  -0.080  1.00  0.00     0.204 C 
HETATM    5  C10 UNL     1      -0.850  -2.256   0.067  1.00  0.00     0.246 C 
HETATM    6  O3  UNL     1      -0.014  -3.155  -0.126  1.00  0.00    -0.271 OA
HETATM    7  N2  UNL     1      -0.930  -0.908   0.445  1.00  0.00    -0.330 N 
HETATM    8  C11 UNL     1      -0.249   0.351   0.508  1.00  0.00     0.175 C 
HETATM    9  C19 UNL     1      -0.472   1.049  -0.849  1.00  0.00     0.116 C 
HETATM   10  C22 UNL     1      -1.893   0.754  -1.175  1.00  0.00     0.150 C 
HETATM   11  O7  UNL     1      -2.063   0.356  -2.307  1.00  0.00    -0.296 OA
ENDROOT
BRANCH   8  12
HETATM   12  C12 UNL     1       1.161   0.203   0.815  1.00  0.00     0.136 C 
BRANCH  12  13
HETATM   13  O4  UNL     1       1.602   0.985   1.760  1.00  0.00    -0.348 OA
ATOM     14  H4  UNL     1       2.525   0.888   1.961  1.00  0.00     0.219 HD
ENDBRANCH  12  13
BRANCH  12  15
HETATM   15  N3  UNL     1       2.122  -0.631   0.267  1.00  0.00    -0.360 N 
ATOM     16  H3  UNL     1       1.868  -1.274  -0.483  1.00  0.00     0.162 HD
BRANCH  15  17
HETATM   17  C13 UNL     1       3.511  -0.594   0.764  1.00  0.00     0.173 C 
BRANCH  17  18
HETATM   18  C14 UNL     1       4.411  -0.082  -0.312  1.00  0.00     0.038 C 
BRANCH  18  19
HETATM   19  C15 UNL     1       5.832  -0.010   0.110  1.00  0.00    -0.020 C 
HETATM   20  C16 UNL     1       6.663   0.549  -1.059  1.00  0.00     0.009 C 
HETATM   21  C17 UNL     1       6.134   0.847   1.284  1.00  0.00     0.009 C 
ENDBRANCH  18  19
ENDBRANCH  17  18
BRANCH  17  22
HETATM   22  C18 UNL     1       3.863  -1.879   1.373  1.00  0.00     0.253 C 
HETATM   23  N4  UNL     1       5.070  -2.196   2.038  1.00  0.00    -0.060 NA
HETATM   24  O5  UNL     1       3.025  -2.864   1.334  1.00  0.00    -0.275 OA
ENDBRANCH  17  22
ENDBRANCH  15  17
ENDBRANCH  12  15
ENDBRANCH   8  12
BRANCH   9  25
HETATM   25  C20 UNL     1      -0.313   2.543  -0.749  1.00  0.00     0.128 C 
HETATM   26  C21 UNL     1      -0.534   3.223  -2.086  1.00  0.00     0.040 C 
BRANCH  25  27
HETATM   27  O6  UNL     1       0.951   2.910  -0.231  1.00  0.00    -0.395 OA
ATOM     28  H6  UNL     1       1.051   3.853  -0.168  1.00  0.00     0.210 HD
ENDBRANCH  25  27
ENDBRANCH   9  25
BRANCH   4  29
HETATM   29  N1  UNL     1      -2.853  -3.576   0.555  1.00  0.00    -0.310 N 
HETATM   30  C7  UNL     1      -2.441  -3.985   1.888  1.00  0.00     0.156 C 
HETATM   31  C8  UNL     1      -2.772  -5.462   1.946  1.00  0.00     0.200 C 
HETATM   32  O1  UNL     1      -3.636  -5.685   0.846  1.00  0.00    -0.302 OA
HETATM   33  C9  UNL     1      -3.780  -4.549   0.077  1.00  0.00     0.363 C 
HETATM   34  O2  UNL     1      -4.555  -4.317  -0.889  1.00  0.00    -0.238 OA
ENDBRANCH   4  29
BRANCH   1  35
HETATM   35  S2  UNL     1      -4.620   1.102  -1.284  1.00  0.00    -0.085 SA
BRANCH  35  36
HETATM   36  S1  UNL     1      -4.380   2.580  -2.787  1.00  0.00    -0.097 SA
BRANCH  36  37
HETATM   37  C2  UNL     1      -4.801   4.230  -2.166  1.00  0.00     0.081 C 
HETATM   38  C1  UNL     1      -6.257   4.361  -1.833  1.00  0.00     0.017 C 
ENDBRANCH  36  37
ENDBRANCH  35  36
ENDBRANCH   1  35
TORSDOF 13
