REMARK  1 active torsions:
REMARK  status: ('A' for Active; 'I' for Inactive)
REMARK    1  A    between atoms: C4_5  and  C5_6 
ROOT
HETATM    1  C1  UNL     1      -2.969   0.897   1.335  1.00  0.00     0.148 C 
HETATM    2  N1  UNL     1      -2.242   0.166   0.346  1.00  0.00    -0.395 N 
HETATM    3  C2  UNL     1      -3.049   0.038  -0.790  1.00  0.00     0.148 C 
HETATM    4  C3  UNL     1      -0.888   0.046   0.366  1.00  0.00     0.007 C 
HETATM    5  C4  UNL     1       0.072   1.143   0.104  1.00  0.00     0.138 C 
HETATM    6  C6  UNL     1       1.238   0.486  -0.660  1.00  0.00     0.015 C 
HETATM    7  C7  UNL     1       2.555   1.050  -0.245  1.00  0.00     0.007 C 
HETATM    8  C8  UNL     1       2.832   0.410   1.096  1.00  0.00     0.001 C 
HETATM    9  C9  UNL     1       1.844  -0.720   1.272  1.00  0.00     0.011 C 
HETATM   10  C10 UNL     1       1.226  -0.878  -0.069  1.00  0.00    -0.027 C 
HETATM   11  C11 UNL     1       2.035  -1.814  -0.944  1.00  0.00     0.016 C 
HETATM   12  C12 UNL     1      -0.242  -1.242  -0.066  1.00  0.00    -0.001 C 
HETATM   13  C13 UNL     1      -0.387  -2.362   0.962  1.00  0.00     0.022 C 
HETATM   14  C14 UNL     1      -0.579  -1.800  -1.376  1.00  0.00     0.022 C 
ENDROOT
BRANCH   5  15
HETATM   15  C5  UNL     1      -0.347   2.378  -0.586  1.00  0.00     0.183 C 
HETATM   16  O1  UNL     1      -0.888   2.245  -1.848  1.00  0.00    -0.647 OA
HETATM   17  O2  UNL     1      -0.864   3.329   0.224  1.00  0.00    -0.647 OA
ENDBRANCH   5  15
TORSDOF 1
