REMARK  2 active torsions:
REMARK  status: ('A' for Active; 'I' for Inactive)
REMARK    1  A    between atoms: C5_6  and  N2_7 
REMARK    2  A    between atoms: N2_7  and  C6_9 
ROOT
HETATM    1  N1  UNL     1      -4.390   0.037   1.942  1.00  0.00    -0.196 NA
HETATM    2  C1  UNL     1      -3.349   0.079   1.442  1.00  0.00     0.069 C 
HETATM    3  C2  UNL     1      -2.011   0.124   0.809  1.00  0.00     0.050 C 
HETATM    4  C3  UNL     1      -1.015  -0.342   1.811  1.00  0.00     0.027 C 
HETATM    5  C4  UNL     1       0.167  -1.047   1.289  1.00  0.00     0.033 C 
HETATM    6  C5  UNL     1       0.855  -0.345   0.120  1.00  0.00     0.033 C 
HETATM    7  C7  UNL     1       0.698   1.131   0.202  1.00  0.00     0.035 C 
HETATM    8  C8  UNL     1      -0.551   1.688  -0.414  1.00  0.00    -0.010 C 
HETATM    9  C9  UNL     1      -0.924   1.086  -1.722  1.00  0.00     0.009 C 
HETATM   10  C10 UNL     1      -1.099  -0.403  -1.477  1.00  0.00    -0.010 C 
HETATM   11  C11 UNL     1      -2.090  -0.728  -0.422  1.00  0.00     0.029 C 
HETATM   12  C12 UNL     1       0.285  -0.915  -1.145  1.00  0.00     0.035 C 
HETATM   13  C13 UNL     1      -1.743   1.578   0.507  1.00  0.00     0.029 C 
ENDROOT
BRANCH   6  14
HETATM   14  N2  UNL     1       2.249  -0.704   0.181  1.00  0.00    -0.360 N 
ATOM     15  H2  UNL     1       2.497  -1.311   0.963  1.00  0.00     0.162 HD
BRANCH  14  16
HETATM   16  C6  UNL     1       3.308  -0.365  -0.641  1.00  0.00     0.181 C 
HETATM   17  N3  UNL     1       4.625  -0.882  -0.328  1.00  0.00    -0.070 NA
HETATM   18  S1  UNL     1       3.199   0.574  -1.948  1.00  0.00    -0.044 SA
ENDBRANCH  14  16
ENDBRANCH   6  14
TORSDOF 2
