REMARK  4 active torsions:
REMARK  status: ('A' for Active; 'I' for Inactive)
REMARK    1  A    between atoms: C2_2  and  C3_3 
REMARK    2  A    between atoms: C7_7  and  C8_8 
REMARK    3  A    between atoms: C8_8  and  O1_9 
REMARK    4  A    between atoms: C12_15  and  C13_16 
ROOT
HETATM    1  C3  UNL     1      -1.182   0.088  -0.124  1.00  0.00    -0.001 C 
HETATM    2  C4  UNL     1      -2.013   1.270  -0.600  1.00  0.00     0.012 C 
HETATM    3  C5  UNL     1      -0.976   2.317  -0.942  1.00  0.00     0.003 C 
HETATM    4  C6  UNL     1      -0.004   2.083   0.203  1.00  0.00     0.045 C 
HETATM    5  C7  UNL     1       0.156   0.577   0.300  1.00  0.00     0.189 C 
HETATM    6  N1  UNL     1       1.036   0.145  -0.656  1.00  0.00     0.120 N 
HETATM    7  C9  UNL     1       0.449  -0.961  -1.427  1.00  0.00     0.226 C 
HETATM    8  C10 UNL     1       0.953  -2.201  -0.709  1.00  0.00     0.038 C 
HETATM    9  C11 UNL     1       2.273  -1.762  -0.121  1.00  0.00     0.049 C 
HETATM   10  C12 UNL     1       2.336  -0.277  -0.560  1.00  0.00     0.324 C 
HETATM   11  C14 UNL     1      -1.014  -0.793  -1.357  1.00  0.00     0.048 C 
ENDROOT
BRANCH   5  12
HETATM   12  C8  UNL     1       0.495   0.302   1.738  1.00  0.00     0.206 C 
BRANCH  12  13
HETATM   13  O1  UNL     1      -0.444   0.793   2.642  1.00  0.00    -0.398 OA
ATOM     14  H1  UNL     1      -0.230   0.619   3.551  1.00  0.00     0.209 HD
ENDBRANCH  12  13
ENDBRANCH   5  12
BRANCH   1  15
HETATM   15  C2  UNL     1      -2.016  -0.685   0.825  1.00  0.00     0.008 C 
HETATM   16  C1  UNL     1      -3.257  -1.158   0.062  1.00  0.00     0.006 C 
ENDBRANCH   1  15
BRANCH  10  17
HETATM   17  C13 UNL     1       3.452   0.434  -0.033  1.00  0.00     0.207 C 
HETATM   18  O2  UNL     1       4.558  -0.222   0.070  1.00  0.00    -0.646 OA
HETATM   19  O3  UNL     1       3.556   1.733   0.394  1.00  0.00    -0.646 OA
ENDBRANCH  10  17
TORSDOF 4
