REMARK  5 active torsions:
REMARK  status: ('A' for Active; 'I' for Inactive)
REMARK    1  A    between atoms: N1_2  and  C3_4 
REMARK    2  A    between atoms: C5_6  and  C6_7 
REMARK    3  A    between atoms: C6_7  and  S1_8 
REMARK    4  A    between atoms: S1_8  and  N2_9 
REMARK    5  A    between atoms: S1_8  and  N3_12 
ROOT
HETATM    1  C6  UNL     1       2.138  -0.613   0.417  1.00  0.00     0.111 C 
ENDROOT
BRANCH   1   2
HETATM    2  C5  UNL     1       0.733  -0.073   0.421  1.00  0.00     0.001 C 
HETATM    3  C4  UNL     1      -0.269  -1.049   1.013  1.00  0.00     0.041 C 
HETATM    4  C3  UNL     1      -1.162  -0.748  -0.172  1.00  0.00     0.223 C 
HETATM    5  C7  UNL     1       0.074  -0.272  -0.906  1.00  0.00     0.041 C 
BRANCH   4   6
HETATM    6  N1  UNL     1      -2.076   0.345   0.008  1.00  0.00     0.084 N 
HETATM    7  C1  UNL     1      -2.785   0.518  -1.263  1.00  0.00     0.309 C 
HETATM    8  C2  UNL     1      -3.090   0.104   1.003  1.00  0.00     0.309 C 
ENDBRANCH   4   6
ENDBRANCH   1   2
BRANCH   1   9
HETATM    9  S1  UNL     1       3.123   0.498  -0.230  1.00  0.00    -0.043 SA
BRANCH   9  10
HETATM   10  N2  UNL     1       4.301  -0.013  -0.830  1.00  0.00    -0.367 N 
ATOM     11  H22 UNL     1       4.211  -0.936  -1.254  1.00  0.00     0.165 HD
ATOM     12  H21 UNL     1       4.921   0.687  -1.237  1.00  0.00     0.165 HD
ENDBRANCH   9  10
BRANCH   9  13
HETATM   13  N3  UNL     1       3.260   1.905   0.417  1.00  0.00    -0.367 N 
ATOM     14  H32 UNL     1       2.412   2.273   0.849  1.00  0.00     0.165 HD
ATOM     15  H31 UNL     1       3.880   2.605   0.010  1.00  0.00     0.165 HD
ENDBRANCH   9  13
ENDBRANCH   1   9
TORSDOF 5
