REMARK  4 active torsions:
REMARK  status: ('A' for Active; 'I' for Inactive)
REMARK    1  A    between atoms: N1_2  and  C2_3 
REMARK    2  A    between atoms: C2_3  and  C3_4 
REMARK    3  A    between atoms: C3_4  and  C4_5 
REMARK    4  A    between atoms: C4_5  and  N2_6 
ROOT
HETATM    1  C1  UNL     1      -0.478  -0.719   1.386  1.00  0.00     0.273 C 
HETATM    2  N1  UNL     1      -0.493  -0.144   0.032  1.00  0.00    -0.065 N 
HETATM    3  C5  UNL     1      -1.379  -0.936  -0.799  1.00  0.00     0.257 C 
HETATM    4  C6  UNL     1      -2.791  -0.816  -0.338  1.00  0.00     0.146 C 
HETATM    5  N3  UNL     1      -3.223   0.527  -0.279  1.00  0.00    -0.399 N 
ATOM      6  H3  UNL     1      -4.157   0.790  -0.594  1.00  0.00     0.158 HD
HETATM    7  C7  UNL     1      -2.334   1.491   0.224  1.00  0.00     0.083 C 
HETATM    8  C8  UNL     1      -0.886   1.219   0.154  1.00  0.00     0.281 C 
ENDROOT
BRANCH   2   9
HETATM    9  C2  UNL     1       0.819  -0.229  -0.586  1.00  0.00     0.239 C 
BRANCH   9  10
HETATM   10  C3  UNL     1       1.934  -0.104   0.405  1.00  0.00     0.055 C 
BRANCH  10  11
HETATM   11  C4  UNL     1       3.239  -0.207  -0.355  1.00  0.00     0.231 C 
BRANCH  11  12
HETATM   12  N2  UNL     1       4.378  -0.096   0.528  1.00  0.00    -0.079 N 
ATOM     13  H23 UNL     1       4.337   0.758   1.084  1.00  0.00     0.274 HD
ATOM     14  H22 UNL     1       4.332  -0.779   1.284  1.00  0.00     0.274 HD
ATOM     15  H21 UNL     1       5.257  -0.165   0.016  1.00  0.00     0.274 HD
ENDBRANCH  11  12
ENDBRANCH  10  11
ENDBRANCH   9  10
ENDBRANCH   2   9
TORSDOF 4
