REMARK  3 active torsions:
REMARK  status: ('A' for Active; 'I' for Inactive)
REMARK    1  A    between atoms: N2_4  and  C1_6 
REMARK    2  A    between atoms: C1_6  and  N3_7 
REMARK    3  A    between atoms: N3_7  and  C2_9 
ROOT
HETATM    1  C2  UNL     1       0.320  -0.833   0.652  1.00  0.00     0.221 C 
HETATM    2  O1  UNL     1      -0.650  -1.599   0.065  1.00  0.00    -0.366 OA
HETATM    3  C3  UNL     1      -1.250  -1.115  -1.055  1.00  0.00     0.175 C 
HETATM    4  C4  UNL     1      -1.616   0.345  -0.973  1.00  0.00     0.010 C 
HETATM    5  C5  UNL     1      -2.596   0.580   0.153  1.00  0.00     0.007 C 
HETATM    6  C6  UNL     1      -1.719   0.318   1.367  1.00  0.00     0.009 C 
HETATM    7  C7  UNL     1      -0.292   0.552   0.917  1.00  0.00     0.034 C 
HETATM    8  C8  UNL     1      -0.436   1.165  -0.477  1.00  0.00     0.015 C 
ENDROOT
BRANCH   1   9
HETATM    9  N3  UNL     1       1.500  -0.766  -0.104  1.00  0.00    -0.380 N 
ATOM     10  H3  UNL     1       1.545  -1.200  -1.026  1.00  0.00     0.157 HD
BRANCH   9  11
HETATM   11  C1  UNL     1       2.623  -0.093   0.421  1.00  0.00     0.257 C 
BRANCH  11  12
HETATM   12  N2  UNL     1       3.677  -0.163  -0.552  1.00  0.00    -0.325 N 
HETATM   13  N1  UNL     1       3.481   0.357  -1.663  1.00  0.00    -0.348 N 
ATOM     14  H12 UNL     1       2.592   0.816  -1.862  1.00  0.00     0.176 HD
ATOM     15  H11 UNL     1       4.230   0.307  -2.354  1.00  0.00     0.176 HD
ATOM     16  H2  UNL     1       4.560  -0.626  -0.337  1.00  0.00     0.181 HD
ENDBRANCH  11  12
ENDBRANCH   9  11
ENDBRANCH   1   9
TORSDOF 3
