REMARK  2 active torsions:
REMARK  status: ('A' for Active; 'I' for Inactive)
REMARK    1  A    between atoms: N2_4  and  N3_5 
REMARK    2  A    between atoms: N3_5  and  N4_7 
ROOT
HETATM    1  C1  UNL     1      -2.532   1.114   0.336  1.00  0.00     0.311 C 
HETATM    2  N1  UNL     1      -1.595   0.105  -0.049  1.00  0.00     0.100 N 
HETATM    3  C2  UNL     1      -0.777   0.601  -1.139  1.00  0.00     0.387 C 
HETATM    4  N2  UNL     1       0.498  -0.079  -1.049  1.00  0.00    -0.177 NA
HETATM    5  C3  UNL     1       0.434  -0.899   0.116  1.00  0.00     0.055 C 
HETATM    6  C4  UNL     1      -0.286  -2.204  -0.239  1.00  0.00     0.035 C 
HETATM    7  C5  UNL     1       1.717  -1.145   0.805  1.00  0.00     0.035 C 
HETATM    8  C6  UNL     1      -0.572  -0.122   0.982  1.00  0.00     0.299 C 
ENDROOT
BRANCH   4   9
HETATM    9  N3  UNL     1       1.586   0.760  -1.117  1.00  0.00    -0.246 N 
ATOM     10  H3  UNL     1       2.231   0.632  -1.896  1.00  0.00     0.203 HD
BRANCH   9  11
HETATM   11  N4  UNL     1       1.875   1.776  -0.198  1.00  0.00    -0.239 N 
HETATM   12  N5  UNL     1       1.900   3.006  -0.514  1.00  0.00    -0.330 N 
ATOM     13  H52 UNL     1       1.698   3.247  -1.484  1.00  0.00     0.178 HD
ATOM     14  H51 UNL     1       2.111   3.746   0.155  1.00  0.00     0.178 HD
ATOM     15  H4  UNL     1       2.074   1.517   0.768  1.00  0.00     0.209 HD
ENDBRANCH   9  11
ENDBRANCH   4   9
TORSDOF 2
