REMARK  12 active torsions:
REMARK  status: ('A' for Active; 'I' for Inactive)
REMARK    1  A    between atoms: C7_7  and  O1_9 
REMARK    2  A    between atoms: O1_9  and  C9_10 
REMARK    3  A    between atoms: C9_10  and  C10_12 
REMARK    4  A    between atoms: C15_19  and  N1_20 
REMARK    5  A    between atoms: N1_20  and  C16_22 
REMARK    6  A    between atoms: C16_22  and  C17_23 
REMARK    7  A    between atoms: C16_22  and  C21_27 
REMARK    8  A    between atoms: C17_23  and  C18_24 
REMARK       I    between atoms: C21_27  and  N2_29 
REMARK    9  A    between atoms: N2_29  and  C22_31 
REMARK   10  A    between atoms: C22_31  and  C23_32 
REMARK   11  A    between atoms: C23_32  and  C24_33 
REMARK   12  A    between atoms: C24_33  and  O5_34 
ROOT
HETATM    1  C1  UNL     1       1.967  -4.435   1.676  1.00  0.00     0.043 C 
HETATM    2  C2  UNL     1       2.208  -3.061   1.248  1.00  0.00    -0.085 C 
HETATM    3  C3  UNL     1       3.182  -2.761   0.418  1.00  0.00    -0.019 C 
HETATM    4  C4  UNL     1       3.378  -1.345   0.022  1.00  0.00     0.021 C 
HETATM    5  C5  UNL     1       4.449  -1.221  -1.027  1.00  0.00     0.012 C 
HETATM    6  C6  UNL     1       4.898   0.153  -1.279  1.00  0.00     0.039 C 
HETATM    7  C7  UNL     1       4.910   1.123  -0.144  1.00  0.00     0.067 C 
HETATM    8  C8  UNL     1       5.310   2.456  -0.805  1.00  0.00     0.047 C 
HETATM    9  C11 UNL     1       3.735   1.275   0.690  1.00  0.00     0.039 C 
HETATM   10  C12 UNL     1       2.394   0.871   0.232  1.00  0.00     0.017 C 
HETATM   11  C13 UNL     1       2.183  -0.535  -0.221  1.00  0.00     0.009 C 
HETATM   12  C14 UNL     1       1.730  -0.432  -1.687  1.00  0.00     0.191 C 
HETATM   13  O3  UNL     1       0.313  -0.359  -1.760  1.00  0.00    -0.322 OA
HETATM   14  C15 UNL     1      -0.428   0.145  -0.702  1.00  0.00     0.216 C 
HETATM   15  N3  UNL     1      -0.073  -0.296   0.487  1.00  0.00    -0.351 N 
ATOM     16  H3  UNL     1      -0.532  -0.007   1.351  1.00  0.00     0.163 HD
HETATM   17  C25 UNL     1       1.010  -1.212   0.448  1.00  0.00     0.100 C 
HETATM   18  C26 UNL     1       1.347  -1.940   1.712  1.00  0.00     0.059 C 
ENDROOT
BRANCH  14  19
HETATM   19  N1  UNL     1      -1.497   1.069  -0.842  1.00  0.00    -0.343 N 
ATOM     20  H1  UNL     1      -1.358   2.022  -1.178  1.00  0.00     0.164 HD
BRANCH  19  21
HETATM   21  C16 UNL     1      -2.840   0.540  -0.461  1.00  0.00     0.177 C 
BRANCH  21  22
HETATM   22  C17 UNL     1      -3.112  -0.634  -1.354  1.00  0.00     0.038 C 
BRANCH  22  23
HETATM   23  C18 UNL     1      -4.392  -1.337  -1.115  1.00  0.00    -0.020 C 
HETATM   24  C19 UNL     1      -4.463  -1.906   0.311  1.00  0.00     0.009 C 
HETATM   25  C20 UNL     1      -4.464  -2.613  -1.996  1.00  0.00     0.009 C 
ENDBRANCH  22  23
ENDBRANCH  21  22
BRANCH  21  26
HETATM   26  C21 UNL     1      -3.838   1.600  -0.707  1.00  0.00     0.240 C 
HETATM   27  O4  UNL     1      -3.414   2.615  -1.365  1.00  0.00    -0.271 OA
HETATM   28  N2  UNL     1      -5.181   1.609  -0.295  1.00  0.00    -0.359 N 
ATOM     29  H2  UNL     1      -5.579   0.836   0.238  1.00  0.00     0.162 HD
BRANCH  28  30
HETATM   30  C22 UNL     1      -5.992   2.784  -0.666  1.00  0.00     0.125 C 
BRANCH  30  31
HETATM   31  C23 UNL     1      -7.398   2.665  -0.158  1.00  0.00     0.046 C 
BRANCH  31  32
HETATM   32  C24 UNL     1      -7.355   2.567   1.350  1.00  0.00     0.165 C 
BRANCH  32  33
HETATM   33  O5  UNL     1      -8.645   2.455   1.876  1.00  0.00    -0.401 OA
ATOM     34  H5  UNL     1      -8.618   2.393   2.824  1.00  0.00     0.209 HD
ENDBRANCH  32  33
ENDBRANCH  31  32
ENDBRANCH  30  31
ENDBRANCH  28  30
ENDBRANCH  21  26
ENDBRANCH  19  21
ENDBRANCH  14  19
BRANCH   7  35
HETATM   35  O1  UNL     1       6.046   0.767   0.654  1.00  0.00    -0.310 OA
BRANCH  35  36
HETATM   36  C9  UNL     1       6.444   1.400   1.786  1.00  0.00     0.273 C 
HETATM   37  O2  UNL     1       5.821   2.373   2.218  1.00  0.00    -0.264 OA
BRANCH  36  38
HETATM   38  C10 UNL     1       7.641   0.920   2.517  1.00  0.00     0.225 C 
HETATM   39 CL1  UNL     1       7.955   1.901   3.950  1.00  0.00    -0.120 Cl
ENDBRANCH  36  38
ENDBRANCH  35  36
ENDBRANCH   7  35
TORSDOF 12
