REMARK  13 active torsions:
REMARK  status: ('A' for Active; 'I' for Inactive)
REMARK    1  A    between atoms: O1_2  and  C2_3 
REMARK    2  A    between atoms: C4_5  and  N1_6 
REMARK    3  A    between atoms: N1_6  and  C5_8 
REMARK    4  A    between atoms: C8_15  and  N4_16 
REMARK    5  A    between atoms: N4_16  and  C9_18 
REMARK    6  A    between atoms: C9_18  and  C10_19 
REMARK    7  A    between atoms: C10_19  and  C11_20 
REMARK    8  A    between atoms: C11_20  and  O2_21 
REMARK    9  A    between atoms: C18_32  and  O3_33 
REMARK   10  A    between atoms: O3_33  and  C19_34 
REMARK   11  A    between atoms: C19_34  and  C20_35 
REMARK   12  A    between atoms: C20_35  and  C21_36 
REMARK   13  A    between atoms: C21_36  and  N6_37 
ROOT
HETATM    1  C2  UNL     1       0.590  -1.890  -1.445  1.00  0.00     0.104 A 
HETATM    2  C3  UNL     1       1.739  -1.145  -1.418  1.00  0.00     0.070 A 
HETATM    3  C4  UNL     1       2.093  -0.274  -0.408  1.00  0.00     0.063 A 
HETATM    4  C12 UNL     1       1.194  -0.159   0.663  1.00  0.00     0.004 A 
HETATM    5  C13 UNL     1       1.512   0.677   1.714  1.00  0.00     0.018 A 
HETATM    6  C14 UNL     1       0.687   0.813   2.814  1.00  0.00     0.043 A 
HETATM    7  C15 UNL     1      -0.472   0.076   2.820  1.00  0.00     0.117 A 
HETATM    8  F1  UNL     1      -1.295   0.201   3.900  1.00  0.00    -0.206 F 
HETATM    9  C16 UNL     1      -0.782  -0.754   1.767  1.00  0.00     0.057 A 
HETATM   10  C17 UNL     1       0.030  -0.902   0.655  1.00  0.00     0.015 A 
HETATM   11  C18 UNL     1      -0.299  -1.753  -0.355  1.00  0.00     0.113 A 
ENDROOT
BRANCH   3  12
HETATM   12  N1  UNL     1       3.253   0.509  -0.362  1.00  0.00    -0.190 N 
ATOM     13  H1  UNL     1       3.127   1.518  -0.280  1.00  0.00     0.184 HD
BRANCH  12  14
HETATM   14  C5  UNL     1       4.459   0.075  -0.413  1.00  0.00     0.698 A 
HETATM   15  N2  UNL     1       4.773  -1.226  -0.522  1.00  0.00    -0.180 N 
HETATM   16  C6  UNL     1       6.076  -1.567  -0.561  1.00  0.00     0.109 A 
ATOM     17  H2  UNL     1       4.044  -1.938  -0.574  1.00  0.00     0.185 HD
HETATM   18  C7  UNL     1       6.401  -3.022  -0.689  1.00  0.00     0.090 C 
HETATM   19  N3  UNL     1       7.059  -0.670  -0.496  1.00  0.00    -0.180 N 
HETATM   20  C8  UNL     1       6.774   0.670  -0.383  1.00  0.00     0.694 A 
ATOM     21  H3  UNL     1       8.030  -0.980  -0.530  1.00  0.00     0.185 HD
HETATM   22  N5  UNL     1       5.480   0.989  -0.347  1.00  0.00    -0.022 N 
ATOM     23  H5  UNL     1       5.233   1.975  -0.265  1.00  0.00     0.203 HD
BRANCH  20  24
HETATM   24  N4  UNL     1       7.748   1.499  -0.316  1.00  0.00    -0.225 N 
ATOM     25  H4  UNL     1       8.687   1.103  -0.351  1.00  0.00     0.177 HD
BRANCH  24  26
HETATM   26  C9  UNL     1       7.659   2.909  -0.198  1.00  0.00     0.140 C 
BRANCH  26  27
HETATM   27  C10 UNL     1       8.493   3.326   1.012  1.00  0.00     0.046 C 
BRANCH  27  28
HETATM   28  C11 UNL     1       9.913   2.886   0.751  1.00  0.00     0.165 C 
BRANCH  28  29
HETATM   29  O2  UNL     1      10.327   3.539  -0.415  1.00  0.00    -0.401 OA
ATOM     30  H2  UNL     1      11.221   3.262  -0.579  1.00  0.00     0.209 HD
ENDBRANCH  28  29
ENDBRANCH  27  28
ENDBRANCH  26  27
ENDBRANCH  24  26
ENDBRANCH  20  24
ENDBRANCH  12  14
ENDBRANCH   3  12
BRANCH   1  31
HETATM   31  O1  UNL     1       0.295  -2.753  -2.497  1.00  0.00    -0.353 OA
HETATM   32  C1  UNL     1       1.207  -2.872  -3.572  1.00  0.00     0.210 C 
ENDBRANCH   1  31
BRANCH  11  33
HETATM   33  O3  UNL     1      -1.428  -2.524  -0.445  1.00  0.00    -0.347 OA
BRANCH  33  34
HETATM   34  C19 UNL     1      -2.578  -2.341  -1.155  1.00  0.00     0.177 C 
BRANCH  34  35
HETATM   35  C20 UNL     1      -3.540  -1.256  -1.005  1.00  0.00     0.046 C 
BRANCH  35  36
HETATM   36  C21 UNL     1      -4.344  -1.162   0.253  1.00  0.00     0.124 C 
BRANCH  36  37
HETATM   37  N6  UNL     1      -5.242  -0.024   0.175  1.00  0.00    -0.393 N 
HETATM   38  C22 UNL     1      -6.294  -0.116  -0.752  1.00  0.00     0.122 C 
HETATM   39  C23 UNL     1      -7.658  -0.349  -0.095  1.00  0.00     0.029 C 
HETATM   40  C24 UNL     1      -7.889   0.848   0.805  1.00  0.00    -0.042 C 
HETATM   41  C25 UNL     1      -7.774   2.084  -0.045  1.00  0.00     0.015 C 
HETATM   42  C26 UNL     1      -9.245   0.762   1.469  1.00  0.00     0.015 C 
HETATM   43  C27 UNL     1      -6.827   0.795   1.877  1.00  0.00     0.053 C 
HETATM   44  C28 UNL     1      -5.436   0.693   1.370  1.00  0.00     0.059 C 
ENDBRANCH  36  37
ENDBRANCH  35  36
ENDBRANCH  34  35
ENDBRANCH  33  34
ENDBRANCH  11  33
TORSDOF 13
