REMARK  14 active torsions:
REMARK  status: ('A' for Active; 'I' for Inactive)
REMARK    1  A    between atoms: C2_2  and  C4_4 
REMARK    2  A    between atoms: C4_4  and  C5_5 
REMARK    3  A    between atoms: C5_5  and  C6_6 
REMARK    4  A    between atoms: C15_16  and  C16_17 
REMARK    5  A    between atoms: C19_22  and  C20_23 
REMARK    6  A    between atoms: C20_23  and  O3_24 
REMARK    7  A    between atoms: C20_23  and  C21_26 
REMARK    8  A    between atoms: C21_26  and  C22_27 
REMARK    9  A    between atoms: C22_27  and  O4_28 
REMARK   10  A    between atoms: C23_30  and  C24_31 
REMARK   11  A    between atoms: C24_31  and  C25_32 
REMARK   12  A    between atoms: C25_32  and  N1_33 
REMARK   13  A    between atoms: C25_32  and  C27_37 
REMARK   14  A    between atoms: C27_37  and  O6_39 
ROOT
HETATM    1  C6  UNL     1      -1.075   1.501  -0.634  1.00  0.00    -0.002 C 
HETATM    2  C7  UNL     1      -2.207   1.004  -1.642  1.00  0.00     0.009 C 
HETATM    3  C8  UNL     1      -1.981   1.584  -3.010  1.00  0.00     0.014 C 
HETATM    4  C9  UNL     1      -2.259  -0.354  -1.531  1.00  0.00    -0.010 C 
HETATM    5  C10 UNL     1      -2.703  -1.589  -2.108  1.00  0.00    -0.004 C 
HETATM    6  C11 UNL     1      -3.496  -1.976  -3.048  1.00  0.00    -0.014 C 
HETATM    7  C12 UNL     1      -3.489  -3.445  -3.113  1.00  0.00     0.033 C 
HETATM    8  C13 UNL     1      -2.222  -3.859  -2.332  1.00  0.00     0.078 C 
HETATM    9  C14 UNL     1      -2.032  -2.768  -1.379  1.00  0.00     0.193 C 
HETATM   10  O1  UNL     1      -2.579  -2.909  -0.121  1.00  0.00    -0.341 OA
HETATM   11  C15 UNL     1      -1.523  -2.930   0.805  1.00  0.00     0.183 C 
HETATM   12  C17 UNL     1      -0.465  -2.034   0.139  1.00  0.00     0.162 C 
HETATM   13  O2  UNL     1      -0.687  -2.372  -1.143  1.00  0.00    -0.342 OA
HETATM   14  C18 UNL     1      -0.430  -0.651   0.645  1.00  0.00     0.029 C 
HETATM   15  C19 UNL     1       0.619  -0.172   1.575  1.00  0.00     0.026 C 
HETATM   16  C23 UNL     1       1.117   0.830   0.510  1.00  0.00    -0.000 C 
HETATM   17  C29 UNL     1      -0.105   0.467  -0.278  1.00  0.00     0.002 C 
ENDROOT
BRANCH  16  18
HETATM   18  C24 UNL     1       2.477   0.443   0.023  1.00  0.00     0.049 C 
BRANCH  18  19
HETATM   19  C25 UNL     1       3.241   1.214  -0.952  1.00  0.00     0.284 C 
BRANCH  19  20
HETATM   20  N1  UNL     1       4.552   0.414  -1.030  1.00  0.00    -0.066 N 
HETATM   21  C26 UNL     1       5.196   0.442   0.248  1.00  0.00     0.267 C 
ATOM     22  H12 UNL     1       4.406  -0.537  -1.370  1.00  0.00     0.277 HD
ATOM     23  H11 UNL     1       5.162   0.742  -1.779  1.00  0.00     0.277 HD
ENDBRANCH  19  20
BRANCH  19  24
HETATM   24  C27 UNL     1       2.870   1.285  -2.354  1.00  0.00     0.289 C 
HETATM   25  O5  UNL     1       3.476   0.633  -3.273  1.00  0.00    -0.263 OA
BRANCH  24  26
HETATM   26  O6  UNL     1       1.836   2.077  -2.797  1.00  0.00    -0.325 OA
HETATM   27  C28 UNL     1       1.548   2.113  -4.208  1.00  0.00     0.213 C 
ENDBRANCH  24  26
ENDBRANCH  19  24
ENDBRANCH  18  19
ENDBRANCH  16  18
BRANCH  15  28
HETATM   28  C20 UNL     1       1.607  -1.123   2.150  1.00  0.00     0.125 C 
BRANCH  28  29
HETATM   29  O3  UNL     1       0.809  -2.075   2.863  1.00  0.00    -0.395 OA
ATOM     30  H3  UNL     1       1.440  -2.683   3.230  1.00  0.00     0.210 HD
ENDBRANCH  28  29
BRANCH  28  31
HETATM   31  C21 UNL     1       2.327  -0.448   3.320  1.00  0.00     0.058 C 
BRANCH  31  32
HETATM   32  C22 UNL     1       3.346  -1.326   3.966  1.00  0.00     0.166 C 
BRANCH  32  33
HETATM   33  O4  UNL     1       2.732  -2.455   4.454  1.00  0.00    -0.401 OA
ATOM     34  H4  UNL     1       3.381  -3.014   4.865  1.00  0.00     0.209 HD
ENDBRANCH  32  33
ENDBRANCH  31  32
ENDBRANCH  28  31
ENDBRANCH  15  28
BRANCH   1  35
HETATM   35  C5  UNL     1      -1.749   2.367   0.330  1.00  0.00     0.010 C 
BRANCH  35  36
HETATM   36  C4  UNL     1      -1.058   3.091   1.416  1.00  0.00     0.033 C 
BRANCH  36  37
HETATM   37  C2  UNL     1      -2.078   3.942   2.189  1.00  0.00    -0.093 C 
HETATM   38  C1  UNL     1      -1.877   5.230   2.214  1.00  0.00     0.014 C 
HETATM   39  C3  UNL     1      -3.202   3.255   2.842  1.00  0.00     0.042 C 
ENDBRANCH  36  37
ENDBRANCH  35  36
ENDBRANCH   1  35
BRANCH  11  40
HETATM   40  C16 UNL     1      -1.036  -4.380   0.783  1.00  0.00     0.256 C 
HETATM   41  F1  UNL     1      -2.132  -5.145   1.166  1.00  0.00    -0.253 F 
ENDBRANCH  11  40
TORSDOF 14
