REMARK  12 active torsions:
REMARK  status: ('A' for Active; 'I' for Inactive)
REMARK    1  A    between atoms: C2_2  and  C5_5 
REMARK    2  A    between atoms: C5_5  and  C6_6 
REMARK    3  A    between atoms: C6_6  and  C7_7 
REMARK    4  A    between atoms: C7_7  and  C8_8 
REMARK    5  A    between atoms: C8_8  and  C9_9 
REMARK    6  A    between atoms: C9_9  and  C10_10 
REMARK       I    between atoms: C10_10  and  N1_12 
REMARK    7  A    between atoms: N2_15  and  C13_16 
REMARK    8  A    between atoms: C15_21  and  C16_22 
REMARK    9  A    between atoms: C21_30  and  O3_31 
REMARK   10  A    between atoms: O3_31  and  C22_32 
REMARK   11  A    between atoms: C22_32  and  C23_33 
REMARK   12  A    between atoms: C23_33  and  N5_34 
ROOT
HETATM    1  C13 UNL     1       1.641  -1.259  -0.525  1.00  0.00     0.683 A 
HETATM    2  N3  UNL     1       2.122  -2.518  -0.640  1.00  0.00    -0.155 N 
ATOM      3  H3  UNL     1       1.504  -3.228  -1.033  1.00  0.00     0.187 HD
HETATM    4  C14 UNL     1       3.349  -2.896  -0.275  1.00  0.00     0.272 A 
HETATM    5  O2  UNL     1       3.733  -4.097  -0.412  1.00  0.00    -0.267 OA
HETATM    6  C15 UNL     1       4.203  -1.947   0.261  1.00  0.00     0.061 A 
HETATM    7  C26 UNL     1       3.747  -0.664   0.391  1.00  0.00     0.124 A 
HETATM    8  N6  UNL     1       2.504  -0.359   0.003  1.00  0.00    -0.201 N 
ATOM      9  H6  UNL     1       2.189   0.605   0.111  1.00  0.00     0.183 HD
ENDROOT
BRANCH   6  10
HETATM   10  C16 UNL     1       5.539  -2.363   0.667  1.00  0.00     0.009 A 
HETATM   11  C17 UNL     1       5.879  -3.465   1.427  1.00  0.00     0.102 A 
HETATM   12  N4  UNL     1       7.215  -3.469   1.575  1.00  0.00    -0.362 N 
HETATM   13  C18 UNL     1       7.772  -2.412   0.942  1.00  0.00     0.082 A 
ATOM     14  H4  UNL     1       7.738  -4.174   2.095  1.00  0.00     0.165 HD
HETATM   15  C19 UNL     1       9.059  -1.952   0.780  1.00  0.00     0.146 A 
HETATM   16  C25 UNL     1       6.717  -1.722   0.375  1.00  0.00     0.009 A 
HETATM   17  F1  UNL     1      10.045  -2.676   1.363  1.00  0.00    -0.204 F 
HETATM   18  C20 UNL     1       9.299  -0.819   0.062  1.00  0.00     0.081 A 
HETATM   19  C21 UNL     1       8.261  -0.086  -0.531  1.00  0.00     0.072 A 
HETATM   20  C24 UNL     1       6.997  -0.577  -0.347  1.00  0.00     0.051 A 
BRANCH  19  21
HETATM   21  O3  UNL     1       8.518   1.033  -1.242  1.00  0.00    -0.349 OA
BRANCH  21  22
HETATM   22  C22 UNL     1       7.670   1.905  -1.865  1.00  0.00     0.203 C 
BRANCH  22  23
HETATM   23  C23 UNL     1       6.778   2.650  -0.924  1.00  0.00     0.256 C 
BRANCH  23  24
HETATM   24  N5  UNL     1       7.644   3.406  -0.013  1.00  0.00    -0.077 N 
ATOM     25  H53 UNL     1       8.329   2.821   0.465  1.00  0.00     0.274 HD
ATOM     26  H52 UNL     1       8.305   4.011  -0.500  1.00  0.00     0.274 HD
ATOM     27  H51 UNL     1       7.036   3.914   0.629  1.00  0.00     0.274 HD
ENDBRANCH  23  24
ENDBRANCH  22  23
ENDBRANCH  21  22
ENDBRANCH  19  21
ENDBRANCH   6  10
BRANCH   1  28
HETATM   28  N2  UNL     1       0.329  -0.914  -0.925  1.00  0.00    -0.214 N 
HETATM   29  C12 UNL     1      -0.116   0.451  -0.772  1.00  0.00     0.161 C 
HETATM   30  C11 UNL     1      -1.632   0.539  -0.885  1.00  0.00     0.146 C 
HETATM   31  N1  UNL     1      -2.238  -0.608  -0.272  1.00  0.00    -0.349 N 
HETATM   32  C10 UNL     1      -3.142  -0.432   0.802  1.00  0.00     0.219 C 
HETATM   33  C28 UNL     1      -1.894  -1.925  -0.787  1.00  0.00     0.146 C 
HETATM   34  O1  UNL     1      -3.640  -1.452   1.323  1.00  0.00    -0.273 OA
HETATM   35  C27 UNL     1      -0.555  -1.895  -1.473  1.00  0.00     0.161 C 
BRANCH  32  36
HETATM   36  C9  UNL     1      -3.481   0.905   1.280  1.00  0.00     0.103 C 
BRANCH  36  37
HETATM   37  C8  UNL     1      -4.323   0.987   2.491  1.00  0.00     0.009 C 
BRANCH  37  38
HETATM   38  C7  UNL     1      -5.647   0.372   2.552  1.00  0.00     0.000 C 
BRANCH  38  39
HETATM   39  C6  UNL     1      -6.709   0.788   1.624  1.00  0.00     0.001 C 
BRANCH  39  40
HETATM   40  C5  UNL     1      -6.534   0.568   0.175  1.00  0.00     0.008 C 
BRANCH  40  41
HETATM   41  C2  UNL     1      -7.791   1.056  -0.561  1.00  0.00    -0.051 C 
HETATM   42  C1  UNL     1      -8.953   0.243  -0.021  1.00  0.00     0.014 C 
HETATM   43  C3  UNL     1      -7.663   0.786  -2.038  1.00  0.00     0.014 C 
HETATM   44  C4  UNL     1      -8.024   2.517  -0.321  1.00  0.00     0.014 C 
ENDBRANCH  40  41
ENDBRANCH  39  40
ENDBRANCH  38  39
ENDBRANCH  37  38
ENDBRANCH  36  37
ENDBRANCH  32  36
ENDBRANCH   1  28
TORSDOF 12
