REMARK  14 active torsions:
REMARK  status: ('A' for Active; 'I' for Inactive)
REMARK    1  A    between atoms: S1_2  and  C2_3 
REMARK    2  A    between atoms: C2_3  and  C3_4 
REMARK    3  A    between atoms: C3_4  and  C4_5 
REMARK    4  A    between atoms: C3_4  and  C6_12 
REMARK       I    between atoms: C4_5  and  N1_7 
REMARK    5  A    between atoms: N1_7  and  O2_8 
REMARK    6  A    between atoms: N1_7  and  C5_10 
REMARK    7  A    between atoms: C12_18  and  C13_19 
REMARK    8  A    between atoms: C13_19  and  C14_20 
REMARK    9  A    between atoms: C15_21  and  C16_22 
REMARK   10  A    between atoms: C16_22  and  O4_24 
REMARK   11  A    between atoms: C16_22  and  C18_26 
REMARK   12  A    between atoms: C18_26  and  O6_28 
REMARK   13  A    between atoms: O6_28  and  C19_29 
REMARK   14  A    between atoms: C20_30  and  O7_31 
ROOT
HETATM    1  C13 UNL     1      -1.135  -0.763  -0.673  1.00  0.00     0.032 C 
ENDROOT
BRANCH   1   2
HETATM    2  C12 UNL     1      -2.336  -1.320   0.067  1.00  0.00     0.001 C 
HETATM    3  C6  UNL     1      -3.608  -0.949  -0.615  1.00  0.00     0.026 C 
HETATM    4  C7  UNL     1      -3.889  -1.872  -1.781  1.00  0.00    -0.025 C 
HETATM    5  C8  UNL     1      -3.880  -3.167  -1.480  1.00  0.00    -0.030 C 
HETATM    6  C9  UNL     1      -3.589  -3.459  -0.032  1.00  0.00     0.031 C 
HETATM    7  C10 UNL     1      -2.257  -2.802   0.239  1.00  0.00    -0.010 C 
HETATM    8  C11 UNL     1      -1.838  -3.213   1.634  1.00  0.00     0.010 C 
BRANCH   3   9
HETATM    9  C3  UNL     1      -3.660   0.478  -1.107  1.00  0.00     0.098 C 
BRANCH   9  10
HETATM   10  C2  UNL     1      -5.057   0.742  -1.693  1.00  0.00     0.088 C 
BRANCH  10  11
HETATM   11  S1  UNL     1      -6.331   0.432  -0.433  1.00  0.00    -0.173 SA
HETATM   12  C1  UNL     1      -7.937   0.767  -1.208  1.00  0.00     0.089 C 
ENDBRANCH  10  11
ENDBRANCH   9  10
BRANCH   9  13
HETATM   13  C4  UNL     1      -3.544   1.430   0.028  1.00  0.00     0.255 C 
HETATM   14  O1  UNL     1      -3.715   1.038   1.207  1.00  0.00    -0.270 OA
HETATM   15  N1  UNL     1      -3.243   2.798  -0.188  1.00  0.00    -0.164 N 
BRANCH  15  16
HETATM   16  O2  UNL     1      -3.188   3.611   0.920  1.00  0.00    -0.278 OA
ATOM     17  H2  UNL     1      -2.986   4.528   0.775  1.00  0.00     0.245 HD
ENDBRANCH  15  16
BRANCH  15  18
HETATM   18  C5  UNL     1      -2.988   3.360  -1.466  1.00  0.00     0.385 C 
HETATM   19  O3  UNL     1      -2.726   4.580  -1.587  1.00  0.00    -0.281 OA
ENDBRANCH  15  18
ENDBRANCH   9  13
ENDBRANCH   3   9
ENDBRANCH   1   2
BRANCH   1  20
HETATM   20  C14 UNL     1       0.093  -1.163   0.046  1.00  0.00    -0.027 C 
HETATM   21  C15 UNL     1       0.975  -0.315   0.559  1.00  0.00     0.016 C 
BRANCH  21  22
HETATM   22  C16 UNL     1       2.193  -0.724   1.272  1.00  0.00     0.159 C 
HETATM   23  C17 UNL     1       1.834  -0.973   2.736  1.00  0.00     0.061 C 
BRANCH  22  24
HETATM   24  O4  UNL     1       2.761  -1.889   0.765  1.00  0.00    -0.376 OA
ATOM     25  H4  UNL     1       3.548  -2.153   1.226  1.00  0.00     0.211 HD
ENDBRANCH  22  24
BRANCH  22  26
HETATM   26  C18 UNL     1       3.160   0.408   1.261  1.00  0.00     0.297 C 
HETATM   27  O5  UNL     1       2.745   1.509   1.701  1.00  0.00    -0.261 OA
BRANCH  26  28
HETATM   28  O6  UNL     1       4.447   0.320   0.809  1.00  0.00    -0.310 OA
BRANCH  28  29
HETATM   29  C19 UNL     1       5.355   1.413   0.808  1.00  0.00     0.170 C 
HETATM   30  C20 UNL     1       6.635   0.977   1.528  1.00  0.00     0.163 C 
HETATM   31  C21 UNL     1       7.446   1.492   0.371  1.00  0.00     0.099 C 
HETATM   32 BR1  UNL     1       8.240   3.189   0.786  1.00  0.00    -0.087 Br
HETATM   33  C22 UNL     1       6.169   1.567  -0.434  1.00  0.00    -0.003 C 
HETATM   34  C23 UNL     1       6.077   0.416  -1.419  1.00  0.00     0.019 C 
HETATM   35  C24 UNL     1       6.072   2.875  -1.153  1.00  0.00     0.019 C 
BRANCH  30  36
HETATM   36  O7  UNL     1       6.775  -0.396   1.654  1.00  0.00    -0.392 OA
ATOM     37  H7  UNL     1       7.569  -0.666   2.100  1.00  0.00     0.210 HD
ENDBRANCH  30  36
ENDBRANCH  28  29
ENDBRANCH  26  28
ENDBRANCH  22  26
ENDBRANCH  21  22
ENDBRANCH   1  20
TORSDOF 14
