REMARK  9 active torsions:
REMARK  status: ('A' for Active; 'I' for Inactive)
REMARK    1  A    between atoms: C4_4  and  N1_5 
REMARK       I    between atoms: N1_5  and  C5_7 
REMARK    2  A    between atoms: C5_7  and  C6_9 
REMARK    3  A    between atoms: N2_13  and  C9_14 
REMARK    4  A    between atoms: C9_14  and  C14_31 
REMARK    5  A    between atoms: C10_15  and  N3_16 
REMARK    6  A    between atoms: N3_16  and  C11_18 
REMARK    7  A    between atoms: C11_18  and  C12_22 
REMARK    8  A    between atoms: C13_25  and  N6_26 
REMARK    9  A    between atoms: C20_37  and  C21_38 
ROOT
HETATM    1  C6  UNL     1       0.661   1.110  -2.714  1.00  0.00     0.090 C 
HETATM    2  C7  UNL     1       0.829   1.278  -4.238  1.00  0.00     0.138 C 
HETATM    3  S1  UNL     1       1.158   3.069  -4.214  1.00  0.00    -0.143 SA
HETATM    4  C8  UNL     1       1.130   3.268  -2.385  1.00  0.00     0.203 C 
HETATM    5  N2  UNL     1       1.419   1.903  -1.983  1.00  0.00    -0.338 N 
ENDROOT
BRANCH   1   6
HETATM    6  C5  UNL     1       0.044  -0.154  -2.346  1.00  0.00     0.265 C 
HETATM    7  N1  UNL     1      -0.495  -0.427  -1.071  1.00  0.00    -0.347 N 
ATOM      8  H1  UNL     1      -0.446   0.305  -0.363  1.00  0.00     0.163 HD
HETATM    9  O1  UNL     1      -0.032  -1.070  -3.203  1.00  0.00    -0.266 OA
BRANCH   7  10
HETATM   10  C4  UNL     1      -1.111  -1.678  -0.709  1.00  0.00     0.119 C 
HETATM   11  C3  UNL     1      -0.432  -2.260   0.489  1.00  0.00     0.039 C 
HETATM   12  C2  UNL     1      -1.363  -2.052   1.662  1.00  0.00     0.020 C 
HETATM   13  C1  UNL     1      -0.846  -0.945   2.566  1.00  0.00     0.015 C 
HETATM   14  C27 UNL     1      -2.661  -1.715   1.064  1.00  0.00    -0.006 A 
HETATM   15  C17 UNL     1      -2.521  -1.502  -0.283  1.00  0.00    -0.026 A 
HETATM   16  C26 UNL     1      -3.916  -1.605   1.702  1.00  0.00     0.134 A 
HETATM   17  C18 UNL     1      -3.657  -1.179  -0.977  1.00  0.00     0.011 A 
HETATM   18  C19 UNL     1      -4.890  -1.065  -0.381  1.00  0.00     0.016 A 
HETATM   19  C20 UNL     1      -5.042  -1.282   1.000  1.00  0.00     0.009 A 
HETATM   20  F1  UNL     1      -3.993  -1.832   3.022  1.00  0.00    -0.205 F 
BRANCH  19  21
HETATM   21  C21 UNL     1      -6.398  -1.150   1.533  1.00  0.00    -0.045 C 
HETATM   22  C22 UNL     1      -6.736  -1.243   2.788  1.00  0.00     0.007 C 
HETATM   23  C23 UNL     1      -8.143  -1.102   3.303  1.00  0.00     0.195 C 
HETATM   24  O3  UNL     1      -8.803  -0.245   2.406  1.00  0.00    -0.387 OA
HETATM   25  C24 UNL     1      -8.843  -0.952   1.202  1.00  0.00     0.172 C 
HETATM   26  C25 UNL     1      -7.514  -0.899   0.549  1.00  0.00     0.065 C 
ENDBRANCH  19  21
ENDBRANCH   7  10
ENDBRANCH   1   6
BRANCH   5  27
HETATM   27  C9  UNL     1       2.658   1.817  -1.265  1.00  0.00     0.031 C 
HETATM   28  C10 UNL     1       2.624   0.817  -0.230  1.00  0.00     0.115 C 
BRANCH  28  29
HETATM   29  N3  UNL     1       3.655   0.462   0.632  1.00  0.00    -0.347 N 
ATOM     30  H3  UNL     1       3.585   0.886   1.557  1.00  0.00     0.167 HD
BRANCH  29  31
HETATM   31  C11 UNL     1       4.781  -0.375   0.468  1.00  0.00     0.152 C 
HETATM   32  N4  UNL     1       4.781  -1.288  -0.436  1.00  0.00    -0.382 N 
ATOM     33  H42 UNL     1       3.977  -1.396  -1.055  1.00  0.00     0.157 HD
ATOM     34  H41 UNL     1       5.594  -1.892  -0.554  1.00  0.00     0.157 HD
BRANCH  31  35
HETATM   35  C12 UNL     1       5.935  -0.220   1.356  1.00  0.00     0.202 A 
HETATM   36  N5  UNL     1       5.978   0.699   2.289  1.00  0.00    -0.312 N 
HETATM   37  C13 UNL     1       7.058   0.773   3.051  1.00  0.00     0.168 A 
ATOM     38  H5  UNL     1       5.198   1.342   2.425  1.00  0.00     0.170 HD
HETATM   39  S2  UNL     1       8.011  -0.487   2.416  1.00  0.00     0.075 SA
HETATM   40  O2  UNL     1       6.970  -1.007   1.239  1.00  0.00    -0.249 OA
BRANCH  37  41
HETATM   41  N6  UNL     1       7.346   1.584   4.028  1.00  0.00    -0.378 N 
ATOM     42  H62 UNL     1       6.775   2.339   4.408  1.00  0.00     0.158 HD
ATOM     43  H61 UNL     1       8.178   1.641   4.615  1.00  0.00     0.158 HD
ENDBRANCH  37  41
ENDBRANCH  31  35
ENDBRANCH  29  31
ENDBRANCH  28  29
BRANCH  27  44
HETATM   44  C14 UNL     1       3.850   2.176  -2.073  1.00  0.00     0.029 C 
HETATM   45  C15 UNL     1       5.173   2.289  -1.357  1.00  0.00     0.016 C 
HETATM   46  C16 UNL     1       4.143   1.182  -3.195  1.00  0.00     0.016 C 
ENDBRANCH  27  44
ENDBRANCH   5  27
TORSDOF 9
