REMARK  5 active torsions:
REMARK  status: ('A' for Active; 'I' for Inactive)
REMARK    1  A    between atoms: C6_7  and  O2_8 
REMARK    2  A    between atoms: C8_11  and  C9_12 
REMARK    3  A    between atoms: C9_12  and  N1_13 
REMARK    4  A    between atoms: N1_13  and  C10_16 
REMARK    5  A    between atoms: N2_19  and  C13_20 
ROOT
HETATM    1  C1  UNL     1       7.064   0.403  -0.032  1.00  0.00     0.020 C 
HETATM    2  C2  UNL     1       5.740   1.039   0.183  1.00  0.00     0.004 A 
HETATM    3  C3  UNL     1       5.893   2.520   0.471  1.00  0.00     0.179 A 
HETATM    4  O1  UNL     1       5.051   2.766  -0.603  1.00  0.00    -0.384 OA
HETATM    5  C4  UNL     1       4.946   1.435  -1.024  1.00  0.00     0.138 A 
HETATM    6  C5  UNL     1       3.541   0.955  -0.747  1.00  0.00     0.048 C 
HETATM    7  C6  UNL     1       3.227  -0.383  -1.308  1.00  0.00     0.125 C 
HETATM    8  C7  UNL     1       1.842  -0.759  -0.874  1.00  0.00     0.038 C 
HETATM    9  C8  UNL     1       1.555  -0.606   0.577  1.00  0.00     0.014 C 
HETATM   10  C19 UNL     1       2.290   0.372   1.365  1.00  0.00     0.011 C 
HETATM   11  C20 UNL     1       3.478   1.024   0.751  1.00  0.00    -0.004 C 
HETATM   12  C21 UNL     1       4.806   0.413   1.165  1.00  0.00     0.019 C 
ENDROOT
BRANCH   9  13
HETATM   13  C9  UNL     1       0.051  -0.328   0.667  1.00  0.00     0.237 C 
BRANCH  13  14
HETATM   14  N1  UNL     1      -0.737  -1.423   0.148  1.00  0.00    -0.069 N 
ATOM     15  H12 UNL     1      -0.374  -1.784  -0.734  1.00  0.00     0.277 HD
ATOM     16  H11 UNL     1      -0.635  -2.275   0.699  1.00  0.00     0.277 HD
BRANCH  14  17
HETATM   17  C10 UNL     1      -2.109  -0.988   0.047  1.00  0.00     0.215 C 
HETATM   18  C11 UNL     1      -2.670  -1.339  -1.348  1.00  0.00     0.065 C 
HETATM   19  C12 UNL     1      -4.109  -1.745  -1.122  1.00  0.00     0.275 C 
HETATM   20  N2  UNL     1      -4.342  -1.607   0.269  1.00  0.00     0.095 N 
HETATM   21  C18 UNL     1      -3.089  -1.624   0.956  1.00  0.00     0.305 C 
BRANCH  20  22
HETATM   22  C13 UNL     1      -5.203  -0.572   0.673  1.00  0.00     0.223 C 
HETATM   23  C14 UNL     1      -6.634  -0.733   0.196  1.00  0.00     0.036 C 
HETATM   24  C15 UNL     1      -7.215   0.609   0.672  1.00  0.00     0.002 C 
HETATM   25  C16 UNL     1      -6.172   1.545   0.040  1.00  0.00     0.002 C 
HETATM   26  C17 UNL     1      -4.861   0.785   0.117  1.00  0.00     0.036 C 
ENDBRANCH  20  22
ENDBRANCH  14  17
ENDBRANCH  13  14
ENDBRANCH   9  13
BRANCH   7  27
HETATM   27  O2  UNL     1       4.157  -1.365  -1.090  1.00  0.00    -0.395 OA
ATOM     28  H2  UNL     1       3.956  -2.221  -1.449  1.00  0.00     0.210 HD
ENDBRANCH   7  27
TORSDOF 5
