REMARK  6 active torsions:
REMARK  status: ('A' for Active; 'I' for Inactive)
REMARK    1  A    between atoms: C3_3  and  C4_4 
REMARK    2  A    between atoms: C5_5  and  C6_6 
REMARK    3  A    between atoms: C8_9  and  C9_10 
REMARK    4  A    between atoms: C9_10  and  C10_11 
REMARK    5  A    between atoms: C13_15  and  O2_16 
REMARK    6  A    between atoms: C18_22  and  O3_23 
ROOT
HETATM    1  C6  UNL     1       3.190  -0.506  -1.137  1.00  0.00     0.041 C 
HETATM    2  C7  UNL     1       4.026  -1.271  -2.062  1.00  0.00     0.099 C 
HETATM    3  N1  UNL     1       4.659  -1.900  -2.835  1.00  0.00    -0.191 NA
HETATM    4  C8  UNL     1       1.877  -0.548  -1.461  1.00  0.00    -0.004 C 
ENDROOT
BRANCH   1   5
HETATM    5  C5  UNL     1       3.685   0.204  -0.024  1.00  0.00     0.022 C 
HETATM    6  C4  UNL     1       4.858   0.369   0.446  1.00  0.00     0.001 C 
BRANCH   6   7
HETATM    7  C3  UNL     1       6.116  -0.129  -0.014  1.00  0.00    -0.004 C 
HETATM    8  C2  UNL     1       7.236   0.191   0.664  1.00  0.00    -0.031 C 
HETATM    9  C1  UNL     1       7.120   1.047   1.862  1.00  0.00     0.036 C 
ENDBRANCH   6   7
ENDBRANCH   1   5
BRANCH   4  10
HETATM   10  C9  UNL     1       0.767   0.094  -0.768  1.00  0.00     0.034 C 
BRANCH  10  11
HETATM   11  C10 UNL     1      -0.230  -0.934  -0.257  1.00  0.00     0.001 C 
HETATM   12  C11 UNL     1      -0.822  -1.759  -1.365  1.00  0.00     0.087 C 
HETATM   13  C12 UNL     1      -1.851  -2.651  -0.804  1.00  0.00     0.165 C 
HETATM   14  O1  UNL     1      -1.949  -3.789  -1.212  1.00  0.00    -0.294 OA
HETATM   15  C13 UNL     1      -2.793  -2.196   0.264  1.00  0.00     0.136 C 
HETATM   16  C14 UNL     1      -3.751  -1.271  -0.357  1.00  0.00     0.022 C 
HETATM   17  C22 UNL     1      -1.958  -1.529   1.335  1.00  0.00     0.055 C 
HETATM   18  C15 UNL     1      -3.481  -0.000  -0.471  1.00  0.00    -0.076 C 
HETATM   19  C16 UNL     1      -4.471   0.900  -1.102  1.00  0.00     0.037 C 
HETATM   20  C20 UNL     1      -2.217   0.584   0.007  1.00  0.00     0.021 C 
HETATM   21  C17 UNL     1      -4.882   1.903  -0.015  1.00  0.00     0.036 C 
HETATM   22  C18 UNL     1      -3.642   2.590   0.468  1.00  0.00     0.119 C 
HETATM   23  C19 UNL     1      -2.625   1.630   1.058  1.00  0.00     0.041 C 
HETATM   24  C21 UNL     1      -1.267  -0.353   0.653  1.00  0.00     0.002 C 
BRANCH  15  25
HETATM   25  O2  UNL     1      -3.424  -3.297   0.840  1.00  0.00    -0.378 OA
ATOM     26  H2  UNL     1      -4.023  -3.008   1.519  1.00  0.00     0.211 HD
ENDBRANCH  15  25
BRANCH  22  27
HETATM   27  O3  UNL     1      -3.065   3.289  -0.588  1.00  0.00    -0.396 OA
ATOM     28  H3  UNL     1      -2.278   3.725  -0.282  1.00  0.00     0.210 HD
ENDBRANCH  22  27
ENDBRANCH  10  11
ENDBRANCH   4  10
TORSDOF 6
