REMARK  5 active torsions:
REMARK  status: ('A' for Active; 'I' for Inactive)
REMARK    1  A    between atoms: C13_16  and  N2_17 
REMARK    2  A    between atoms: N2_17  and  O1_18 
REMARK    3  A    between atoms: O1_18  and  C14_19 
REMARK    4  A    between atoms: C14_19  and  C15_20 
REMARK       I    between atoms: C15_20  and  N3_22 
REMARK    5  A    between atoms: N3_22  and  C16_24 
ROOT
HETATM    1  C1  UNL     1      -5.632  -2.126  -0.537  1.00  0.00     0.010 C 
HETATM    2  C2  UNL     1      -4.405  -1.910   0.292  1.00  0.00    -0.014 C 
HETATM    3  C3  UNL     1      -4.605  -0.757   1.288  1.00  0.00     0.005 C 
HETATM    4  C4  UNL     1      -3.167  -0.333   1.620  1.00  0.00     0.006 C 
HETATM    5  C5  UNL     1      -2.345  -0.889   0.530  1.00  0.00    -0.000 C 
HETATM    6  C6  UNL     1      -3.255  -1.351  -0.546  1.00  0.00    -0.006 C 
HETATM    7  C7  UNL     1      -3.762  -0.268  -1.442  1.00  0.00     0.006 C 
HETATM    8  C8  UNL     1      -3.191   1.077  -1.204  1.00  0.00     0.012 C 
HETATM    9  C9  UNL     1      -1.732   1.110  -0.915  1.00  0.00    -0.006 C 
HETATM   10  C10 UNL     1      -0.897   1.245  -2.172  1.00  0.00     0.018 C 
HETATM   11  C11 UNL     1      -1.349   2.091   0.170  1.00  0.00     0.206 C 
HETATM   12  N1  UNL     1      -0.310   2.997  -0.196  1.00  0.00    -0.063 N 
ATOM     13  H11 UNL     1      -0.615   3.970  -0.192  1.00  0.00     0.278 HD
ATOM     14  H12 UNL     1      -0.062   2.936  -1.184  1.00  0.00     0.278 HD
HETATM   15  C12 UNL     1       0.798   2.762   0.666  1.00  0.00     0.303 C 
HETATM   16  C13 UNL     1       0.726   1.303   1.082  1.00  0.00     0.127 C 
HETATM   17  C19 UNL     1      -0.710   0.994   0.990  1.00  0.00     0.091 C 
HETATM   18  C20 UNL     1      -1.223   0.020   0.017  1.00  0.00    -0.019 C 
HETATM   19  C21 UNL     1      -0.234  -0.862  -0.716  1.00  0.00     0.017 C 
ENDROOT
BRANCH  16  20
HETATM   20  N2  UNL     1       1.617   0.635   1.465  1.00  0.00    -0.288 NA
BRANCH  20  21
HETATM   21  O1  UNL     1       2.708   0.076   1.857  1.00  0.00    -0.200 OA
BRANCH  21  22
HETATM   22  C14 UNL     1       3.365  -0.831   0.855  1.00  0.00     0.320 C 
BRANCH  22  23
HETATM   23  C15 UNL     1       4.722  -0.304   0.617  1.00  0.00     0.245 C 
HETATM   24  O2  UNL     1       4.910   0.877   1.040  1.00  0.00    -0.271 OA
HETATM   25  N3  UNL     1       5.710  -1.020  -0.037  1.00  0.00    -0.355 N 
ATOM     26  H3  UNL     1       5.510  -1.982  -0.312  1.00  0.00     0.162 HD
BRANCH  25  27
HETATM   27  C16 UNL     1       7.017  -0.469  -0.351  1.00  0.00     0.084 A 
HETATM   28  C17 UNL     1       7.672   0.357   0.749  1.00  0.00     0.027 A 
HETATM   29  C18 UNL     1       8.192  -0.998   0.362  1.00  0.00     0.027 A 
ENDBRANCH  25  27
ENDBRANCH  22  23
ENDBRANCH  21  22
ENDBRANCH  20  21
ENDBRANCH  16  20
TORSDOF 5
