REMARK  5 active torsions:
REMARK  status: ('A' for Active; 'I' for Inactive)
REMARK    1  A    between atoms: C8_9  and  N1_10 
REMARK       I    between atoms: N1_10  and  C9_12 
REMARK    2  A    between atoms: C9_12  and  O2_14 
REMARK    3  A    between atoms: O2_14  and  C10_15 
REMARK    4  A    between atoms: C10_15  and  C12_17 
REMARK       I    between atoms: C12_17  and  N2_19 
REMARK    5  A    between atoms: N2_19  and  C13_21 
ROOT
HETATM    1  C1  UNL     1      -3.859  -4.533   1.657  1.00  0.00     0.012 C 
HETATM    2  C2  UNL     1      -3.253  -3.567   1.245  1.00  0.00    -0.110 C 
HETATM    3  C3  UNL     1      -2.510  -2.416   0.731  1.00  0.00     0.088 C 
HETATM    4  C4  UNL     1      -2.998  -2.098  -0.643  1.00  0.00     0.029 C 
HETATM    5  C5  UNL     1      -4.508  -2.062  -0.739  1.00  0.00     0.075 C 
HETATM    6  S1  UNL     1      -5.253  -1.473   0.800  1.00  0.00    -0.163 SA
HETATM    7  C6  UNL     1      -4.018  -0.781   1.920  1.00  0.00     0.067 C 
HETATM    8  C7  UNL     1      -4.378  -1.066   3.375  1.00  0.00     0.023 C 
HETATM    9  C8  UNL     1      -2.624  -1.231   1.629  1.00  0.00     0.115 C 
ENDROOT
BRANCH   9  10
HETATM   10  N1  UNL     1      -1.900  -0.125   1.061  1.00  0.00    -0.330 N 
HETATM   11  C9  UNL     1      -0.742   0.434   1.673  1.00  0.00     0.361 C 
HETATM   12  O1  UNL     1      -0.299  -0.039   2.771  1.00  0.00    -0.238 OA
ATOM     13  H1  UNL     1      -2.230   0.276   0.183  1.00  0.00     0.165 HD
BRANCH  11  14
HETATM   14  O2  UNL     1      -0.051   1.492   1.127  1.00  0.00    -0.289 OA
BRANCH  14  15
HETATM   15  C10 UNL     1       1.098   2.078   1.695  1.00  0.00     0.221 C 
HETATM   16  C11 UNL     1       0.743   3.509   2.034  1.00  0.00     0.050 C 
BRANCH  15  17
HETATM   17  C12 UNL     1       2.226   1.974   0.743  1.00  0.00     0.247 C 
HETATM   18  O3  UNL     1       3.334   2.447   1.095  1.00  0.00    -0.271 OA
HETATM   19  N2  UNL     1       2.132   1.377  -0.537  1.00  0.00    -0.354 N 
ATOM     20  H2  UNL     1       1.227   0.997  -0.816  1.00  0.00     0.162 HD
BRANCH  19  21
HETATM   21  C13 UNL     1       3.209   1.268  -1.466  1.00  0.00     0.084 C 
HETATM   22  C14 UNL     1       2.926   1.963  -2.741  1.00  0.00     0.025 C 
HETATM   23  C15 UNL     1       3.321   1.266  -3.989  1.00  0.00     0.002 C 
HETATM   24  C16 UNL     1       4.507   0.379  -3.927  1.00  0.00     0.000 C 
HETATM   25  C17 UNL     1       4.913  -0.033  -2.537  1.00  0.00     0.002 C 
HETATM   26  C18 UNL     1       3.600  -0.164  -1.752  1.00  0.00     0.025 C 
ENDBRANCH  19  21
ENDBRANCH  15  17
ENDBRANCH  14  15
ENDBRANCH  11  14
ENDBRANCH   9  10
TORSDOF 5
