REMARK  3 active torsions:
REMARK  status: ('A' for Active; 'I' for Inactive)
REMARK    1  A    between atoms: C2_3  and  N1_4 
REMARK    2  A    between atoms: N1_4  and  C3_6 
REMARK    3  A    between atoms: N2_17  and  C14_18 
ROOT
HETATM    1  O1  UNL     1      -1.419  -1.638  -0.806  1.00  0.00    -0.271 OA
HETATM    2  C1  UNL     1      -1.426  -0.401  -0.492  1.00  0.00     0.242 C 
HETATM    3  C2  UNL     1      -0.086   0.168  -0.410  1.00  0.00     0.170 C 
HETATM    4  C10 UNL     1       0.073   1.410   0.379  1.00  0.00     0.034 C 
HETATM    5  C11 UNL     1      -1.165   2.073   0.849  1.00  0.00     0.004 C 
HETATM    6  C12 UNL     1      -2.012   2.409  -0.358  1.00  0.00     0.020 C 
HETATM    7  C13 UNL     1      -3.173   1.432  -0.283  1.00  0.00     0.126 C 
HETATM    8  N2  UNL     1      -2.746   0.074  -0.312  1.00  0.00    -0.346 N 
ENDROOT
BRANCH   3   9
HETATM    9  N1  UNL     1       0.827  -0.879  -0.063  1.00  0.00    -0.405 N 
ATOM     10  H1  UNL     1       0.497  -1.828   0.113  1.00  0.00     0.154 HD
BRANCH   9  11
HETATM   11  C3  UNL     1       2.192  -0.557   0.028  1.00  0.00     0.077 C 
HETATM   12  C4  UNL     1       2.851  -0.082  -1.224  1.00  0.00     0.024 C 
HETATM   13  C5  UNL     1       3.884   0.986  -0.998  1.00  0.00     0.002 C 
HETATM   14  C6  UNL     1       5.069   0.595  -0.233  1.00  0.00     0.000 C 
HETATM   15  C7  UNL     1       4.863  -0.453   0.823  1.00  0.00     0.000 C 
HETATM   16  C8  UNL     1       4.381  -1.763   0.304  1.00  0.00     0.002 C 
HETATM   17  C9  UNL     1       2.904  -1.854   0.435  1.00  0.00     0.024 C 
ENDBRANCH   9  11
ENDBRANCH   3   9
BRANCH   8  18
HETATM   18  C14 UNL     1      -3.754  -0.920  -0.141  1.00  0.00     0.087 C 
HETATM   19  C15 UNL     1      -4.951  -0.803  -1.093  1.00  0.00     0.025 C 
HETATM   20  C16 UNL     1      -5.787  -1.377   0.061  1.00  0.00     0.004 C 
HETATM   21  C17 UNL     1      -4.722  -0.772   0.989  1.00  0.00     0.025 C 
ENDBRANCH   8  18
TORSDOF 3
