REMARK  3 active torsions:
REMARK  status: ('A' for Active; 'I' for Inactive)
REMARK       I    between atoms: C1_2  and  N1_3 
REMARK    1  A    between atoms: C1_2  and  C6_9 
REMARK    2  A    between atoms: N1_3  and  C2_5 
REMARK    3  A    between atoms: C2_5  and  C3_6 
ROOT
HETATM    1  C6  UNL     1      -0.341   0.362   0.096  1.00  0.00     0.084 C 
HETATM    2  C7  UNL     1      -0.745  -0.677   1.090  1.00  0.00     0.019 C 
HETATM    3  C8  UNL     1      -2.124  -1.237   0.797  1.00  0.00    -0.013 C 
HETATM    4  C9  UNL     1      -2.119  -1.612  -0.668  1.00  0.00     0.010 C 
HETATM    5  C10 UNL     1      -2.226  -0.313  -1.439  1.00  0.00    -0.007 C 
HETATM    6  C11 UNL     1      -3.677   0.118  -1.224  1.00  0.00     0.011 C 
HETATM    7  C12 UNL     1      -3.517   0.758   0.165  1.00  0.00     0.006 C 
HETATM    8  C13 UNL     1      -3.221  -0.313   1.158  1.00  0.00     0.011 C 
HETATM    9  C14 UNL     1      -2.381   1.676  -0.115  1.00  0.00     0.025 A 
HETATM   10  C15 UNL     1      -1.965   2.755   0.790  1.00  0.00     0.096 A 
HETATM   11  S1  UNL     1      -2.788   3.301  -0.754  1.00  0.00    -0.156 SA
HETATM   12  C16 UNL     1      -1.406   0.792  -0.840  1.00  0.00     0.022 C 
ENDROOT
BRANCH   1  13
HETATM   13  C1  UNL     1       0.931  -0.005  -0.617  1.00  0.00     0.222 C 
HETATM   14  O1  UNL     1       0.970  -0.149  -1.861  1.00  0.00    -0.273 OA
HETATM   15  N1  UNL     1       2.144  -0.205   0.098  1.00  0.00    -0.360 N 
ATOM     16  H1  UNL     1       2.139  -0.095   1.112  1.00  0.00     0.162 HD
BRANCH  15  17
HETATM   17  C2  UNL     1       3.371  -0.555  -0.550  1.00  0.00     0.127 C 
BRANCH  17  18
HETATM   18  C3  UNL     1       4.484  -0.703   0.434  1.00  0.00     0.003 A 
HETATM   19  C4  UNL     1       5.853  -1.066  -0.037  1.00  0.00     0.007 A 
HETATM   20  C5  UNL     1       5.583   0.342   0.283  1.00  0.00     0.007 A 
ENDBRANCH  17  18
ENDBRANCH  15  17
ENDBRANCH   1  13
TORSDOF 3
