REMARK  5 active torsions:
REMARK  status: ('A' for Active; 'I' for Inactive)
REMARK    1  A    between atoms: C4_4  and  C5_5 
REMARK    2  A    between atoms: C5_5  and  N2_13 
REMARK    3  A    between atoms: N1_6  and  C6_8 
REMARK    4  A    between atoms: N2_13  and  C11_15 
REMARK    5  A    between atoms: C11_15  and  C12_16 
ROOT
HETATM    1  C5  UNL     1      -0.442  -0.092  -0.074  1.00  0.00     0.077 C 
HETATM    2  N1  UNL     1      -1.407   0.730  -0.115  1.00  0.00    -0.375 N 
ATOM      3  H1  UNL     1      -2.247   0.333  -0.535  1.00  0.00     0.161 HD
ENDROOT
BRANCH   1   4
HETATM    4  C4  UNL     1      -0.655  -1.492  -0.628  1.00  0.00     0.053 C 
HETATM    5  C3  UNL     1      -0.396  -2.445   0.462  1.00  0.00     0.012 C 
HETATM    6  C2  UNL     1      -1.386  -3.598   0.433  1.00  0.00     0.001 C 
HETATM    7  C1  UNL     1      -2.735  -2.973   0.734  1.00  0.00     0.000 C 
HETATM    8  C17 UNL     1      -3.137  -1.994  -0.324  1.00  0.00     0.001 C 
HETATM    9  C16 UNL     1      -2.034  -1.563  -1.223  1.00  0.00     0.012 C 
ENDBRANCH   1   4
BRANCH   1  10
HETATM   10  N2  UNL     1       0.770   0.354   0.490  1.00  0.00    -0.379 N 
ATOM     11  H2  UNL     1       0.716   0.610   1.476  1.00  0.00     0.160 HD
BRANCH  10  12
HETATM   12  C11 UNL     1       2.046   0.503  -0.092  1.00  0.00     0.127 C 
BRANCH  12  13
HETATM   13  C12 UNL     1       2.777  -0.771  -0.333  1.00  0.00     0.029 C 
HETATM   14  C13 UNL     1       4.116  -0.415  -0.984  1.00  0.00     0.034 C 
HETATM   15  C14 UNL     1       5.127  -0.830   0.032  1.00  0.00     0.168 C 
HETATM   16  O1  UNL     1       4.493  -1.926   0.630  1.00  0.00    -0.391 OA
HETATM   17  C15 UNL     1       3.288  -1.372   0.986  1.00  0.00     0.173 C 
ENDBRANCH  12  13
ENDBRANCH  10  12
ENDBRANCH   1  10
BRANCH   2  18
HETATM   18  C6  UNL     1      -1.576   2.048   0.283  1.00  0.00     0.082 C 
HETATM   19  C7  UNL     1      -0.439   3.017   0.112  1.00  0.00     0.025 C 
HETATM   20  C8  UNL     1      -1.151   4.342   0.437  1.00  0.00     0.002 C 
HETATM   21  C9  UNL     1      -2.498   4.176  -0.185  1.00  0.00     0.002 C 
HETATM   22  C10 UNL     1      -2.666   2.752  -0.569  1.00  0.00     0.025 C 
ENDBRANCH   2  18
TORSDOF 5
