REMARK  3 active torsions:
REMARK  status: ('A' for Active; 'I' for Inactive)
REMARK       I    between atoms: C1_2  and  N1_3 
REMARK    1  A    between atoms: C1_2  and  C8_11 
REMARK    2  A    between atoms: N1_3  and  C2_5 
REMARK    3  A    between atoms: N2_14  and  C11_15 
ROOT
HETATM    1  C8  UNL     1       0.075   0.804   0.238  1.00  0.00     0.081 C 
HETATM    2  C9  UNL     1       0.433  -0.436   1.000  1.00  0.00     0.044 C 
HETATM    3  C10 UNL     1       1.859  -0.807   0.569  1.00  0.00     0.273 C 
HETATM    4  N2  UNL     1       2.773   0.241   0.867  1.00  0.00     0.093 N 
HETATM    5  C16 UNL     1       2.394   1.520   0.318  1.00  0.00     0.273 C 
HETATM    6  C17 UNL     1       0.980   1.912   0.730  1.00  0.00     0.044 C 
ENDROOT
BRANCH   1   7
HETATM    7  C1  UNL     1      -1.355   1.162   0.355  1.00  0.00     0.222 C 
HETATM    8  O1  UNL     1      -1.620   2.281   0.873  1.00  0.00    -0.273 OA
HETATM    9  N1  UNL     1      -2.425   0.349  -0.065  1.00  0.00    -0.356 N 
ATOM     10  H1  UNL     1      -2.231  -0.559  -0.488  1.00  0.00     0.162 HD
BRANCH   9  11
HETATM   11  C2  UNL     1      -3.783   0.779   0.093  1.00  0.00     0.084 C 
HETATM   12  C3  UNL     1      -4.556  -0.111   1.037  1.00  0.00     0.025 C 
HETATM   13  C4  UNL     1      -5.128  -1.331   0.394  1.00  0.00     0.002 C 
HETATM   14  C5  UNL     1      -5.842  -1.053  -0.904  1.00  0.00     0.000 C 
HETATM   15  C6  UNL     1      -4.993  -0.260  -1.866  1.00  0.00     0.002 C 
HETATM   16  C7  UNL     1      -4.514   0.987  -1.210  1.00  0.00     0.025 C 
ENDBRANCH   9  11
ENDBRANCH   1   7
BRANCH   4  17
HETATM   17  C11 UNL     1       4.098  -0.069   0.470  1.00  0.00     0.223 C 
HETATM   18  C12 UNL     1       4.307  -0.268  -1.009  1.00  0.00     0.036 C 
HETATM   19  C13 UNL     1       5.662  -0.979  -1.105  1.00  0.00     0.002 C 
HETATM   20  C14 UNL     1       5.999  -1.413   0.321  1.00  0.00     0.002 C 
HETATM   21  C15 UNL     1       4.630  -1.377   1.013  1.00  0.00     0.036 C 
ENDBRANCH   4  17
TORSDOF 3
