REMARK  2 active torsions:
REMARK  status: ('A' for Active; 'I' for Inactive)
REMARK    1  A    between atoms: C5_6  and  C6_7 
REMARK    2  A    between atoms: C7_11  and  C8_12 
ROOT
HETATM    1  C6  UNL     1      -1.830   1.528  -0.207  1.00  0.00     0.039 A 
HETATM    2  N1  UNL     1      -0.688   0.927  -0.276  1.00  0.00    -0.296 N 
ATOM      3  H1  UNL     1      -0.561   0.055   0.238  1.00  0.00     0.187 HD
HETATM    4  N2  UNL     1       0.377   1.423  -1.025  1.00  0.00    -0.246 N 
HETATM    5  C7  UNL     1       1.628   0.887  -1.181  1.00  0.00     0.055 A 
HETATM    6  C14 UNL     1       2.286   1.761  -2.012  1.00  0.00     0.117 A 
HETATM    7  N3  UNL     1       1.441   2.757  -2.319  1.00  0.00    -0.352 N 
ATOM      8  H3  UNL     1       1.662   3.549  -2.922  1.00  0.00     0.166 HD
HETATM    9  C15 UNL     1       0.245   2.551  -1.704  1.00  0.00     0.103 A 
HETATM   10  C16 UNL     1      -1.004   3.352  -1.722  1.00  0.00     0.084 A 
HETATM   11  C17 UNL     1      -2.104   2.797  -0.922  1.00  0.00     0.067 A 
ENDROOT
BRANCH   1  12
HETATM   12  C5  UNL     1      -2.929   0.965   0.598  1.00  0.00     0.012 A 
HETATM   13  C4  UNL     1      -2.940  -0.186   1.349  1.00  0.00    -0.014 A 
HETATM   14  C3  UNL     1      -2.056  -1.323   1.731  1.00  0.00     0.049 C 
HETATM   15  C19 UNL     1      -4.174  -0.339   1.944  1.00  0.00     0.085 A 
HETATM   16  C2  UNL     1      -3.032  -2.374   2.213  1.00  0.00     0.090 C 
HETATM   17  C1  UNL     1      -4.165  -1.572   2.742  1.00  0.00     0.176 C 
HETATM   18  O1  UNL     1      -4.972  -1.832   3.660  1.00  0.00    -0.291 OA
HETATM   19  N4  UNL     1      -4.934   0.724   1.559  1.00  0.00    -0.362 N 
HETATM   20  C18 UNL     1      -4.185   1.500   0.756  1.00  0.00     0.102 A 
ATOM     21  H4  UNL     1      -5.901   0.900   1.832  1.00  0.00     0.165 HD
ENDBRANCH   1  12
BRANCH   5  22
HETATM   22  C8  UNL     1       2.163  -0.359  -0.587  1.00  0.00     0.039 C 
HETATM   23  C9  UNL     1       3.362  -0.026   0.286  1.00  0.00     0.011 C 
HETATM   24  C10 UNL     1       3.842  -1.292   0.970  1.00  0.00     0.001 C 
HETATM   25  C11 UNL     1       4.349  -2.217  -0.133  1.00  0.00     0.000 C 
HETATM   26  C12 UNL     1       3.127  -2.570  -0.977  1.00  0.00     0.001 C 
HETATM   27  C13 UNL     1       2.599  -1.340  -1.653  1.00  0.00     0.011 C 
ENDBRANCH   5  22
TORSDOF 2
