REMARK  2 active torsions:
REMARK  status: ('A' for Active; 'I' for Inactive)
REMARK    1  A    between atoms: C2_2  and  C3_3 
REMARK    2  A    between atoms: C3_3  and  C4_4 
ROOT
HETATM    1  C4  UNL     1       0.702   0.976   0.113  1.00  0.00     0.109 C 
HETATM    2  C5  UNL     1       1.585   1.032   1.281  1.00  0.00     0.099 C 
HETATM    3  N1  UNL     1       2.553   0.231   1.482  1.00  0.00    -0.366 N 
ATOM      4  H1  UNL     1       3.111   0.345   2.328  1.00  0.00     0.165 HD
HETATM    5  C6  UNL     1       2.891  -0.812   0.584  1.00  0.00     0.046 A 
HETATM    6  C7  UNL     1       3.892  -1.705   0.921  1.00  0.00     0.053 A 
HETATM    7  C8  UNL     1       4.163  -2.780   0.094  1.00  0.00     0.046 A 
HETATM    8  C9  UNL     1       5.202  -3.702   0.449  1.00  0.00     0.099 C 
HETATM    9  N2  UNL     1       6.051  -4.443   0.724  1.00  0.00    -0.191 NA
HETATM   10  C10 UNL     1       3.439  -2.962  -1.060  1.00  0.00     0.024 A 
HETATM   11  C11 UNL     1       2.429  -2.040  -1.381  1.00  0.00     0.018 A 
HETATM   12  C12 UNL     1       2.160  -0.978  -0.569  1.00  0.00     0.023 A 
HETATM   13  C13 UNL     1       1.170   0.029  -0.963  1.00  0.00     0.092 C 
HETATM   14  O1  UNL     1       0.236  -0.398  -1.822  1.00  0.00    -0.349 OA
HETATM   15  C14 UNL     1      -1.075  -0.284  -1.597  1.00  0.00     0.206 C 
HETATM   16  C15 UNL     1      -1.499  -0.104  -0.168  1.00  0.00     0.049 C 
HETATM   17  C16 UNL     1      -2.732   0.783  -0.196  1.00  0.00     0.033 C 
HETATM   18  C17 UNL     1      -3.779   0.031  -1.000  1.00  0.00     0.002 C 
HETATM   19  C18 UNL     1      -4.240  -1.058  -0.057  1.00  0.00     0.000 C 
HETATM   20  C19 UNL     1      -3.139  -1.998   0.325  1.00  0.00     0.002 C 
HETATM   21  C20 UNL     1      -1.789  -1.461   0.427  1.00  0.00     0.033 C 
HETATM   22  N3  UNL     1      -0.572   0.544   0.664  1.00  0.00    -0.392 N 
ATOM     23  H3  UNL     1      -0.791   0.710   1.646  1.00  0.00     0.155 HD
ENDROOT
BRANCH   1  24
HETATM   24  C3  UNL     1       0.568   2.291  -0.592  1.00  0.00     0.043 C 
BRANCH  24  25
HETATM   25  C2  UNL     1       0.035   3.479   0.055  1.00  0.00    -0.001 C 
HETATM   26  C1  UNL     1       0.767   4.085   1.209  1.00  0.00     0.005 C 
ENDBRANCH  24  25
ENDBRANCH   1  24
TORSDOF 2
