REMARK  4 active torsions:
REMARK  status: ('A' for Active; 'I' for Inactive)
REMARK    1  A    between atoms: N1_12  and  O1_14 
REMARK    2  A    between atoms: O1_14  and  C12_15 
REMARK    3  A    between atoms: C12_15  and  C13_16 
REMARK    4  A    between atoms: C21_28  and  O3_29 
ROOT
HETATM    1  C1  UNL     1      -4.133   1.278   0.167  1.00  0.00     0.013 C 
HETATM    2  C2  UNL     1      -2.760   1.629  -0.336  1.00  0.00     0.017 C 
HETATM    3  C3  UNL     1      -2.277   2.959   0.067  1.00  0.00     0.007 C 
HETATM    4  C4  UNL     1      -0.854   3.276  -0.255  1.00  0.00     0.001 C 
HETATM    5  C5  UNL     1       0.037   2.080  -0.335  1.00  0.00     0.008 C 
HETATM    6  C6  UNL     1      -0.596   0.891  -1.024  1.00  0.00     0.030 C 
HETATM    7  C7  UNL     1       0.455   0.023  -1.484  1.00  0.00     0.042 C 
HETATM    8  C8  UNL     1       0.137  -1.236  -2.191  1.00  0.00     0.029 C 
HETATM    9  C9  UNL     1       0.961  -1.929  -1.156  1.00  0.00     0.028 C 
HETATM   10  C10 UNL     1       2.092  -2.756  -1.717  1.00  0.00     0.025 C 
HETATM   11  C11 UNL     1       1.417  -0.599  -0.595  1.00  0.00     0.026 C 
HETATM   12  N1  UNL     1       2.330  -0.466   0.288  1.00  0.00    -0.273 N 
ATOM     13  H1  UNL     1       2.724  -1.346   0.620  1.00  0.00     0.193 HD
HETATM   14  C15 UNL     1       0.145  -2.679  -0.152  1.00  0.00     0.066 C 
HETATM   15  C16 UNL     1       0.801  -2.808   1.193  1.00  0.00     0.047 C 
HETATM   16  C17 UNL     1       0.054  -4.119  -0.693  1.00  0.00     0.047 C 
HETATM   17  O2  UNL     1      -1.119  -2.196  -0.149  1.00  0.00    -0.379 OA
HETATM   18  C18 UNL     1      -1.608  -1.679   1.003  1.00  0.00     0.176 C 
HETATM   19  C19 UNL     1      -1.518  -0.134   1.046  1.00  0.00     0.040 C 
HETATM   20  C20 UNL     1      -2.354   0.227   2.219  1.00  0.00     0.015 C 
HETATM   21  C21 UNL     1      -1.784   0.469  -0.265  1.00  0.00     0.071 C 
ENDROOT
BRANCH  12  22
HETATM   22  O1  UNL     1       2.858   0.617   0.852  1.00  0.00    -0.275 OA
BRANCH  22  23
HETATM   23  C12 UNL     1       3.850   1.460   0.318  1.00  0.00     0.255 C 
BRANCH  23  24
HETATM   24  C13 UNL     1       4.154   2.552   1.274  1.00  0.00     0.071 C 
HETATM   25 CL1  UNL     1       2.925   3.668   1.787  1.00  0.00    -0.084 Cl
HETATM   26  C14 UNL     1       5.384   2.688   1.754  1.00  0.00     0.123 C 
HETATM   27 CL2  UNL     1       5.820   3.950   2.886  1.00  0.00    -0.069 Cl
HETATM   28 CL3  UNL     1       6.681   1.580   1.269  1.00  0.00    -0.069 Cl
ENDBRANCH  23  24
ENDBRANCH  22  23
ENDBRANCH  12  22
BRANCH  21  29
HETATM   29  O3  UNL     1      -2.556  -0.508  -0.978  1.00  0.00    -0.389 OA
ATOM     30  H3  UNL     1      -1.945  -1.234  -0.934  1.00  0.00     0.210 HD
ENDBRANCH  21  29
TORSDOF 4
