REMARK  4 active torsions:
REMARK  status: ('A' for Active; 'I' for Inactive)
REMARK    1  A    between atoms: O1_2  and  C2_3 
REMARK    2  A    between atoms: C6_7  and  O2_8 
REMARK    3  A    between atoms: C8_10  and  O3_11 
REMARK    4  A    between atoms: C15_18  and  O4_19 
ROOT
HETATM    1  C2  UNL     1      -2.783   1.010  -0.306  1.00  0.00     0.104 A 
HETATM    2  C3  UNL     1      -1.421   1.181  -0.216  1.00  0.00     0.048 A 
HETATM    3  C4  UNL     1      -0.578   0.103  -0.004  1.00  0.00    -0.041 A 
HETATM    4  C5  UNL     1      -1.218  -1.135   0.106  1.00  0.00    -0.015 A 
HETATM    5  C6  UNL     1      -2.574  -1.311   0.016  1.00  0.00     0.111 A 
HETATM    6  C8  UNL     1      -3.393  -0.211  -0.197  1.00  0.00     0.135 A 
HETATM    7  C10 UNL     1      -0.573  -2.429   0.379  1.00  0.00     0.042 C 
HETATM    8  C11 UNL     1       0.652  -2.536  -0.499  1.00  0.00     0.005 C 
HETATM    9  C12 UNL     1       1.767  -1.798   0.268  1.00  0.00     0.010 C 
HETATM   10  C13 UNL     1       1.897  -0.415  -0.217  1.00  0.00     0.030 C 
HETATM   11  C14 UNL     1       3.182   0.260   0.107  1.00  0.00    -0.010 A 
HETATM   12  C15 UNL     1       4.107  -0.149   1.003  1.00  0.00     0.096 A 
HETATM   13  C16 UNL     1       5.262   0.616   1.176  1.00  0.00     0.091 A 
HETATM   14 CL1  UNL     1       6.481   0.106   2.337  1.00  0.00    -0.079 Cl
HETATM   15  C17 UNL     1       5.477   1.773   0.457  1.00  0.00     0.080 A 
HETATM   16 CL2  UNL     1       6.931   2.700   0.701  1.00  0.00    -0.081 Cl
HETATM   17  C18 UNL     1       4.539   2.182  -0.448  1.00  0.00     0.064 A 
HETATM   18 CL3  UNL     1       4.751   3.639  -1.393  1.00  0.00    -0.082 Cl
HETATM   19  C19 UNL     1       3.401   1.434  -0.623  1.00  0.00    -0.025 A 
HETATM   20  C20 UNL     1       2.306   1.778  -1.571  1.00  0.00     0.042 C 
HETATM   21  C21 UNL     1       0.955   1.738  -0.884  1.00  0.00     0.015 C 
HETATM   22  C22 UNL     1       0.811   0.549   0.047  1.00  0.00     0.028 C 
ENDROOT
BRANCH   1  23
HETATM   23  O1  UNL     1      -3.644   2.104  -0.521  1.00  0.00    -0.353 OA
HETATM   24  C1  UNL     1      -3.074   3.372  -0.640  1.00  0.00     0.210 C 
ENDBRANCH   1  23
BRANCH   6  25
HETATM   25  O3  UNL     1      -4.766  -0.351  -0.294  1.00  0.00    -0.351 OA
HETATM   26  C9  UNL     1      -5.576  -0.263   0.876  1.00  0.00     0.210 C 
ENDBRANCH   6  25
BRANCH   5  27
HETATM   27  O2  UNL     1      -3.188  -2.556   0.124  1.00  0.00    -0.352 OA
HETATM   28  C7  UNL     1      -3.474  -3.391  -0.988  1.00  0.00     0.210 C 
ENDBRANCH   5  27
BRANCH  12  29
HETATM   29  O4  UNL     1       3.899  -1.291   1.719  1.00  0.00    -0.358 OA
ATOM     30  H4  UNL     1       4.549  -1.579   2.349  1.00  0.00     0.217 HD
ENDBRANCH  12  29
TORSDOF 4
