REMARK  3 active torsions:
REMARK  status: ('A' for Active; 'I' for Inactive)
REMARK    1  A    between atoms: C4_5  and  N1_6 
REMARK    2  A    between atoms: C5_7  and  C6_8 
REMARK    3  A    between atoms: C10_20  and  C11_21 
ROOT
HETATM    1  N1  UNL     1       1.304  -0.516   0.281  1.00  0.00    -0.267 N 
HETATM    2  C5  UNL     1       2.257  -1.304   0.799  1.00  0.00     0.157 A 
HETATM    3  N3  UNL     1       1.577  -2.228   1.571  1.00  0.00    -0.282 N 
ATOM      4  H3  UNL     1       2.016  -2.975   2.109  1.00  0.00     0.188 HD
HETATM    5  N4  UNL     1       0.324  -2.011   1.513  1.00  0.00    -0.286 N 
ATOM      6  H4  UNL     1      -0.391  -2.557   1.994  1.00  0.00     0.188 HD
HETATM    7  C10 UNL     1       0.084  -0.935   0.708  1.00  0.00     0.114 A 
ENDROOT
BRANCH   7   8
HETATM    8  C11 UNL     1      -1.254  -0.458   0.393  1.00  0.00     0.021 C 
HETATM    9  C12 UNL     1      -2.247  -1.140   1.397  1.00  0.00     0.022 C 
HETATM   10  C13 UNL     1      -3.665  -0.871   1.025  1.00  0.00    -0.013 C 
HETATM   11  C14 UNL     1      -3.972   0.631   1.129  1.00  0.00     0.009 C 
HETATM   12  C18 UNL     1      -4.055  -1.265  -0.367  1.00  0.00     0.009 C 
HETATM   13  C15 UNL     1      -2.978   1.302   0.235  1.00  0.00    -0.013 C 
HETATM   14  C16 UNL     1      -3.219   0.909  -1.207  1.00  0.00     0.009 C 
HETATM   15  C20 UNL     1      -1.529   0.983   0.570  1.00  0.00     0.022 C 
HETATM   16  C17 UNL     1      -3.070  -0.580  -1.326  1.00  0.00    -0.013 C 
HETATM   17  C19 UNL     1      -1.704  -1.070  -0.924  1.00  0.00     0.022 C 
ENDBRANCH   7   8
BRANCH   1  18
HETATM   18  C4  UNL     1       1.518   0.644  -0.496  1.00  0.00     0.114 A 
HETATM   19  C3  UNL     1       2.127   1.746   0.151  1.00  0.00     0.051 A 
HETATM   20  C2  UNL     1       2.408   2.926  -0.495  1.00  0.00     0.029 A 
HETATM   21  C1  UNL     1       2.083   3.044  -1.827  1.00  0.00     0.049 A 
HETATM   22 CL1  UNL     1       2.395   4.528  -2.661  1.00  0.00    -0.083 Cl
HETATM   23  C21 UNL     1       1.479   1.962  -2.468  1.00  0.00     0.113 A 
HETATM   24  N5  UNL     1       1.239   0.854  -1.778  1.00  0.00    -0.350 N 
ATOM     25  H5  UNL     1       0.796   0.086  -2.283  1.00  0.00     0.166 HD
ENDBRANCH   1  18
BRANCH   2  26
HETATM   26  C6  UNL     1       3.703  -1.273   0.670  1.00  0.00     0.081 A 
HETATM   27  C7  UNL     1       4.525  -0.534  -0.131  1.00  0.00     0.060 A 
HETATM   28  C8  UNL     1       5.848  -0.948   0.068  1.00  0.00     0.074 A 
HETATM   29 CL2  UNL     1       7.275  -0.319  -0.731  1.00  0.00    -0.081 Cl
HETATM   30  C9  UNL     1       5.795  -1.974   1.023  1.00  0.00     0.126 A 
HETATM   31 CL3  UNL     1       7.188  -2.829   1.612  1.00  0.00    -0.063 Cl
HETATM   32  N2  UNL     1       4.514  -2.143   1.363  1.00  0.00    -0.342 N 
ATOM     33  H2  UNL     1       4.182  -2.825   2.045  1.00  0.00     0.167 HD
ENDBRANCH   2  26
TORSDOF 3
