REMARK  8 active torsions:
REMARK  status: ('A' for Active; 'I' for Inactive)
REMARK    1  A    between atoms: C2_2  and  N1_3 
REMARK    2  A    between atoms: N1_3  and  C3_6 
REMARK    3  A    between atoms: C5_8  and  C6_9 
REMARK    4  A    between atoms: C7_10  and  C8_11 
REMARK    5  A    between atoms: C9_12  and  C11_14 
REMARK    6  A    between atoms: C11_14  and  O1_15 
REMARK    7  A    between atoms: C21_26  and  O2_27 
REMARK    8  A    between atoms: C24_31  and  N2_32 
ROOT
HETATM    1  C3  UNL     1      -1.478   2.442   0.202  1.00  0.00     0.191 C 
HETATM    2  C4  UNL     1      -0.988   1.609  -0.963  1.00  0.00     0.047 C 
HETATM    3  C5  UNL     1      -0.949   0.249  -0.428  1.00  0.00    -0.009 C 
HETATM    4  C18 UNL     1      -2.248   0.291   0.371  1.00  0.00     0.040 C 
HETATM    5  C19 UNL     1      -2.202   1.496   1.159  1.00  0.00     0.020 C 
HETATM    6  C20 UNL     1      -1.715   1.499   2.547  1.00  0.00     0.012 C 
HETATM    7  C21 UNL     1      -2.434  -1.056   0.814  1.00  0.00     0.087 C 
HETATM    8  C22 UNL     1      -3.912  -1.348   0.953  1.00  0.00     0.042 C 
HETATM    9  C23 UNL     1      -4.363  -1.937  -0.361  1.00  0.00     0.041 C 
HETATM   10  C24 UNL     1      -3.092  -2.691  -0.741  1.00  0.00     0.248 C 
HETATM   11  C27 UNL     1      -1.956  -1.839  -0.430  1.00  0.00     0.103 C 
HETATM   12 CL1  UNL     1      -0.638  -2.917   0.191  1.00  0.00    -0.113 Cl
HETATM   13  C28 UNL     1      -1.395  -0.867  -1.369  1.00  0.00     0.023 C 
HETATM   14  C29 UNL     1      -2.124  -0.404  -2.552  1.00  0.00     0.013 C 
ENDROOT
BRANCH   3  15
HETATM   15  C6  UNL     1       0.246  -0.082   0.290  1.00  0.00    -0.020 C 
HETATM   16  C7  UNL     1       1.435   0.328  -0.138  1.00  0.00    -0.024 C 
BRANCH  16  17
HETATM   17  C8  UNL     1       2.681   0.003   0.564  1.00  0.00     0.026 C 
HETATM   18  C9  UNL     1       3.427   1.016   1.291  1.00  0.00    -0.015 C 
HETATM   19  C10 UNL     1       2.861   1.209   2.710  1.00  0.00     0.018 C 
HETATM   20  C12 UNL     1       4.791   0.317   1.481  1.00  0.00     0.017 C 
HETATM   21  C13 UNL     1       5.035  -0.317   0.123  1.00  0.00    -0.005 C 
HETATM   22  C14 UNL     1       5.447  -1.753   0.182  1.00  0.00     0.006 C 
HETATM   23  C16 UNL     1       3.661  -0.749  -0.314  1.00  0.00    -0.033 C 
HETATM   24  C15 UNL     1       3.979  -2.152   0.145  1.00  0.00     0.010 C 
HETATM   25  C17 UNL     1       3.376  -0.709  -1.779  1.00  0.00     0.016 C 
BRANCH  18  26
HETATM   26  C11 UNL     1       3.598   2.373   0.724  1.00  0.00     0.173 C 
BRANCH  26  27
HETATM   27  O1  UNL     1       4.228   2.457  -0.493  1.00  0.00    -0.400 OA
ATOM     28  H1  UNL     1       4.338   3.328  -0.857  1.00  0.00     0.209 HD
ENDBRANCH  26  27
ENDBRANCH  18  26
ENDBRANCH  16  17
ENDBRANCH   3  15
BRANCH   1  29
HETATM   29  N1  UNL     1      -0.497   3.237   0.836  1.00  0.00    -0.071 N 
ATOM     30  H12 UNL     1       0.238   2.651   1.231  1.00  0.00     0.277 HD
ATOM     31  H11 UNL     1      -0.869   3.649   1.692  1.00  0.00     0.277 HD
BRANCH  29  32
HETATM   32  C2  UNL     1       0.068   4.253  -0.008  1.00  0.00     0.228 C 
HETATM   33  C1  UNL     1      -0.882   5.350  -0.383  1.00  0.00     0.034 C 
ENDBRANCH  29  32
ENDBRANCH   1  29
BRANCH   7  34
HETATM   34  O2  UNL     1      -1.829  -1.491   1.968  1.00  0.00    -0.387 OA
ATOM     35  H2  UNL     1      -1.953  -2.386   2.262  1.00  0.00     0.210 HD
ENDBRANCH   7  34
BRANCH  10  36
HETATM   36  N2  UNL     1      -3.169  -3.430  -1.941  1.00  0.00     0.086 N 
HETATM   37  C25 UNL     1      -2.651  -4.812  -1.762  1.00  0.00     0.310 C 
HETATM   38  C26 UNL     1      -4.602  -3.677  -2.242  1.00  0.00     0.310 C 
ENDBRANCH  10  36
TORSDOF 8
