REMARK  7 active torsions:
REMARK  status: ('A' for Active; 'I' for Inactive)
REMARK    1  A    between atoms: C4_4  and  C5_5 
REMARK    2  A    between atoms: C5_5  and  N1_6 
REMARK    3  A    between atoms: N2_9  and  C8_10 
REMARK    4  A    between atoms: C11_13  and  C12_14 
REMARK    5  A    between atoms: C12_14  and  C13_15 
REMARK    6  A    between atoms: C13_15  and  N3_16 
REMARK    7  A    between atoms: N3_16  and  C14_18 
ROOT
HETATM    1  C8  UNL     1       0.449   1.058   0.327  1.00  0.00     0.223 C 
HETATM    2  C9  UNL     1       1.570   0.385  -0.375  1.00  0.00     0.036 C 
HETATM    3  C10 UNL     1       2.950   0.845  -0.105  1.00  0.00     0.007 C 
HETATM    4  C11 UNL     1       3.183   1.881   0.907  1.00  0.00    -0.013 C 
HETATM    5  C21 UNL     1       1.942   2.576   1.436  1.00  0.00     0.007 C 
HETATM    6  C22 UNL     1       0.952   1.441   1.721  1.00  0.00     0.036 C 
ENDROOT
BRANCH   1   7
HETATM    7  N2  UNL     1      -0.745   0.257   0.417  1.00  0.00     0.096 N 
HETATM    8  C7  UNL     1      -1.843   1.152   0.786  1.00  0.00     0.303 C 
HETATM    9  C6  UNL     1      -2.413   1.660  -0.498  1.00  0.00     0.302 C 
HETATM   10  N1  UNL     1      -3.291   0.632  -1.066  1.00  0.00     0.092 N 
HETATM   11  C24 UNL     1      -2.549  -0.605  -1.003  1.00  0.00     0.302 C 
HETATM   12  C23 UNL     1      -1.052  -0.422  -0.823  1.00  0.00     0.303 C 
BRANCH  10  13
HETATM   13  C5  UNL     1      -4.540   0.588  -0.392  1.00  0.00     0.279 C 
BRANCH  13  14
HETATM   14  C4  UNL     1      -5.678  -0.119  -0.994  1.00  0.00     0.051 C 
HETATM   15  C3  UNL     1      -5.612  -1.570  -1.284  1.00  0.00     0.041 C 
HETATM   16  C2  UNL     1      -6.249  -2.191  -0.036  1.00  0.00     0.183 C 
HETATM   17  C1  UNL     1      -6.596  -3.631  -0.286  1.00  0.00     0.040 C 
HETATM   18  N6  UNL     1      -7.434  -1.354   0.064  1.00  0.00    -0.063 N 
HETATM   19  C25 UNL     1      -6.901   0.005  -0.094  1.00  0.00     0.124 C 
ATOM     20  H62 UNL     1      -8.180  -1.595  -0.588  1.00  0.00     0.278 HD
ATOM     21  H61 UNL     1      -7.984  -1.498   0.911  1.00  0.00     0.278 HD
HETATM   22  C26 UNL     1      -6.559   0.475   1.297  1.00  0.00     0.046 C 
HETATM   23  C27 UNL     1      -7.914   0.946  -0.698  1.00  0.00     0.046 C 
ENDBRANCH  13  14
ENDBRANCH  10  13
ENDBRANCH   1   7
BRANCH   4  24
HETATM   24  C12 UNL     1       4.242   2.878   0.563  1.00  0.00     0.025 C 
BRANCH  24  25
HETATM   25  C13 UNL     1       5.618   2.342   0.373  1.00  0.00     0.138 C 
BRANCH  25  26
HETATM   26  N3  UNL     1       5.807   1.385  -0.663  1.00  0.00    -0.226 N 
ATOM     27  H3  UNL     1       5.292   1.509  -1.535  1.00  0.00     0.177 HD
BRANCH  26  28
HETATM   28  C14 UNL     1       6.591   0.373  -0.560  1.00  0.00     0.679 A 
HETATM   29  N4  UNL     1       6.784  -0.534  -1.514  1.00  0.00    -0.190 N 
HETATM   30  C15 UNL     1       7.639  -1.477  -1.118  1.00  0.00     0.076 A 
ATOM     31  H4  UNL     1       6.336  -0.511  -2.430  1.00  0.00     0.184 HD
HETATM   32  C16 UNL     1       8.132  -2.605  -1.760  1.00  0.00     0.034 A 
HETATM   33  C20 UNL     1       8.016  -1.149   0.173  1.00  0.00     0.078 A 
HETATM   34  C17 UNL     1       9.022  -3.415  -1.085  1.00  0.00     0.026 A 
HETATM   35  C18 UNL     1       9.415  -3.117   0.195  1.00  0.00     0.036 A 
HETATM   36 CL1  UNL     1      10.547  -4.196   1.002  1.00  0.00    -0.084 Cl
HETATM   37  C19 UNL     1       8.912  -1.985   0.821  1.00  0.00     0.056 A 
HETATM   38  N5  UNL     1       7.361  -0.014   0.489  1.00  0.00    -0.190 N 
ATOM     39  H5  UNL     1       7.433   0.478   1.379  1.00  0.00     0.184 HD
ENDBRANCH  26  28
ENDBRANCH  25  26
ENDBRANCH  24  25
ENDBRANCH   4  24
TORSDOF 7
