REMARK  9 active torsions:
REMARK  status: ('A' for Active; 'I' for Inactive)
REMARK    1  A    between atoms: C2_2  and  C3_3 
REMARK    2  A    between atoms: C2_2  and  C4_6 
REMARK    3  A    between atoms: C3_3  and  O1_4 
REMARK    4  A    between atoms: C4_6  and  O2_7 
REMARK    5  A    between atoms: C16_20  and  C17_21 
REMARK    6  A    between atoms: C17_21  and  C18_23 
REMARK    7  A    between atoms: C18_23  and  O4_24 
REMARK    8  A    between atoms: C20_27  and  C21_28 
REMARK    9  A    between atoms: C21_28  and  C22_29 
ROOT
HETATM    1  C4  UNL     1       3.889   0.015   0.742  1.00  0.00     0.087 C 
HETATM    2  C5  UNL     1       3.767  -1.485   0.671  1.00  0.00     0.044 C 
HETATM    3  C6  UNL     1       2.261  -1.759   0.525  1.00  0.00     0.014 C 
HETATM    4  C7  UNL     1       1.909  -0.649  -0.478  1.00  0.00    -0.029 C 
HETATM    5  C8  UNL     1       2.585  -1.113  -1.733  1.00  0.00     0.016 C 
HETATM    6  C9  UNL     1       2.587   0.519   0.208  1.00  0.00     0.033 C 
HETATM    7  C10 UNL     1       1.766   0.855   1.455  1.00  0.00     0.009 C 
HETATM    8  C11 UNL     1       0.315   1.067   1.176  1.00  0.00     0.006 C 
HETATM    9  C12 UNL     1      -0.280  -0.202   0.623  1.00  0.00    -0.001 C 
HETATM   10  C13 UNL     1      -1.744  -0.180   0.414  1.00  0.00     0.003 C 
HETATM   11  C14 UNL     1      -2.584   0.021   1.639  1.00  0.00     0.011 C 
HETATM   12  C15 UNL     1      -3.955  -0.521   1.308  1.00  0.00     0.042 C 
HETATM   13  C16 UNL     1      -4.283  -0.431  -0.133  1.00  0.00    -0.013 C 
HETATM   14  C19 UNL     1      -3.564   0.126  -1.069  1.00  0.00    -0.006 C 
HETATM   15  C20 UNL     1      -2.246   0.754  -0.656  1.00  0.00    -0.017 C 
HETATM   16  C23 UNL     1      -1.373   0.777  -1.844  1.00  0.00     0.015 C 
HETATM   17  C24 UNL     1       0.102   0.602  -1.608  1.00  0.00     0.011 C 
HETATM   18  C25 UNL     1       0.438  -0.503  -0.654  1.00  0.00    -0.032 C 
HETATM   19  C26 UNL     1      -0.036  -1.788  -1.326  1.00  0.00     0.016 C 
ENDROOT
BRANCH   1  20
HETATM   20  C2  UNL     1       5.116   0.584   0.194  1.00  0.00    -0.032 C 
HETATM   21  C1  UNL     1       5.216   1.438  -0.813  1.00  0.00     0.019 C 
BRANCH  20  22
HETATM   22  C3  UNL     1       6.418   0.180   0.827  1.00  0.00     0.200 C 
BRANCH  22  23
HETATM   23  O1  UNL     1       6.541  -1.196   0.695  1.00  0.00    -0.397 OA
ATOM     24  H1  UNL     1       7.364  -1.451   1.095  1.00  0.00     0.209 HD
ENDBRANCH  22  23
ENDBRANCH  20  22
ENDBRANCH   1  20
BRANCH   1  25
HETATM   25  O2  UNL     1       3.998   0.281   2.149  1.00  0.00    -0.385 OA
ATOM     26  H2  UNL     1       3.199  -0.089   2.506  1.00  0.00     0.211 HD
ENDBRANCH   1  25
BRANCH  15  27
HETATM   27  C21 UNL     1      -2.692   2.096  -0.127  1.00  0.00     0.025 C 
BRANCH  27  28
HETATM   28  C22 UNL     1      -3.191   3.041  -1.181  1.00  0.00     0.086 C 
HETATM   29 BR1  UNL     1      -3.712   4.667  -0.215  1.00  0.00    -0.096 Br
ENDBRANCH  27  28
ENDBRANCH  15  27
BRANCH  13  30
HETATM   30  C17 UNL     1      -5.553  -1.031  -0.561  1.00  0.00     0.178 C 
HETATM   31  O3  UNL     1      -5.896  -0.988  -1.791  1.00  0.00    -0.290 OA
BRANCH  30  32
HETATM   32  C18 UNL     1      -6.425  -1.678   0.421  1.00  0.00     0.247 C 
BRANCH  32  33
HETATM   33  O4  UNL     1      -7.555  -2.166  -0.215  1.00  0.00    -0.393 OA
ATOM     34  H4  UNL     1      -8.121  -2.586   0.422  1.00  0.00     0.209 HD
ENDBRANCH  32  33
ENDBRANCH  30  32
ENDBRANCH  13  30
TORSDOF 9
