REMARK  13 active torsions:
REMARK  status: ('A' for Active; 'I' for Inactive)
REMARK    1  A    between atoms: C4_4  and  O1_5 
REMARK    2  A    between atoms: C6_8  and  C7_9 
REMARK    3  A    between atoms: C7_9  and  C8_10 
REMARK    4  A    between atoms: C7_9  and  N1_18 
REMARK    5  A    between atoms: C8_10  and  C9_11 
REMARK    6  A    between atoms: N1_18  and  C15_20 
REMARK    7  A    between atoms: C15_20  and  O2_21 
REMARK    8  A    between atoms: C15_20  and  C16_23 
REMARK    9  A    between atoms: C18_25  and  O3_26 
REMARK   10  A    between atoms: C21_30  and  C22_31 
REMARK   11  A    between atoms: C22_31  and  C23_32 
REMARK   12  A    between atoms: C23_32  and  C24_33 
REMARK   13  A    between atoms: C24_33  and  O4_34 
ROOT
HETATM    1  N1  UNL     1      -1.592  -0.260  -0.688  1.00  0.00    -0.347 N 
ATOM      2  H1  UNL     1      -1.546  -1.277  -0.622  1.00  0.00     0.167 HD
ENDROOT
BRANCH   1   3
HETATM    3  C7  UNL     1      -2.783   0.154  -0.829  1.00  0.00    -0.003 C 
BRANCH   3   4
HETATM    4  C6  UNL     1      -3.925  -0.832  -0.878  1.00  0.00     0.038 C 
HETATM    5  C5  UNL     1      -3.287  -2.120  -1.335  1.00  0.00     0.042 C 
HETATM    6  C4  UNL     1      -3.948  -3.362  -0.840  1.00  0.00     0.122 C 
HETATM    7  C3  UNL     1      -3.667  -3.366   0.673  1.00  0.00     0.065 C 
HETATM    8  C2  UNL     1      -4.405  -2.217   1.193  1.00  0.00    -0.086 C 
HETATM    9  C1  UNL     1      -5.021  -2.339   2.381  1.00  0.00     0.014 C 
HETATM   10  C29 UNL     1      -4.504  -0.917   0.488  1.00  0.00     0.044 C 
BRANCH   6  11
HETATM   11  O1  UNL     1      -3.273  -4.446  -1.372  1.00  0.00    -0.395 OA
ATOM     12  H1  UNL     1      -3.446  -4.444  -2.306  1.00  0.00     0.210 HD
ENDBRANCH   6  11
ENDBRANCH   3   4
BRANCH   3  13
HETATM   13  C8  UNL     1      -3.034   1.590  -0.924  1.00  0.00     0.091 C 
BRANCH  13  14
HETATM   14  C9  UNL     1      -3.853   2.230   0.096  1.00  0.00    -0.053 A 
HETATM   15  C10 UNL     1      -3.211   2.744   1.214  1.00  0.00     0.010 A 
HETATM   16  C11 UNL     1      -3.884   3.389   2.219  1.00  0.00     0.043 A 
HETATM   17  C12 UNL     1      -5.249   3.517   2.086  1.00  0.00     0.116 A 
HETATM   18  F1  UNL     1      -5.900   4.165   3.102  1.00  0.00    -0.206 F 
HETATM   19  C13 UNL     1      -5.918   3.023   0.997  1.00  0.00     0.043 A 
HETATM   20  C14 UNL     1      -5.218   2.384   0.010  1.00  0.00     0.010 A 
ENDBRANCH  13  14
ENDBRANCH   3  13
ENDBRANCH   1   3
BRANCH   1  21
HETATM   21  C15 UNL     1      -0.381   0.302  -0.604  1.00  0.00     0.120 C 
BRANCH  21  22
HETATM   22  O2  UNL     1      -0.104  -0.554   0.717  1.00  0.00    -0.349 OA
ATOM     23  H2  UNL     1       0.756  -0.155   0.777  1.00  0.00     0.219 HD
ENDBRANCH  21  22
BRANCH  21  24
HETATM   24  C16 UNL     1       0.889   0.892  -0.515  1.00  0.00     0.071 C 
HETATM   25  C17 UNL     1       1.048   2.067  -1.511  1.00  0.00     0.045 C 
HETATM   26  C18 UNL     1       2.330   2.765  -1.289  1.00  0.00     0.119 C 
HETATM   27  C19 UNL     1       3.539   1.861  -1.335  1.00  0.00     0.037 C 
HETATM   28  C20 UNL     1       3.314   0.752  -0.361  1.00  0.00     0.001 C 
HETATM   29  C21 UNL     1       4.368  -0.329  -0.439  1.00  0.00    -0.010 C 
HETATM   30  C27 UNL     1       2.073   0.004  -0.799  1.00  0.00    -0.029 C 
HETATM   31  C25 UNL     1       3.634  -1.637  -0.242  1.00  0.00     0.006 C 
HETATM   32  C26 UNL     1       2.184  -1.219   0.071  1.00  0.00     0.011 C 
HETATM   33  C28 UNL     1       2.165  -0.460  -2.226  1.00  0.00     0.016 C 
BRANCH  26  34
HETATM   34  O3  UNL     1       2.301   3.441  -0.071  1.00  0.00    -0.396 OA
ATOM     35  H3  UNL     1       3.126   3.890   0.072  1.00  0.00     0.210 HD
ENDBRANCH  26  34
BRANCH  29  36
HETATM   36  C22 UNL     1       5.289  -0.151   0.753  1.00  0.00     0.007 C 
BRANCH  36  37
HETATM   37  C23 UNL     1       6.381  -1.198   0.768  1.00  0.00     0.026 C 
BRANCH  37  38
HETATM   38  C24 UNL     1       7.251  -0.950   1.982  1.00  0.00     0.164 C 
BRANCH  38  39
HETATM   39  O4  UNL     1       8.257  -1.930   1.986  1.00  0.00    -0.401 OA
ATOM     40  H4  UNL     1       8.803  -1.774   2.748  1.00  0.00     0.209 HD
ENDBRANCH  38  39
ENDBRANCH  37  38
ENDBRANCH  36  37
ENDBRANCH  29  36
ENDBRANCH  21  24
ENDBRANCH   1  21
TORSDOF 13
