REMARK  8 active torsions:
REMARK  status: ('A' for Active; 'I' for Inactive)
REMARK    1  A    between atoms: O1_2  and  C2_3 
REMARK    2  A    between atoms: C2_3  and  C3_5 
REMARK    3  A    between atoms: C3_5  and  N1_6 
REMARK       I    between atoms: N1_6  and  C4_8 
REMARK    4  A    between atoms: C4_8  and  C5_10 
REMARK    5  A    between atoms: C13_18  and  C15_20 
REMARK    6  A    between atoms: C15_20  and  C16_21 
REMARK    7  A    between atoms: C16_21  and  C17_22 
REMARK    8  A    between atoms: C18_25  and  O6_26 
ROOT
HETATM    1  C5  UNL     1       3.188  -0.541   1.163  1.00  0.00     0.086 C 
HETATM    2  C6  UNL     1       2.945  -1.551   2.239  1.00  0.00     0.015 C 
HETATM    3  C7  UNL     1       1.563  -2.173   1.965  1.00  0.00     0.007 C 
HETATM    4  C8  UNL     1       0.977  -1.168   1.036  1.00  0.00    -0.001 C 
HETATM    5  C9  UNL     1      -0.250  -1.559   0.297  1.00  0.00    -0.005 C 
HETATM    6  C10 UNL     1      -1.345  -1.719   1.320  1.00  0.00     0.006 C 
HETATM    7  C11 UNL     1      -2.086  -0.429   1.540  1.00  0.00     0.007 C 
HETATM    8  C12 UNL     1      -2.862  -0.195   0.229  1.00  0.00     0.005 C 
HETATM    9  C13 UNL     1      -3.724   1.010   0.406  1.00  0.00    -0.011 C 
HETATM   10  C14 UNL     1      -4.044   1.157   1.905  1.00  0.00     0.018 C 
HETATM   11  C18 UNL     1      -2.926   2.250   0.097  1.00  0.00     0.160 C 
HETATM   12  C19 UNL     1      -2.382   2.239  -1.295  1.00  0.00     0.200 C 
HETATM   13  F1  UNL     1      -3.308   2.950  -2.077  1.00  0.00    -0.247 F 
HETATM   14  C20 UNL     1      -2.184   0.920  -1.908  1.00  0.00     0.049 C 
HETATM   15  C21 UNL     1      -2.007  -0.256  -0.982  1.00  0.00    -0.033 C 
HETATM   16  C22 UNL     1      -2.521  -1.469  -1.802  1.00  0.00     0.016 C 
HETATM   17  C23 UNL     1      -0.543  -0.550  -0.758  1.00  0.00    -0.001 C 
HETATM   18  C24 UNL     1       0.344   0.634  -0.630  1.00  0.00     0.006 C 
HETATM   19  C25 UNL     1       1.800   0.157  -0.813  1.00  0.00     0.011 C 
HETATM   20  C26 UNL     1       2.169  -0.945   0.099  1.00  0.00    -0.028 C 
HETATM   21  C27 UNL     1       2.611  -2.221  -0.553  1.00  0.00     0.016 C 
ENDROOT
BRANCH   1  22
HETATM   22  C4  UNL     1       4.538  -0.467   0.636  1.00  0.00     0.223 C 
HETATM   23  N1  UNL     1       5.632  -0.109   1.447  1.00  0.00    -0.351 N 
ATOM     24  H1  UNL     1       5.464   0.102   2.431  1.00  0.00     0.163 HD
HETATM   25  O3  UNL     1       4.741  -0.729  -0.575  1.00  0.00    -0.273 OA
BRANCH  23  26
HETATM   26  C3  UNL     1       6.996  -0.028   0.935  1.00  0.00     0.233 C 
BRANCH  26  27
HETATM   27  C2  UNL     1       7.163   0.966  -0.137  1.00  0.00     0.276 C 
HETATM   28  O2  UNL     1       6.212   1.682  -0.509  1.00  0.00    -0.263 OA
BRANCH  27  29
HETATM   29  O1  UNL     1       8.391   1.119  -0.755  1.00  0.00    -0.325 OA
HETATM   30  C1  UNL     1       8.592   2.073  -1.804  1.00  0.00     0.213 C 
ENDBRANCH  27  29
ENDBRANCH  26  27
ENDBRANCH  23  26
ENDBRANCH   1  22
BRANCH   9  31
HETATM   31  C15 UNL     1      -5.028   1.008  -0.297  1.00  0.00     0.022 C 
BRANCH  31  32
HETATM   32  C16 UNL     1      -5.950  -0.116   0.077  1.00  0.00     0.114 C 
BRANCH  32  33
HETATM   33  C17 UNL     1      -7.189   0.087  -0.743  1.00  0.00     0.172 C 
HETATM   34  O4  UNL     1      -7.784   1.198  -0.696  1.00  0.00    -0.648 OA
HETATM   35  O5  UNL     1      -7.725  -0.895  -1.566  1.00  0.00    -0.648 OA
ENDBRANCH  32  33
ENDBRANCH  31  32
ENDBRANCH   9  31
BRANCH  11  36
HETATM   36  O6  UNL     1      -3.780   3.353   0.330  1.00  0.00    -0.392 OA
ATOM     37  H6  UNL     1      -3.277   4.135   0.135  1.00  0.00     0.210 HD
ENDBRANCH  11  36
TORSDOF 8
