REMARK  13 active torsions:
REMARK  status: ('A' for Active; 'I' for Inactive)
REMARK    1  A    between atoms: O1_2  and  C2_3 
REMARK    2  A    between atoms: C2_3  and  C3_5 
REMARK    3  A    between atoms: C3_5  and  N1_6 
REMARK    4  A    between atoms: C3_5  and  C6_11 
REMARK    5  A    between atoms: C3_5  and  C9_18 
REMARK       I    between atoms: N1_6  and  C4_8 
REMARK    6  A    between atoms: C9_18  and  N3_19 
REMARK    7  A    between atoms: C9_18  and  C20_37 
REMARK       I    between atoms: N3_19  and  C10_21 
REMARK    8  A    between atoms: C10_21  and  C11_23 
REMARK       I    between atoms: N5_27  and  C14_28 
REMARK    9  A    between atoms: C14_28  and  C15_30 
REMARK   10  A    between atoms: C15_30  and  O6_31 
REMARK   11  A    between atoms: C15_30  and  C16_33 
REMARK   12  A    between atoms: C22_41  and  N7_42 
REMARK   13  A    between atoms: C24_46  and  O7_47 
ROOT
HETATM    1  C9  UNL     1      -1.650  -0.824  -0.377  1.00  0.00     0.205 C 
ENDROOT
BRANCH   1   2
HETATM    2  C3  UNL     1      -2.570  -1.955  -0.131  1.00  0.00     0.198 C 
BRANCH   2   3
HETATM    3  C2  UNL     1      -3.401  -2.160  -1.408  1.00  0.00     0.296 C 
HETATM    4  O2  UNL     1      -3.219  -3.181  -2.097  1.00  0.00    -0.262 OA
BRANCH   3   5
HETATM    5  O1  UNL     1      -4.346  -1.271  -1.831  1.00  0.00    -0.324 OA
HETATM    6  C1  UNL     1      -5.121  -1.493  -3.026  1.00  0.00     0.213 C 
ENDBRANCH   3   5
ENDBRANCH   2   3
BRANCH   2   7
HETATM    7  N1  UNL     1      -1.868  -3.217   0.024  1.00  0.00    -0.335 N 
HETATM    8  C4  UNL     1      -1.079  -3.696   1.046  1.00  0.00     0.215 C 
HETATM    9  C5  UNL     1      -0.454  -5.066   0.926  1.00  0.00     0.117 C 
HETATM   10  O3  UNL     1      -0.825  -3.094   2.085  1.00  0.00    -0.274 OA
ATOM     11  H1  UNL     1      -1.979  -3.860  -0.760  1.00  0.00     0.164 HD
ENDBRANCH   2   7
BRANCH   2  12
HETATM   12  C6  UNL     1      -3.567  -1.729   0.959  1.00  0.00     0.093 A 
HETATM   13  N2  UNL     1      -4.654  -0.957   0.883  1.00  0.00    -0.359 N 
HETATM   14  C7  UNL     1      -5.444  -0.857   1.893  1.00  0.00     0.120 A 
ATOM     15  H2  UNL     1      -4.858  -0.447   0.024  1.00  0.00     0.165 HD
HETATM   16  C8  UNL     1      -5.137  -1.558   3.031  1.00  0.00     0.091 A 
HETATM   17 CL1  UNL     1      -6.026  -1.613   4.554  1.00  0.00    -0.075 Cl
HETATM   18  S1  UNL     1      -3.695  -2.333   2.555  1.00  0.00    -0.060 SA
ENDBRANCH   2  12
ENDBRANCH   1   2
BRANCH   1  19
HETATM   19  N3  UNL     1      -0.805  -0.419   0.698  1.00  0.00    -0.344 N 
HETATM   20  C10 UNL     1       0.618  -0.180   0.496  1.00  0.00     0.243 C 
HETATM   21  O4  UNL     1       0.983  -0.425  -0.690  1.00  0.00    -0.271 OA
ATOM     22  H3  UNL     1      -1.205  -0.294   1.628  1.00  0.00     0.163 HD
BRANCH  20  23
HETATM   23  C11 UNL     1       1.427   0.288   1.574  1.00  0.00     0.200 C 
HETATM   24  C12 UNL     1       1.228  -0.483   2.854  1.00  0.00     0.054 C 
HETATM   25  C13 UNL     1       2.343   0.104   3.709  1.00  0.00     0.138 C 
HETATM   26  N4  UNL     1       3.207   0.848   2.774  1.00  0.00    -0.135 NA
HETATM   27  N5  UNL     1       2.852   0.292   1.479  1.00  0.00    -0.249 N 
HETATM   28  C14 UNL     1       3.849  -0.067   0.588  1.00  0.00     0.265 C 
HETATM   29  O5  UNL     1       3.683  -0.586  -0.570  1.00  0.00    -0.269 OA
BRANCH  28  30
HETATM   30  C15 UNL     1       5.304   0.128   0.910  1.00  0.00     0.218 C 
BRANCH  30  31
HETATM   31  O6  UNL     1       5.531   0.702   2.131  1.00  0.00    -0.385 OA
ATOM     32  H6  UNL     1       6.451   0.825   2.335  1.00  0.00     0.210 HD
ENDBRANCH  30  31
BRANCH  30  33
HETATM   33  C16 UNL     1       6.062   0.775  -0.210  1.00  0.00    -0.017 C 
HETATM   34  C17 UNL     1       7.513   0.904   0.271  1.00  0.00     0.017 C 
HETATM   35  C18 UNL     1       6.102  -0.075  -1.448  1.00  0.00     0.017 C 
HETATM   36  C19 UNL     1       5.595   2.156  -0.540  1.00  0.00     0.017 C 
ENDBRANCH  30  33
ENDBRANCH  28  30
ENDBRANCH  20  23
ENDBRANCH   1  19
BRANCH   1  37
HETATM   37  C20 UNL     1      -2.343   0.448  -0.837  1.00  0.00     0.153 A 
HETATM   38  N6  UNL     1      -2.463   0.956  -2.058  1.00  0.00    -0.333 N 
HETATM   39  C21 UNL     1      -3.167   2.121  -1.981  1.00  0.00     0.115 A 
ATOM     40  H6  UNL     1      -2.090   0.543  -2.913  1.00  0.00     0.168 HD
HETATM   41  C22 UNL     1      -3.605   3.078  -2.853  1.00  0.00     0.094 A 
HETATM   42  C25 UNL     1      -3.470   2.296  -0.653  1.00  0.00     0.181 A 
HETATM   43  C23 UNL     1      -4.316   4.145  -2.338  1.00  0.00     0.090 A 
HETATM   44  C24 UNL     1      -4.596   4.278  -1.000  1.00  0.00     0.144 A 
HETATM   45  N8  UNL     1      -4.159   3.329  -0.156  1.00  0.00    -0.315 N 
ATOM     46  H8  UNL     1      -4.349   3.395   0.844  1.00  0.00     0.170 HD
HETATM   47  O8  UNL     1      -2.946   1.255  -0.020  1.00  0.00    -0.276 OA
BRANCH  41  48
HETATM   48  N7  UNL     1      -3.312   2.929  -4.223  1.00  0.00    -0.222 N 
HETATM   49  F1  UNL     1      -4.161   2.272  -5.017  1.00  0.00    -0.101 F 
ATOM     50  H7  UNL     1      -2.453   3.322  -4.608  1.00  0.00     0.200 HD
ENDBRANCH  41  48
BRANCH  44  51
HETATM   51  O7  UNL     1      -5.320   5.376  -0.523  1.00  0.00    -0.346 OA
ATOM     52  H7  UNL     1      -5.514   5.468   0.402  1.00  0.00     0.219 HD
ENDBRANCH  44  51
ENDBRANCH   1  37
TORSDOF 13
