REMARK  11 active torsions:
REMARK  status: ('A' for Active; 'I' for Inactive)
REMARK    1  A    between atoms: C3_5  and  N2_6 
REMARK    2  A    between atoms: C4_10  and  C5_11 
REMARK    3  A    between atoms: C5_11  and  O2_13 
REMARK    4  A    between atoms: O2_13  and  C6_14 
REMARK    5  A    between atoms: C6_14  and  C7_15 
REMARK       I    between atoms: C7_15  and  N3_17 
REMARK    6  A    between atoms: N3_17  and  C8_19 
REMARK    7  A    between atoms: C9_20  and  N4_21 
REMARK    8  A    between atoms: C11_25  and  C12_26 
REMARK       I    between atoms: C12_26  and  N5_28 
REMARK    9  A    between atoms: N5_28  and  C13_30 
REMARK   10  A    between atoms: N10_38  and  S2_39 
REMARK   11  A    between atoms: S2_39  and  C14_42 
ROOT
HETATM    1  C8  UNL     1      -0.908   0.807   0.551  1.00  0.00     0.159 A 
HETATM    2  C9  UNL     1      -1.031   1.710   1.573  1.00  0.00     0.150 A 
HETATM    3  C10 UNL     1      -1.600   1.020   2.641  1.00  0.00     0.076 A 
HETATM    4  C11 UNL     1      -1.826  -0.312   2.248  1.00  0.00     0.123 A 
HETATM    5  N10 UNL     1      -1.396  -0.412   0.972  1.00  0.00    -0.212 N 
ENDROOT
BRANCH   1   6
HETATM    6  N3  UNL     1      -0.232   0.985  -0.688  1.00  0.00    -0.308 N 
HETATM    7  C7  UNL     1       1.161   1.153  -0.773  1.00  0.00     0.247 C 
HETATM    8  O3  UNL     1       1.645   1.482  -1.887  1.00  0.00    -0.271 OA
ATOM      9  H3  UNL     1      -0.780   0.991  -1.548  1.00  0.00     0.170 HD
BRANCH   7  10
HETATM   10  C6  UNL     1       2.048   0.948   0.358  1.00  0.00     0.282 C 
BRANCH  10  11
HETATM   11  O2  UNL     1       3.405   1.155   0.121  1.00  0.00    -0.308 OA
BRANCH  11  12
HETATM   12  C5  UNL     1       4.215   0.477  -0.764  1.00  0.00     0.302 C 
HETATM   13  O1  UNL     1       3.700  -0.434  -1.441  1.00  0.00    -0.259 OA
BRANCH  12  14
HETATM   14  C4  UNL     1       5.646   0.828  -0.896  1.00  0.00     0.105 A 
HETATM   15  C2  UNL     1       6.594   0.278  -1.713  1.00  0.00     0.030 A 
HETATM   16  C1  UNL     1       6.189  -0.858  -2.646  1.00  0.00     0.070 C 
HETATM   17  N1  UNL     1       7.799   0.757  -1.655  1.00  0.00    -0.339 N 
HETATM   18  C3  UNL     1       8.053   1.757  -0.807  1.00  0.00     0.143 A 
ATOM     19  H1  UNL     1       8.538   0.377  -2.246  1.00  0.00     0.168 HD
HETATM   20  S1  UNL     1       6.538   2.023  -0.072  1.00  0.00    -0.046 SA
BRANCH  18  21
HETATM   21  N2  UNL     1       9.206   2.366  -0.613  1.00  0.00    -0.380 N 
ATOM     22  H22 UNL     1      10.112   2.207  -1.053  1.00  0.00     0.158 HD
ATOM     23  H21 UNL     1       9.400   3.130   0.035  1.00  0.00     0.158 HD
ENDBRANCH  18  21
ENDBRANCH  12  14
ENDBRANCH  11  12
ENDBRANCH  10  11
ENDBRANCH   7  10
ENDBRANCH   1   6
BRANCH   2  24
HETATM   24  N4  UNL     1      -0.766   3.096   1.579  1.00  0.00    -0.112 N 
HETATM   25  O4  UNL     1       0.089   3.705   0.982  1.00  0.00    -0.532 OA
HETATM   26  O5  UNL     1      -1.632   3.884   2.360  1.00  0.00    -0.532 OA
ENDBRANCH   2  24
BRANCH   5  27
HETATM   27  S2  UNL     1      -1.429  -1.779  -0.036  1.00  0.00     0.271 S 
HETATM   28  O7  UNL     1       0.036  -1.929  -0.564  1.00  0.00    -0.200 OA
HETATM   29  O8  UNL     1      -1.699  -3.084   0.605  1.00  0.00    -0.200 OA
BRANCH  27  30
HETATM   30  C14 UNL     1      -2.422  -1.636  -1.451  1.00  0.00     0.085 A 
HETATM   31  C15 UNL     1      -3.792  -1.743  -1.321  1.00  0.00     0.069 A 
HETATM   32  C16 UNL     1      -4.627  -1.672  -2.417  1.00  0.00     0.143 A 
HETATM   33  F1  UNL     1      -5.982  -1.780  -2.288  1.00  0.00    -0.204 F 
HETATM   34  C17 UNL     1      -4.089  -1.489  -3.679  1.00  0.00     0.106 A 
HETATM   35  N11 UNL     1      -4.899  -1.409  -4.843  1.00  0.00    -0.097 NA
HETATM   36  C18 UNL     1      -2.723  -1.380  -3.824  1.00  0.00     0.062 A 
HETATM   37 CL1  UNL     1      -2.003  -1.147  -5.419  1.00  0.00    -0.082 Cl
HETATM   38  C19 UNL     1      -1.904  -1.455  -2.702  1.00  0.00     0.051 A 
ENDBRANCH  27  30
ENDBRANCH   5  27
BRANCH   4  39
HETATM   39  C12 UNL     1      -2.421  -1.266   3.157  1.00  0.00     0.287 C 
HETATM   40  O6  UNL     1      -2.666  -2.432   2.894  1.00  0.00    -0.265 OA
HETATM   41  N5  UNL     1      -2.759  -0.827   4.487  1.00  0.00    -0.152 N 
ATOM     42  H5  UNL     1      -2.042  -0.836   5.212  1.00  0.00     0.188 HD
BRANCH  41  43
HETATM   43  C13 UNL     1      -3.943  -0.425   4.780  1.00  0.00     0.713 A 
HETATM   44  N6  UNL     1      -4.985  -0.359   3.934  1.00  0.00    -0.113 N 
HETATM   45  N7  UNL     1      -6.058   0.100   4.554  1.00  0.00     0.009 NA
ATOM     46  H6  UNL     1      -4.952  -0.626   2.950  1.00  0.00     0.203 HD
HETATM   47  N8  UNL     1      -5.690   0.331   5.815  1.00  0.00    -0.212 N 
HETATM   48  N9  UNL     1      -4.418   0.016   5.958  1.00  0.00    -0.118 N 
ATOM     49  H8  UNL     1      -6.296   0.693   6.551  1.00  0.00     0.206 HD
ATOM     50  H9  UNL     1      -3.881   0.094   6.822  1.00  0.00     0.207 HD
ENDBRANCH  41  43
ENDBRANCH   4  39
TORSDOF 11
