REMARK  12 active torsions:
REMARK  status: ('A' for Active; 'I' for Inactive)
REMARK    1  A    between atoms: O1_2  and  C2_3 
REMARK    2  A    between atoms: C2_3  and  C3_5 
REMARK    3  A    between atoms: C3_5  and  C24_46 
REMARK    4  A    between atoms: N1_6  and  O3_8 
REMARK    5  A    between atoms: O3_8  and  C4_9 
REMARK       I    between atoms: C4_9  and  N2_11 
REMARK    6  A    between atoms: N2_11  and  C5_13 
REMARK    7  A    between atoms: C13_29  and  C14_30 
REMARK    8  A    between atoms: C14_30  and  O8_31 
REMARK    9  A    between atoms: C15_33  and  C16_35 
REMARK   10  A    between atoms: C17_36  and  O9_37 
REMARK   11  A    between atoms: C21_41  and  O10_42 
REMARK   12  A    between atoms: C26_49  and  N5_50 
ROOT
HETATM    1  C5  UNL     1      -0.080   2.020  -0.102  1.00  0.00     0.123 C 
HETATM    2  C6  UNL     1       0.156   3.407  -0.658  1.00  0.00     0.030 C 
HETATM    3  C7  UNL     1       0.687   4.355   0.387  1.00  0.00     0.029 C 
HETATM    4  C8  UNL     1      -0.022   5.682   0.419  1.00  0.00     0.233 C 
HETATM    5  N3  UNL     1      -1.341   5.616  -0.166  1.00  0.00    -0.067 N 
ATOM      6  H31 UNL     1      -1.756   4.694  -0.032  1.00  0.00     0.277 HD
ATOM      7  H32 UNL     1      -1.291   5.627  -1.185  1.00  0.00     0.277 HD
HETATM    8  C9  UNL     1      -2.213   6.651   0.321  1.00  0.00     0.334 C 
HETATM    9  C10 UNL     1      -3.536   6.180   0.776  1.00  0.00     0.243 C 
HETATM   10  O5  UNL     1      -4.197   6.961   1.537  1.00  0.00    -0.272 OA
HETATM   11  N4  UNL     1      -4.138   4.944   0.444  1.00  0.00    -0.350 N 
ATOM     12  H4  UNL     1      -5.114   4.964   0.148  1.00  0.00     0.163 HD
HETATM   13  C11 UNL     1      -3.483   3.651   0.490  1.00  0.00     0.233 C 
HETATM   14  C12 UNL     1      -3.272   3.110  -0.883  1.00  0.00     0.277 C 
HETATM   15  O6  UNL     1      -4.082   3.508  -1.756  1.00  0.00    -0.263 OA
HETATM   16  O7  UNL     1      -2.239   2.214  -1.189  1.00  0.00    -0.306 OA
HETATM   17  C13 UNL     1      -1.480   1.540  -0.199  1.00  0.00     0.214 C 
ENDROOT
BRANCH   1  18
HETATM   18  N2  UNL     1       0.865   1.110  -0.715  1.00  0.00    -0.328 N 
HETATM   19  C4  UNL     1       1.855   0.436   0.012  1.00  0.00     0.383 C 
HETATM   20  O4  UNL     1       1.951   0.613   1.270  1.00  0.00    -0.236 OA
ATOM     21  H2  UNL     1       0.807   0.953  -1.721  1.00  0.00     0.165 HD
BRANCH  19  22
HETATM   22  O3  UNL     1       2.745  -0.429  -0.600  1.00  0.00    -0.180 OA
BRANCH  22  23
HETATM   23  N1  UNL     1       3.666  -1.056   0.071  1.00  0.00    -0.248 N 
HETATM   24  C3  UNL     1       4.606  -1.877  -0.110  1.00  0.00     0.157 C 
ATOM     25  H1  UNL     1       3.610  -0.803   1.058  1.00  0.00     0.195 HD
BRANCH  24  26
HETATM   26  C2  UNL     1       5.352  -2.246   1.098  1.00  0.00     0.313 C 
HETATM   27  O2  UNL     1       6.306  -3.027   1.180  1.00  0.00    -0.257 OA
BRANCH  26  28
HETATM   28  O1  UNL     1       4.914  -1.626   2.304  1.00  0.00    -0.321 OA
HETATM   29  C1  UNL     1       5.623  -1.963   3.513  1.00  0.00     0.213 C 
ENDBRANCH  26  28
ENDBRANCH  24  26
BRANCH  24  30
HETATM   30  C24 UNL     1       4.948  -2.452  -1.450  1.00  0.00     0.075 A 
HETATM   31  C25 UNL     1       4.167  -2.100  -2.534  1.00  0.00     0.085 A 
HETATM   32  S1  UNL     1       4.911  -2.951  -3.816  1.00  0.00    -0.064 SA
HETATM   33  C26 UNL     1       6.151  -3.697  -2.926  1.00  0.00     0.142 A 
HETATM   34  N6  UNL     1       5.940  -3.259  -1.683  1.00  0.00    -0.335 N 
ATOM     35  H6  UNL     1       6.552  -3.555  -0.922  1.00  0.00     0.168 HD
BRANCH  33  36
HETATM   36  N5  UNL     1       7.099  -4.511  -3.344  1.00  0.00    -0.380 N 
ATOM     37  H52 UNL     1       7.260  -4.846  -4.294  1.00  0.00     0.158 HD
ATOM     38  H51 UNL     1       7.843  -4.959  -2.810  1.00  0.00     0.158 HD
ENDBRANCH  33  36
ENDBRANCH  24  30
ENDBRANCH  22  23
ENDBRANCH  19  22
ENDBRANCH   1  18
BRANCH  17  39
HETATM   39  C14 UNL     1      -1.628   0.094  -0.471  1.00  0.00     0.114 C 
HETATM   40  C15 UNL     1      -2.169  -0.698   0.416  1.00  0.00     0.164 C 
HETATM   41  F1  UNL     1      -2.584  -0.125   1.605  1.00  0.00    -0.202 F 
BRANCH  39  42
HETATM   42  O8  UNL     1      -1.180  -0.395  -1.680  1.00  0.00    -0.359 OA
ATOM     43  H8  UNL     1      -1.275  -1.324  -1.855  1.00  0.00     0.217 HD
ENDBRANCH  39  42
BRANCH  40  44
HETATM   44  C16 UNL     1      -2.429  -2.117   0.306  1.00  0.00     0.080 A 
HETATM   45  C17 UNL     1      -3.084  -2.636  -0.773  1.00  0.00     0.084 A 
HETATM   46  C19 UNL     1      -3.275  -4.023  -0.835  1.00  0.00     0.040 A 
HETATM   47  C20 UNL     1      -2.815  -4.849   0.168  1.00  0.00     0.043 A 
HETATM   48  C21 UNL     1      -2.154  -4.334   1.261  1.00  0.00     0.107 A 
HETATM   49  C23 UNL     1      -1.967  -2.975   1.321  1.00  0.00     0.165 A 
HETATM   50  F2  UNL     1      -1.326  -2.455   2.377  1.00  0.00    -0.202 F 
BRANCH  45  51
HETATM   51  O9  UNL     1      -3.547  -1.808  -1.771  1.00  0.00    -0.355 OA
HETATM   52  C18 UNL     1      -4.220  -2.392  -2.869  1.00  0.00     0.210 C 
ENDBRANCH  45  51
BRANCH  48  53
HETATM   53  O10 UNL     1      -1.681  -5.171   2.291  1.00  0.00    -0.353 OA
HETATM   54  C22 UNL     1      -1.895  -6.565   2.189  1.00  0.00     0.210 C 
ENDBRANCH  48  53
ENDBRANCH  40  44
ENDBRANCH  17  39
TORSDOF 12
