REMARK  8 active torsions:
REMARK  status: ('A' for Active; 'I' for Inactive)
REMARK    1  A    between atoms: O1_2  and  S1_3 
REMARK    2  A    between atoms: S1_3  and  N1_6 
REMARK    3  A    between atoms: N1_6  and  C2_8 
REMARK    4  A    between atoms: C2_8  and  C3_9 
REMARK    5  A    between atoms: C3_9  and  N2_10 
REMARK    6  A    between atoms: C10_21  and  C12_23 
REMARK    7  A    between atoms: C15_34  and  N10_35 
REMARK    8  A    between atoms: C15_34  and  O4_39 
ROOT
HETATM    1  N2  UNL     1      -0.228   0.556   0.182  1.00  0.00    -0.365 N 
HETATM    2  C4  UNL     1      -0.636   1.261   1.366  1.00  0.00     0.126 C 
HETATM    3  C5  UNL     1      -1.946   1.997   1.202  1.00  0.00     0.039 C 
HETATM    4  C6  UNL     1      -1.832   3.486   1.383  1.00  0.00     0.115 C 
HETATM    5  N3  UNL     1      -2.250   4.153   0.199  1.00  0.00    -0.420 N 
ATOM      6  H3  UNL     1      -2.972   4.874   0.202  1.00  0.00     0.153 HD
HETATM    7  C7  UNL     1      -1.588   3.741  -0.991  1.00  0.00     0.133 C 
HETATM    8  C8  UNL     1      -0.126   3.533  -0.814  1.00  0.00     0.140 C 
HETATM    9  N4  UNL     1       0.285   2.308  -1.519  1.00  0.00    -0.374 N 
ATOM     10  H4  UNL     1       0.316   2.329  -2.538  1.00  0.00     0.161 HD
HETATM   11  C9  UNL     1       0.649   1.071  -0.849  1.00  0.00     0.107 C 
HETATM   12  C10 UNL     1       1.792   0.532  -1.159  1.00  0.00     0.011 C 
HETATM   13  C11 UNL     1       2.584   1.171  -2.285  1.00  0.00     0.054 C 
ENDROOT
BRANCH   1  14
HETATM   14  C3  UNL     1      -0.787  -0.798   0.005  1.00  0.00     0.145 C 
BRANCH  14  15
HETATM   15  C2  UNL     1      -2.275  -0.800  -0.261  1.00  0.00     0.154 C 
BRANCH  15  16
HETATM   16  N1  UNL     1      -2.762  -2.156  -0.477  1.00  0.00    -0.295 N 
ATOM     17  H1  UNL     1      -2.200  -3.007  -0.458  1.00  0.00     0.174 HD
BRANCH  16  18
HETATM   18  S1  UNL     1      -4.464  -2.066  -0.772  1.00  0.00     0.357 S 
HETATM   19  O2  UNL     1      -4.799  -3.232  -1.687  1.00  0.00    -0.176 OA
HETATM   20  O3  UNL     1      -4.808  -0.818  -1.551  1.00  0.00    -0.176 OA
BRANCH  18  21
HETATM   21  O1  UNL     1      -5.349  -2.179   0.632  1.00  0.00    -0.265 OA
HETATM   22  C1  UNL     1      -5.799  -3.510   0.750  1.00  0.00     0.227 C 
ENDBRANCH  18  21
ENDBRANCH  16  18
ENDBRANCH  15  16
ENDBRANCH  14  15
ENDBRANCH   1  14
BRANCH  12  23
HETATM   23  C12 UNL     1       2.583  -0.467  -0.431  1.00  0.00     0.106 A 
HETATM   24  N5  UNL     1       2.146  -0.793   0.717  1.00  0.00    -0.328 N 
HETATM   25  C13 UNL     1       2.445  -1.622   1.793  1.00  0.00     0.195 A 
ATOM     26  H5  UNL     1       1.291  -0.273   0.915  1.00  0.00     0.168 HD
HETATM   27  N6  UNL     1       1.593  -1.566   2.954  1.00  0.00    -0.063 NA
HETATM   28  N7  UNL     1       3.436  -2.444   1.838  1.00  0.00    -0.305 N 
HETATM   29  C14 UNL     1       4.418  -2.670   0.807  1.00  0.00     0.194 A 
ATOM     30  H7  UNL     1       3.536  -2.992   2.692  1.00  0.00     0.171 HD
HETATM   31  N8  UNL     1       5.397  -3.663   1.083  1.00  0.00    -0.063 NA
HETATM   32  N9  UNL     1       4.437  -2.043  -0.287  1.00  0.00    -0.304 N 
HETATM   33  C15 UNL     1       3.784  -1.040  -1.051  1.00  0.00     0.349 A 
ATOM     34  H9  UNL     1       5.225  -2.390  -0.834  1.00  0.00     0.167 HD
BRANCH  33  35
HETATM   35  N10 UNL     1       4.840  -0.057  -1.309  1.00  0.00    -0.021 N 
ATOM     36 3H10 UNL     1       4.482   0.718  -1.867  1.00  0.00     0.280 HD
ATOM     37 2H10 UNL     1       5.081   0.445  -0.454  1.00  0.00     0.280 HD
ATOM     38 1H10 UNL     1       5.674  -0.455  -1.740  1.00  0.00     0.280 HD
ENDBRANCH  33  35
BRANCH  33  39
HETATM   39  O4  UNL     1       3.440  -1.721  -2.263  1.00  0.00    -0.344 OA
ATOM     40  H4  UNL     1       4.217  -2.092  -2.664  1.00  0.00     0.214 HD
ENDBRANCH  33  39
ENDBRANCH  12  23
TORSDOF 8
