REMARK  8 active torsions:
REMARK  status: ('A' for Active; 'I' for Inactive)
REMARK    1  A    between atoms: C6_13  and  N5_14 
REMARK    2  A    between atoms: N5_14  and  N6_16 
REMARK    3  A    between atoms: C8_22  and  N8_23 
REMARK    4  A    between atoms: N8_23  and  C9_25 
REMARK    5  A    between atoms: C9_25  and  C10_26 
REMARK    6  A    between atoms: C10_26  and  N9_27 
REMARK    7  A    between atoms: C13_34  and  N10_35 
REMARK    8  A    between atoms: N10_35  and  C14_37 
ROOT
HETATM    1  C1  UNL     1       0.243   1.829  -1.804  1.00  0.00     0.160 C 
HETATM    2  N1  UNL     1       0.795   1.025  -0.747  1.00  0.00    -0.312 N 
HETATM    3  C2  UNL     1      -0.059   0.186  -0.129  1.00  0.00     0.112 C 
HETATM    4  C3  UNL     1      -1.381   0.674   0.182  1.00  0.00     0.137 A 
HETATM    5  N2  UNL     1      -2.429  -0.093   0.579  1.00  0.00    -0.325 N 
ATOM      6  H2  UNL     1      -2.378  -1.102   0.717  1.00  0.00     0.169 HD
HETATM    7  C4  UNL     1      -3.531   0.630   0.766  1.00  0.00     0.139 A 
HETATM    8  N3  UNL     1      -4.809   0.345   1.153  1.00  0.00    -0.337 N 
ATOM      9  H3  UNL     1      -5.075  -0.616   1.370  1.00  0.00     0.168 HD
HETATM   10  C5  UNL     1      -5.716   1.333   1.248  1.00  0.00     0.183 A 
HETATM   11  N4  UNL     1      -5.382   2.605   0.966  1.00  0.00    -0.336 N 
ATOM     12  H4  UNL     1      -6.088   3.337   1.045  1.00  0.00     0.168 HD
HETATM   13  C6  UNL     1      -4.126   2.931   0.579  1.00  0.00     0.151 A 
HETATM   14  C7  UNL     1      -3.171   1.920   0.475  1.00  0.00     0.124 A 
HETATM   15  N7  UNL     1      -1.875   1.906   0.129  1.00  0.00    -0.334 N 
ATOM     16  H7  UNL     1      -1.340   2.732  -0.139  1.00  0.00     0.168 HD
HETATM   17  C8  UNL     1       0.226  -1.151   0.222  1.00  0.00     0.110 C 
HETATM   18  C11 UNL     1       1.508  -1.648   0.507  1.00  0.00     0.203 C 
HETATM   19  O1  UNL     1       1.604  -2.866   0.687  1.00  0.00    -0.286 OA
HETATM   20  C12 UNL     1       2.691  -0.904   0.610  1.00  0.00     0.092 C 
HETATM   21  C13 UNL     1       3.039   0.227  -0.074  1.00  0.00     0.105 C 
HETATM   22  C18 UNL     1       2.118   1.189  -0.519  1.00  0.00     0.274 C 
HETATM   23  O2  UNL     1       2.580   2.326  -0.727  1.00  0.00    -0.265 OA
ENDROOT
BRANCH  17  24
HETATM   24  N8  UNL     1      -0.845  -2.050   0.306  1.00  0.00    -0.383 N 
ATOM     25  H8  UNL     1      -1.289  -2.190   1.214  1.00  0.00     0.159 HD
BRANCH  24  26
HETATM   26  C9  UNL     1      -1.358  -2.795  -0.834  1.00  0.00     0.147 C 
BRANCH  26  27
HETATM   27  C10 UNL     1      -2.475  -3.717  -0.446  1.00  0.00     0.249 C 
BRANCH  27  28
HETATM   28  N9  UNL     1      -3.007  -4.466  -1.537  1.00  0.00    -0.078 N 
ATOM     29  H93 UNL     1      -3.299  -3.845  -2.291  1.00  0.00     0.274 HD
ATOM     30  H92 UNL     1      -2.267  -4.979  -2.016  1.00  0.00     0.274 HD
ATOM     31  H91 UNL     1      -3.767  -5.093  -1.273  1.00  0.00     0.274 HD
ENDBRANCH  27  28
ENDBRANCH  26  27
ENDBRANCH  24  26
ENDBRANCH  17  24
BRANCH  21  32
HETATM   32  N10 UNL     1       4.393   0.482  -0.325  1.00  0.00    -0.349 N 
ATOM     33  H10 UNL     1       4.611   1.406  -0.697  1.00  0.00     0.166 HD
BRANCH  32  34
HETATM   34  C14 UNL     1       5.488  -0.375  -0.129  1.00  0.00     0.063 A 
HETATM   35  C15 UNL     1       5.442  -1.733  -0.244  1.00  0.00     0.119 A 
HETATM   36  N11 UNL     1       6.519  -2.480  -0.017  1.00  0.00    -0.360 N 
HETATM   37  C16 UNL     1       7.679  -1.878   0.333  1.00  0.00     0.180 A 
ATOM     38  H11 UNL     1       6.471  -3.495  -0.106  1.00  0.00     0.166 HD
HETATM   39  N12 UNL     1       7.758  -0.540   0.455  1.00  0.00    -0.360 N 
HETATM   40  C17 UNL     1       6.703   0.235   0.236  1.00  0.00     0.119 A 
ATOM     41  H12 UNL     1       8.646  -0.113   0.721  1.00  0.00     0.166 HD
ENDBRANCH  32  34
ENDBRANCH  21  32
BRANCH  13  42
HETATM   42  N5  UNL     1      -3.764   4.119   0.303  1.00  0.00    -0.290 N 
ATOM     43  H5  UNL     1      -2.793   4.256   0.022  1.00  0.00     0.188 HD
BRANCH  42  44
HETATM   44  N6  UNL     1      -4.567   5.237   0.350  1.00  0.00    -0.344 N 
ATOM     45  H62 UNL     1      -5.534   5.081   0.633  1.00  0.00     0.176 HD
ATOM     46  H61 UNL     1      -4.277   6.189   0.129  1.00  0.00     0.176 HD
ENDBRANCH  42  44
ENDBRANCH  13  42
TORSDOF 8
