REMARK  9 active torsions:
REMARK  status: ('A' for Active; 'I' for Inactive)
REMARK    1  A    between atoms: C2_2  and  O1_4 
REMARK    2  A    between atoms: C2_2  and  C4_6 
REMARK    3  A    between atoms: C4_6  and  C12_30 
REMARK    4  A    between atoms: N1_7  and  N2_9 
REMARK    5  A    between atoms: C8_19  and  C9_20 
REMARK       I    between atoms: C9_20  and  N6_22 
REMARK    6  A    between atoms: N6_22  and  C10_24 
REMARK    7  A    between atoms: C10_24  and  C11_25 
REMARK    8  A    between atoms: C11_25  and  O3_26 
REMARK    9  A    between atoms: N10_37  and  O4_39 
ROOT
HETATM    1  N2  UNL     1       0.329  -0.617   0.975  1.00  0.00    -0.132 N 
ATOM      2  H2  UNL     1       0.498  -0.312   1.934  1.00  0.00     0.205 HD
HETATM    3  C5  UNL     1       1.356  -0.820   0.220  1.00  0.00     0.700 A 
HETATM    4  N3  UNL     1       1.207  -1.223  -1.050  1.00  0.00    -0.165 N 
ATOM      5  H3  UNL     1       0.265  -1.368  -1.414  1.00  0.00     0.186 HD
HETATM    6  C6  UNL     1       2.259  -1.443  -1.860  1.00  0.00     0.204 A 
HETATM    7  C7  UNL     1       1.991  -1.876  -3.215  1.00  0.00     0.137 C 
HETATM    8  N4  UNL     1       1.778  -2.213  -4.307  1.00  0.00    -0.188 NA
HETATM    9  N5  UNL     1       3.487  -1.255  -1.387  1.00  0.00    -0.314 N 
ATOM     10  H5  UNL     1       4.292  -1.417  -1.991  1.00  0.00     0.170 HD
HETATM   11  C8  UNL     1       3.678  -0.848  -0.104  1.00  0.00     0.191 A 
HETATM   12  N7  UNL     1       2.603  -0.638   0.675  1.00  0.00    -0.169 N 
ATOM     13  H7  UNL     1       2.740  -0.332   1.638  1.00  0.00     0.186 HD
ENDROOT
BRANCH  11  14
HETATM   14  C9  UNL     1       5.040  -0.656   0.367  1.00  0.00     0.286 C 
HETATM   15  O2  UNL     1       5.205  -0.279   1.552  1.00  0.00    -0.264 OA
HETATM   16  N6  UNL     1       6.150  -0.884  -0.473  1.00  0.00    -0.352 N 
ATOM     17  H6  UNL     1       5.970  -1.191  -1.429  1.00  0.00     0.162 HD
BRANCH  16  18
HETATM   18  C10 UNL     1       7.521  -0.712  -0.069  1.00  0.00     0.149 C 
BRANCH  18  19
HETATM   19  C11 UNL     1       7.791   0.706   0.353  1.00  0.00     0.183 C 
BRANCH  19  20
HETATM   20  O3  UNL     1       7.527   1.567  -0.726  1.00  0.00    -0.399 OA
ATOM     21  H3  UNL     1       7.698   2.463  -0.459  1.00  0.00     0.209 HD
ENDBRANCH  19  20
ENDBRANCH  18  19
ENDBRANCH  16  18
ENDBRANCH  11  14
BRANCH   1  22
HETATM   22  N1  UNL     1      -0.972  -0.782   0.579  1.00  0.00    -0.285 N 
HETATM   23  C4  UNL     1      -1.932   0.042   0.685  1.00  0.00     0.093 C 
ATOM     24  H1  UNL     1      -1.197  -1.677   0.145  1.00  0.00     0.187 HD
BRANCH  23  25
HETATM   25  C2  UNL     1      -1.896   1.392   1.262  1.00  0.00     0.097 C 
HETATM   26  C1  UNL     1      -2.286   2.456   0.265  1.00  0.00     0.052 C 
HETATM   27  C3  UNL     1      -0.607   1.771   1.915  1.00  0.00     0.052 C 
BRANCH  25  28
HETATM   28  O1  UNL     1      -2.884   1.434   2.273  1.00  0.00    -0.384 OA
ATOM     29  H1  UNL     1      -2.639   0.764   2.901  1.00  0.00     0.211 HD
ENDBRANCH  25  28
ENDBRANCH  23  25
BRANCH  23  30
HETATM   30  C12 UNL     1      -3.240  -0.420   0.162  1.00  0.00     0.105 A 
HETATM   31  N8  UNL     1      -4.393   0.221   0.142  1.00  0.00    -0.332 N 
HETATM   32  C13 UNL     1      -5.444  -0.347  -0.361  1.00  0.00     0.156 A 
ATOM     33  H8  UNL     1      -4.457   1.165   0.523  1.00  0.00     0.168 HD
HETATM   34  N9  UNL     1      -6.766  -0.041  -0.564  1.00  0.00    -0.172 N 
HETATM   35  C15 UNL     1      -5.312  -1.614  -0.861  1.00  0.00     0.137 A 
HETATM   36  C14 UNL     1      -7.389  -1.070  -1.154  1.00  0.00     0.704 A 
ATOM     37  H9  UNL     1      -7.209   0.840  -0.304  1.00  0.00     0.186 HD
HETATM   38  N10 UNL     1      -8.662  -1.089  -1.481  1.00  0.00    -0.098 N 
HETATM   39  N11 UNL     1      -6.505  -2.062  -1.350  1.00  0.00    -0.180 N 
ATOM     40  H10 UNL     1      -9.062  -1.914  -1.928  1.00  0.00     0.213 HD
ATOM     41  H11 UNL     1      -6.689  -2.969  -1.779  1.00  0.00     0.185 HD
HETATM   42  S1  UNL     1      -3.649  -1.911  -0.569  1.00  0.00    -0.048 SA
BRANCH  38  43
HETATM   43  O4  UNL     1      -9.453   0.002  -1.221  1.00  0.00    -0.276 OA
ATOM     44  H4  UNL     1     -10.373  -0.012  -1.457  1.00  0.00     0.245 HD
ENDBRANCH  38  43
ENDBRANCH  23  30
ENDBRANCH   1  22
TORSDOF 9
