REMARK  3 active torsions:
REMARK  status: ('A' for Active; 'I' for Inactive)
REMARK    1  A    between atoms: C2_2  and  C3_3 
REMARK    2  A    between atoms: C4_5  and  O2_6 
REMARK    3  A    between atoms: O2_6  and  C5_7 
REMARK       I    between atoms: C5_7  and  N1_9 
REMARK       I    between atoms: N1_9  and  C6_11 
ROOT
HETATM    1  C5  UNL     1       0.760   0.174   0.714  1.00  0.00     0.371 C 
HETATM    2  O3  UNL     1       0.775   0.842  -0.352  1.00  0.00    -0.238 OA
HETATM    3  N1  UNL     1       1.923  -0.504   1.160  1.00  0.00    -0.277 N 
ATOM      4  H1  UNL     1       1.904  -1.044   2.025  1.00  0.00     0.173 HD
HETATM    5  C6  UNL     1       3.115  -0.425   0.392  1.00  0.00     0.190 C 
HETATM    6  N2  UNL     1       4.199  -1.030   0.765  1.00  0.00    -0.373 N 
ATOM      7  H21 UNL     1       5.055  -0.973   0.213  1.00  0.00     0.158 HD
ATOM      8  H22 UNL     1       4.167  -1.567   1.632  1.00  0.00     0.158 HD
HETATM    9  N3  UNL     1       3.159   0.323  -0.816  1.00  0.00    -0.064 NA
ENDROOT
BRANCH   1  10
HETATM   10  O2  UNL     1      -0.442   0.148   1.402  1.00  0.00    -0.273 OA
BRANCH  10  11
HETATM   11  C4  UNL     1      -1.586   0.812   0.968  1.00  0.00     0.157 C 
HETATM   12  C2  UNL     1      -2.486   0.289   0.189  1.00  0.00    -0.002 C 
HETATM   13  C1  UNL     1      -2.349  -1.106  -0.312  1.00  0.00     0.053 C 
BRANCH  12  14
HETATM   14  C3  UNL     1      -3.648   1.054  -0.214  1.00  0.00     0.267 C 
HETATM   15  O1  UNL     1      -3.783   2.228   0.195  1.00  0.00    -0.302 OA
ENDBRANCH  12  14
ENDBRANCH  10  11
ENDBRANCH   1  10
TORSDOF 3
